data_PCOD8083845
_publ_section_title
;
Structure prediction by ZEFSAII (Michael W. Deem and Ramdas Pophale) SiO2 
 PCOD8083845
Probable space group: C 2/M
;
_chemical_formula_sum "Si O2"
_cell_formula_units_Z 64
_cell_length_a 15.057297
_cell_length_b 15.813964
_cell_length_c 14.867157
_cell_angle_alpha 90.000000
_cell_angle_beta 62.092293
_cell_angle_gamma 90.000000
_cell_volume 3128.397010
_symmetry_space_group_name_H-M "C 2/M"
_symmetry_group_IT_number 12
_symmetry_cell_setting 'monoclinic'
loop_
_space_group_symop_operation_xyz
x,y,z
-x,y,-z
-x,-y,-z
x,-y,z
1/2+x,1/2+y,z
1/2-x,1/2+y,-z
1/2-x,1/2-y,-z
1/2+x,1/2-y,z
loop_
_atom_site_type_symbol
_atom_site_label
_atom_site_fract_x
_atom_site_fract_y
_atom_site_fract_z
Si Si1 0.343995 0.899482 0.428540
Si Si2 0.744837 0.100518 0.344612
Si Si3 0.817190 0.593290 0.249150
Si Si4 0.569873 0.099755 0.294001
Si Si5 0.293234 0.898574 0.068749
Si Si6 0.525376 0.155850 0.128557
Si Si7 0.127833 0.903900 0.008775
Si Si8 0.424861 0.336518 0.150137
O O1 0.279543 0.866231 0.543170
O O2 0.299972 0.860591 0.354451
O O3 0.460941 0.875090 0.385991
O O4 0.336786 0.000000 0.425484
O O5 0.654524 0.130513 0.323231
O O6 0.849430 0.142917 0.266746
O O7 0.756022 0.000000 0.336842
O O8 0.771361 0.500000 0.277725
O O9 0.769714 0.636351 0.181748
O O10 0.937651 0.585887 0.175851
O O11 0.588863 0.149005 0.191181
O O12 0.579312 0.000000 0.272179
O O13 0.206063 0.866483 0.043955
O O14 0.299722 0.000000 0.066252
O O15 0.400408 0.860243 0.989553
O O16 0.470332 0.244750 0.142325
O O17 0.016985 0.902904 0.105292
O O18 0.155814 0.000000 0.968961
O O19 0.133614 0.845160 0.917477
#
# Coordination Sequence:
#
# PCOD8083845 Si02
#       8
#     8   8   8   8   8   8   8   8
#     4   8  15  29  54  87 113 134 174 232 277 312
#     4  10  18  33  59  84 107 142 187 225 270 322
#     4   9  18  33  53  80 112 141 173 221 273 322
#     4   9  17  32  55  84 115 141 174 226 273 315
#     4  10  20  35  59  81 103 142 184 223 271 323
#     4  11  21  32  49  81 114 143 176 212 270 334
#     4  10  22  41  58  75 103 139 186 235 271 313
#     4  11  23  35  51  80 109 147 178 217 274 325
#
# _framework density 20.457761000000001
#
# number of rings (size 3 to 8) (size 9 to 14) (size 15 to 20)
#    0.000    2.250    0.000    4.875    3.500    5.000 
#    2.250    2.500    0.000    0.750    0.000    4.375 
#    0.000    0.000    0.000    0.000    0.000    1.000 
#
# Total GULP energy -396572.413617 kJ/mol
# GULP energy per Si atom -12392.887926 kJ/mol
# Density = 2.041120 g / cm^3
# Si number density = 20.457761 Si / 1000 Ang^3
#
#
#
# Elastic Constant Matrix: (Units=GPa)
#
#
# Indices 1 2 3 4 5 6 
#
# 1 96.0651 18.0835 58.7165 0.0000 25.6931 0.0000
# 2 18.0835 42.2500 25.3815 0.0000 9.5692 0.0000
# 3 58.7165 25.3815 159.0624 0.0000 18.7927 0.0000
# 4 0.0000 0.0000 0.0000 13.7623 0.0000 -8.0359
# 5 25.6931 9.5692 18.7927 0.0000 36.4735 0.0000
# 6 0.0000 0.0000 0.0000 -8.0359 0.0000 17.1591
#
#
#
# Elastic Compliance Matrix: (Units=1/GPa)
#
#
# Indices 1 2 3 4 5 6 
#
# 1 0.015770 -0.002184 -0.004502 0.000000 -0.008216 0.000000
# 2 -0.002184 0.027374 -0.003083 0.000000 -0.004055 0.000000
# 3 -0.004502 -0.003083 0.008487 0.000000 -0.000393 0.000000
# 4 0.000000 0.000000 0.000000 0.100011 0.000000 0.046837
# 5 -0.008216 -0.004055 -0.000393 0.000000 0.034471 0.000000
# 6 0.000000 0.000000 0.000000 0.046837 0.000000 0.080213
#
#
# Mechanical properties :
#
#
# Convention : Reuss Voigt Hill
#
# Bulk Modulus (GPa) = 31.15964 55.74894 43.45429
# Shear Modulus (GPa) = 16.85993 26.49205 21.67599
#
# Velocity S-wave (km/s) = 2.87389 3.60246 3.25860
# Velocity P-wave (km/s) = 5.12607 6.67934 5.95358
#
# Compressibility (1/GPa) = 0.03209280
#
# Stress axis : x y z
#
# Youngs Moduli (GPa) = 63.41157 36.53132 117.82667
#
# Poissons Ratio (x) = 0.07979 0.53047
# Poissons Ratio (y) = 0.13851 0.36322
# Poissons Ratio (z) = 0.28549 0.11261
#
# Static dielectric constant tensor:
#      x y z
#    x 3.837120 0.000000 0.272050 
#    y 0.000000 3.311460 0.000000 
#    z 0.272050 0.000000 4.033310 
# 
# 
# High freq. dielectric constant tensor:
#      x y z
#    x 1.793780 0.000000 0.018890 
#    y 0.000000 1.764340 0.000000 
#    z 0.018890 0.000000 1.799560 
# 
# From -- ./inp_files/216353.got.cif
#   From: 2010.06.25/outbox.cif.g09.slc.cpg/sg12_109_cif.got.tgz:216353.got - 2010.06.28 00:19:55.
