data_PCOD8083093
_publ_section_title
;
Structure prediction by ZEFSAII (Michael W. Deem and Ramdas Pophale) SiO2 
 PCOD8083093
Probable space group: C 2/M
;
_chemical_formula_sum "Si O2"
_cell_formula_units_Z 64
_cell_length_a 8.797888
_cell_length_b 29.229227
_cell_length_c 14.343840
_cell_angle_alpha 90.000000
_cell_angle_beta 57.328526
_cell_angle_gamma 90.000000
_cell_volume 3104.985761
_symmetry_space_group_name_H-M "C 2/M"
_symmetry_group_IT_number 12
_symmetry_cell_setting 'monoclinic'
loop_
_space_group_symop_operation_xyz
x,y,z
-x,y,-z
-x,-y,-z
x,-y,z
1/2+x,1/2+y,z
1/2-x,1/2+y,-z
1/2-x,1/2-y,-z
1/2+x,1/2-y,z
loop_
_atom_site_type_symbol
_atom_site_label
_atom_site_fract_x
_atom_site_fract_y
_atom_site_fract_z
Si Si1 0.386257 0.356220 0.941918
Si Si2 0.797523 0.946824 0.545904
Si Si3 0.583076 0.312985 0.701833
Si Si4 0.442583 0.906579 0.747432
Si Si5 0.805928 0.603367 0.594364
Si Si6 0.761669 0.241896 0.759928
Si Si7 0.908657 0.311088 0.855514
Si Si8 0.192950 0.049750 0.982495
O O1 0.498903 0.332822 0.824595
O O2 0.500000 0.358456 0.000000
O O3 0.324792 0.408604 0.936676
O O4 0.207313 0.326440 0.017105
O O5 0.649017 0.921540 0.659478
O O6 0.756410 0.938560 0.450085
O O7 0.000000 0.928959 0.500000
O O8 0.780974 0.000000 0.573279
O O9 0.673740 0.354345 0.617321
O O10 0.728955 0.274169 0.681178
O O11 0.433810 0.290660 0.683848
O O12 0.313822 0.912412 0.699192
O O13 0.447088 0.853395 0.773647
O O14 0.350524 0.937569 0.856697
O O15 0.000000 0.621785 0.500000
O O16 0.592565 0.209179 0.835147
O O17 0.797477 0.271936 0.839380
O O18 0.244363 0.000000 0.010607
O O19 0.000000 0.043809 0.000000
#
# Coordination Sequence:
#
# PCOD8083093 Si02
#       8
#     8   8   8   8   8   8   8   8
#     4  10  18  32  53  78 118 148 185 230 280 328
#     4  10  23  40  62  88 111 143 189 235 284 340
#     4  11  21  38  54  83 112 150 185 237 279 324
#     4  10  19  36  60  84 119 147 186 234 282 332
#     4  10  21  38  60  82 115 144 184 233 285 330
#     4  10  22  34  58  78 117 144 197 228 274 336
#     4  10  20  35  53  87 113 154 184 229 279 329
#     4   9  17  29  51  85 115 148 184 222 275 338
#
# _framework density 20.612012
#
# number of rings (size 3 to 8) (size 9 to 14) (size 15 to 20)
#    0.000    2.000    2.500    1.875    1.750    6.250 
#    0.000    1.250    0.000    0.000    0.000    1.750 
#    0.000    0.000    0.000    0.000    0.000    0.000 
#
# Total GULP energy -396662.215237 kJ/mol
# GULP energy per Si atom -12395.694226 kJ/mol
# Density = 2.056510 g / cm^3
# Si number density = 20.612012 Si / 1000 Ang^3
#
#
#
# Elastic Constant Matrix: (Units=GPa)
#
#
# Indices 1 2 3 4 5 6 
#
# 1 97.4423 34.7811 26.9177 0.0000 -23.5896 0.0000
# 2 34.7811 90.9091 18.4507 0.0000 -12.6937 0.0000
# 3 26.9177 18.4507 56.6950 0.0000 -14.0255 0.0000
# 4 0.0000 0.0000 0.0000 69.1183 0.0000 -7.3258
# 5 -23.5896 -12.6937 -14.0255 0.0000 26.3276 0.0000
# 6 0.0000 0.0000 0.0000 -7.3258 0.0000 25.4109
#
#
#
# Elastic Compliance Matrix: (Units=1/GPa)
#
#
# Indices 1 2 3 4 5 6 
#
# 1 0.014871 -0.003626 -0.003474 0.000000 0.009725 0.000000
# 2 -0.003626 0.013077 -0.002048 0.000000 0.001965 0.000000
# 3 -0.003474 -0.002048 0.021815 0.000000 0.007521 0.000000
# 4 0.000000 0.000000 0.000000 0.014924 0.000000 0.004303
# 5 0.009725 0.001965 0.007521 0.000000 0.051651 0.000000
# 6 0.000000 0.000000 0.000000 0.004303 0.000000 0.040594
#
#
# Mechanical properties :
#
#
# Convention : Reuss Voigt Hill
#
# Bulk Modulus (GPa) = 31.78082 45.03838 38.40960
# Shear Modulus (GPa) = 26.92251 35.16447 31.04349
#
# Velocity S-wave (km/s) = 3.61800 4.13488 3.88504
# Velocity P-wave (km/s) = 5.73631 6.68538 6.22895
#
# Compressibility (1/GPa) = 0.03146552
#
# Stress axis : x y z
#
# Youngs Moduli (GPa) = 67.24487 76.46736 45.84013
#
# Poissons Ratio (x) = 0.27731 0.15927
# Poissons Ratio (y) = 0.24386 0.09388
# Poissons Ratio (z) = 0.23364 0.15661
#
# Static dielectric constant tensor:
#      x y z
#    x 3.737330 0.000000 -0.320530 
#    y 0.000000 4.219070 0.000000 
#    z -0.320530 0.000000 3.578250 
# 
# 
# High freq. dielectric constant tensor:
#      x y z
#    x 1.791620 0.000000 -0.029430 
#    y 0.000000 1.822800 0.000000 
#    z -0.029430 0.000000 1.784640 
# 
# From -- ./inp_files/201304.got.cif
#   From: 2010.06.25/outbox.cif.g09.slc.cpg/sg12_101_cif.got.tgz:201304.got - 2010.06.28 00:19:55.
