data_PCOD8083183
_publ_section_title
;
Structure prediction by ZEFSAII (Michael W. Deem and Ramdas Pophale) SiO2 
 PCOD8083183
Probable space group: C 2/M
;
_chemical_formula_sum "Si O2"
_cell_formula_units_Z 64
_cell_length_a 18.932413
_cell_length_b 8.719812
_cell_length_c 21.415263
_cell_angle_alpha 90.000000
_cell_angle_beta 90.977673
_cell_angle_gamma 90.000000
_cell_volume 3534.868600
_symmetry_space_group_name_H-M "C 2/M"
_symmetry_group_IT_number 12
_symmetry_cell_setting 'monoclinic'
loop_
_space_group_symop_operation_xyz
x,y,z
-x,y,-z
-x,-y,-z
x,-y,z
1/2+x,1/2+y,z
1/2-x,1/2+y,-z
1/2-x,1/2-y,-z
1/2+x,1/2-y,z
loop_
_atom_site_type_symbol
_atom_site_label
_atom_site_fract_x
_atom_site_fract_y
_atom_site_fract_z
Si Si1 0.422138 0.175318 0.913399
Si Si2 0.420222 0.180259 0.117397
Si Si3 0.044811 0.178951 0.753525
Si Si4 0.899459 0.323976 0.771667
Si Si5 0.861933 0.327387 0.344736
Si Si6 0.673921 0.320634 0.986100
Si Si7 0.263537 0.318043 0.432871
Si Si8 0.708961 0.327579 0.316774
O O1 0.504429 0.224086 0.912547
O O2 0.387181 0.196855 0.845127
O O3 0.415048 0.000000 0.936479
O O4 0.380874 0.283895 0.959765
O O5 0.417924 0.234090 0.188771
O O6 0.356662 0.258952 0.079479
O O7 0.408990 0.000000 0.116061
O O8 0.077696 0.232469 0.688760
O O9 0.962316 0.217172 0.748553
O O10 0.056309 0.000000 0.763089
O O11 0.918503 0.500000 0.757009
O O12 0.828711 0.273676 0.736023
O O13 0.888404 0.500000 0.359900
O O14 0.840208 0.241436 0.409068
O O15 0.791959 0.333136 0.299648
O O16 0.683874 0.500000 0.980658
O O17 0.750000 0.250000 0.000000
O O18 0.261532 0.500000 0.434991
O O19 0.250000 0.250000 0.500000
O O20 0.202552 0.254037 0.384866
O O21 0.677404 0.500000 0.319530
#
# Coordination Sequence:
#
# PCOD8083183 Si02
#       8
#     8   8   8   8   8   8   8   8
#     4   9  20  38  58  79 105 139 178 219 269 327
#     4  10  21  39  60  79 105 140 178 220 270 328
#     4  11  21  34  55  82 112 143 180 224 271 323
#     4  10  20  35  56  80 110 145 180 222 272 324
#     4   9  19  34  52  78 110 143 182 223 267 315
#     4  12  25  39  56  79 107 139 178 225 276 325
#     4  10  18  32  54  81 111 145 185 224 268 316
#     4   9  19  33  52  79 109 142 181 224 268 316
#
# _framework density 18.105340000000002
#
# number of rings (size 3 to 8) (size 9 to 14) (size 15 to 20)
#    0.750    1.250    0.000    5.625    0.000    5.500 
#    0.000    2.500    0.000    0.750    0.000    5.250 
#    0.000    0.000    0.000    0.000    0.000    0.000 
#
# Total GULP energy -396727.557623 kJ/mol
# GULP energy per Si atom -12397.736176 kJ/mol
# Density = 1.806413 g / cm^3
# Si number density = 18.105340 Si / 1000 Ang^3
#
#
#
# Elastic Constant Matrix: (Units=GPa)
#
#
# Indices 1 2 3 4 5 6 
#
# 1 28.6986 15.6868 0.4165 0.0000 -5.4555 0.0000
# 2 15.6868 121.2548 23.5512 0.0000 -6.3090 0.0000
# 3 0.4165 23.5512 39.6248 0.0000 -12.2585 0.0000
# 4 0.0000 0.0000 0.0000 34.4446 0.0000 -0.1655
# 5 -5.4555 -6.3090 -12.2585 0.0000 31.8605 0.0000
# 6 0.0000 0.0000 0.0000 -0.1655 0.0000 31.4001
#
#
#
# Elastic Compliance Matrix: (Units=1/GPa)
#
#
# Indices 1 2 3 4 5 6 
#
# 1 0.039360 -0.005736 0.005368 0.000000 0.007669 0.000000
# 2 -0.005736 0.010162 -0.006426 0.000000 -0.001442 0.000000
# 3 0.005368 -0.006426 0.032794 0.000000 0.012264 0.000000
# 4 0.000000 0.000000 0.000000 0.029033 0.000000 0.000153
# 5 0.007669 -0.001442 0.012264 0.000000 0.037133 0.000000
# 6 0.000000 0.000000 0.000000 0.000153 0.000000 0.031848
#
#
# Mechanical properties :
#
#
# Convention : Reuss Voigt Hill
#
# Bulk Modulus (GPa) = 14.54995 29.87634 22.21314
# Shear Modulus (GPa) = 23.05991 29.53593 26.29792
#
# Velocity S-wave (km/s) = 3.57270 4.04336 3.81530
# Velocity P-wave (km/s) = 5.00726 6.19158 5.63064
#
# Compressibility (1/GPa) = 0.06872876
#
# Stress axis : x y z
#
# Youngs Moduli (GPa) = 25.40648 98.40444 30.49372
#
# Poissons Ratio (x) = 0.56440 -0.16368
# Poissons Ratio (y) = 0.14572 0.19595
# Poissons Ratio (z) = -0.13638 0.63233
#
# Static dielectric constant tensor:
#      x y z
#    x 3.174060 0.000000 0.069610 
#    y 0.000000 3.418480 0.000000 
#    z 0.069610 0.000000 3.014660 
# 
# 
# High freq. dielectric constant tensor:
#      x y z
#    x 1.681910 0.000000 -0.002010 
#    y 0.000000 1.718300 0.000000 
#    z -0.002010 0.000000 1.691250 
# 
# From -- ./inp_files/314112.got.cif
#   From: 2010.06.25/outbox.cif.g09.slc.cpg/sg12_158_cif.got.tgz:314112.got - 2010.06.28 00:19:55.
