data_PCOD8083504
_publ_section_title
;
Structure prediction by ZEFSAII (Michael W. Deem and Ramdas Pophale) SiO2 
 PCOD8083504
Probable space group: C 2/M
;
_chemical_formula_sum "Si O2"
_cell_formula_units_Z 56
_cell_length_a 18.206447
_cell_length_b 20.625247
_cell_length_c 12.975986
_cell_angle_alpha 90.000000
_cell_angle_beta 42.525551
_cell_angle_gamma 90.000000
_cell_volume 3293.512654
_symmetry_space_group_name_H-M "C 2/M"
_symmetry_group_IT_number 12
_symmetry_cell_setting 'monoclinic'
loop_
_space_group_symop_operation_xyz
x,y,z
-x,y,-z
-x,-y,-z
x,-y,z
1/2+x,1/2+y,z
1/2-x,1/2+y,-z
1/2-x,1/2-y,-z
1/2+x,1/2-y,z
loop_
_atom_site_type_symbol
_atom_site_label
_atom_site_fract_x
_atom_site_fract_y
_atom_site_fract_z
Si Si1 0.689666 0.075275 0.544985
Si Si2 0.750153 0.242693 0.661110
Si Si3 0.872137 0.573416 0.624937
Si Si4 0.696807 0.196945 0.192211
Si Si5 0.866454 0.825774 0.366176
Si Si6 0.939984 0.652713 0.160148
Si Si7 0.577315 0.261102 0.132368
O O1 0.662803 0.091639 0.454719
O O2 0.808214 0.105763 0.451099
O O3 0.590861 0.102237 0.717750
O O4 0.699641 0.000000 0.556963
O O5 0.820443 0.260309 0.687925
O O6 0.834321 0.228511 0.483004
O O7 0.675797 0.303303 0.702489
O O8 0.673188 0.181651 0.764562
O O9 0.835548 0.500000 0.689813
O O10 0.818542 0.621146 0.764478
O O11 0.000000 0.580884 0.500000
O O12 0.608023 0.222266 0.203767
O O13 0.818362 0.206980 0.026790
O O14 0.997723 0.823371 0.233952
O O15 0.018262 0.709611 0.119873
O O16 0.000000 0.618838 0.000000
#
# Coordination Sequence:
#
# PCOD8083504 Si02
#       7
#     8   8   8   8   8   8   8
#     4  10  20  34  53  77 103 137 183 216 246 314
#     4   9  17  29  51  73 100 135 163 213 260 307
#     4  10  21  35  53  77 107 142 173 210 259 313
#     4  11  20  33  50  80 108 134 174 218 261 319
#     4   9  18  33  49  74 102 135 172 210 261 306
#     4  10  18  33  50  74 106 136 166 212 273 309
#     4  10  22  32  50  79 108 134 170 219 269 312
#
# _framework density 17.003122999999999
#
# number of rings (size 3 to 8) (size 9 to 14) (size 15 to 20)
#    0.000    2.143    2.857    1.714    2.000    0.286 
#    0.000    0.714    0.000    1.714    0.000    8.000 
#    0.000    0.000    0.000    0.000    0.000    0.000 
#
# Total GULP energy -347010.818862 kJ/mol
# GULP energy per Si atom -12393.243531 kJ/mol
# Density = 1.696442 g / cm^3
# Si number density = 17.003123 Si / 1000 Ang^3
#
#
#
# Elastic Constant Matrix: (Units=GPa)
#
#
# Indices 1 2 3 4 5 6 
#
# 1 77.0719 35.2207 35.5387 0.0001 -0.9426 -0.0001
# 2 35.2207 93.8052 46.0329 0.0000 0.7333 0.0000
# 3 35.5387 46.0329 82.5186 0.0001 1.6146 -0.0001
# 4 0.0001 0.0000 0.0001 26.3613 -0.0001 2.0562
# 5 -0.9426 0.7333 1.6146 -0.0001 26.9312 0.0001
# 6 -0.0001 0.0000 -0.0001 2.0562 0.0001 21.4047
#
#
#
# Elastic Compliance Matrix: (Units=1/GPa)
#
#
# Indices 1 2 3 4 5 6 
#
# 1 0.017185 -0.003881 -0.005256 0.000000 0.001022 0.000000
# 2 -0.003881 0.015555 -0.007003 0.000000 -0.000139 0.000000
# 3 -0.005256 -0.007003 0.018310 0.000000 -0.001091 0.000000
# 4 0.000000 0.000000 0.000000 0.038221 0.000000 -0.003672
# 5 0.001022 -0.000139 -0.001091 0.000000 0.037237 0.000000
# 6 0.000000 0.000000 0.000000 -0.003672 0.000000 0.047071
#
#
# Mechanical properties :
#
#
# Convention : Reuss Voigt Hill
#
# Bulk Modulus (GPa) = 53.27770 54.10891 53.69331
# Shear Modulus (GPa) = 23.57198 24.04632 23.80915
#
# Velocity S-wave (km/s) = 3.72739 3.76470 3.74609
# Velocity P-wave (km/s) = 7.06588 7.12666 7.09634
#
# Compressibility (1/GPa) = 0.01876958
#
# Stress axis : x y z
#
# Youngs Moduli (GPa) = 58.19191 64.28621 54.61413
#
# Poissons Ratio (x) = 0.24949 0.28705
# Poissons Ratio (y) = 0.22584 0.38249
# Poissons Ratio (z) = 0.30585 0.45022
#
# Static dielectric constant tensor:
#      x y z
#    x 3.229650 0.000000 0.036260 
#    y 0.000000 3.037770 0.000000 
#    z 0.036260 0.000000 3.255100 
# 
# 
# High freq. dielectric constant tensor:
#      x y z
#    x 1.654090 0.000000 0.003350 
#    y 0.000000 1.630090 0.000000 
#    z 0.003350 0.000000 1.659850 
# 
# From -- ./inp_files/159172.got.cif
#   From: 2010.06.25/outbox.cif.g09.slc.cpg/sg12_80_cif.got.tgz:159172.got - 2010.06.28 00:19:55.
