data_PCOD8083547
_publ_section_title
;
Structure prediction by ZEFSAII (Michael W. Deem and Ramdas Pophale) SiO2 
 PCOD8083547
Probable space group: C 2/M
;
_chemical_formula_sum "Si O2"
_cell_formula_units_Z 56
_cell_length_a 25.231476
_cell_length_b 9.154359
_cell_length_c 25.860051
_cell_angle_alpha 90.000000
_cell_angle_beta 33.400804
_cell_angle_gamma 90.000000
_cell_volume 3288.147906
_symmetry_space_group_name_H-M "C 2/M"
_symmetry_group_IT_number 12
_symmetry_cell_setting 'monoclinic'
loop_
_space_group_symop_operation_xyz
x,y,z
-x,y,-z
-x,-y,-z
x,-y,z
1/2+x,1/2+y,z
1/2-x,1/2+y,-z
1/2-x,1/2-y,-z
1/2+x,1/2-y,z
loop_
_atom_site_type_symbol
_atom_site_label
_atom_site_fract_x
_atom_site_fract_y
_atom_site_fract_z
Si Si1 0.141273 0.166388 0.255314
Si Si2 0.768810 0.331073 0.904839
Si Si3 0.103385 0.827597 0.693404
Si Si4 0.891042 0.172184 0.601544
Si Si5 0.925841 0.168556 0.398211
Si Si6 0.201335 0.325975 0.415830
Si Si7 0.393704 0.330619 0.886880
O O1 0.221702 0.259553 0.159487
O O2 0.132925 0.221658 0.320828
O O3 0.040216 0.184813 0.308521
O O4 0.175795 0.000000 0.226517
O O5 0.793810 0.500000 0.879714
O O6 0.844624 0.261651 0.882162
O O7 0.660399 0.305472 0.014450
O O8 0.106570 0.772449 0.631514
O O9 0.194438 0.766084 0.650643
O O10 0.004490 0.778733 0.802219
O O11 0.109246 0.000000 0.687072
O O12 0.817852 0.259060 0.624708
O O13 0.000000 0.218242 0.500000
O O14 0.877524 0.000000 0.603955
O O15 0.878590 0.270624 0.479383
O O16 0.895801 0.000000 0.432555
O O17 0.197329 0.500000 0.416092
O O18 0.387984 0.500000 0.874512
#
# Coordination Sequence:
#
# PCOD8083547 Si02
#       7
#     8   8   8   8   8   8   8
#     4  10  19  33  55  73  96 135 169 200 244 301
#     4  10  19  29  49  80 105 125 160 212 255 286
#     4   9  18  33  52  72 100 138 171 194 239 304
#     4  10  20  37  55  70  92 133 179 204 236 300
#     4  10  18  33  53  71  98 140 172 194 235 304
#     4  11  22  33  49  76 104 130 164 213 253 281
#     4   9  17  33  52  70 101 140 168 193 239 306
#
# _framework density 17.030864000000001
#
# number of rings (size 3 to 8) (size 9 to 14) (size 15 to 20)
#    0.000    2.143    2.857    1.286    0.000    2.000 
#    0.000    2.143    0.000    0.857    0.000    6.000 
#    0.000    0.000    0.000    0.000    0.000    0.000 
#
# Total GULP energy -347191.547282 kJ/mol
# GULP energy per Si atom -12399.698117 kJ/mol
# Density = 1.699210 g / cm^3
# Si number density = 17.030864 Si / 1000 Ang^3
#
#
#
# Elastic Constant Matrix: (Units=GPa)
#
#
# Indices 1 2 3 4 5 6 
#
# 1 100.4216 32.9887 36.0779 -0.0002 17.7340 0.0004
# 2 32.9887 55.5774 40.1383 0.0002 11.0965 -0.0002
# 3 36.0779 40.1383 102.0333 -0.0002 23.0548 0.0003
# 4 -0.0002 0.0002 -0.0002 27.7673 0.0001 5.3020
# 5 17.7340 11.0965 23.0548 0.0001 24.6616 -0.0001
# 6 0.0004 -0.0002 0.0003 5.3020 -0.0001 24.9944
#
#
#
# Elastic Compliance Matrix: (Units=1/GPa)
#
#
# Indices 1 2 3 4 5 6 
#
# 1 0.013344 -0.006001 -0.001014 0.000000 -0.005948 0.000000
# 2 -0.006001 0.027966 -0.008889 0.000000 0.000042 0.000000
# 3 -0.001014 -0.008889 0.015958 0.000000 -0.010190 0.000000
# 4 0.000000 0.000000 0.000000 0.037534 0.000000 -0.007962
# 5 -0.005948 0.000042 -0.010190 0.000000 0.054333 0.000001
# 6 0.000000 0.000000 0.000000 -0.007962 0.000001 0.041698
#
#
# Mechanical properties :
#
#
# Convention : Reuss Voigt Hill
#
# Bulk Modulus (GPa) = 39.27515 52.93801 46.10658
# Shear Modulus (GPa) = 21.63305 25.40649 23.51977
#
# Velocity S-wave (km/s) = 3.56789 3.86656 3.72022
# Velocity P-wave (km/s) = 6.33122 7.14736 6.75163
#
# Compressibility (1/GPa) = 0.02546140
#
# Stress axis : x y z
#
# Youngs Moduli (GPa) = 74.94106 35.75753 62.66264
#
# Poissons Ratio (x) = 0.21457 0.06352
# Poissons Ratio (y) = 0.44970 0.55701
# Poissons Ratio (z) = 0.07597 0.31785
#
# Static dielectric constant tensor:
#      x y z
#    x 3.238600 0.000000 -0.020230 
#    y 0.000000 3.089290 0.000000 
#    z -0.020230 0.000000 3.357690 
# 
# 
# High freq. dielectric constant tensor:
#      x y z
#    x 1.638580 0.000000 0.008280 
#    y 0.000000 1.646000 0.000000 
#    z 0.008280 0.000000 1.660780 
# 
# From -- ./inp_files/237417.got.cif
#   From: 2010.06.25/outbox.cif.g09.slc.cpg/sg12_119_cif.got.tgz:237417.got - 2010.06.28 00:19:55.
