data_PCOD8083622
_publ_section_title
;
Structure prediction by ZEFSAII (Michael W. Deem and Ramdas Pophale) SiO2 
 PCOD8083622
Probable space group: C 2/M
;
_chemical_formula_sum "Si O2"
_cell_formula_units_Z 64
_cell_length_a 14.790957
_cell_length_b 8.424970
_cell_length_c 27.193637
_cell_angle_alpha 90.000000
_cell_angle_beta 105.962494
_cell_angle_gamma 90.000000
_cell_volume 3258.029324
_symmetry_space_group_name_H-M "C 2/M"
_symmetry_group_IT_number 12
_symmetry_cell_setting 'monoclinic'
loop_
_space_group_symop_operation_xyz
x,y,z
-x,y,-z
-x,-y,-z
x,-y,z
1/2+x,1/2+y,z
1/2-x,1/2+y,-z
1/2-x,1/2-y,-z
1/2+x,1/2-y,z
loop_
_atom_site_type_symbol
_atom_site_label
_atom_site_fract_x
_atom_site_fract_y
_atom_site_fract_z
Si Si1 0.268603 0.187424 0.764520
Si Si2 0.037844 0.687429 0.056611
Si Si3 0.466343 0.815126 0.426685
Si Si4 0.263291 0.813326 0.874412
Si Si5 0.080862 0.814102 0.684741
Si Si6 0.648160 0.313178 0.501630
Si Si7 0.033908 0.688332 0.246346
Si Si8 0.430948 0.185403 0.134150
O O1 0.276420 0.254067 0.821115
O O2 0.175986 0.252970 0.723849
O O3 0.358923 0.239918 0.746975
O O4 0.263874 0.000000 0.767318
O O5 0.021067 0.500000 0.053420
O O6 0.982504 0.762364 0.094718
O O7 0.147105 0.728939 0.079097
O O8 0.000000 0.762838 0.000000
O O9 0.433281 0.782730 0.366885
O O10 0.383469 0.757699 0.450623
O O11 0.566265 0.728383 0.450351
O O12 0.483207 0.000000 0.437852
O O13 0.178253 0.722863 0.887487
O O14 0.242880 0.000000 0.870424
O O15 0.995577 0.779079 0.708864
O O16 0.086610 0.000000 0.673581
O O17 0.656416 0.500000 0.508312
O O18 0.750000 0.250000 0.500000
O O19 0.022703 0.500000 0.251802
O O20 0.971717 0.753684 0.191430
O O21 0.452241 0.000000 0.137351
#
# Coordination Sequence:
#
# PCOD8083622 Si02
#       8
#     8   8   8   8   8   8   8   8
#     4   9  18  33  54  76 103 143 187 226 275 340
#     4   9  18  33  54  78 105 141 184 227 276 342
#     4  11  23  41  62  90 126 164 204 252 300 348
#     4  10  18  33  55  77 102 139 182 224 275 341
#     4  11  22  37  56  83 117 150 189 241 295 349
#     4  11  22  41  68  96 125 163 207 249 297 352
#     4  10  19  34  54  77 104 143 188 232 280 342
#     4  10  19  32  53  78 105 136 179 230 280 335
#
# _framework density 19.643777
#
# number of rings (size 3 to 8) (size 9 to 14) (size 15 to 20)
#    0.000    1.875    2.500    3.375    0.000    1.500 
#    0.000    6.250    0.000    0.750    0.000    0.000 
#    0.000    0.000    0.000    0.000    0.000    0.000 
#
# Total GULP energy -396820.484898 kJ/mol
# GULP energy per Si atom -12400.640153 kJ/mol
# Density = 1.959907 g / cm^3
# Si number density = 19.643777 Si / 1000 Ang^3
#
#
#
# Elastic Constant Matrix: (Units=GPa)
#
#
# Indices 1 2 3 4 5 6 
#
# 1 118.8129 9.4704 29.6875 0.0000 -1.6626 0.0000
# 2 9.4704 40.1550 9.9432 0.0000 -4.2605 0.0000
# 3 29.6875 9.9432 113.1848 0.0000 -8.3241 0.0000
# 4 0.0000 0.0000 0.0000 16.7619 0.0000 2.7494
# 5 -1.6626 -4.2605 -8.3241 0.0000 28.1539 0.0000
# 6 0.0000 0.0000 0.0000 2.7494 0.0000 29.7240
#
#
#
# Elastic Compliance Matrix: (Units=1/GPa)
#
#
# Indices 1 2 3 4 5 6 
#
# 1 0.009109 -0.001626 -0.002274 0.000000 -0.000381 0.000000
# 2 -0.001626 0.026044 -0.001614 0.000000 0.003368 0.000000
# 3 -0.002274 -0.001614 0.009758 0.000000 0.002506 0.000000
# 4 0.000000 0.000000 0.000000 0.060578 0.000000 -0.005603
# 5 -0.000381 0.003368 0.002506 0.000000 0.036747 0.000000
# 6 0.000000 0.000000 0.000000 -0.005603 0.000000 0.034161
#
#
# Mechanical properties :
#
#
# Convention : Reuss Voigt Hill
#
# Bulk Modulus (GPa) = 29.51320 41.15053 35.33187
# Shear Modulus (GPa) = 25.16107 29.79806 27.47957
#
# Velocity S-wave (km/s) = 3.58280 3.89899 3.74424
# Velocity P-wave (km/s) = 5.67205 6.42366 6.05952
#
# Compressibility (1/GPa) = 0.03388314
#
# Stress axis : x y z
#
# Youngs Moduli (GPa) = 109.77968 38.39674 102.48218
#
# Poissons Ratio (x) = 0.06242 0.23309
# Poissons Ratio (y) = 0.17845 0.16539
# Poissons Ratio (z) = 0.24969 0.06197
#
# Static dielectric constant tensor:
#      x y z
#    x 3.742200 0.000000 0.012560 
#    y 0.000000 3.263170 0.000000 
#    z 0.012560 0.000000 3.707860 
# 
# 
# High freq. dielectric constant tensor:
#      x y z
#    x 1.776790 0.000000 -0.000080 
#    y 0.000000 1.738900 0.000000 
#    z -0.000080 0.000000 1.767590 
# 
# From -- ./inp_files/375077.got.cif
#   From: 2010.06.25/outbox.cif.g09.slc.cpg/sg12_188_cif.got.tgz:375077.got - 2010.06.28 00:19:55.
