data_PCOD8083822
_publ_section_title
;
Structure prediction by ZEFSAII (Michael W. Deem and Ramdas Pophale) SiO2 
 PCOD8083822
Probable space group: C 2/M
;
_chemical_formula_sum "Si O2"
_cell_formula_units_Z 56
_cell_length_a 23.077200
_cell_length_b 18.464833
_cell_length_c 16.188214
_cell_angle_alpha 90.000000
_cell_angle_beta 155.786872
_cell_angle_gamma 90.000000
_cell_volume 2829.118287
_symmetry_space_group_name_H-M "C 2/M"
_symmetry_group_IT_number 12
_symmetry_cell_setting 'monoclinic'
loop_
_space_group_symop_operation_xyz
x,y,z
-x,y,-z
-x,-y,-z
x,-y,z
1/2+x,1/2+y,z
1/2-x,1/2+y,-z
1/2-x,1/2-y,-z
1/2+x,1/2-y,z
loop_
_atom_site_type_symbol
_atom_site_label
_atom_site_fract_x
_atom_site_fract_y
_atom_site_fract_z
Si Si1 0.832353 0.291374 0.964495
Si Si2 0.366189 0.422043 0.885320
Si Si3 0.916332 0.773484 0.617334
Si Si4 0.833876 0.228757 0.795769
Si Si5 0.528377 0.421180 0.793547
Si Si6 0.195981 0.582649 0.953817
Si Si7 0.575117 0.801764 0.683383
O O1 0.806548 0.287243 0.832902
O O2 0.729370 0.234666 0.876303
O O3 0.804911 0.373099 0.960587
O O4 0.993542 0.267085 0.194902
O O5 0.284938 0.500000 0.772131
O O6 0.273289 0.351805 0.740347
O O7 0.500000 0.425897 0.000000
O O8 0.406778 0.408495 0.032418
O O9 0.749995 0.751114 0.396764
O O10 0.913583 0.859594 0.627404
O O11 0.977899 0.754132 0.607180
O O12 0.000000 0.222882 0.000000
O O13 0.453674 0.500000 0.692676
O O14 0.647397 0.417024 0.878591
O O15 0.143999 0.500000 0.901311
O O16 0.091408 0.622715 0.753682
O O17 0.500000 0.818973 0.500000
#
# Coordination Sequence:
#
# PCOD8083822 Si02
#       7
#     8   8   8   8   8   8   8
#     4  11  20  39  57  83 119 148 191 234 284 348
#     4   9  18  35  56  82 117 146 183 239 286 332
#     4  11  20  35  59  84 115 153 189 237 282 338
#     4  11  23  37  58  87 111 154 200 236 281 337
#     4  10  18  33  58  86 114 149 190 237 285 338
#     4  10  20  34  56  86 119 147 182 235 291 347
#     4  11  19  33  60  86 114 152 180 229 296 346
#
# _framework density 19.794153000000001
#
# number of rings (size 3 to 8) (size 9 to 14) (size 15 to 20)
#    0.000    1.571    5.714    0.857    0.000    0.857 
#    0.000    3.571    0.000    4.286    0.000    0.000 
#    0.000    0.000    0.000    0.000    0.000    0.000 
#
# Total GULP energy -346995.085765 kJ/mol
# GULP energy per Si atom -12392.681634 kJ/mol
# Density = 1.974910 g / cm^3
# Si number density = 19.794153 Si / 1000 Ang^3
#
#
#
# Elastic Constant Matrix: (Units=GPa)
#
#
# Indices 1 2 3 4 5 6 
#
# 1 16.7556 8.0763 -15.3450 0.0000 -3.8041 0.0000
# 2 8.0763 170.8884 36.1579 0.0000 -10.9941 0.0000
# 3 -15.3450 36.1579 87.3891 0.0000 -1.8843 0.0000
# 4 0.0000 0.0000 0.0000 26.1562 0.0000 -6.1477
# 5 -3.8041 -10.9941 -1.8843 0.0000 22.4781 0.0000
# 6 0.0000 0.0000 0.0000 -6.1477 0.0000 24.3547
#
#
#
# Elastic Compliance Matrix: (Units=1/GPa)
#
#
# Indices 1 2 3 4 5 6 
#
# 1 0.081572 -0.006763 0.017380 0.000000 0.011954 0.000000
# 2 -0.006763 0.007171 -0.004111 0.000000 0.002018 0.000000
# 3 0.017380 -0.004111 0.016245 0.000000 0.002292 0.000000
# 4 0.000000 0.000000 0.000000 0.040643 0.000000 0.010259
# 5 0.011954 0.002018 0.002292 0.000000 0.047690 0.000000
# 6 0.000000 0.000000 0.000000 0.010259 0.000000 0.043650
#
#
# Mechanical properties :
#
#
# Convention : Reuss Voigt Hill
#
# Bulk Modulus (GPa) = 8.47463 36.97904 22.72684
# Shear Modulus (GPa) = 18.99014 31.00737 24.99876
#
# Velocity S-wave (km/s) = 3.10075 3.96219 3.55764
# Velocity P-wave (km/s) = 4.13645 6.29716 5.32750
#
# Compressibility (1/GPa) = 0.11799923
#
# Stress axis : x y z
#
# Youngs Moduli (GPa) = 12.25904 139.44780 61.55603
#
# Poissons Ratio (x) = 0.94315 -1.06983
# Poissons Ratio (y) = 0.08291 0.25307
# Poissons Ratio (z) = -0.21306 0.57330
#
# Static dielectric constant tensor:
#      x y z
#    x 6.481520 0.000000 0.571560 
#    y 0.000000 4.069380 0.000000 
#    z 0.571560 0.000000 3.535460 
# 
# 
# High freq. dielectric constant tensor:
#      x y z
#    x 1.765590 0.000000 -0.008040 
#    y 0.000000 1.774160 0.000000 
#    z -0.008040 0.000000 1.743930 
# 
# From -- ./inp_files/145655.got.cif
#   From: 2010.06.25/outbox.cif.g09.slc.cpg/sg12_73_cif.got.tgz:145655.got - 2010.06.28 00:19:55.
