data_PCOD8083375
_publ_section_title
;
Structure prediction by ZEFSAII (Michael W. Deem and Ramdas Pophale) SiO2 
 PCOD8083375
Probable space group: C 2/M
;
_chemical_formula_sum "Si O2"
_cell_formula_units_Z 56
_cell_length_a 11.782973
_cell_length_b 22.468859
_cell_length_c 22.439349
_cell_angle_alpha 90.000000
_cell_angle_beta 150.609686
_cell_angle_gamma 90.000000
_cell_volume 2915.494220
_symmetry_space_group_name_H-M "C 2/M"
_symmetry_group_IT_number 12
_symmetry_cell_setting 'monoclinic'
loop_
_space_group_symop_operation_xyz
x,y,z
-x,y,-z
-x,-y,-z
x,-y,z
1/2+x,1/2+y,z
1/2-x,1/2+y,-z
1/2-x,1/2-y,-z
1/2+x,1/2-y,z
loop_
_atom_site_type_symbol
_atom_site_label
_atom_site_fract_x
_atom_site_fract_y
_atom_site_fract_z
Si Si1 0.359841 0.929976 0.739278
Si Si2 0.943810 0.134140 0.606013
Si Si3 0.034541 0.566483 0.452540
Si Si4 0.885519 0.067459 0.010829
Si Si5 0.869787 0.665245 0.644638
Si Si6 0.729421 0.291440 0.364762
Si Si7 0.293898 0.643893 0.766754
O O1 0.611763 0.925167 0.882828
O O2 0.354497 0.897661 0.672564
O O3 0.197359 0.891718 0.709271
O O4 0.288397 0.000000 0.699139
O O5 0.797362 0.074809 0.552899
O O6 0.828172 0.166841 0.496632
O O7 0.927997 0.179532 0.654679
O O8 0.963899 0.500000 0.430308
O O9 0.000000 0.600904 0.500000
O O10 0.864783 0.588971 0.324589
O O11 0.949626 0.000000 0.059887
O O12 0.000000 0.081678 0.000000
O O13 0.975277 0.116563 0.098773
O O14 0.817167 0.721157 0.662661
O O15 0.129059 0.677902 0.738354
O O16 0.644445 0.316229 0.262056
O O17 0.000000 0.303304 0.500000
#
# Coordination Sequence:
#
# PCOD8083375 Si02
#       7
#     8   8   8   8   8   8   8
#     4  11  24  41  62  91 125 160 204 261 315 360
#     4  11  21  38  58  92 128 161 195 247 307 374
#     4  10  18  32  56  90 122 151 190 245 302 361
#     4  10  21  41  66  87 116 158 209 256 301 367
#     4  11  24  36  65  92 123 162 201 255 307 365
#     4  12  22  40  61  93 127 166 207 243 304 374
#     4  11  21  39  62  90 116 160 209 252 298 367
#
# _framework density 19.207720999999999
#
# number of rings (size 3 to 8) (size 9 to 14) (size 15 to 20)
#    0.000    1.143    5.714    2.571    2.000    3.429 
#    0.000    1.429    3.143    1.714    0.000    0.000 
#    0.000    0.000    0.000    0.000    0.000    0.000 
#
# Total GULP energy -347026.912983 kJ/mol
# GULP energy per Si atom -12393.818321 kJ/mol
# Density = 1.916400 g / cm^3
# Si number density = 19.207721 Si / 1000 Ang^3
#
#
#
# Elastic Constant Matrix: (Units=GPa)
#
#
# Indices 1 2 3 4 5 6 
#
# 1 111.1752 46.7146 41.4149 0.0289 1.3616 0.0016
# 2 46.7146 113.1321 37.0899 0.4010 -4.7652 0.0029
# 3 41.4149 37.0899 81.4981 0.9722 2.9367 0.0089
# 4 0.0289 0.4010 0.9722 -212.4050 -0.0158 -4.2976
# 5 1.3616 -4.7652 2.9367 -0.0158 26.8804 0.0013
# 6 0.0016 0.0029 0.0089 -4.2976 0.0013 29.0746
#
#
#
# Elastic Compliance Matrix: (Units=1/GPa)
#
#
# Indices 1 2 3 4 5 6 
#
# 1 0.012201 -0.003580 -0.004543 -0.000026 -0.000756 -0.000003
# 2 -0.003580 0.011592 -0.003551 0.000005 0.002624 0.000001
# 3 -0.004543 -0.003551 0.016273 0.000067 -0.002177 0.000006
# 4 -0.000026 0.000005 0.000067 -0.004694 -0.000008 -0.000694
# 5 -0.000756 0.002624 -0.002177 -0.000008 0.037943 -0.000002
# 6 -0.000003 0.000001 0.000006 -0.000694 -0.000002 0.034292
#
#
# Mechanical properties :
#
#
# Convention : Reuss Voigt Hill
#
# Bulk Modulus (GPa) = 59.81915 61.80489 60.81202
# Shear Modulus (GPa) = 36.62249 -19.25093 8.68578
#
# Velocity S-wave (km/s) = 4.37126 -3.16927 2.12881
# Velocity P-wave (km/s) = 7.52915 4.34219 6.14584
#
# Compressibility (1/GPa) = 0.01671705
#
# Stress axis : x y z
#
# Youngs Moduli (GPa) = 81.96110 86.26440 61.45308
#
# Poissons Ratio (x) = 0.30885 0.27919
# Poissons Ratio (y) = 0.29345 0.21821
# Poissons Ratio (z) = 0.37236 0.30631
#
# Static dielectric constant tensor:
#      x y z
#    x 3.511480 -0.000110 -0.122480 
#    y -0.000110 3.566500 -0.000070 
#    z -0.122480 -0.000070 3.207460 
# 
# 
# High freq. dielectric constant tensor:
#      x y z
#    x 1.756110 0.000000 -0.000850 
#    y 0.000000 1.756960 0.000000 
#    z -0.000850 0.000000 1.715420 
# 
# From -- ./inp_files/307255.got.cif
#   From: 2010.06.25/outbox.cif.g09.slc.cpg/sg12_154_cif.got.tgz:307255.got - 2010.06.28 00:19:55.
