data_PCOD8083963
_publ_section_title
;
Structure prediction by ZEFSAII (Michael W. Deem and Ramdas Pophale) SiO2 
 PCOD8083963
Probable space group: C 2/M
;
_chemical_formula_sum "Si O2"
_cell_formula_units_Z 56
_cell_length_a 16.477432
_cell_length_b 17.343407
_cell_length_c 13.646024
_cell_angle_alpha 90.000000
_cell_angle_beta 130.329519
_cell_angle_gamma 90.000000
_cell_volume 2972.870107
_symmetry_space_group_name_H-M "C 2/M"
_symmetry_group_IT_number 12
_symmetry_cell_setting 'monoclinic'
loop_
_space_group_symop_operation_xyz
x,y,z
-x,y,-z
-x,-y,-z
x,-y,z
1/2+x,1/2+y,z
1/2-x,1/2+y,-z
1/2-x,1/2-y,-z
1/2+x,1/2-y,z
loop_
_atom_site_type_symbol
_atom_site_label
_atom_site_fract_x
_atom_site_fract_y
_atom_site_fract_z
Si Si1 0.811042 0.588611 0.529395
Si Si2 0.156499 0.795308 0.372627
Si Si3 0.752323 0.090121 0.157243
Si Si4 0.037666 0.817707 0.633548
Si Si5 0.525264 0.855046 0.624281
Si Si6 0.622318 0.847182 0.229974
Si Si7 0.906845 0.586878 0.129042
O O1 0.831645 0.500000 0.516917
O O2 0.708577 0.620406 0.389496
O O3 0.800763 0.601171 0.638537
O O4 0.911051 0.645442 0.587852
O O5 0.250000 0.750000 0.500000
O O6 0.130372 0.745530 0.255550
O O7 0.054319 0.814880 0.358003
O O8 0.865951 0.131467 0.250644
O O9 0.664876 0.132367 0.156258
O O10 0.764506 0.000000 0.193955
O O11 0.707232 0.100348 0.011461
O O12 0.073776 0.729488 0.642020
O O13 0.000000 0.853424 0.500000
O O14 0.500000 0.897282 0.500000
O O15 0.605337 0.896574 0.763160
O O16 0.497417 0.864295 0.144975
O O17 0.945894 0.500000 0.146975
#
# Coordination Sequence:
#
# PCOD8083963 Si02
#       7
#     8   8   8   8   8   8   8
#     4  10  19  31  53  81 108 142 188 239 287 331
#     4  10  18  34  53  78 110 151 190 231 282 336
#     4  11  24  36  56  87 119 153 186 231 292 345
#     4  11  21  35  57  82 117 149 187 235 280 337
#     4  10  20  34  57  84 108 145 186 236 283 331
#     4  10  18  34  56  79 111 152 189 232 276 338
#     4  10  20  37  57  83 115 149 191 236 282 338
#
# _framework density 18.837015000000001
#
# number of rings (size 3 to 8) (size 9 to 14) (size 15 to 20)
#    0.000    1.714    4.286    4.714    2.000    3.714 
#    0.000    0.000    0.000    0.000    0.000    0.000 
#    0.000    5.714    0.000    0.000    0.000    0.000 
#
# Total GULP energy -346866.893089 kJ/mol
# GULP energy per Si atom -12388.103325 kJ/mol
# Density = 1.879414 g / cm^3
# Si number density = 18.837015 Si / 1000 Ang^3
#
#
#
# Elastic Constant Matrix: (Units=GPa)
#
#
# Indices 1 2 3 4 5 6 
#
# 1 60.7888 25.9007 45.9069 0.0000 -4.0617 0.0000
# 2 25.9007 90.5045 58.2824 0.0000 5.6617 0.0000
# 3 45.9069 58.2824 130.7295 0.0000 -4.1913 0.0000
# 4 0.0000 0.0000 0.0000 30.5284 0.0000 3.6293
# 5 -4.0617 5.6617 -4.1913 0.0000 28.2037 0.0000
# 6 0.0000 0.0000 0.0000 3.6293 0.0000 17.6192
#
#
#
# Elastic Compliance Matrix: (Units=1/GPa)
#
#
# Indices 1 2 3 4 5 6 
#
# 1 0.022816 -0.002237 -0.006928 0.000000 0.002705 0.000000
# 2 -0.002237 0.016219 -0.006591 0.000000 -0.004558 0.000000
# 3 -0.006928 -0.006591 0.013094 0.000000 0.002271 0.000000
# 4 0.000000 0.000000 0.000000 0.033579 0.000000 -0.006917
# 5 0.002705 -0.004558 0.002271 0.000000 0.037098 0.000000
# 6 0.000000 0.000000 0.000000 -0.006917 0.000000 0.058181
#
#
# Mechanical properties :
#
#
# Convention : Reuss Voigt Hill
#
# Bulk Modulus (GPa) = 48.50665 60.24475 54.37570
# Shear Modulus (GPa) = 22.79227 25.39913 24.09570
#
# Velocity S-wave (km/s) = 3.48224 3.67599 3.58043
# Velocity P-wave (km/s) = 6.47878 7.07593 6.78393
#
# Compressibility (1/GPa) = 0.02061573
#
# Stress axis : x y z
#
# Youngs Moduli (GPa) = 43.82817 61.65506 76.37319
#
# Poissons Ratio (x) = 0.13795 0.52911
# Poissons Ratio (y) = 0.09806 0.50340
# Poissons Ratio (z) = 0.30364 0.40639
#
# Static dielectric constant tensor:
#      x y z
#    x 3.357500 0.000000 -0.110430 
#    y 0.000000 3.640060 0.000000 
#    z -0.110430 0.000000 3.576580 
# 
# 
# High freq. dielectric constant tensor:
#      x y z
#    x 1.710940 0.000000 -0.001400 
#    y 0.000000 1.725740 0.000000 
#    z -0.001400 0.000000 1.718510 
# 
# From -- ./inp_files/226580.got.cif
#   From: 2010.06.25/outbox.cif.g09.slc.cpg/sg12_114_cif.got.tgz:226580.got - 2010.06.28 00:19:55.
