data_PCOD8083528
_publ_section_title
;
Structure prediction by ZEFSAII (Michael W. Deem and Ramdas Pophale) SiO2 
 PCOD8083528
Probable space group: C 2/M
;
_chemical_formula_sum "Si O2"
_cell_formula_units_Z 64
_cell_length_a 23.121702
_cell_length_b 12.994022
_cell_length_c 18.755121
_cell_angle_alpha 90.000000
_cell_angle_beta 139.164075
_cell_angle_gamma 90.000000
_cell_volume 3684.608613
_symmetry_space_group_name_H-M "C 2/M"
_symmetry_group_IT_number 12
_symmetry_cell_setting 'monoclinic'
loop_
_space_group_symop_operation_xyz
x,y,z
-x,y,-z
-x,-y,-z
x,-y,z
1/2+x,1/2+y,z
1/2-x,1/2+y,-z
1/2-x,1/2-y,-z
1/2+x,1/2-y,z
loop_
_atom_site_type_symbol
_atom_site_label
_atom_site_fract_x
_atom_site_fract_y
_atom_site_fract_z
Si Si1 0.322823 0.113828 0.552278
Si Si2 0.508855 0.382717 0.295399
Si Si3 0.572198 0.883176 0.121064
Si Si4 0.270209 0.381691 0.267364
Si Si5 0.480399 0.807976 0.783461
Si Si6 0.179128 0.809268 0.835690
Si Si7 0.183420 0.816129 0.533406
Si Si8 0.332098 0.117067 0.079169
O O1 0.423226 0.131533 0.671364
O O2 0.256370 0.119689 0.557674
O O3 0.299688 0.195984 0.469365
O O4 0.315213 0.000000 0.511853
O O5 0.518384 0.500000 0.279519
O O6 0.515760 0.312804 0.231400
O O7 0.414878 0.364196 0.244323
O O8 0.585637 0.353634 0.422341
O O9 0.665147 0.876321 0.169192
O O10 0.569843 0.813059 0.188636
O O11 0.549411 0.000000 0.122536
O O12 0.500000 0.838696 0.000000
O O13 0.302444 0.500000 0.289675
O O14 0.300677 0.312659 0.229340
O O15 0.308213 0.332694 0.374808
O O16 0.577540 0.857328 0.878353
O O17 0.177206 0.690933 0.860642
O O18 0.252026 0.870532 0.949080
O O19 0.332846 0.000000 0.107663
#
# Coordination Sequence:
#
# PCOD8083528 Si02
#       8
#     8   8   8   8   8   8   8   8
#     4  10  18  33  52  74 104 133 167 211 253 301
#     4  10  20  35  52  73 101 136 174 210 247 291
#     4  10  19  30  48  75 104 130 157 202 263 310
#     4  11  20  33  51  73 106 137 165 210 258 302
#     4  10  19  31  54  80 100 127 168 211 256 310
#     4  10  22  35  52  77 103 136 176 209 250 306
#     4  10  21  32  50  77 102 134 173 206 251 306
#     4  10  19  35  56  77 101 132 172 217 255 296
#
# _framework density 17.369551000000001
#
# number of rings (size 3 to 8) (size 9 to 14) (size 15 to 20)
#    0.000    1.875    1.250    4.125    0.000    1.500 
#    0.000    1.875    0.000    1.125    0.000    5.250 
#    0.000    0.000    0.000    0.000    0.000    0.000 
#
# Total GULP energy -396839.882221 kJ/mol
# GULP energy per Si atom -12401.246319 kJ/mol
# Density = 1.733002 g / cm^3
# Si number density = 17.369551 Si / 1000 Ang^3
#
#
#
# Elastic Constant Matrix: (Units=GPa)
#
#
# Indices 1 2 3 4 5 6 
#
# 1 78.2864 34.5796 31.9037 0.0000 -6.0065 0.0000
# 2 34.5796 129.4567 30.6488 0.0000 -8.2184 0.0000
# 3 31.9037 30.6488 83.8771 0.0000 7.1219 0.0000
# 4 0.0000 0.0000 0.0000 18.4604 0.0000 -0.5360
# 5 -6.0065 -8.2184 7.1219 0.0000 38.0239 0.0000
# 6 0.0000 0.0000 0.0000 -0.5360 0.0000 18.1362
#
#
#
# Elastic Compliance Matrix: (Units=1/GPa)
#
#
# Indices 1 2 3 4 5 6 
#
# 1 0.016527 -0.002929 -0.005471 0.000000 0.003002 0.000000
# 2 -0.002929 0.009205 -0.002418 0.000000 0.001980 0.000000
# 3 -0.005471 -0.002418 0.015247 0.000000 -0.004243 0.000000
# 4 0.000000 0.000000 0.000000 0.054217 0.000000 0.001602
# 5 0.003002 0.001980 -0.004243 0.000000 0.027996 0.000000
# 6 0.000000 0.000000 0.000000 0.001602 0.000000 0.055186
#
#
# Mechanical properties :
#
#
# Convention : Reuss Voigt Hill
#
# Bulk Modulus (GPa) = 51.69539 53.98716 52.84127
# Shear Modulus (GPa) = 24.21774 27.88997 26.05385
#
# Velocity S-wave (km/s) = 3.73803 4.01144 3.87715
# Velocity P-wave (km/s) = 6.96112 7.25290 7.10851
#
# Compressibility (1/GPa) = 0.01934408
#
# Stress axis : x y z
#
# Youngs Moduli (GPa) = 60.50615 108.63728 65.58738
#
# Poissons Ratio (x) = 0.31817 0.35884
# Poissons Ratio (y) = 0.17721 0.15856
# Poissons Ratio (z) = 0.33104 0.26264
#
# Static dielectric constant tensor:
#      x y z
#    x 3.165740 0.000000 0.235790 
#    y 0.000000 3.274400 0.000000 
#    z 0.235790 0.000000 3.302390 
# 
# 
# High freq. dielectric constant tensor:
#      x y z
#    x 1.663250 0.000000 0.022890 
#    y 0.000000 1.665110 0.000000 
#    z 0.022890 0.000000 1.676420 
# 
# From -- ./inp_files/283308.got.cif
#   From: 2010.06.25/outbox.cif.g09.slc.cpg/sg12_142_cif.got.tgz:283308.got - 2010.06.28 00:19:55.
