data_PCOD8083831
_publ_section_title
;
Structure prediction by ZEFSAII (Michael W. Deem and Ramdas Pophale) SiO2 
 PCOD8083831
Probable space group: C 2/M
;
_chemical_formula_sum "Si O2"
_cell_formula_units_Z 64
_cell_length_a 32.495555
_cell_length_b 15.287883
_cell_length_c 10.056717
_cell_angle_alpha 90.000000
_cell_angle_beta 139.372587
_cell_angle_gamma 90.000000
_cell_volume 3253.120786
_symmetry_space_group_name_H-M "C 2/M"
_symmetry_group_IT_number 12
_symmetry_cell_setting 'monoclinic'
loop_
_space_group_symop_operation_xyz
x,y,z
-x,y,-z
-x,-y,-z
x,-y,z
1/2+x,1/2+y,z
1/2-x,1/2+y,-z
1/2-x,1/2-y,-z
1/2+x,1/2-y,z
loop_
_atom_site_type_symbol
_atom_site_label
_atom_site_fract_x
_atom_site_fract_y
_atom_site_fract_z
Si Si1 0.312174 0.832882 0.548556
Si Si2 0.765660 0.141549 0.399346
Si Si3 0.889949 0.094267 0.819775
Si Si4 0.771065 0.399891 0.184224
Si Si5 0.058062 0.270085 0.738033
Si Si6 0.670589 0.101352 0.940271
Si Si7 0.865273 0.898697 0.060541
Si Si8 0.447042 0.229031 0.967953
O O1 0.275035 0.885435 0.571239
O O2 0.274357 0.745566 0.416460
O O3 0.315322 0.889242 0.422027
O O4 0.381547 0.817774 0.775969
O O5 0.834189 0.096354 0.573979
O O6 0.730642 0.107574 0.183796
O O7 0.924104 0.000000 0.897163
O O8 0.856845 0.109858 0.881456
O O9 0.941688 0.168046 0.919637
O O10 0.762901 0.500000 0.128612
O O11 0.805975 0.357659 0.142912
O O12 0.700043 0.364369 0.034923
O O13 0.113065 0.340138 0.849978
O O14 0.080790 0.170373 0.763061
O O15 0.034651 0.281982 0.832726
O O16 0.000000 0.292147 0.500000
O O17 0.648409 0.000000 0.875374
O O18 0.882480 0.000000 0.141876
O O19 0.500000 0.188873 0.000000
#
# Coordination Sequence:
#
# PCOD8083831 Si02
#       8
#     8   8   8   8   8   8   8   8
#     4  10  19  34  59  85 113 143 188 237 285 346
#     4  10  18  33  58  88 114 144 183 231 292 354
#     4   9  17  32  58  86 115 147 176 221 286 347
#     4  10  21  36  58  89 119 146 183 234 294 351
#     4  11  24  41  60  80 111 160 199 231 287 335
#     4  11  24  39  57  85 120 153 193 241 288 343
#     4   9  18  36  61  89 118 146 185 233 282 350
#     4  10  22  39  56  81 110 144 197 241 270 330
#
# _framework density 19.673417000000001
#
# number of rings (size 3 to 8) (size 9 to 14) (size 15 to 20)
#    0.000    2.000    2.500    1.125    1.750    3.250 
#    2.250    0.000    0.000    0.750    0.000    0.000 
#    0.000    0.000    0.000    0.000    0.000    0.000 
#
# Total GULP energy -396697.275193 kJ/mol
# GULP energy per Si atom -12396.789850 kJ/mol
# Density = 1.962864 g / cm^3
# Si number density = 19.673417 Si / 1000 Ang^3
#
#
#
# Elastic Constant Matrix: (Units=GPa)
#
#
# Indices 1 2 3 4 5 6 
#
# 1 96.0332 13.3632 38.1997 0.0000 -12.1340 0.0000
# 2 13.3632 39.8461 10.1853 0.0000 2.7924 0.0000
# 3 38.1997 10.1853 106.5885 0.0000 -13.2941 0.0000
# 4 0.0000 0.0000 0.0000 13.9022 0.0000 -5.3996
# 5 -12.1340 2.7924 -13.2941 0.0000 25.9325 0.0000
# 6 0.0000 0.0000 0.0000 -5.3996 0.0000 19.8271
#
#
#
# Elastic Compliance Matrix: (Units=1/GPa)
#
#
# Indices 1 2 3 4 5 6 
#
# 1 0.012992 -0.003724 -0.003731 0.000000 0.004568 0.000000
# 2 -0.003724 0.027250 -0.001979 0.000000 -0.005691 0.000000
# 3 -0.003731 -0.001979 0.011449 0.000000 0.004337 0.000000
# 4 0.000000 0.000000 0.000000 0.080440 0.000000 0.021907
# 5 0.004568 -0.005691 0.004337 0.000000 0.043535 0.000000
# 6 0.000000 0.000000 0.000000 0.021907 0.000000 0.056402
#
#
# Mechanical properties :
#
#
# Convention : Reuss Voigt Hill
#
# Bulk Modulus (GPa) = 30.46551 40.66267 35.56409
# Shear Modulus (GPa) = 19.09296 23.98034 21.53665
#
# Velocity S-wave (km/s) = 3.11866 3.49509 3.31223
# Velocity P-wave (km/s) = 5.33735 6.08287 5.72226
#
# Compressibility (1/GPa) = 0.03282401
#
# Stress axis : x y z
#
# Youngs Moduli (GPa) = 76.96830 36.69705 87.34431
#
# Poissons Ratio (x) = 0.13665 0.32586
# Poissons Ratio (y) = 0.28661 0.17288
# Poissons Ratio (z) = 0.28715 0.07263
#
# Static dielectric constant tensor:
#      x y z
#    x 3.591350 0.000000 -0.167180 
#    y 0.000000 3.569620 0.000000 
#    z -0.167180 0.000000 3.373800 
# 
# 
# High freq. dielectric constant tensor:
#      x y z
#    x 1.758500 0.000000 -0.008610 
#    y 0.000000 1.761060 0.000000 
#    z -0.008610 0.000000 1.754340 
# 
# From -- ./inp_files/112867.got.cif
#   From: 2010.06.25/outbox.cif.g09.slc.cpg/sg12_57_cif.got.tgz:112867.got - 2010.06.28 00:19:55.
