data_PCOD8083627
_publ_section_title
;
Structure prediction by ZEFSAII (Michael W. Deem and Ramdas Pophale) SiO2 
 PCOD8083627
Probable space group: C 2/M
;
_chemical_formula_sum "Si O2"
_cell_formula_units_Z 56
_cell_length_a 20.645856
_cell_length_b 9.250764
_cell_length_c 22.280536
_cell_angle_alpha 90.000000
_cell_angle_beta 131.997324
_cell_angle_gamma 90.000000
_cell_volume 3162.480460
_symmetry_space_group_name_H-M "C 2/M"
_symmetry_group_IT_number 12
_symmetry_cell_setting 'monoclinic'
loop_
_space_group_symop_operation_xyz
x,y,z
-x,y,-z
-x,-y,-z
x,-y,z
1/2+x,1/2+y,z
1/2-x,1/2+y,-z
1/2-x,1/2-y,-z
1/2+x,1/2-y,z
loop_
_atom_site_type_symbol
_atom_site_label
_atom_site_fract_x
_atom_site_fract_y
_atom_site_fract_z
Si Si1 0.876471 0.334108 0.566830
Si Si2 0.051968 0.668775 0.735962
Si Si3 0.755037 0.831603 0.409022
Si Si4 0.243138 0.328875 0.825128
Si Si5 0.319838 0.670998 0.748465
Si Si6 0.987579 0.167222 0.167308
Si Si7 0.686776 0.331312 0.005693
O O1 0.861458 0.500000 0.538235
O O2 0.843039 0.231088 0.493194
O O3 0.826007 0.301115 0.597360
O O4 0.977956 0.299125 0.640554
O O5 0.056583 0.500000 0.753712
O O6 0.143415 0.726753 0.766728
O O7 0.030056 0.745015 0.784069
O O8 0.738560 0.749699 0.337082
O O9 0.768496 0.000000 0.404593
O O10 0.245116 0.500000 0.823613
O O11 0.288570 0.268387 0.793466
O O12 0.296143 0.274217 0.916279
O O13 0.305526 0.500000 0.732924
O O14 0.420821 0.714068 0.804585
O O15 0.913528 0.200923 0.072212
O O16 0.988151 0.000000 0.185782
O O17 0.709152 0.500000 0.014379
O O18 0.750000 0.250000 0.000000
#
# Coordination Sequence:
#
# PCOD8083627 Si02
#       7
#     8   8   8   8   8   8   8
#     4   9  18  31  51  78 103 131 172 217 257 303
#     4  10  18  33  55  78 102 135 177 214 253 306
#     4  10  19  32  52  78 105 135 171 214 262 306
#     4   9  19  34  54  76 103 141 176 211 255 308
#     4  10  20  35  52  75 108 141 173 210 258 312
#     4  10  20  31  51  80 106 134 171 216 261 304
#     4  10  19  33  53  78 105 135 174 217 259 301
#
# _framework density 17.707619000000001
#
# number of rings (size 3 to 8) (size 9 to 14) (size 15 to 20)
#    0.000    2.286    2.857    0.429    0.000    1.714 
#    0.000    5.000    0.000    4.286    0.000    3.000 
#    0.000    0.000    0.000    0.000    0.000    0.000 
#
# Total GULP energy -347227.311744 kJ/mol
# GULP energy per Si atom -12400.975419 kJ/mol
# Density = 1.766732 g / cm^3
# Si number density = 17.707619 Si / 1000 Ang^3
#
#
#
# Elastic Constant Matrix: (Units=GPa)
#
#
# Indices 1 2 3 4 5 6 
#
# 1 135.9278 39.3533 82.2389 0.0000 -3.0392 0.0000
# 2 39.3533 43.2108 47.4679 0.0000 -3.6428 0.0000
# 3 82.2389 47.4679 150.2126 0.0000 -2.1266 0.0000
# 4 0.0000 0.0000 0.0000 25.7388 0.0000 -2.5642
# 5 -3.0392 -3.6428 -2.1266 0.0000 31.6039 0.0000
# 6 0.0000 0.0000 0.0000 -2.5642 0.0000 20.1620
#
#
#
# Elastic Compliance Matrix: (Units=1/GPa)
#
#
# Indices 1 2 3 4 5 6 
#
# 1 0.011825 -0.005584 -0.004707 0.000000 0.000177 0.000000
# 2 -0.005584 0.038439 -0.009043 0.000000 0.003285 0.000000
# 3 -0.004707 -0.009043 0.012082 0.000000 -0.000682 0.000000
# 4 0.000000 0.000000 0.000000 0.039350 0.000000 0.005005
# 5 0.000177 0.003285 -0.000682 0.000000 0.031991 0.000000
# 6 0.000000 0.000000 0.000000 0.005005 0.000000 0.050235
#
#
# Mechanical properties :
#
#
# Convention : Reuss Voigt Hill
#
# Bulk Modulus (GPa) = 42.23326 74.16347 58.19837
# Shear Modulus (GPa) = 21.69343 26.18702 23.94023
#
# Velocity S-wave (km/s) = 3.50393 3.84976 3.68091
# Velocity P-wave (km/s) = 6.34603 7.85710 7.14164
#
# Compressibility (1/GPa) = 0.02367802
#
# Stress axis : x y z
#
# Youngs Moduli (GPa) = 84.56423 26.01530 82.76525
#
# Poissons Ratio (x) = 0.14527 0.38959
# Poissons Ratio (y) = 0.47220 0.74847
# Poissons Ratio (z) = 0.39805 0.23526
#
# Static dielectric constant tensor:
#      x y z
#    x 3.400690 0.000000 0.098060 
#    y 0.000000 3.140660 0.000000 
#    z 0.098060 0.000000 3.556100 
# 
# 
# High freq. dielectric constant tensor:
#      x y z
#    x 1.671320 0.000000 0.009960 
#    y 0.000000 1.667340 0.000000 
#    z 0.009960 0.000000 1.698710 
# 
# From -- ./inp_files/274999.got.cif
#   From: 2010.06.25/outbox.cif.g09.slc.cpg/sg12_138_cif.got.tgz:274999.got - 2010.06.28 00:19:55.
