data_PCOD8083303
_publ_section_title
;
Structure prediction by ZEFSAII (Michael W. Deem and Ramdas Pophale) SiO2 
 PCOD8083303
Probable space group: C 2/M
;
_chemical_formula_sum "Si O2"
_cell_formula_units_Z 64
_cell_length_a 19.779195
_cell_length_b 17.440689
_cell_length_c 21.076723
_cell_angle_alpha 90.000000
_cell_angle_beta 151.878922
_cell_angle_gamma 90.000000
_cell_volume 3426.938318
_symmetry_space_group_name_H-M "C 2/M"
_symmetry_group_IT_number 12
_symmetry_cell_setting 'monoclinic'
loop_
_space_group_symop_operation_xyz
x,y,z
-x,y,-z
-x,-y,-z
x,-y,z
1/2+x,1/2+y,z
1/2-x,1/2+y,-z
1/2-x,1/2-y,-z
1/2+x,1/2-y,z
loop_
_atom_site_type_symbol
_atom_site_label
_atom_site_fract_x
_atom_site_fract_y
_atom_site_fract_z
Si Si1 0.328167 0.832527 0.241878
Si Si2 0.239861 0.912187 0.958934
Si Si3 0.425250 0.642211 0.060588
Si Si4 0.233555 0.911125 0.287239
Si Si5 0.520709 0.788745 0.818787
Si Si6 0.381436 0.912088 0.539471
Si Si7 0.241433 0.827779 0.530988
Si Si8 0.074963 0.809369 0.737006
O O1 0.314065 0.858593 0.302641
O O2 0.473639 0.864880 0.331655
O O3 0.341210 0.739971 0.247157
O O4 0.193843 0.864382 0.091992
O O5 0.121907 0.905716 0.916870
O O6 0.169008 0.883012 0.834454
O O7 0.287542 0.000000 0.989689
O O8 0.377213 0.861747 0.090257
O O9 0.564606 0.602970 0.146411
O O10 0.455844 0.731119 0.103119
O O11 0.295458 0.885223 0.406176
O O12 0.266767 0.000000 0.299964
O O13 0.356676 0.820600 0.683586
O O14 0.559308 0.744773 0.786019
O O15 0.281316 0.897835 0.517488
O O16 0.423745 0.000000 0.569957
O O17 0.250000 0.750000 0.500000
O O18 0.077322 0.838209 0.417946
#
# Coordination Sequence:
#
# PCOD8083303 Si02
#       8
#     8   8   8   8   8   8   8   8
#     4  12  21  36  54  73 111 156 187 220 262 317
#     4  11  20  33  55  82 112 142 174 226 290 332
#     4  11  21  36  55  77 112 146 183 227 267 323
#     4  11  25  38  51  79 115 152 191 224 258 315
#     4  10  18  35  54  80 105 141 181 230 278 331
#     4  11  22  37  54  79 114 147 184 227 272 320
#     4  10  18  32  56  76 102 143 185 224 275 321
#     4  10  19  35  53  78 105 142 189 225 269 332
#
# _framework density 18.675563
#
# number of rings (size 3 to 8) (size 9 to 14) (size 15 to 20)
#    0.000    1.250    5.000    4.500    0.000    6.500 
#    0.000    0.000    0.000    0.000    0.000    1.750 
#    0.000    3.000    0.000    0.000    0.000    0.000 
#
# Total GULP energy -396828.927344 kJ/mol
# GULP energy per Si atom -12400.903980 kJ/mol
# Density = 1.863306 g / cm^3
# Si number density = 18.675563 Si / 1000 Ang^3
#
#
#
# Elastic Constant Matrix: (Units=GPa)
#
#
# Indices 1 2 3 4 5 6 
#
# 1 37.5877 19.4719 8.8305 0.0008 0.6133 -0.0019
# 2 19.4719 84.8371 29.5697 -0.0006 -2.3590 -0.0017
# 3 8.8305 29.5697 119.5566 0.0041 5.2069 0.0014
# 4 0.0008 -0.0006 0.0041 25.4581 -0.0011 -0.6920
# 5 0.6133 -2.3590 5.2069 -0.0011 20.4921 -0.0020
# 6 -0.0019 -0.0017 0.0014 -0.6920 -0.0020 27.0512
#
#
#
# Elastic Compliance Matrix: (Units=1/GPa)
#
#
# Indices 1 2 3 4 5 6 
#
# 1 0.030279 -0.006826 -0.000480 -0.000001 -0.001570 0.000002
# 2 -0.006826 0.014548 -0.003211 0.000001 0.002695 0.000001
# 3 -0.000480 -0.003211 0.009312 -0.000002 -0.002722 -0.000001
# 4 -0.000001 0.000001 -0.000002 0.039308 0.000003 0.001006
# 5 -0.001570 0.002695 -0.002722 0.000003 0.049848 0.000004
# 6 0.000002 0.000001 -0.000001 0.001006 0.000004 0.036993
#
#
# Mechanical properties :
#
#
# Convention : Reuss Voigt Hill
#
# Bulk Modulus (GPa) = 30.20669 39.74728 34.97698
# Shear Modulus (GPa) = 23.54519 26.87423 25.20971
#
# Velocity S-wave (km/s) = 3.55455 3.79754 3.67805
# Velocity P-wave (km/s) = 5.74944 6.36849 6.06686
#
# Compressibility (1/GPa) = 0.03310525
#
# Stress axis : x y z
#
# Youngs Moduli (GPa) = 33.02620 68.73661 107.38285
#
# Poissons Ratio (x) = 0.46920 0.05152
# Poissons Ratio (y) = 0.22544 0.34485
# Poissons Ratio (z) = 0.01584 0.22074
#
# Static dielectric constant tensor:
#      x y z
#    x 3.222800 -0.000150 0.101670 
#    y -0.000150 4.079630 0.000010 
#    z 0.101670 0.000010 3.956380 
# 
# 
# High freq. dielectric constant tensor:
#      x y z
#    x 1.672190 0.000000 0.003530 
#    y 0.000000 1.710550 0.000000 
#    z 0.003530 0.000000 1.753320 
# 
# From -- ./inp_files/317392.got.cif
#   From: 2010.06.25/outbox.cif.g09.slc.cpg/sg12_159_cif.got.tgz:317392.got - 2010.06.28 00:19:55.
