data_PCOD8083637
_publ_section_title
;
Structure prediction by ZEFSAII (Michael W. Deem and Ramdas Pophale) SiO2 
 PCOD8083637
Probable space group: C 2/M
;
_chemical_formula_sum "Si O2"
_cell_formula_units_Z 56
_cell_length_a 23.730222
_cell_length_b 8.840406
_cell_length_c 15.905431
_cell_angle_alpha 90.000000
_cell_angle_beta 56.880298
_cell_angle_gamma 90.000000
_cell_volume 2794.604045
_symmetry_space_group_name_H-M "C 2/M"
_symmetry_group_IT_number 12
_symmetry_cell_setting 'monoclinic'
loop_
_space_group_symop_operation_xyz
x,y,z
-x,y,-z
-x,-y,-z
x,-y,z
1/2+x,1/2+y,z
1/2-x,1/2+y,-z
1/2-x,1/2-y,-z
1/2+x,1/2-y,z
loop_
_atom_site_type_symbol
_atom_site_label
_atom_site_fract_x
_atom_site_fract_y
_atom_site_fract_z
Si Si1 0.576443 0.828724 0.464823
Si Si2 0.436424 0.326538 0.354240
Si Si3 0.934665 0.321588 0.826275
Si Si4 0.660724 0.179049 0.240782
Si Si5 0.797453 0.179943 0.203591
Si Si6 0.567132 0.679800 0.990705
Si Si7 0.794818 0.826420 0.392728
O O1 0.500000 0.827500 0.500000
O O2 0.589059 0.720948 0.533308
O O3 0.619556 0.757426 0.353895
O O4 0.599520 0.000000 0.468280
O O5 0.461324 0.500000 0.334359
O O6 0.496126 0.217564 0.276738
O O7 0.374159 0.305339 0.342419
O O8 0.931893 0.500000 0.843904
O O9 0.872091 0.263647 0.819635
O O10 0.929816 0.235658 0.917178
O O11 0.738349 0.231087 0.187331
O O12 0.653585 0.000000 0.248728
O O13 0.868100 0.244688 0.111764
O O14 0.781197 0.241998 0.310623
O O15 0.802189 0.000000 0.204414
O O16 0.566982 0.500000 0.992000
O O17 0.500000 0.741684 0.000000
O O18 0.750000 0.750000 0.500000
O O19 0.773708 0.000000 0.412438
#
# Coordination Sequence:
#
# PCOD8083637 Si02
#       7
#     8   8   8   8   8   8   8
#     4  10  18  33  55  79 111 153 194 230 277 334
#     4  11  22  35  54  84 118 150 189 237 288 337
#     4  11  22  37  57  83 112 144 187 235 281 335
#     4   9  18  33  54  81 111 145 188 230 274 336
#     4   9  18  35  58  79 107 149 187 224 279 338
#     4  10  21  39  61  83 109 143 185 232 283 340
#     4  10  21  37  58  84 113 148 189 232 278 335
#
# _framework density 20.038616999999999
#
# number of rings (size 3 to 8) (size 9 to 14) (size 15 to 20)
#    0.000    2.000    1.429    2.571    0.000    5.714 
#    0.000    0.714    0.000    2.571    0.000    0.000 
#    0.000    0.000    0.000    0.000    0.000    0.000 
#
# Total GULP energy -347185.078999 kJ/mol
# GULP energy per Si atom -12399.467107 kJ/mol
# Density = 1.999301 g / cm^3
# Si number density = 20.038617 Si / 1000 Ang^3
#
#
#
# Elastic Constant Matrix: (Units=GPa)
#
#
# Indices 1 2 3 4 5 6 
#
# 1 146.8062 19.6426 73.8562 0.0000 4.5689 0.0000
# 2 19.6426 16.7696 5.3894 -0.0001 0.8983 -0.0001
# 3 73.8562 5.3894 133.2297 0.0000 5.3760 0.0000
# 4 0.0000 -0.0001 0.0000 27.6082 0.0000 9.0563
# 5 4.5689 0.8983 5.3760 0.0000 40.2214 0.0000
# 6 0.0000 -0.0001 0.0000 9.0563 0.0000 14.9953
#
#
#
# Elastic Compliance Matrix: (Units=1/GPa)
#
#
# Indices 1 2 3 4 5 6 
#
# 1 0.011225 -0.011285 -0.005756 0.000000 -0.000254 0.000000
# 2 -0.011285 0.071804 0.003382 0.000000 -0.000774 0.000000
# 3 -0.005756 0.003382 0.010594 0.000000 -0.000838 0.000000
# 4 0.000000 0.000000 0.000000 0.045170 0.000000 -0.027280
# 5 -0.000254 -0.000774 -0.000838 0.000000 0.025020 0.000000
# 6 0.000000 0.000000 0.000000 -0.027280 0.000000 0.083163
#
#
# Mechanical properties :
#
#
# Convention : Reuss Voigt Hill
#
# Bulk Modulus (GPa) = 15.08155 54.95355 35.01755
# Shear Modulus (GPa) = 16.86935 29.75948 23.31441
#
# Velocity S-wave (km/s) = 2.90460 3.85789 3.41467
# Velocity P-wave (km/s) = 4.33492 6.87952 5.74975
#
# Compressibility (1/GPa) = 0.06630617
#
# Stress axis : x y z
#
# Youngs Moduli (GPa) = 89.08445 13.92674 94.39589
#
# Poissons Ratio (x) = 0.15716 0.54335
# Poissons Ratio (y) = 1.00531 -0.31929
# Poissons Ratio (z) = 0.51277 -0.04711
#
# Static dielectric constant tensor:
#      x y z
#    x 3.966820 0.000000 0.061600 
#    y 0.000000 3.308520 0.000000 
#    z 0.061600 0.000000 3.832080 
# 
# 
# High freq. dielectric constant tensor:
#      x y z
#    x 1.800430 0.000000 0.003100 
#    y 0.000000 1.741680 0.000000 
#    z 0.003100 0.000000 1.786420 
# 
# From -- ./inp_files/238269.got.cif
#   From: 2010.06.25/outbox.cif.g09.slc.cpg/sg12_120_cif.got.tgz:238269.got - 2010.06.28 00:19:55.
