data_PCOD8083653
_publ_section_title
;
Structure prediction by ZEFSAII (Michael W. Deem and Ramdas Pophale) SiO2 
 PCOD8083653
Probable space group: C 2/M
;
_chemical_formula_sum "Si O2"
_cell_formula_units_Z 56
_cell_length_a 19.993739
_cell_length_b 8.650995
_cell_length_c 21.889862
_cell_angle_alpha 90.000000
_cell_angle_beta 131.010330
_cell_angle_gamma 90.000000
_cell_volume 2857.030578
_symmetry_space_group_name_H-M "C 2/M"
_symmetry_group_IT_number 12
_symmetry_cell_setting 'monoclinic'
loop_
_space_group_symop_operation_xyz
x,y,z
-x,y,-z
-x,-y,-z
x,-y,z
1/2+x,1/2+y,z
1/2-x,1/2+y,-z
1/2-x,1/2-y,-z
1/2+x,1/2-y,z
loop_
_atom_site_type_symbol
_atom_site_label
_atom_site_fract_x
_atom_site_fract_y
_atom_site_fract_z
Si Si1 0.116333 0.820155 0.684849
Si Si2 0.196127 0.319282 0.151803
Si Si3 0.929450 0.174161 0.011561
Si Si4 0.328257 0.320219 0.418043
Si Si5 0.439574 0.180661 0.825070
Si Si6 0.566520 0.179818 0.411713
Si Si7 0.856584 0.180079 0.660982
O O1 0.202489 0.773382 0.775710
O O2 0.131556 0.779589 0.623428
O O3 0.035825 0.719535 0.662769
O O4 0.094227 0.000000 0.680136
O O5 0.183033 0.500000 0.134319
O O6 0.138445 0.266847 0.175704
O O7 0.163836 0.236687 0.070300
O O8 0.964587 0.276228 0.089249
O O9 0.916667 0.000000 0.026961
O O10 0.000000 0.186628 0.000000
O O11 0.301319 0.500000 0.405485
O O12 0.402567 0.280362 0.512089
O O13 0.242116 0.216579 0.376279
O O14 0.427164 0.273508 0.755021
O O15 0.435123 0.000000 0.808033
O O16 0.625621 0.222401 0.389063
O O17 0.578488 0.000000 0.433457
O O18 0.866078 0.000000 0.651698
#
# Coordination Sequence:
#
# PCOD8083653 Si02
#       7
#     8   8   8   8   8   8   8
#     4  10  21  39  61  85 115 152 191 233 285 341
#     4   9  17  32  54  81 112 149 187 227 279 337
#     4   9  17  28  46  79 116 148 183 231 279 325
#     4  11  22  41  64  86 113 148 190 238 288 340
#     4  10  18  33  55  82 113 149 188 231 282 337
#     4  12  26  41  57  83 116 152 193 237 286 340
#     4  12  24  39  60  85 115 151 191 238 287 340
#
# _framework density 19.600770000000001
#
# number of rings (size 3 to 8) (size 9 to 14) (size 15 to 20)
#    0.000    1.571    1.429    4.714    0.000    5.714 
#    0.000    0.000    0.000    0.857    0.000    0.000 
#    0.000    0.000    0.000    0.000    0.000    0.000 
#
# Total GULP energy -347337.175458 kJ/mol
# GULP energy per Si atom -12404.899124 kJ/mol
# Density = 1.955616 g / cm^3
# Si number density = 19.600770 Si / 1000 Ang^3
#
#
#
# Elastic Constant Matrix: (Units=GPa)
#
#
# Indices 1 2 3 4 5 6 
#
# 1 38.2010 19.1696 15.2523 0.0000 3.2938 0.0000
# 2 19.1696 63.8888 23.6215 0.0000 1.5741 0.0000
# 3 15.2523 23.6215 101.0812 0.0000 19.5929 0.0000
# 4 0.0000 0.0000 0.0000 37.1085 0.0000 2.8149
# 5 3.2938 1.5741 19.5929 0.0000 11.9718 0.0000
# 6 0.0000 0.0000 0.0000 2.8149 0.0000 26.8862
#
#
#
# Elastic Compliance Matrix: (Units=1/GPa)
#
#
# Indices 1 2 3 4 5 6 
#
# 1 0.031681 -0.008702 -0.001873 0.000000 -0.004506 0.000000
# 2 -0.008702 0.019853 -0.004810 0.000000 0.007656 0.000000
# 3 -0.001873 -0.004810 0.016224 0.000000 -0.025404 0.000000
# 4 0.000000 0.000000 0.000000 0.027164 0.000000 -0.002844
# 5 -0.004506 0.007656 -0.025404 0.000000 0.125339 0.000000
# 6 0.000000 0.000000 0.000000 -0.002844 0.000000 0.037492
#
#
# Mechanical properties :
#
#
# Convention : Reuss Voigt Hill
#
# Bulk Modulus (GPa) = 27.03716 35.47310 31.25513
# Shear Modulus (GPa) = 16.61944 24.86846 20.74395
#
# Velocity S-wave (km/s) = 2.91503 3.56581 3.25672
# Velocity P-wave (km/s) = 5.01535 5.92372 5.48836
#
# Compressibility (1/GPa) = 0.03698613
#
# Stress axis : x y z
#
# Youngs Moduli (GPa) = 31.56506 50.36995 61.63695
#
# Poissons Ratio (x) = 0.43832 0.11547
# Poissons Ratio (y) = 0.27468 0.29650
# Poissons Ratio (z) = 0.05913 0.24230
#
# Static dielectric constant tensor:
#      x y z
#    x 3.229600 0.000000 0.073580 
#    y 0.000000 3.526010 0.000000 
#    z 0.073580 0.000000 3.805180 
# 
# 
# High freq. dielectric constant tensor:
#      x y z
#    x 1.726440 0.000000 0.008740 
#    y 0.000000 1.767050 0.000000 
#    z 0.008740 0.000000 1.780260 
# 
# From -- ./inp_files/319668.got.cif
#   From: 2010.06.25/outbox.cif.g09.slc.cpg/sg12_160_cif.got.tgz:319668.got - 2010.06.28 00:19:55.
