data_PCOD8083521
_publ_section_title
;
Structure prediction by ZEFSAII (Michael W. Deem and Ramdas Pophale) SiO2 
 PCOD8083521
Probable space group: C 2/M
;
_chemical_formula_sum "Si O2"
_cell_formula_units_Z 48
_cell_length_a 11.547544
_cell_length_b 27.467184
_cell_length_c 15.038052
_cell_angle_alpha 90.000000
_cell_angle_beta 151.474948
_cell_angle_gamma 90.000000
_cell_volume 2277.759148
_symmetry_space_group_name_H-M "C 2/M"
_symmetry_group_IT_number 12
_symmetry_cell_setting 'monoclinic'
loop_
_space_group_symop_operation_xyz
x,y,z
-x,y,-z
-x,-y,-z
x,-y,z
1/2+x,1/2+y,z
1/2-x,1/2+y,-z
1/2-x,1/2-y,-z
1/2+x,1/2-y,z
loop_
_atom_site_type_symbol
_atom_site_label
_atom_site_fract_x
_atom_site_fract_y
_atom_site_fract_z
Si Si1 0.115824 0.946814 0.270272
Si Si2 0.087505 0.289618 0.937483
Si Si3 0.604763 0.946437 0.710693
Si Si4 0.490178 0.651578 0.737184
Si Si5 0.227718 0.288861 0.711239
Si Si6 0.975518 0.652236 0.692431
O O1 0.374117 0.942553 0.491532
O O2 0.158658 0.940039 0.192931
O O3 0.946284 0.904526 0.195985
O O4 0.998038 0.000000 0.208920
O O5 0.973521 0.326971 0.789577
O O6 0.871225 0.259846 0.839310
O O7 0.250000 0.250000 0.000000
O O8 0.258839 0.321048 0.120130
O O9 0.580955 0.903049 0.766350
O O10 0.613573 0.000000 0.763474
O O11 0.385988 0.674878 0.757671
O O12 0.300121 0.655483 0.528840
O O13 0.151715 0.315880 0.749484
O O14 0.000000 0.271240 0.500000
#
# Coordination Sequence:
#
# PCOD8083521 Si02
#       6
#     8   8   8   8   8   8
#     4   8  12  22  42  68  96 125 158 189 223 287
#     4  10  22  33  45  70  92 124 173 205 233 283
#     4   8  13  23  45  72  95 129 162 181 227 297
#     4   9  17  30  46  67  94 125 161 193 233 280
#     4   9  18  32  49  66  91 129 168 195 238 285
#     4  10  18  33  52  66 100 135 155 198 239 277
#
# _framework density 21.073343999999999
#
# number of rings (size 3 to 8) (size 9 to 14) (size 15 to 20)
#    0.000    3.000    1.667    1.000    0.000    8.667 
#    0.000    2.500    0.000    2.000    0.000    0.000 
#    0.000    2.667    0.000   46.000    0.000    2.500 
#
# Total GULP energy -297387.840019 kJ/mol
# GULP energy per Si atom -12391.160001 kJ/mol
# Density = 2.102538 g / cm^3
# Si number density = 21.073344 Si / 1000 Ang^3
#
#
#
# Elastic Constant Matrix: (Units=GPa)
#
#
# Indices 1 2 3 4 5 6 
#
# 1 17.5267 26.7616 15.4649 0.0002 -1.7963 0.0000
# 2 26.7616 178.1073 55.3511 0.0000 12.5004 0.0000
# 3 15.4649 55.3511 61.6698 0.0003 3.7776 0.0003
# 4 0.0002 0.0000 0.0003 16.2389 0.0003 4.8271
# 5 -1.7963 12.5004 3.7776 0.0003 20.7320 0.0001
# 6 0.0000 0.0000 0.0003 4.8271 0.0001 25.9912
#
#
#
# Elastic Compliance Matrix: (Units=1/GPa)
#
#
# Indices 1 2 3 4 5 6 
#
# 1 0.085595 -0.009704 -0.013721 -0.000001 0.015767 0.000000
# 2 -0.009704 0.009140 -0.005442 0.000000 -0.005360 0.000000
# 3 -0.013721 -0.005442 0.024688 0.000000 -0.002406 0.000000
# 4 -0.000001 0.000000 0.000000 0.065179 -0.000001 -0.012105
# 5 0.015767 -0.005360 -0.002406 -0.000001 0.053271 0.000000
# 6 0.000000 0.000000 0.000000 -0.012105 0.000000 0.040723
#
#
# Mechanical properties :
#
#
# Convention : Reuss Voigt Hill
#
# Bulk Modulus (GPa) = 16.21009 50.27322 33.24165
# Shear Modulus (GPa) = 14.00985 23.24084 18.62534
#
# Velocity S-wave (km/s) = 2.58120 3.32453 2.97616
# Velocity P-wave (km/s) = 4.07337 6.21649 5.25534
#
# Compressibility (1/GPa) = 0.06168998
#
# Stress axis : x y z
#
# Youngs Moduli (GPa) = 11.68289 109.40954 40.50579
#
# Poissons Ratio (x) = 1.06167 0.55579
# Poissons Ratio (y) = 0.11337 0.22042
# Poissons Ratio (z) = 0.16030 0.59538
#
# Static dielectric constant tensor:
#      x y z
#    x 3.255750 0.000000 0.172610 
#    y 0.000000 4.436350 0.000000 
#    z 0.172610 0.000000 3.947970 
# 
# 
# High freq. dielectric constant tensor:
#      x y z
#    x 1.750350 0.000000 -0.006790 
#    y 0.000000 1.841000 0.000000 
#    z -0.006790 0.000000 1.827570 
# 
# From -- ./inp_files/209907.got.cif
#   From: 2010.06.25/outbox.cif.g09.slc.cpg/sg12_105_cif.got.tgz:209907.got - 2010.06.28 00:19:55.
