data_PCOD8083024
_publ_section_title
;
Structure prediction by ZEFSAII (Michael W. Deem and Ramdas Pophale) SiO2 
 PCOD8083024
Probable space group: C 2/M
;
_chemical_formula_sum "Si O2"
_cell_formula_units_Z 56
_cell_length_a 19.775862
_cell_length_b 8.729612
_cell_length_c 19.366460
_cell_angle_alpha 90.000000
_cell_angle_beta 59.749337
_cell_angle_gamma 90.000000
_cell_volume 2888.076727
_symmetry_space_group_name_H-M "C 2/M"
_symmetry_group_IT_number 12
_symmetry_cell_setting 'monoclinic'
loop_
_space_group_symop_operation_xyz
x,y,z
-x,y,-z
-x,-y,-z
x,-y,z
1/2+x,1/2+y,z
1/2-x,1/2+y,-z
1/2-x,1/2-y,-z
1/2+x,1/2-y,z
loop_
_atom_site_type_symbol
_atom_site_label
_atom_site_fract_x
_atom_site_fract_y
_atom_site_fract_z
Si Si1 0.433248 0.323639 0.586893
Si Si2 0.739125 0.820900 0.167871
Si Si3 0.191388 0.680499 0.585565
Si Si4 0.826586 0.820321 0.993841
Si Si5 0.086850 0.681353 0.165087
Si Si6 0.526718 0.322988 0.675491
Si Si7 0.769593 0.319675 0.674261
O O1 0.500000 0.270501 0.500000
O O2 0.409957 0.500000 0.585081
O O3 0.462151 0.298652 0.649749
O O4 0.359244 0.217003 0.610021
O O5 0.660808 0.755521 0.171480
O O6 0.750163 0.753404 0.238971
O O7 0.724522 0.000000 0.182815
O O8 0.816965 0.787915 0.081319
O O9 0.196989 0.500000 0.577494
O O10 0.250000 0.750000 0.500000
O O11 0.104126 0.733933 0.612821
O O12 0.212026 0.734518 0.651865
O O13 0.901826 0.738602 0.920297
O O14 0.830614 0.000000 0.976723
O O15 0.750000 0.750000 0.000000
O O16 0.079184 0.500000 0.169950
O O17 0.007747 0.754547 0.235853
O O18 0.547955 0.500000 0.675218
O O19 0.755132 0.500000 0.675368
#
# Coordination Sequence:
#
# PCOD8083024 Si02
#       7
#     8   8   8   8   8   8   8
#     4  10  21  36  55  82 114 144 181 234 288 338
#     4   8  16  30  51  80 115 149 185 228 279 337
#     4  12  26  44  62  83 112 150 194 240 287 343
#     4   9  16  28  47  77 114 151 187 230 281 338
#     4  10  18  32  52  81 117 153 191 233 280 336
#     4  11  22  37  59  86 116 151 190 236 288 343
#     4  11  21  37  60  85 114 150 189 232 284 343
#
# _framework density 19.390067999999999
#
# number of rings (size 3 to 8) (size 9 to 14) (size 15 to 20)
#    0.000    1.857    1.429    4.714    0.000    2.000 
#    0.000    2.143    0.000    0.857    0.000    6.000 
#    0.000    0.000    0.000    0.000    0.000    0.000 
#
# Total GULP energy -347161.456053 kJ/mol
# GULP energy per Si atom -12398.623430 kJ/mol
# Density = 1.934593 g / cm^3
# Si number density = 19.390068 Si / 1000 Ang^3
#
#
#
# Elastic Constant Matrix: (Units=GPa)
#
#
# Indices 1 2 3 4 5 6 
#
# 1 36.2462 20.2651 4.0168 -0.0001 1.7123 0.0008
# 2 20.2651 101.4105 35.2034 -0.0001 -0.4320 0.0024
# 3 4.0168 35.2034 128.8098 0.0001 1.0881 -0.0001
# 4 -0.0001 -0.0001 0.0001 34.0268 -0.0001 -3.7679
# 5 1.7123 -0.4320 1.0881 -0.0001 26.1324 0.0000
# 6 0.0008 0.0024 -0.0001 -3.7679 0.0000 26.6708
#
#
#
# Elastic Compliance Matrix: (Units=1/GPa)
#
#
# Indices 1 2 3 4 5 6 
#
# 1 0.031260 -0.006545 0.000832 0.000000 -0.002191 0.000000
# 2 -0.006545 0.012267 -0.003155 0.000000 0.000763 -0.000001
# 3 0.000832 -0.003155 0.008604 0.000000 -0.000465 0.000000
# 4 0.000000 0.000000 0.000000 0.029856 0.000000 0.004218
# 5 -0.002191 0.000763 -0.000465 0.000000 0.038442 0.000000
# 6 0.000000 -0.000001 0.000000 0.004218 0.000000 0.038090
#
#
# Mechanical properties :
#
#
# Convention : Reuss Voigt Hill
#
# Bulk Modulus (GPa) = 29.07356 42.82634 35.94995
# Shear Modulus (GPa) = 26.63560 31.16475 28.90018
#
# Velocity S-wave (km/s) = 3.71033 4.01341 3.86484
# Velocity P-wave (km/s) = 5.77772 6.60388 6.20456
#
# Compressibility (1/GPa) = 0.03439551
#
# Stress axis : x y z
#
# Youngs Moduli (GPa) = 31.99009 81.51773 116.23043
#
# Poissons Ratio (x) = 0.53353 -0.09676
# Poissons Ratio (y) = 0.20938 0.36670
# Poissons Ratio (z) = -0.02663 0.25719
#
# Static dielectric constant tensor:
#      x y z
#    x 3.268430 0.000000 0.195270 
#    y 0.000000 3.496790 0.000000 
#    z 0.195270 0.000000 4.097830 
# 
# 
# High freq. dielectric constant tensor:
#      x y z
#    x 1.711390 0.000000 0.005860 
#    y 0.000000 1.752980 0.000000 
#    z 0.005860 0.000000 1.778650 
# 
# From -- ./inp_files/319695.got.cif
#   From: 2010.06.25/outbox.cif.g09.slc.cpg/sg12_160_cif.got.tgz:319695.got - 2010.06.28 00:19:55.
