data_PCOD8083890
_publ_section_title
;
Structure prediction by ZEFSAII (Michael W. Deem and Ramdas Pophale) SiO2 
 PCOD8083890
Probable space group: C 2/M
;
_chemical_formula_sum "Si O2"
_cell_formula_units_Z 56
_cell_length_a 29.798586
_cell_length_b 8.921059
_cell_length_c 11.669513
_cell_angle_alpha 90.000000
_cell_angle_beta 64.986925
_cell_angle_gamma 90.000000
_cell_volume 2811.216439
_symmetry_space_group_name_H-M "C 2/M"
_symmetry_group_IT_number 12
_symmetry_cell_setting 'monoclinic'
loop_
_space_group_symop_operation_xyz
x,y,z
-x,y,-z
-x,-y,-z
x,-y,z
1/2+x,1/2+y,z
1/2-x,1/2+y,-z
1/2-x,1/2-y,-z
1/2+x,1/2-y,z
loop_
_atom_site_type_symbol
_atom_site_label
_atom_site_fract_x
_atom_site_fract_y
_atom_site_fract_z
Si Si1 0.075796 0.177168 0.187802
Si Si2 0.097714 0.325145 0.632029
Si Si3 0.790839 0.323197 0.536563
Si Si4 0.317365 0.325694 0.984635
Si Si5 0.558221 0.669250 0.454025
Si Si6 0.732805 0.325197 0.199929
Si Si7 0.515505 0.322087 0.857734
O O1 0.125046 0.218708 0.063583
O O2 0.081776 0.234602 0.311514
O O3 0.026933 0.243918 0.180587
O O4 0.069143 0.000000 0.200914
O O5 0.089804 0.500000 0.655985
O O6 0.155603 0.282348 0.573911
O O7 0.074457 0.277815 0.536768
O O8 0.068985 0.243325 0.766408
O O9 0.782216 0.500000 0.549873
O O10 0.750000 0.250000 0.500000
O O11 0.788183 0.261003 0.668078
O O12 0.307592 0.500000 0.020705
O O13 0.301451 0.287149 0.871915
O O14 0.288272 0.228852 0.109923
O O15 0.500000 0.668715 0.500000
O O16 0.576876 0.500000 0.461140
O O17 0.733905 0.500000 0.227950
O O18 0.519303 0.500000 0.846180
O O19 0.500000 0.268362 0.000000
#
# Coordination Sequence:
#
# PCOD8083890 Si02
#       7
#     8   8   8   8   8   8   8
#     4   9  17  32  54  84 114 148 195 239 279 332
#     4  11  24  40  59  87 122 151 185 240 301 351
#     4  11  25  43  62  85 115 153 197 244 294 353
#     4   9  18  33  56  83 117 155 193 241 292 343
#     4  10  18  33  60  87 117 154 194 239 281 335
#     4  10  20  36  58  85 115 150 194 243 297 350
#     4  10  21  38  59  82 112 153 200 238 275 337
#
# _framework density 19.920200999999999
#
# number of rings (size 3 to 8) (size 9 to 14) (size 15 to 20)
#    0.000    2.000    1.429    2.143    0.000    5.714 
#    0.000    2.857    0.000    0.000    0.000    0.000 
#    0.000    0.000    0.000    0.000    0.000    0.000 
#
# Total GULP energy -347204.250791 kJ/mol
# GULP energy per Si atom -12400.151814 kJ/mol
# Density = 1.987486 g / cm^3
# Si number density = 19.920201 Si / 1000 Ang^3
#
#
#
# Elastic Constant Matrix: (Units=GPa)
#
#
# Indices 1 2 3 4 5 6 
#
# 1 92.7979 40.3681 56.9616 0.0000 -16.9070 0.0000
# 2 40.3681 61.1553 53.2261 0.0000 -7.8313 0.0000
# 3 56.9616 53.2261 149.6001 0.0000 -15.9460 0.0000
# 4 0.0000 0.0000 0.0000 32.9518 0.0000 -5.3830
# 5 -16.9070 -7.8313 -15.9460 0.0000 29.3328 0.0000
# 6 0.0000 0.0000 0.0000 -5.3830 0.0000 21.2092
#
#
#
# Elastic Compliance Matrix: (Units=1/GPa)
#
#
# Indices 1 2 3 4 5 6 
#
# 1 0.017229 -0.007889 -0.003099 0.000000 0.006140 0.000000
# 2 -0.007889 0.027394 -0.006844 0.000000 -0.000954 0.000000
# 3 -0.003099 -0.006844 0.010524 0.000000 0.002108 0.000000
# 4 0.000000 0.000000 0.000000 0.031660 0.000000 0.008036
# 5 0.006140 -0.000954 0.002108 0.000000 0.038521 0.000000
# 6 0.000000 0.000000 0.000000 0.008036 0.000000 0.049189
#
#
# Mechanical properties :
#
#
# Convention : Reuss Voigt Hill
#
# Bulk Modulus (GPa) = 51.32857 67.18499 59.25678
# Shear Modulus (GPa) = 23.07593 26.89860 24.98726
#
# Velocity S-wave (km/s) = 3.40725 3.67865 3.54555
# Velocity P-wave (km/s) = 6.42667 7.20025 6.82443
#
# Compressibility (1/GPa) = 0.01948233
#
# Stress axis : x y z
#
# Youngs Moduli (GPa) = 58.04290 36.50397 95.01989
#
# Poissons Ratio (x) = 0.28800 0.29442
# Poissons Ratio (y) = 0.45793 0.65035
# Poissons Ratio (z) = 0.17985 0.24985
#
# Static dielectric constant tensor:
#      x y z
#    x 3.822860 0.000000 -0.006610 
#    y 0.000000 3.455920 0.000000 
#    z -0.006610 0.000000 3.996670 
# 
# 
# High freq. dielectric constant tensor:
#      x y z
#    x 1.775680 0.000000 -0.013030 
#    y 0.000000 1.755160 0.000000 
#    z -0.013030 0.000000 1.789270 
# 
# From -- ./inp_files/187252.got.cif
#   From: 2010.06.25/outbox.cif.g09.slc.cpg/sg12_94_cif.got.tgz:187252.got - 2010.06.28 00:19:55.
