data_PCOD8083786
_publ_section_title
;
Structure prediction by ZEFSAII (Michael W. Deem and Ramdas Pophale) SiO2 
 PCOD8083786
Probable space group: C 2/M
;
_chemical_formula_sum "Si O2"
_cell_formula_units_Z 52
_cell_length_a 17.800660
_cell_length_b 17.158268
_cell_length_c 18.014972
_cell_angle_alpha 90.000000
_cell_angle_beta 149.570073
_cell_angle_gamma 90.000000
_cell_volume 2786.820853
_symmetry_space_group_name_H-M "C 2/M"
_symmetry_group_IT_number 12
_symmetry_cell_setting 'monoclinic'
loop_
_space_group_symop_operation_xyz
x,y,z
-x,y,-z
-x,-y,-z
x,-y,z
1/2+x,1/2+y,z
1/2-x,1/2+y,-z
1/2-x,1/2-y,-z
1/2+x,1/2-y,z
loop_
_atom_site_type_symbol
_atom_site_label
_atom_site_fract_x
_atom_site_fract_y
_atom_site_fract_z
Si Si1 0.007130 0.500000 0.129860
Si Si2 0.015040 0.233731 0.804393
Si Si3 0.200826 0.352441 0.303305
Si Si4 0.179092 0.000000 0.831713
Si Si5 0.879303 0.252046 0.343809
Si Si6 0.691240 0.000000 0.906599
Si Si7 0.964521 0.137710 0.626792
Si Si8 0.232979 0.667598 0.887089
O O1 0.096688 0.421994 0.185017
O O2 0.966467 0.500000 0.183351
O O3 0.851272 0.500000 0.950373
O O4 0.117584 0.289509 0.842531
O O5 0.886846 0.284166 0.731085
O O6 0.941013 0.164949 0.691882
O O7 0.104441 0.192404 0.947027
O O8 0.282690 0.313576 0.303054
O O9 0.312948 0.391383 0.459004
O O10 0.093793 0.074661 0.729068
O O11 0.177010 0.000000 0.919784
O O12 0.778908 0.311610 0.210813
O O13 0.000000 0.295198 0.500000
O O14 0.983794 0.212686 0.372812
O O15 0.706082 0.075445 0.867992
#
# Coordination Sequence:
#
# PCOD8083786 Si02
#       8
#     4   8   8   4   8   4   8   8
#     4  10  21  34  55  90 117 142 188 242 286 336
#     4  10  18  33  57  87 107 146 196 243 278 329
#     4  11  21  36  55  86 121 144 193 239 282 337
#     4  10  19  36  57  83 117 148 189 226 299 341
#     4   9  22  38  55  81 117 159 189 226 290 351
#     4  10  18  36  59  87 111 144 188 241 278 335
#     4  10  20  36  57  79 116 159 185 231 289 344
#     4  10  19  35  61  81 115 149 194 234 283 336
#
# _framework density 18.659255000000002
#
# number of rings (size 3 to 8) (size 9 to 14) (size 15 to 20)
#    0.462    1.538    3.077    0.923    4.308    1.231 
#    0.000    3.462    0.000    2.769    0.000    0.000 
#    0.000    0.000    0.000    0.000    0.000    0.000 
#
# Total GULP energy -322221.367831 kJ/mol
# GULP energy per Si atom -12393.129532 kJ/mol
# Density = 1.861679 g / cm^3
# Si number density = 18.659255 Si / 1000 Ang^3
#
#
#
# Elastic Constant Matrix: (Units=GPa)
#
#
# Indices 1 2 3 4 5 6 
#
# 1 54.2642 20.9614 42.9996 -0.0028 -7.4866 -0.0018
# 2 20.9614 85.1554 46.1254 -0.0019 -9.5530 -0.0019
# 3 42.9996 46.1254 110.7086 -0.0030 -13.0390 -0.0015
# 4 -0.0028 -0.0019 -0.0030 30.0199 -0.0031 3.3597
# 5 -7.4866 -9.5530 -13.0390 -0.0031 32.0590 -0.0020
# 6 -0.0018 -0.0019 -0.0015 3.3597 -0.0020 26.9846
#
#
#
# Elastic Compliance Matrix: (Units=1/GPa)
#
#
# Indices 1 2 3 4 5 6 
#
# 1 0.026840 -0.001116 -0.009727 0.000002 0.001979 0.000001
# 2 -0.001116 0.015341 -0.005725 0.000000 0.001982 0.000001
# 3 -0.009727 -0.005725 0.015468 0.000001 0.002314 0.000000
# 4 0.000002 0.000000 0.000001 0.033782 0.000004 -0.004206
# 5 0.001979 0.001982 0.002314 0.000004 0.033187 0.000002
# 6 0.000001 0.000001 0.000000 -0.004206 0.000002 0.037582
#
#
# Mechanical properties :
#
#
# Convention : Reuss Voigt Hill
#
# Bulk Modulus (GPa) = 40.79227 52.25566 46.52396
# Shear Modulus (GPa) = 24.56925 27.14883 25.85904
#
# Velocity S-wave (km/s) = 3.63262 3.81856 3.72675
# Velocity P-wave (km/s) = 6.28520 6.89259 6.59589
#
# Compressibility (1/GPa) = 0.02451445
#
# Stress axis : x y z
#
# Youngs Moduli (GPa) = 37.25771 65.18376 64.64869
#
# Poissons Ratio (x) = 0.07276 0.62881
# Poissons Ratio (y) = 0.04159 0.37009
# Poissons Ratio (z) = 0.36239 0.37316
#
# Static dielectric constant tensor:
#      x y z
#    x 3.233070 0.000000 -0.201620 
#    y 0.000000 3.239450 0.000000 
#    z -0.201620 0.000000 3.861170 
# 
# 
# High freq. dielectric constant tensor:
#      x y z
#    x 1.700060 0.000000 -0.005050 
#    y 0.000000 1.708070 0.000000 
#    z -0.005050 0.000000 1.737170 
# 
# From -- ./inp_files/278756.got.cif
#   From: 2010.06.25/outbox.cif.g09.slc.cpg/sg12_140_cif.got.tgz:278756.got - 2010.06.28 00:19:55.
