data_PCOD8083272
_publ_section_title
;
Structure prediction by ZEFSAII (Michael W. Deem and Ramdas Pophale) SiO2 
 PCOD8083272
Probable space group: C 2/M
;
_chemical_formula_sum "Si O2"
_cell_formula_units_Z 64
_cell_length_a 31.966056
_cell_length_b 14.002850
_cell_length_c 21.868107
_cell_angle_alpha 90.000000
_cell_angle_beta 20.829646
_cell_angle_gamma 90.000000
_cell_volume 3480.703021
_symmetry_space_group_name_H-M "C 2/M"
_symmetry_group_IT_number 12
_symmetry_cell_setting 'monoclinic'
loop_
_space_group_symop_operation_xyz
x,y,z
-x,y,-z
-x,-y,-z
x,-y,z
1/2+x,1/2+y,z
1/2-x,1/2+y,-z
1/2-x,1/2-y,-z
1/2+x,1/2-y,z
loop_
_atom_site_type_symbol
_atom_site_label
_atom_site_fract_x
_atom_site_fract_y
_atom_site_fract_z
Si Si1 0.689769 0.109713 0.465166
Si Si2 0.610255 0.889211 0.709829
Si Si3 0.518501 0.699757 0.402870
Si Si4 0.135089 0.726091 0.795361
Si Si5 0.141232 0.606724 0.988049
Si Si6 0.025814 0.396143 0.329727
Si Si7 0.738074 0.162032 0.972819
Si Si8 0.293613 0.393327 0.666103
O O1 0.671707 0.133011 0.561374
O O2 0.798136 0.172719 0.292677
O O3 0.570012 0.131681 0.591406
O O4 0.726810 0.000000 0.405591
O O5 0.656800 0.819694 0.698951
O O6 0.628153 0.000000 0.704212
O O7 0.473424 0.862556 0.891980
O O8 0.500000 0.682249 0.500000
O O9 0.532592 0.813655 0.371855
O O10 0.629186 0.634724 0.228673
O O11 0.413674 0.665656 0.502430
O O12 0.193714 0.653834 0.762107
O O13 0.000000 0.740872 0.000000
O O14 0.122541 0.500000 0.042033
O O15 0.168262 0.682563 0.004816
O O16 0.251873 0.604739 0.792655
O O17 0.993532 0.500000 0.403106
O O18 0.155659 0.411565 0.122264
O O19 0.750000 0.250000 0.000000
O O20 0.316553 0.500000 0.610033
#
# Coordination Sequence:
#
# PCOD8083272 Si02
#       8
#     8   8   8   8   8   8   8   8
#     4  10  21  38  59  82 110 149 193 232 275 331
#     4  10  20  35  59  87 111 143 188 235 280 336
#     4  11  22  37  56  85 117 147 187 231 282 336
#     4  12  23  37  58  85 116 149 185 237 287 337
#     4  10  18  32  55  82 111 145 187 228 273 336
#     4  10  20  37  60  81 110 149 191 234 271 326
#     4  10  20  33  55  84 110 146 185 232 276 323
#     4  11  23  36  53  84 122 150 180 229 288 344
#
# _framework density 18.387091000000002
#
# number of rings (size 3 to 8) (size 9 to 14) (size 15 to 20)
#    0.000    1.500    5.000    1.125    0.000    2.250 
#    0.000    0.000    0.000    0.000    0.000    1.750 
#    0.000    0.000    0.000    0.000    0.000    0.000 
#
# Total GULP energy -396459.545974 kJ/mol
# GULP energy per Si atom -12389.360812 kJ/mol
# Density = 1.834524 g / cm^3
# Si number density = 18.387091 Si / 1000 Ang^3
#
#
#
# Elastic Constant Matrix: (Units=GPa)
#
#
# Indices 1 2 3 4 5 6 
#
# 1 76.3296 30.9387 24.4980 0.0000 -4.5801 0.0000
# 2 30.9387 86.1273 41.0194 0.0000 -4.5504 0.0000
# 3 24.4980 41.0194 109.7396 0.0000 -10.5938 0.0000
# 4 0.0000 0.0000 0.0000 18.3558 0.0000 2.2072
# 5 -4.5801 -4.5504 -10.5938 0.0000 25.1226 0.0000
# 6 0.0000 0.0000 0.0000 2.2072 0.0000 27.3948
#
#
#
# Elastic Compliance Matrix: (Units=1/GPa)
#
#
# Indices 1 2 3 4 5 6 
#
# 1 0.015628 -0.004797 -0.001568 0.000000 0.001319 0.000000
# 2 -0.004797 0.015601 -0.004766 0.000000 -0.000059 0.000000
# 3 -0.001568 -0.004766 0.011606 0.000000 0.003745 0.000000
# 4 0.000000 0.000000 0.000000 0.055012 0.000000 -0.004432
# 5 0.001319 -0.000059 0.003745 0.000000 0.041614 0.000000
# 6 0.000000 0.000000 0.000000 -0.004432 0.000000 0.036860
#
#
# Mechanical properties :
#
#
# Convention : Reuss Voigt Hill
#
# Bulk Modulus (GPa) = 48.61196 51.67874 50.14535
# Shear Modulus (GPa) = 24.33791 25.89066 25.11428
#
# Velocity S-wave (km/s) = 3.64214 3.75652 3.69977
# Velocity P-wave (km/s) = 6.64698 6.85436 6.75147
#
# Compressibility (1/GPa) = 0.02057107
#
# Stress axis : x y z
#
# Youngs Moduli (GPa) = 63.98748 64.09897 86.16520
#
# Poissons Ratio (x) = 0.30750 0.13513
# Poissons Ratio (y) = 0.30697 0.41068
# Poissons Ratio (z) = 0.10035 0.30551
#
# Static dielectric constant tensor:
#      x y z
#    x 3.333880 0.000000 -0.027330 
#    y 0.000000 3.325640 0.000000 
#    z -0.027330 0.000000 3.796970 
# 
# 
# High freq. dielectric constant tensor:
#      x y z
#    x 1.713910 0.000000 -0.004010 
#    y 0.000000 1.697550 0.000000 
#    z -0.004010 0.000000 1.717430 
# 
# From -- ./inp_files/156610.got.cif
#   From: 2010.06.25/outbox.cif.g09.slc.cpg/sg12_79_cif.got.tgz:156610.got - 2010.06.28 00:19:55.
