data_PCOD8083050
_publ_section_title
;
Structure prediction by ZEFSAII (Michael W. Deem and Ramdas Pophale) SiO2 
 PCOD8083050
Probable space group: C 2/M
;
_chemical_formula_sum "Si O2"
_cell_formula_units_Z 48
_cell_length_a 15.006716
_cell_length_b 18.950687
_cell_length_c 9.665815
_cell_angle_alpha 90.000000
_cell_angle_beta 104.137898
_cell_angle_gamma 90.000000
_cell_volume 2665.577250
_symmetry_space_group_name_H-M "C 2/M"
_symmetry_group_IT_number 12
_symmetry_cell_setting 'monoclinic'
loop_
_space_group_symop_operation_xyz
x,y,z
-x,y,-z
-x,-y,-z
x,-y,z
1/2+x,1/2+y,z
1/2-x,1/2+y,-z
1/2-x,1/2-y,-z
1/2+x,1/2-y,z
loop_
_atom_site_type_symbol
_atom_site_label
_atom_site_fract_x
_atom_site_fract_y
_atom_site_fract_z
Si Si1 0.076958 0.718379 0.791086
Si Si2 0.714459 0.419695 0.861969
Si Si3 0.089752 0.579727 0.945696
Si Si4 0.373069 0.268957 0.677196
Si Si5 0.689372 0.307185 0.629804
Si Si6 0.397198 0.667279 0.972245
O O1 0.093931 0.635204 0.821503
O O2 0.142547 0.741543 0.691214
O O3 0.971789 0.732261 0.712209
O O4 0.103874 0.759911 0.941333
O O5 0.685030 0.500000 0.828807
O O6 0.677966 0.378048 0.714337
O O7 0.823544 0.411047 0.919996
O O8 0.666540 0.391257 0.982542
O O9 0.086903 0.500000 0.883795
O O10 0.000000 0.597144 0.000000
O O11 0.361488 0.317671 0.536378
O O12 0.296719 0.207800 0.645924
O O13 0.358175 0.317768 0.805315
O O14 0.500000 0.636706 0.000000
#
# Coordination Sequence:
#
# PCOD8083050 Si02
#       6
#     8   8   8   8   8   8
#     4  10  18  32  53  74  99 129 166 209 249 291
#     4  10  20  34  51  74 104 134 165 203 248 297
#     4  10  19  30  49  77 104 131 165 205 249 295
#     4  10  19  32  51  76  99 126 168 210 248 292
#     4  10  20  32  51  74 101 133 167 205 249 296
#     4   9  18  32  53  74  95 126 168 211 249 289
#
# _framework density 18.007358
#
# number of rings (size 3 to 8) (size 9 to 14) (size 15 to 20)
#    0.000    2.167    0.000    5.000    0.000    3.000 
#    0.000    0.833    0.000   19.000    0.000    0.000 
#    0.000    0.000    0.000    0.000    0.000    0.000 
#
# Total GULP energy -297656.668085 kJ/mol
# GULP energy per Si atom -12402.361170 kJ/mol
# Density = 1.796637 g / cm^3
# Si number density = 18.007358 Si / 1000 Ang^3
#
#
#
# Elastic Constant Matrix: (Units=GPa)
#
#
# Indices 1 2 3 4 5 6 
#
# 1 74.5890 33.3277 31.6207 0.0000 -1.9545 0.0000
# 2 33.3277 115.0235 57.1465 0.0000 2.0827 0.0000
# 3 31.6207 57.1465 141.6466 0.0000 0.0228 0.0000
# 4 0.0000 0.0000 0.0000 15.8747 0.0000 1.7289
# 5 -1.9545 2.0827 0.0228 0.0000 21.4037 0.0000
# 6 0.0000 0.0000 0.0000 1.7289 0.0000 22.6937
#
#
#
# Elastic Compliance Matrix: (Units=1/GPa)
#
#
# Indices 1 2 3 4 5 6 
#
# 1 0.015961 -0.003611 -0.002107 0.000000 0.001811 0.000000
# 2 -0.003611 0.011714 -0.003920 0.000000 -0.001465 0.000000
# 3 -0.002107 -0.003920 0.009111 0.000000 0.000179 0.000000
# 4 0.000000 0.000000 0.000000 0.063520 0.000000 -0.004839
# 5 0.001811 -0.001465 0.000179 0.000000 0.047029 0.000000
# 6 0.000000 0.000000 0.000000 -0.004839 0.000000 0.044434
#
#
# Mechanical properties :
#
#
# Convention : Reuss Voigt Hill
#
# Bulk Modulus (GPa) = 57.10329 63.93878 60.52103
# Shear Modulus (GPa) = 23.05424 25.93871 24.49648
#
# Velocity S-wave (km/s) = 3.58196 3.79944 3.69231
# Velocity P-wave (km/s) = 6.99194 7.40485 7.20136
#
# Compressibility (1/GPa) = 0.01751213
#
# Stress axis : x y z
#
# Youngs Moduli (GPa) = 62.65415 85.36797 109.75243
#
# Poissons Ratio (x) = 0.30824 0.23120
# Poissons Ratio (y) = 0.22623 0.43019
# Poissons Ratio (z) = 0.13198 0.33461
#
# Static dielectric constant tensor:
#      x y z
#    x 3.522120 0.000000 0.016320 
#    y 0.000000 3.139430 0.000000 
#    z 0.016320 0.000000 3.323500 
# 
# 
# High freq. dielectric constant tensor:
#      x y z
#    x 1.718060 0.000000 0.003800 
#    y 0.000000 1.672000 0.000000 
#    z 0.003800 0.000000 1.688410 
# 
# From -- ./inp_files/63573.got.cif
#   From: 2010.06.25/outbox.cif.g09.slc.cpg/sg12_32_cif.got.tgz:63573.got - 2010.06.28 00:19:55.
