data_PCOD8083736
_publ_section_title
;
Structure prediction by ZEFSAII (Michael W. Deem and Ramdas Pophale) SiO2 
 PCOD8083736
Probable space group: C 2/M
;
_chemical_formula_sum "Si O2"
_cell_formula_units_Z 64
_cell_length_a 20.565818
_cell_length_b 9.135087
_cell_length_c 18.710452
_cell_angle_alpha 90.000000
_cell_angle_beta 97.159317
_cell_angle_gamma 90.000000
_cell_volume 3487.736653
_symmetry_space_group_name_H-M "C 2/M"
_symmetry_group_IT_number 12
_symmetry_cell_setting 'monoclinic'
loop_
_space_group_symop_operation_xyz
x,y,z
-x,y,-z
-x,-y,-z
x,-y,z
1/2+x,1/2+y,z
1/2-x,1/2+y,-z
1/2-x,1/2-y,-z
1/2+x,1/2-y,z
loop_
_atom_site_type_symbol
_atom_site_label
_atom_site_fract_x
_atom_site_fract_y
_atom_site_fract_z
Si Si1 0.698068 0.671104 0.541699
Si Si2 0.111738 0.674213 0.903551
Si Si3 0.031120 0.326519 0.162495
Si Si4 0.088622 0.673687 0.320097
Si Si5 0.560511 0.672444 0.460006
Si Si6 0.233470 0.328173 0.307741
Si Si7 0.137696 0.326584 0.066717
Si Si8 0.770868 0.173844 0.157449
O O1 0.707724 0.500000 0.530757
O O2 0.750000 0.750000 0.500000
O O3 0.625501 0.722444 0.511214
O O4 0.711780 0.712987 0.626070
O O5 0.118411 0.500000 0.899753
O O6 0.164059 0.747068 0.859059
O O7 0.040682 0.729872 0.868520
O O8 0.122973 0.732120 0.985506
O O9 0.034214 0.500000 0.157808
O O10 0.047863 0.276058 0.245012
O O11 0.084433 0.260054 0.114549
O O12 0.087179 0.500000 0.330472
O O13 0.055053 0.747674 0.383577
O O14 0.162798 0.734412 0.321949
O O15 0.500000 0.723295 0.500000
O O16 0.559434 0.500000 0.445907
O O17 0.224295 0.500000 0.297102
O O18 0.256169 0.265090 0.234862
O O19 0.132104 0.500000 0.067934
O O20 0.210506 0.277582 0.099027
O O21 0.781605 0.000000 0.157633
#
# Coordination Sequence:
#
# PCOD8083736 Si02
#       8
#     8   8   8   8   8   8   8   8
#     4  10  19  33  54  77 100 130 169 208 248 295
#     4  10  20  32  49  77 109 133 163 214 263 297
#     4   9  17  31  53  78 101 131 173 215 253 297
#     4  10  18  33  57  78  98 129 174 218 249 289
#     4  10  22  37  52  76 110 139 162 199 257 316
#     4   9  17  31  53  76  97 128 172 213 245 290
#     4   9  16  30  53  76  99 135 177 210 246 299
#     4  10  19  33  53  75 101 137 175 206 247 305
#
# _framework density 18.350010000000001
#
# number of rings (size 3 to 8) (size 9 to 14) (size 15 to 20)
#    0.000    2.375    2.500    0.750    0.000    2.750 
#    0.000    3.125    0.000    3.000    0.000    0.000 
#    0.000    0.000    0.000    0.000    0.000    0.000 
#
# Total GULP energy -396802.252044 kJ/mol
# GULP energy per Si atom -12400.070376 kJ/mol
# Density = 1.830824 g / cm^3
# Si number density = 18.350010 Si / 1000 Ang^3
#
#
#
# Elastic Constant Matrix: (Units=GPa)
#
#
# Indices 1 2 3 4 5 6 
#
# 1 132.7383 23.4190 63.4077 0.0000 -8.2363 0.0000
# 2 23.4190 18.2291 24.6003 0.0000 -3.6629 0.0000
# 3 63.4077 24.6003 148.3400 0.0000 -5.4615 0.0000
# 4 0.0000 0.0000 0.0000 23.2741 0.0000 -6.1837
# 5 -8.2363 -3.6629 -5.4615 0.0000 37.3390 0.0000
# 6 0.0000 0.0000 0.0000 -6.1837 0.0000 23.8882
#
#
#
# Elastic Compliance Matrix: (Units=1/GPa)
#
#
# Indices 1 2 3 4 5 6 
#
# 1 0.010689 -0.009555 -0.002948 0.000000 0.000989 0.000000
# 2 -0.009555 0.080253 -0.009061 0.000000 0.004440 0.000000
# 3 -0.002948 -0.009061 0.009499 0.000000 -0.000150 0.000000
# 4 0.000000 0.000000 0.000000 0.046140 0.000000 0.011944
# 5 0.000989 0.004440 -0.000150 0.000000 0.027413 0.000000
# 6 0.000000 0.000000 0.000000 0.011944 0.000000 0.044953
#
#
# Mechanical properties :
#
#
# Convention : Reuss Voigt Hill
#
# Bulk Modulus (GPa) = 17.44838 58.01794 37.73316
# Shear Modulus (GPa) = 17.78224 29.42561 23.60392
#
# Velocity S-wave (km/s) = 3.11635 4.00881 3.59042
# Velocity P-wave (km/s) = 4.74111 7.28790 6.14783
#
# Compressibility (1/GPa) = 0.05731193
#
# Stress axis : x y z
#
# Youngs Moduli (GPa) = 93.55380 12.46063 105.27928
#
# Poissons Ratio (x) = 0.11906 0.31036
# Poissons Ratio (y) = 0.89392 0.95395
# Poissons Ratio (z) = 0.27580 0.11291
#
# Static dielectric constant tensor:
#      x y z
#    x 4.853870 0.000000 -0.604950 
#    y 0.000000 2.903370 0.000000 
#    z -0.604950 0.000000 3.548920 
# 
# 
# High freq. dielectric constant tensor:
#      x y z
#    x 1.719500 0.000000 0.004390 
#    y 0.000000 1.661570 0.000000 
#    z 0.004390 0.000000 1.728850 
# 
# From -- ./inp_files/276522.got.cif
#   From: 2010.06.25/outbox.cif.g09.slc.cpg/sg12_139_cif.got.tgz:276522.got - 2010.06.28 00:19:55.
