data_PCOD8083562
_publ_section_title
;
Structure prediction by ZEFSAII (Michael W. Deem and Ramdas Pophale) SiO2 
 PCOD8083562
Probable space group: C 2/M
;
_chemical_formula_sum "Si O2"
_cell_formula_units_Z 56
_cell_length_a 16.641044
_cell_length_b 16.252089
_cell_length_c 12.068015
_cell_angle_alpha 90.000000
_cell_angle_beta 114.683174
_cell_angle_gamma 90.000000
_cell_volume 2965.603473
_symmetry_space_group_name_H-M "C 2/M"
_symmetry_group_IT_number 12
_symmetry_cell_setting 'monoclinic'
loop_
_space_group_symop_operation_xyz
x,y,z
-x,y,-z
-x,-y,-z
x,-y,z
1/2+x,1/2+y,z
1/2-x,1/2+y,-z
1/2-x,1/2-y,-z
1/2+x,1/2-y,z
loop_
_atom_site_type_symbol
_atom_site_label
_atom_site_fract_x
_atom_site_fract_y
_atom_site_fract_z
Si Si1 0.175444 0.903493 0.786635
Si Si2 0.150912 0.203473 0.311419
Si Si3 0.087877 0.330690 0.600925
Si Si4 0.753376 0.590822 0.213442
Si Si5 0.191935 0.183835 0.571675
Si Si6 0.303787 0.168291 0.016748
Si Si7 0.552728 0.264957 0.803099
O O1 0.168184 0.883161 0.651543
O O2 0.104247 0.852603 0.819554
O O3 0.157566 0.000000 0.792854
O O4 0.274570 0.877746 0.886371
O O5 0.182812 0.155110 0.220730
O O6 0.169388 0.149803 0.434933
O O7 0.205528 0.288944 0.355114
O O8 0.048823 0.220196 0.227370
O O9 0.156337 0.403573 0.663688
O O10 0.131156 0.265077 0.542780
O O11 0.062570 0.281118 0.694479
O O12 0.000000 0.371115 0.500000
O O13 0.713367 0.500000 0.201302
O O14 0.777624 0.607383 0.100693
O O15 0.405294 0.202057 0.080149
O O16 0.250000 0.250000 0.000000
#
# Coordination Sequence:
#
# PCOD8083562 Si02
#       7
#     8   8   8   8   8   8   8
#     4  10  20  35  55  78 106 138 174 221 269 308
#     4  10  18  33  53  77 108 138 172 213 262 318
#     4   9  15  30  52  72  97 135 184 220 238 289
#     4  10  21  32  48  78 111 137 159 207 279 322
#     4   9  19  32  53  77 103 143 180 213 255 308
#     4   9  18  37  57  73  94 135 188 220 244 300
#     4   9  18  31  56  81  97 133 185 223 251 302
#
# _framework density 18.883172999999999
#
# number of rings (size 3 to 8) (size 9 to 14) (size 15 to 20)
#    0.000    2.571    1.429    3.000    0.000    1.429 
#    0.000    7.143    0.000    6.857    0.000    0.000 
#    0.000    0.000    0.000    0.000    0.000    0.000 
#
# Total GULP energy -346897.002217 kJ/mol
# GULP energy per Si atom -12389.178651 kJ/mol
# Density = 1.884019 g / cm^3
# Si number density = 18.883173 Si / 1000 Ang^3
#
#
#
# Elastic Constant Matrix: (Units=GPa)
#
#
# Indices 1 2 3 4 5 6 
#
# 1 99.0601 17.0049 21.4613 0.0000 25.7875 0.0000
# 2 17.0049 63.2003 8.5607 0.0000 4.6275 0.0000
# 3 21.4613 8.5607 54.8867 0.0000 13.0531 0.0000
# 4 0.0000 0.0000 0.0000 15.0793 0.0000 1.0822
# 5 25.7875 4.6275 13.0531 0.0000 28.6903 0.0000
# 6 0.0000 0.0000 0.0000 1.0822 0.0000 10.5397
#
#
#
# Elastic Compliance Matrix: (Units=1/GPa)
#
#
# Indices 1 2 3 4 5 6 
#
# 1 0.013932 -0.002615 -0.002424 0.000000 -0.010998 0.000000
# 2 -0.002615 0.016724 -0.001686 0.000000 0.000420 0.000000
# 3 -0.002424 -0.001686 0.021134 0.000000 -0.007164 0.000000
# 4 0.000000 0.000000 0.000000 0.066808 0.000000 -0.006860
# 5 -0.010998 0.000420 -0.007164 0.000000 0.047932 0.000000
# 6 0.000000 0.000000 0.000000 -0.006860 0.000000 0.095583
#
#
# Mechanical properties :
#
#
# Convention : Reuss Voigt Hill
#
# Bulk Modulus (GPa) = 26.08254 34.57787 30.33020
# Shear Modulus (GPa) = 17.34044 22.20321 19.77183
#
# Velocity S-wave (km/s) = 3.03364 3.43274 3.23934
# Velocity P-wave (km/s) = 5.11010 5.83634 5.48525
#
# Compressibility (1/GPa) = 0.03833983
#
# Stress axis : x y z
#
# Youngs Moduli (GPa) = 71.77773 59.79468 47.31704
#
# Poissons Ratio (x) = 0.15636 0.11471
# Poissons Ratio (y) = 0.18769 0.07977
# Poissons Ratio (z) = 0.17401 0.10080
#
# Static dielectric constant tensor:
#      x y z
#    x 3.830950 0.000000 0.345140 
#    y 0.000000 3.199780 0.000000 
#    z 0.345140 0.000000 3.359560 
# 
# 
# High freq. dielectric constant tensor:
#      x y z
#    x 1.716690 0.000000 0.007430 
#    y 0.000000 1.698840 0.000000 
#    z 0.007430 0.000000 1.745530 
# 
# From -- ./inp_files/145679.got.cif
#   From: 2010.06.25/outbox.cif.g09.slc.cpg/sg12_73_cif.got.tgz:145679.got - 2010.06.28 00:19:55.
