data_PCOD8083046
_publ_section_title
;
Structure prediction by ZEFSAII (Michael W. Deem and Ramdas Pophale) SiO2 
 PCOD8083046
Probable space group: C 2/M
;
_chemical_formula_sum "Si O2"
_cell_formula_units_Z 64
_cell_length_a 14.837530
_cell_length_b 9.081837
_cell_length_c 27.259541
_cell_angle_alpha 90.000000
_cell_angle_beta 105.687446
_cell_angle_gamma 90.000000
_cell_volume 3536.452561
_symmetry_space_group_name_H-M "C 2/M"
_symmetry_group_IT_number 12
_symmetry_cell_setting 'monoclinic'
loop_
_space_group_symop_operation_xyz
x,y,z
-x,y,-z
-x,-y,-z
x,-y,z
1/2+x,1/2+y,z
1/2-x,1/2+y,-z
1/2-x,1/2-y,-z
1/2+x,1/2-y,z
loop_
_atom_site_type_symbol
_atom_site_label
_atom_site_fract_x
_atom_site_fract_y
_atom_site_fract_z
Si Si1 0.533661 0.174260 0.743511
Si Si2 0.847791 0.174636 0.999691
Si Si3 0.421180 0.675289 0.808763
Si Si4 0.269930 0.825494 0.267091
Si Si5 0.076769 0.674365 0.369223
Si Si6 0.538001 0.674311 0.076647
Si Si7 0.459949 0.174194 0.443649
Si Si8 0.738029 0.826169 0.623287
O O1 0.502756 0.255951 0.788051
O O2 0.638749 0.229416 0.748306
O O3 0.468762 0.224548 0.688734
O O4 0.528640 0.000000 0.750748
O O5 0.932019 0.225904 0.048354
O O6 0.831969 0.000000 0.999482
O O7 0.750000 0.250000 0.000000
O O8 0.883090 0.226733 0.950825
O O9 0.428182 0.500000 0.807062
O O10 0.321334 0.733390 0.774565
O O11 0.434034 0.734821 0.865863
O O12 0.272057 0.764689 0.322826
O O13 0.271029 0.000000 0.269388
O O14 0.085182 0.500000 0.372586
O O15 0.177210 0.746455 0.390843
O O16 0.015307 0.736553 0.404958
O O17 0.537978 0.500000 0.075425
O O18 0.500000 0.243209 0.500000
O O19 0.352029 0.218244 0.421766
O O20 0.471549 0.000000 0.446179
O O21 0.754928 0.000000 0.626337
#
# Coordination Sequence:
#
# PCOD8083046 Si02
#       8
#     8   8   8   8   8   8   8   8
#     4  10  19  32  49  72 100 131 163 203 249 291
#     4   9  17  33  55  76  99 132 170 204 244 292
#     4  10  19  33  52  74 100 132 169 204 240 291
#     4   9  17  30  49  70  94 128 166 197 234 290
#     4  10  19  32  51  73  99 128 161 202 250 294
#     4   8  17  33  51  72 103 137 164 197 247 301
#     4   9  18  33  53  74  97 129 166 201 243 300
#     4  10  18  32  53  74  95 126 167 203 237 290
#
# _framework density 18.09723
#
# number of rings (size 3 to 8) (size 9 to 14) (size 15 to 20)
#    0.000    2.625    2.500    0.750    0.000    1.500 
#    0.000    5.625    0.000    0.750    0.000    0.000 
#    0.000    0.000    0.000    0.000    0.000    0.000 
#
# Total GULP energy -396710.585387 kJ/mol
# GULP energy per Si atom -12397.205793 kJ/mol
# Density = 1.805604 g / cm^3
# Si number density = 18.097230 Si / 1000 Ang^3
#
#
#
# Elastic Constant Matrix: (Units=GPa)
#
#
# Indices 1 2 3 4 5 6 
#
# 1 121.8081 19.3893 32.1894 0.0000 -4.6721 0.0000
# 2 19.3893 15.8654 15.8305 0.0000 -2.9965 0.0000
# 3 32.1894 15.8305 112.5896 0.0000 1.2563 0.0000
# 4 0.0000 0.0000 0.0000 13.7640 0.0000 -2.2810
# 5 -4.6721 -2.9965 1.2563 0.0000 27.3167 0.0000
# 6 0.0000 0.0000 0.0000 -2.2810 0.0000 30.0178
#
#
#
# Elastic Compliance Matrix: (Units=1/GPa)
#
#
# Indices 1 2 3 4 5 6 
#
# 1 0.010383 -0.011171 -0.001405 0.000000 0.000615 0.000000
# 2 -0.011171 0.087373 -0.009181 0.000000 0.008096 0.000000
# 3 -0.001405 -0.009181 0.010594 0.000000 -0.001735 0.000000
# 4 0.000000 0.000000 0.000000 0.073580 0.000000 0.005591
# 5 0.000615 0.008096 -0.001735 0.000000 0.037681 0.000000
# 6 0.000000 0.000000 0.000000 0.005591 0.000000 0.033738
#
#
# Mechanical properties :
#
#
# Convention : Reuss Voigt Hill
#
# Bulk Modulus (GPa) = 15.42382 42.78684 29.10533
# Shear Modulus (GPa) = 15.69989 26.40996 21.05492
#
# Velocity S-wave (km/s) = 2.94858 3.82427 3.41461
# Velocity P-wave (km/s) = 4.48703 6.57223 5.62706
#
# Compressibility (1/GPa) = 0.06483480
#
# Stress axis : x y z
#
# Youngs Moduli (GPa) = 96.31501 11.44524 94.39606
#
# Poissons Ratio (x) = 0.12786 0.13258
# Poissons Ratio (y) = 1.07594 0.86669
# Poissons Ratio (z) = 0.13528 0.10508
#
# Static dielectric constant tensor:
#      x y z
#    x 3.464380 0.000000 0.036310 
#    y 0.000000 2.846030 0.000000 
#    z 0.036310 0.000000 3.661510 
# 
# 
# High freq. dielectric constant tensor:
#      x y z
#    x 1.714140 0.000000 -0.000140 
#    y 0.000000 1.652760 0.000000 
#    z -0.000140 0.000000 1.705530 
# 
# From -- ./inp_files/359873.got.cif
#   From: 2010.06.25/outbox.cif.g09.slc.cpg/sg12_180_cif.got.tgz:359873.got - 2010.06.28 00:19:55.
