data_PCOD8083137
_publ_section_title
;
Structure prediction by ZEFSAII (Michael W. Deem and Ramdas Pophale) SiO2 
 PCOD8083137
Probable space group: C 2/M
;
_chemical_formula_sum "Si O2"
_cell_formula_units_Z 64
_cell_length_a 24.461867
_cell_length_b 12.345424
_cell_length_c 11.790841
_cell_angle_alpha 90.000000
_cell_angle_beta 84.463330
_cell_angle_gamma 90.000000
_cell_volume 3544.128974
_symmetry_space_group_name_H-M "C 2/M"
_symmetry_group_IT_number 12
_symmetry_cell_setting 'monoclinic'
loop_
_space_group_symop_operation_xyz
x,y,z
-x,y,-z
-x,-y,-z
x,-y,z
1/2+x,1/2+y,z
1/2-x,1/2+y,-z
1/2-x,1/2-y,-z
1/2+x,1/2-y,z
loop_
_atom_site_type_symbol
_atom_site_label
_atom_site_fract_x
_atom_site_fract_y
_atom_site_fract_z
Si Si1 0.265190 0.878216 0.110781
Si Si2 0.026890 0.815522 0.318784
Si Si3 0.340410 0.250167 0.928274
Si Si4 0.420152 0.375768 0.462467
Si Si5 0.449716 0.622399 0.934414
Si Si6 0.603329 0.874775 0.280858
Si Si7 0.755588 0.620464 0.366725
Si Si8 0.331187 0.218098 0.531969
O O1 0.202721 0.836470 0.112083
O O2 0.283022 0.872483 0.238013
O O3 0.265862 0.000000 0.063502
O O4 0.310938 0.810980 0.036201
O O5 0.064118 0.872397 0.407590
O O6 0.033561 0.880193 0.200926
O O7 0.046159 0.691701 0.294207
O O8 0.964604 0.818549 0.372969
O O9 0.394733 0.308260 0.966141
O O10 0.356990 0.166042 0.827068
O O11 0.411605 0.500000 0.427027
O O12 0.365576 0.306456 0.453590
O O13 0.437548 0.500000 0.976348
O O14 0.500000 0.670393 0.000000
O O15 0.632639 0.858130 0.395407
O O16 0.589066 0.000000 0.264838
O O17 0.729921 0.500000 0.390052
O O18 0.710387 0.713651 0.382699
O O19 0.802049 0.638111 0.451030
#
# Coordination Sequence:
#
# PCOD8083137 Si02
#       8
#     8   8   8   8   8   8   8   8
#     4  10  20  35  56  79 105 140 178 220 264 310
#     4   9  19  33  51  77 103 133 171 215 255 314
#     4  10  20  35  55  80 106 137 178 222 261 319
#     4  10  18  32  54  77 102 133 173 218 260 300
#     4  10  20  34  54  78 107 139 170 214 270 318
#     4  10  19  34  54  77 104 138 171 214 261 306
#     4  10  20  35  52  74 107 142 173 210 259 314
#     4  10  20  33  51  78 106 137 174 213 257 315
#
# _framework density 18.058032999999998
#
# number of rings (size 3 to 8) (size 9 to 14) (size 15 to 20)
#    0.000    2.125    1.250    3.000    0.000    1.000 
#    0.000    5.625    0.000   10.875    0.000    0.000 
#    0.000    0.000    0.000    0.000    0.000    0.000 
#
# Total GULP energy -396788.942411 kJ/mol
# GULP energy per Si atom -12399.654450 kJ/mol
# Density = 1.801693 g / cm^3
# Si number density = 18.058033 Si / 1000 Ang^3
#
#
#
# Elastic Constant Matrix: (Units=GPa)
#
#
# Indices 1 2 3 4 5 6 
#
# 1 76.6798 35.6778 30.1780 0.0000 -10.4614 0.0000
# 2 35.6778 109.6010 34.1716 0.0000 -2.3881 0.0000
# 3 30.1780 34.1716 72.3319 0.0000 -8.9942 0.0000
# 4 0.0000 0.0000 0.0000 20.9495 0.0000 0.8470
# 5 -10.4614 -2.3881 -8.9942 0.0000 21.8939 0.0000
# 6 0.0000 0.0000 0.0000 0.8470 0.0000 19.5330
#
#
#
# Elastic Compliance Matrix: (Units=1/GPa)
#
#
# Indices 1 2 3 4 5 6 
#
# 1 0.017629 -0.004161 -0.004635 0.000000 0.006066 0.000000
# 2 -0.004161 0.011702 -0.004089 0.000000 -0.002392 0.000000
# 3 -0.004635 -0.004089 0.018294 0.000000 0.004855 0.000000
# 4 0.000000 0.000000 0.000000 0.047818 0.000000 -0.002074
# 5 0.006066 -0.002392 0.004855 0.000000 0.050307 0.000000
# 6 0.000000 0.000000 0.000000 -0.002074 0.000000 0.051285
#
#
# Mechanical properties :
#
#
# Convention : Reuss Voigt Hill
#
# Bulk Modulus (GPa) = 45.75877 50.96305 48.36091
# Shear Modulus (GPa) = 21.73055 23.04763 22.38909
#
# Velocity S-wave (km/s) = 3.47273 3.57642 3.52496
# Velocity P-wave (km/s) = 6.44008 6.73331 6.58833
#
# Compressibility (1/GPa) = 0.02185373
#
# Stress axis : x y z
#
# Youngs Moduli (GPa) = 56.72427 85.45898 54.66126
#
# Poissons Ratio (x) = 0.35563 0.25335
# Poissons Ratio (y) = 0.23606 0.22353
# Poissons Ratio (z) = 0.26291 0.34947
#
# Static dielectric constant tensor:
#      x y z
#    x 3.283600 0.000000 -0.044530 
#    y 0.000000 3.324270 0.000000 
#    z -0.044530 0.000000 3.281180 
# 
# 
# High freq. dielectric constant tensor:
#      x y z
#    x 1.689980 0.000000 -0.006610 
#    y 0.000000 1.700640 0.000000 
#    z -0.006610 0.000000 1.698990 
# 
# From -- ./inp_files/174587.got.cif
#   From: 2010.06.25/outbox.cif.g09.slc.cpg/sg12_88_cif.got.tgz:174587.got - 2010.06.28 00:19:55.
