data_PCOD8083310
_publ_section_title
;
Structure prediction by ZEFSAII (Michael W. Deem and Ramdas Pophale) SiO2 
 PCOD8083310
Probable space group: C 2/M
;
_chemical_formula_sum "Si O2"
_cell_formula_units_Z 64
_cell_length_a 20.011517
_cell_length_b 9.131994
_cell_length_c 20.351160
_cell_angle_alpha 90.000000
_cell_angle_beta 78.524217
_cell_angle_gamma 90.000000
_cell_volume 3644.725377
_symmetry_space_group_name_H-M "C 2/M"
_symmetry_group_IT_number 12
_symmetry_cell_setting 'monoclinic'
loop_
_space_group_symop_operation_xyz
x,y,z
-x,y,-z
-x,-y,-z
x,-y,z
1/2+x,1/2+y,z
1/2-x,1/2+y,-z
1/2-x,1/2-y,-z
1/2+x,1/2-y,z
loop_
_atom_site_type_symbol
_atom_site_label
_atom_site_fract_x
_atom_site_fract_y
_atom_site_fract_z
Si Si1 0.628657 0.672331 0.320972
Si Si2 0.739226 0.828380 0.070476
Si Si3 0.413314 0.827048 0.339750
Si Si4 0.622991 0.329782 0.172468
Si Si5 0.722599 0.828937 0.699463
Si Si6 0.529449 0.332142 0.794457
Si Si7 0.166200 0.832222 0.831919
Si Si8 0.500634 0.673677 0.575228
O O1 0.618644 0.500000 0.321934
O O2 0.625630 0.728990 0.246775
O O3 0.701512 0.716483 0.339266
O O4 0.567904 0.737522 0.377102
O O5 0.672031 0.766819 0.118435
O O6 0.807030 0.795604 0.100435
O O7 0.728964 0.000000 0.060773
O O8 0.750000 0.750000 0.000000
O O9 0.334293 0.781642 0.342398
O O10 0.459403 0.770302 0.270713
O O11 0.434655 0.749184 0.402986
O O12 0.422742 0.000000 0.344299
O O13 0.644735 0.500000 0.163427
O O14 0.545691 0.305875 0.161299
O O15 0.710291 0.759662 0.772588
O O16 0.718384 0.000000 0.713113
O O17 0.536137 0.500000 0.768553
O O18 0.585398 0.296653 0.840146
O O19 0.180635 0.000000 0.811932
O O20 0.500000 0.722800 0.500000
O O21 0.507799 0.500000 0.580757
#
# Coordination Sequence:
#
# PCOD8083310 Si02
#       8
#     8   8   8   8   8   8   8   8
#     4   9  16  30  52  77 100 129 172 213 250 299
#     4  11  23  37  53  76 107 140 173 209 257 309
#     4  10  19  30  48  75 105 135 165 206 258 307
#     4  10  18  32  56  79 101 132 170 213 258 300
#     4   9  17  30  50  74 101 132 166 205 254 309
#     4   9  17  32  54  78 103 131 168 212 254 300
#     4   9  18  32  51  76 103 130 167 213 253 295
#     4  10  20  35  54  74 100 138 179 215 254 304
#
# _framework density 17.559621
#
# number of rings (size 3 to 8) (size 9 to 14) (size 15 to 20)
#    0.000    2.375    2.500    0.750    0.000    1.750 
#    0.000    1.875    0.000    3.750    0.000    0.000 
#    0.000    0.000    0.000    0.000    0.000    0.000 
#
# Total GULP energy -396696.519448 kJ/mol
# GULP energy per Si atom -12396.766233 kJ/mol
# Density = 1.751965 g / cm^3
# Si number density = 17.559621 Si / 1000 Ang^3
#
#
#
# Elastic Constant Matrix: (Units=GPa)
#
#
# Indices 1 2 3 4 5 6 
#
# 1 131.8896 39.9250 73.3408 0.0000 9.7056 0.0000
# 2 39.9250 51.0800 43.2729 0.0000 7.4698 0.0000
# 3 73.3408 43.2729 121.9812 0.0000 7.1617 0.0000
# 4 0.0000 0.0000 0.0000 24.2212 0.0000 2.3507
# 5 9.7056 7.4698 7.1617 0.0000 26.3515 0.0000
# 6 0.0000 0.0000 0.0000 2.3507 0.0000 24.6659
#
#
#
# Elastic Compliance Matrix: (Units=1/GPa)
#
#
# Indices 1 2 3 4 5 6 
#
# 1 0.012210 -0.004520 -0.005639 0.000000 -0.001683 0.000000
# 2 -0.004520 0.030416 -0.007788 0.000000 -0.004840 0.000000
# 3 -0.005639 -0.007788 0.014328 0.000000 0.000390 0.000000
# 4 0.000000 0.000000 0.000000 0.041672 0.000000 -0.003971
# 5 -0.001683 -0.004840 0.000390 0.000000 0.039834 0.000000
# 6 0.000000 0.000000 0.000000 -0.003971 0.000000 0.040920
#
#
# Mechanical properties :
#
#
# Convention : Reuss Voigt Hill
#
# Bulk Modulus (GPa) = 47.48419 68.66980 58.07699
# Shear Modulus (GPa) = 22.49272 24.94188 23.71730
#
# Velocity S-wave (km/s) = 3.58290 3.77292 3.67914
# Velocity P-wave (km/s) = 6.64956 7.62702 7.15500
#
# Compressibility (1/GPa) = 0.02105964
#
# Stress axis : x y z
#
# Youngs Moduli (GPa) = 81.90053 32.87759 69.79281
#
# Poissons Ratio (x) = 0.14862 0.39354
# Poissons Ratio (y) = 0.37023 0.54354
# Poissons Ratio (z) = 0.46182 0.25605
#
# Static dielectric constant tensor:
#      x y z
#    x 3.755050 0.000000 0.084570 
#    y 0.000000 3.162710 0.000000 
#    z 0.084570 0.000000 3.072180 
# 
# 
# High freq. dielectric constant tensor:
#      x y z
#    x 1.698480 0.000000 0.010270 
#    y 0.000000 1.666540 0.000000 
#    z 0.010270 0.000000 1.646580 
# 
# From -- ./inp_files/319129.got.cif
#   From: 2010.06.25/outbox.cif.g09.slc.cpg/sg12_160_cif.got.tgz:319129.got - 2010.06.28 00:19:55.
