data_PCOD8083650
_publ_section_title
;
Structure prediction by ZEFSAII (Michael W. Deem and Ramdas Pophale) SiO2 
 PCOD8083650
Probable space group: C 2/M
;
_chemical_formula_sum "Si O2"
_cell_formula_units_Z 48
_cell_length_a 20.114474
_cell_length_b 17.728564
_cell_length_c 15.295172
_cell_angle_alpha 90.000000
_cell_angle_beta 150.711300
_cell_angle_gamma 90.000000
_cell_volume 2668.285713
_symmetry_space_group_name_H-M "C 2/M"
_symmetry_group_IT_number 12
_symmetry_cell_setting 'monoclinic'
loop_
_space_group_symop_operation_xyz
x,y,z
-x,y,-z
-x,-y,-z
x,-y,z
1/2+x,1/2+y,z
1/2-x,1/2+y,-z
1/2-x,1/2-y,-z
1/2+x,1/2-y,z
loop_
_atom_site_type_symbol
_atom_site_label
_atom_site_fract_x
_atom_site_fract_y
_atom_site_fract_z
Si Si1 0.900760 0.086167 0.618304
Si Si2 0.846852 0.646245 0.359629
Si Si3 0.061682 0.795628 0.481596
Si Si4 0.914005 0.301317 0.172592
Si Si5 0.349567 0.914429 0.548718
Si Si6 0.832057 0.154931 0.007437
O O1 0.876359 0.137314 0.504781
O O2 0.787875 0.108436 0.559672
O O3 0.887376 0.000000 0.573017
O O4 0.047433 0.098326 0.830048
O O5 0.824243 0.733564 0.362491
O O6 0.823910 0.591997 0.415728
O O7 0.734246 0.625939 0.158467
O O8 0.000000 0.634329 0.500000
O O9 0.000000 0.830464 0.500000
O O10 0.947739 0.748897 0.297277
O O11 0.779459 0.348619 0.042376
O O12 0.033286 0.358280 0.282962
O O13 0.887747 0.241591 0.064077
O O14 0.392621 0.000000 0.619960
#
# Coordination Sequence:
#
# PCOD8083650 Si02
#       6
#     8   8   8   8   8   8
#     4  10  23  36  50  77 112 142 172 212 261 312
#     4  10  18  34  56  81 103 134 177 219 259 308
#     4   9  16  33  57  77 100 131 175 218 260 307
#     4   9  18  33  57  79 103 136 174 218 262 306
#     4  10  21  37  52  74 111 149 173 202 258 322
#     4  10  18  33  55  82 106 128 176 226 259 298
#
# _framework density 17.989077999999999
#
# number of rings (size 3 to 8) (size 9 to 14) (size 15 to 20)
#    0.000    2.333    5.000    0.000    0.000    8.667 
#    0.000    1.667    0.000    0.000    0.000    2.333 
#    0.000    0.000    0.000    0.000    0.000    0.000 
#
# Total GULP energy -297486.591663 kJ/mol
# GULP energy per Si atom -12395.274653 kJ/mol
# Density = 1.794813 g / cm^3
# Si number density = 17.989078 Si / 1000 Ang^3
#
#
#
# Elastic Constant Matrix: (Units=GPa)
#
#
# Indices 1 2 3 4 5 6 
#
# 1 101.1918 46.0003 28.6787 0.0000 13.9243 0.0000
# 2 46.0003 73.9021 21.8891 0.0000 16.3200 0.0000
# 3 28.6787 21.8891 61.6784 0.0000 12.2242 0.0000
# 4 0.0000 0.0000 0.0000 20.8203 0.0000 6.4925
# 5 13.9243 16.3200 12.2242 0.0000 26.0333 0.0000
# 6 0.0000 0.0000 0.0000 6.4925 0.0000 26.9261
#
#
#
# Elastic Compliance Matrix: (Units=1/GPa)
#
#
# Indices 1 2 3 4 5 6 
#
# 1 0.014639 -0.007713 -0.003833 0.000000 -0.001195 0.000000
# 2 -0.007713 0.020716 -0.002215 0.000000 -0.007821 0.000000
# 3 -0.003833 -0.002215 0.019957 0.000000 -0.005932 0.000000
# 4 0.000000 0.000000 0.000000 0.051935 0.000000 -0.012523
# 5 -0.001195 -0.007821 -0.005932 0.000000 0.046740 0.000000
# 6 0.000000 0.000000 0.000000 -0.012523 0.000000 0.040158
#
#
# Mechanical properties :
#
#
# Convention : Reuss Voigt Hill
#
# Bulk Modulus (GPa) = 35.98450 47.76761 41.87605
# Shear Modulus (GPa) = 21.65155 24.10289 22.87722
#
# Velocity S-wave (km/s) = 3.47305 3.66438 3.57000
# Velocity P-wave (km/s) = 6.01080 6.67195 6.34999
#
# Compressibility (1/GPa) = 0.02778974
#
# Stress axis : x y z
#
# Youngs Moduli (GPa) = 68.31029 48.27276 50.10729
#
# Poissons Ratio (x) = 0.37233 0.19204
# Poissons Ratio (y) = 0.52688 0.11101
# Poissons Ratio (z) = 0.26181 0.10695
#
# Static dielectric constant tensor:
#      x y z
#    x 3.290850 0.000000 -0.099680 
#    y 0.000000 3.245070 0.000000 
#    z -0.099680 0.000000 3.343900 
# 
# 
# High freq. dielectric constant tensor:
#      x y z
#    x 1.683200 0.000000 0.001680 
#    y 0.000000 1.687030 0.000000 
#    z 0.001680 0.000000 1.687050 
# 
# From -- ./inp_files/226949.got.cif
#   From: 2010.06.25/outbox.cif.g09.slc.cpg/sg12_114_cif.got.tgz:226949.got - 2010.06.28 00:19:55.
