data_PCOD8083532
_publ_section_title
;
Structure prediction by ZEFSAII (Michael W. Deem and Ramdas Pophale) SiO2 
 PCOD8083532
Probable space group: C 2/M
;
_chemical_formula_sum "Si O2"
_cell_formula_units_Z 40
_cell_length_a 20.604914
_cell_length_b 7.835698
_cell_length_c 14.092402
_cell_angle_alpha 90.000000
_cell_angle_beta 76.859215
_cell_angle_gamma 90.000000
_cell_volume 2215.693601
_symmetry_space_group_name_H-M "C 2/M"
_symmetry_group_IT_number 12
_symmetry_cell_setting 'monoclinic'
loop_
_space_group_symop_operation_xyz
x,y,z
-x,y,-z
-x,-y,-z
x,-y,z
1/2+x,1/2+y,z
1/2-x,1/2+y,-z
1/2-x,1/2-y,-z
1/2+x,1/2-y,z
loop_
_atom_site_type_symbol
_atom_site_label
_atom_site_fract_x
_atom_site_fract_y
_atom_site_fract_z
Si Si1 0.552025 0.306655 0.732964
Si Si2 0.899188 0.189121 0.747920
Si Si3 0.910625 0.500000 0.617704
Si Si4 0.571078 0.302237 0.942626
Si Si5 0.676957 0.807396 0.051468
Si Si6 0.067222 0.500000 0.599244
O O1 0.568100 0.500000 0.693353
O O2 0.472890 0.276001 0.763739
O O3 0.581052 0.273777 0.827516
O O4 0.586360 0.171297 0.650743
O O5 0.880010 0.329656 0.675441
O O6 0.849545 0.193560 0.853304
O O7 0.894538 0.000000 0.703348
O O8 0.891623 0.500000 0.512754
O O9 0.989476 0.500000 0.602986
O O10 0.575156 0.500000 0.969680
O O11 0.500000 0.227298 0.000000
O O12 0.630305 0.204328 0.974850
O O13 0.678018 0.000000 0.087916
O O14 0.750000 0.750000 0.000000
#
# Coordination Sequence:
#
# PCOD8083532 Si02
#       6
#     8   8   4   8   8   4
#     4   9  18  30  50  77 108 142 176 221 269 319
#     4  10  18  33  52  74 106 143 180 218 267 324
#     4   9  18  32  47  76 103 144 177 225 276 318
#     4  10  19  33  53  78 109 147 182 218 269 329
#     4  12  24  36  52  78 114 146 185 224 268 325
#     4   9  18  30  48  73 112 133 182 229 268 320
#
# _framework density 18.053037
#
# number of rings (size 3 to 8) (size 9 to 14) (size 15 to 20)
#    0.000    2.000    3.000    1.800    1.400    1.200 
#    0.000    4.000    0.000    0.000    0.000    1.400 
#    0.000    0.000    0.000    0.000    0.000    0.000 
#
# Total GULP energy -248014.588911 kJ/mol
# GULP energy per Si atom -12400.729446 kJ/mol
# Density = 1.801195 g / cm^3
# Si number density = 18.053037 Si / 1000 Ang^3
#
#
#
# Elastic Constant Matrix: (Units=GPa)
#
#
# Indices 1 2 3 4 5 6 
#
# 1 68.2946 24.1828 32.2516 0.0000 -0.4431 0.0000
# 2 24.1828 128.3369 62.5367 0.0000 5.4896 0.0000
# 3 32.2516 62.5367 126.0155 0.0000 6.7652 0.0000
# 4 0.0000 0.0000 0.0000 28.0843 0.0000 1.7552
# 5 -0.4431 5.4896 6.7652 0.0000 12.8590 0.0000
# 6 0.0000 0.0000 0.0000 1.7552 0.0000 18.5447
#
#
#
# Elastic Compliance Matrix: (Units=1/GPa)
#
#
# Indices 1 2 3 4 5 6 
#
# 1 0.016976 -0.001497 -0.003774 0.000000 0.003210 0.000000
# 2 -0.001497 0.010448 -0.004692 0.000000 -0.002043 0.000000
# 3 -0.003774 -0.004692 0.011453 0.000000 -0.004152 0.000000
# 4 0.000000 0.000000 0.000000 0.035819 0.000000 -0.003390
# 5 0.003210 -0.002043 -0.004152 0.000000 0.080934 0.000000
# 6 0.000000 0.000000 0.000000 -0.003390 0.000000 0.054244
#
#
# Mechanical properties :
#
#
# Convention : Reuss Voigt Hill
#
# Bulk Modulus (GPa) = 52.77009 62.28772 57.52890
# Shear Modulus (GPa) = 21.17600 25.47601 23.32600
#
# Velocity S-wave (km/s) = 3.42861 3.76064 3.59845
# Velocity P-wave (km/s) = 6.70581 7.30986 7.01434
#
# Compressibility (1/GPa) = 0.01895013
#
# Stress axis : x y z
#
# Youngs Moduli (GPa) = 58.90808 95.71358 87.31464
#
# Poissons Ratio (x) = 0.14328 0.32953
# Poissons Ratio (y) = 0.08819 0.40968
# Poissons Ratio (z) = 0.22232 0.44909
#
# Static dielectric constant tensor:
#      x y z
#    x 2.926190 0.000000 0.098070 
#    y 0.000000 3.527750 0.000000 
#    z 0.098070 0.000000 3.307180 
# 
# 
# High freq. dielectric constant tensor:
#      x y z
#    x 1.647560 0.000000 0.008530 
#    y 0.000000 1.715610 0.000000 
#    z 0.008530 0.000000 1.690410 
# 
# From -- ./inp_files/162449.got.cif
#   From: 2010.06.25/outbox.cif.g09.slc.cpg/sg12_82_cif.got.tgz:162449.got - 2010.06.28 00:19:55.
