data_PCOD8083276
_publ_section_title
;
Structure prediction by ZEFSAII (Michael W. Deem and Ramdas Pophale) SiO2 
 PCOD8083276
Probable space group: C 2/M
;
_chemical_formula_sum "Si O2"
_cell_formula_units_Z 56
_cell_length_a 25.106528
_cell_length_b 9.255444
_cell_length_c 12.185681
_cell_angle_alpha 90.000000
_cell_angle_beta 76.463510
_cell_angle_gamma 90.000000
_cell_volume 2752.952637
_symmetry_space_group_name_H-M "C 2/M"
_symmetry_group_IT_number 12
_symmetry_cell_setting 'monoclinic'
loop_
_space_group_symop_operation_xyz
x,y,z
-x,y,-z
-x,-y,-z
x,-y,z
1/2+x,1/2+y,z
1/2-x,1/2+y,-z
1/2-x,1/2-y,-z
1/2+x,1/2-y,z
loop_
_atom_site_type_symbol
_atom_site_label
_atom_site_fract_x
_atom_site_fract_y
_atom_site_fract_z
Si Si1 0.316557 0.669936 0.122833
Si Si2 0.201011 0.668056 0.271594
Si Si3 0.488171 0.159346 0.810596
Si Si4 0.099213 0.170194 0.730177
Si Si5 0.552872 0.841158 0.411804
Si Si6 0.857173 0.169699 0.526750
Si Si7 0.369899 0.831520 0.903423
O O1 0.317791 0.500000 0.102516
O O2 0.256838 0.722940 0.189100
O O3 0.360020 0.717128 0.193875
O O4 0.329896 0.745073 0.002116
O O5 0.205543 0.500000 0.298744
O O6 0.194967 0.750888 0.392025
O O7 0.150075 0.697259 0.212706
O O8 0.539855 0.264301 0.787533
O O9 0.462647 0.141744 0.704812
O O10 0.433319 0.217350 0.899809
O O11 0.506279 0.000000 0.845129
O O12 0.125984 0.226312 0.602897
O O13 0.090460 0.000000 0.726704
O O14 0.500000 0.788954 0.500000
O O15 0.595100 0.713278 0.412560
O O16 0.574210 0.000000 0.443464
O O17 0.846370 0.000000 0.531102
O O18 0.363519 0.000000 0.932591
#
# Coordination Sequence:
#
# PCOD8083276 Si02
#       7
#     8   8   8   8   8   8   8
#     4  10  23  42  61  80 111 156 197 233 281 339
#     4  10  21  40  63  85 112 148 190 239 290 337
#     4  10  20  35  58  86 115 149 188 231 283 340
#     4  10  23  40  55  82 122 156 188 229 279 339
#     4  10  18  32  55  82 114 150 189 231 281 340
#     4  11  22  34  55  87 120 149 185 234 286 337
#     4  10  21  38  61  88 114 140 186 247 291 330
#
# _framework density 20.341794
#
# number of rings (size 3 to 8) (size 9 to 14) (size 15 to 20)
#    0.000    1.857    2.857    0.857    0.000    4.857 
#    0.000    2.857    0.000    0.000    0.000    0.000 
#    0.000    0.000    0.000    0.000    0.000    0.000 
#
# Total GULP energy -346958.181419 kJ/mol
# GULP energy per Si atom -12391.363622 kJ/mol
# Density = 2.029550 g / cm^3
# Si number density = 20.341794 Si / 1000 Ang^3
#
#
#
# Elastic Constant Matrix: (Units=GPa)
#
#
# Indices 1 2 3 4 5 6 
#
# 1 83.8852 27.2939 23.9306 0.0000 -16.1567 0.0000
# 2 27.2939 44.5493 25.4208 0.0000 -7.7824 0.0000
# 3 23.9306 25.4208 61.8152 0.0000 -20.0130 0.0000
# 4 0.0000 0.0000 0.0000 31.2329 0.0000 -10.5007
# 5 -16.1567 -7.7824 -20.0130 0.0000 37.3154 0.0000
# 6 0.0000 0.0000 0.0000 -10.5007 0.0000 30.1840
#
#
#
# Elastic Compliance Matrix: (Units=1/GPa)
#
#
# Indices 1 2 3 4 5 6 
#
# 1 0.015806 -0.008149 -0.001334 0.000000 0.004429 0.000000
# 2 -0.008149 0.033536 -0.011514 0.000000 -0.002709 0.000000
# 3 -0.001334 -0.011514 0.024764 0.000000 0.010303 0.000000
# 4 0.000000 0.000000 0.000000 0.036258 0.000000 0.012614
# 5 0.004429 -0.002709 0.010303 0.000000 0.033677 0.000000
# 6 0.000000 0.000000 0.000000 0.012614 0.000000 0.037518
#
#
# Mechanical properties :
#
#
# Convention : Reuss Voigt Hill
#
# Bulk Modulus (GPa) = 31.14014 38.17116 34.65565
# Shear Modulus (GPa) = 21.34397 27.32009 24.33203
#
# Velocity S-wave (km/s) = 3.24275 3.66874 3.46231
# Velocity P-wave (km/s) = 5.41870 6.06233 5.74953
#
# Compressibility (1/GPa) = 0.03211290
#
# Stress axis : x y z
#
# Youngs Moduli (GPa) = 63.26693 29.81827 40.38085
#
# Poissons Ratio (x) = 0.24299 0.05387
# Poissons Ratio (y) = 0.51556 0.46494
# Poissons Ratio (z) = 0.08440 0.34332
#
# Static dielectric constant tensor:
#      x y z
#    x 3.732000 0.000000 -0.233150 
#    y 0.000000 3.552340 0.000000 
#    z -0.233150 0.000000 3.826790 
# 
# 
# High freq. dielectric constant tensor:
#      x y z
#    x 1.793870 0.000000 -0.021000 
#    y 0.000000 1.775710 0.000000 
#    z -0.021000 0.000000 1.805430 
# 
# From -- ./inp_files/180723.got.cif
#   From: 2010.06.25/outbox.cif.g09.slc.cpg/sg12_91_cif.got.tgz:180723.got - 2010.06.28 00:19:55.
