data_PCOD8083295
_publ_section_title
;
Structure prediction by ZEFSAII (Michael W. Deem and Ramdas Pophale) SiO2 
 PCOD8083295
Probable space group: C 2/M
;
_chemical_formula_sum "Si O2"
_cell_formula_units_Z 56
_cell_length_a 19.749502
_cell_length_b 8.922366
_cell_length_c 20.206347
_cell_angle_alpha 90.000000
_cell_angle_beta 65.733962
_cell_angle_gamma 90.000000
_cell_volume 3246.016453
_symmetry_space_group_name_H-M "C 2/M"
_symmetry_group_IT_number 12
_symmetry_cell_setting 'monoclinic'
loop_
_space_group_symop_operation_xyz
x,y,z
-x,y,-z
-x,-y,-z
x,-y,z
1/2+x,1/2+y,z
1/2-x,1/2+y,-z
1/2-x,1/2-y,-z
1/2+x,1/2-y,z
loop_
_atom_site_type_symbol
_atom_site_label
_atom_site_fract_x
_atom_site_fract_y
_atom_site_fract_z
Si Si1 0.940997 0.673357 0.469903
Si Si2 0.773933 0.673097 0.557047
Si Si3 0.782214 0.831034 0.176289
Si Si4 0.377288 0.831392 0.791319
Si Si5 0.729726 0.677120 0.077095
Si Si6 0.522324 0.323209 0.680977
Si Si7 0.161390 0.177613 0.709690
O O1 0.954598 0.500000 0.445459
O O2 0.860892 0.698178 0.535371
O O3 0.947156 0.771617 0.401808
O O4 0.000000 0.729781 0.500000
O O5 0.753631 0.500000 0.557258
O O6 0.750000 0.750000 0.500000
O O7 0.726376 0.742926 0.636482
O O8 0.693757 0.835496 0.229892
O O9 0.791877 0.727855 0.106760
O O10 0.827091 0.759943 0.220274
O O11 0.809953 0.000000 0.148899
O O12 0.351522 0.739016 0.867308
O O13 0.444330 0.752430 0.727339
O O14 0.400467 0.000000 0.802579
O O15 0.727716 0.500000 0.071029
O O16 0.750000 0.750000 0.000000
O O17 0.511650 0.500000 0.684003
O O18 0.581229 0.274505 0.713814
O O19 0.169745 0.000000 0.710151
#
# Coordination Sequence:
#
# PCOD8083295 Si02
#       7
#     8   8   8   8   8   8   8
#     4  10  22  35  51  72  96 132 177 222 270 321
#     4  10  19  34  52  71  96 131 175 219 264 315
#     4   8  17  33  54  78 102 137 176 212 255 307
#     4   9  19  34  54  77 105 137 173 211 254 306
#     4  10  18  32  55  85 114 139 172 211 256 304
#     4  11  21  34  52  74 104 137 172 217 268 315
#     4   9  18  33  53  74 102 139 177 216 264 321
#
# _framework density 17.251915
#
# number of rings (size 3 to 8) (size 9 to 14) (size 15 to 20)
#    0.857    1.571    1.429    1.714    2.000    0.286 
#    0.000    2.143    0.000    0.857    0.000    6.000 
#    0.000    0.000    0.000    0.000    0.000    0.000 
#
# Total GULP energy -346994.947886 kJ/mol
# GULP energy per Si atom -12392.676710 kJ/mol
# Density = 1.721265 g / cm^3
# Si number density = 17.251915 Si / 1000 Ang^3
#
#
#
# Elastic Constant Matrix: (Units=GPa)
#
#
# Indices 1 2 3 4 5 6 
#
# 1 79.6388 24.2567 15.8113 0.0000 21.5929 0.0000
# 2 24.2567 84.7848 27.0651 0.0001 8.5690 0.0003
# 3 15.8113 27.0651 59.9221 0.0000 22.4879 0.0000
# 4 0.0000 0.0001 0.0000 30.5089 0.0000 0.6677
# 5 21.5929 8.5690 22.4879 0.0000 30.1940 0.0000
# 6 0.0000 0.0003 0.0000 0.6677 0.0000 19.9814
#
#
#
# Elastic Compliance Matrix: (Units=1/GPa)
#
#
# Indices 1 2 3 4 5 6 
#
# 1 0.016780 -0.004229 0.002131 0.000000 -0.012387 0.000000
# 2 -0.004229 0.014870 -0.007150 0.000000 0.004130 0.000000
# 3 0.002131 -0.007150 0.026601 0.000000 -0.019307 0.000000
# 4 0.000000 0.000000 0.000000 0.032801 0.000000 -0.001096
# 5 -0.012387 0.004130 -0.019307 0.000000 0.055185 0.000000
# 6 0.000000 0.000000 0.000000 -0.001096 0.000000 0.050083
#
#
# Mechanical properties :
#
#
# Convention : Reuss Voigt Hill
#
# Bulk Modulus (GPa) = 25.15406 39.84576 32.49991
# Shear Modulus (GPa) = 21.92325 26.61770 24.27047
#
# Velocity S-wave (km/s) = 3.56866 3.93222 3.75484
# Velocity P-wave (km/s) = 5.62072 6.61536 6.13822
#
# Compressibility (1/GPa) = 0.03975502
#
# Stress axis : x y z
#
# Youngs Moduli (GPa) = 59.59346 67.25132 37.59248
#
# Poissons Ratio (x) = 0.28442 -0.08012
# Poissons Ratio (y) = 0.25203 0.26879
# Poissons Ratio (z) = -0.12701 0.48085
#
# Static dielectric constant tensor:
#      x y z
#    x 3.357160 0.000000 0.041290 
#    y 0.000000 3.179360 0.000000 
#    z 0.041290 0.000000 3.135450 
# 
# 
# High freq. dielectric constant tensor:
#      x y z
#    x 1.656950 0.000000 0.005410 
#    y 0.000000 1.657960 0.000000 
#    z 0.005410 0.000000 1.653280 
# 
# From -- ./inp_files/319003.got.cif
#   From: 2010.06.25/outbox.cif.g09.slc.cpg/sg12_160_cif.got.tgz:319003.got - 2010.06.28 00:19:55.
