data_PCOD8083067
_publ_section_title
;
Structure prediction by ZEFSAII (Michael W. Deem and Ramdas Pophale) SiO2 
 PCOD8083067
Probable space group: C 2/M
;
_chemical_formula_sum "Si O2"
_cell_formula_units_Z 56
_cell_length_a 20.523941
_cell_length_b 13.485448
_cell_length_c 15.199907
_cell_angle_alpha 90.000000
_cell_angle_beta 45.915473
_cell_angle_gamma 90.000000
_cell_volume 3021.909977
_symmetry_space_group_name_H-M "C 2/M"
_symmetry_group_IT_number 12
_symmetry_cell_setting 'monoclinic'
loop_
_space_group_symop_operation_xyz
x,y,z
-x,y,-z
-x,-y,-z
x,-y,z
1/2+x,1/2+y,z
1/2-x,1/2+y,-z
1/2-x,1/2-y,-z
1/2+x,1/2-y,z
loop_
_atom_site_type_symbol
_atom_site_label
_atom_site_fract_x
_atom_site_fract_y
_atom_site_fract_z
Si Si1 0.282534 0.312365 0.220110
Si Si2 0.403068 0.114129 0.545748
Si Si3 0.614603 0.386102 0.036696
Si Si4 0.088015 0.798704 0.571150
Si Si5 0.101552 0.888212 0.244583
Si Si6 0.408875 0.613264 0.249680
Si Si7 0.713909 0.611037 0.311832
O O1 0.179140 0.353550 0.312275
O O2 0.324725 0.318664 0.083663
O O3 0.339263 0.376880 0.235590
O O4 0.288837 0.197819 0.247809
O O5 0.500000 0.133025 0.500000
O O6 0.393387 0.183209 0.468424
O O7 0.392976 0.000000 0.526271
O O8 0.630039 0.500000 0.994923
O O9 0.646022 0.365617 0.107525
O O10 0.509225 0.356039 0.123638
O O11 0.121754 0.819847 0.638523
O O12 0.137454 0.872373 0.456877
O O13 0.981308 0.815110 0.660272
O O14 0.174958 0.874403 0.250716
O O15 0.062491 0.000000 0.279959
O O16 0.410540 0.500000 0.280647
O O17 0.754851 0.500000 0.284489
#
# Coordination Sequence:
#
# PCOD8083067 Si02
#       7
#     8   8   8   8   8   8   8
#     4  11  21  34  54  75 102 139 171 210 259 300
#     4  10  21  35  51  75 107 141 176 207 241 300
#     4   9  18  33  55  80 101 124 162 215 268 307
#     4  10  18  32  53  76 102 134 167 208 262 303
#     4   9  17  31  53  79 102 125 164 218 265 304
#     4  10  20  34  55  82 104 125 167 220 261 302
#     4  10  20  32  48  73 103 135 170 206 250 306
#
# _framework density 18.531326
#
# number of rings (size 3 to 8) (size 9 to 14) (size 15 to 20)
#    0.000    2.143    0.000    6.000    0.000    5.143 
#    0.000    2.143    0.000    6.857    0.000    0.000 
#    0.000    0.000    0.000    0.000    0.000    0.000 
#
# Total GULP energy -347137.842518 kJ/mol
# GULP energy per Si atom -12397.780090 kJ/mol
# Density = 1.848915 g / cm^3
# Si number density = 18.531326 Si / 1000 Ang^3
#
#
#
# Elastic Constant Matrix: (Units=GPa)
#
#
# Indices 1 2 3 4 5 6 
#
# 1 51.1452 4.1315 38.9435 0.0000 4.4230 0.0000
# 2 4.1315 103.1824 50.0971 0.0000 3.3613 0.0000
# 3 38.9435 50.0971 127.8748 0.0000 11.7763 0.0000
# 4 0.0000 0.0000 0.0000 24.6748 0.0000 2.5764
# 5 4.4230 3.3613 11.7763 0.0000 24.4580 0.0000
# 6 0.0000 0.0000 0.0000 2.5764 0.0000 24.0334
#
#
#
# Elastic Compliance Matrix: (Units=1/GPa)
#
#
# Indices 1 2 3 4 5 6 
#
# 1 0.026466 0.003512 -0.009366 0.000000 -0.000759 0.000000
# 2 0.003512 0.012444 -0.005995 0.000000 0.000541 0.000000
# 3 -0.009366 -0.005995 0.013383 0.000000 -0.003926 0.000000
# 4 0.000000 0.000000 0.000000 0.040986 0.000000 -0.004394
# 5 -0.000759 0.000541 -0.003926 0.000000 0.042840 0.000000
# 6 0.000000 0.000000 0.000000 -0.004394 0.000000 0.042080
#
#
# Mechanical properties :
#
#
# Convention : Reuss Voigt Hill
#
# Bulk Modulus (GPa) = 34.97041 52.06074 43.51557
# Shear Modulus (GPa) = 23.64894 27.23526 25.44210
#
# Velocity S-wave (km/s) = 3.57621 3.83781 3.70932
# Velocity P-wave (km/s) = 5.99703 6.91323 6.47136
#
# Compressibility (1/GPa) = 0.02859560
#
# Stress axis : x y z
#
# Youngs Moduli (GPa) = 37.78468 80.36124 74.72400
#
# Poissons Ratio (x) = -0.28227 0.69988
# Poissons Ratio (y) = -0.13272 0.44794
# Poissons Ratio (z) = 0.35390 0.48173
#
# Static dielectric constant tensor:
#      x y z
#    x 3.256170 0.000000 0.102880 
#    y 0.000000 3.488070 0.000000 
#    z 0.102880 0.000000 3.372730 
# 
# 
# High freq. dielectric constant tensor:
#      x y z
#    x 1.702290 0.000000 0.012480 
#    y 0.000000 1.716680 0.000000 
#    z 0.012480 0.000000 1.715540 
# 
# From -- ./inp_files/233684.got.cif
#   From: 2010.06.25/outbox.cif.g09.slc.cpg/sg12_117_cif.got.tgz:233684.got - 2010.06.28 00:19:55.
