data_PCOD8083192
_publ_section_title
;
Structure prediction by ZEFSAII (Michael W. Deem and Ramdas Pophale) SiO2 
 PCOD8083192
Probable space group: C 2/M
;
_chemical_formula_sum "Si O2"
_cell_formula_units_Z 64
_cell_length_a 20.250686
_cell_length_b 8.639212
_cell_length_c 23.967195
_cell_angle_alpha 90.000000
_cell_angle_beta 127.051174
_cell_angle_gamma 90.000000
_cell_volume 3346.471475
_symmetry_space_group_name_H-M "C 2/M"
_symmetry_group_IT_number 12
_symmetry_cell_setting 'monoclinic'
loop_
_space_group_symop_operation_xyz
x,y,z
-x,y,-z
-x,-y,-z
x,-y,z
1/2+x,1/2+y,z
1/2-x,1/2+y,-z
1/2-x,1/2-y,-z
1/2+x,1/2-y,z
loop_
_atom_site_type_symbol
_atom_site_label
_atom_site_fract_x
_atom_site_fract_y
_atom_site_fract_z
Si Si1 0.661727 0.680456 0.227071
Si Si2 0.076884 0.674301 0.497894
Si Si3 0.924196 0.180333 0.000972
Si Si4 0.402050 0.320773 0.205796
Si Si5 0.485956 0.820577 0.144422
Si Si6 0.035659 0.820549 0.642108
Si Si7 0.785164 0.320191 0.861195
Si Si8 0.184622 0.180843 0.639434
O O1 0.641352 0.500000 0.220821
O O2 0.580623 0.775159 0.202354
O O3 0.689458 0.718656 0.178675
O O4 0.731942 0.724844 0.307156
O O5 0.109195 0.500000 0.508278
O O6 0.151313 0.777674 0.560643
O O7 0.000000 0.687751 0.500000
O O8 0.046427 0.734379 0.422102
O O9 0.946418 0.218703 0.075488
O O10 0.903151 0.000000 0.984633
O O11 0.844596 0.279935 0.942990
O O12 0.000000 0.228052 0.000000
O O13 0.411518 0.500000 0.193418
O O14 0.435133 0.210668 0.174529
O O15 0.455116 0.284596 0.288092
O O16 0.307159 0.277687 0.168017
O O17 0.479658 0.000000 0.125200
O O18 0.118446 0.764921 0.652338
O O19 0.023098 0.000000 0.623078
O O20 0.792212 0.500000 0.848389
O O21 0.203832 0.000000 0.653706
#
# Coordination Sequence:
#
# PCOD8083192 Si02
#       8
#     8   8   8   8   8   8   8   8
#     4  12  23  37  59  87 119 154 193 243 294 345
#     4   9  17  28  45  78 117 152 190 239 289 337
#     4  11  23  40  63  90 118 153 192 240 294 346
#     4  10  22  41  61  86 121 156 195 241 292 346
#     4  12  26  42  62  87 116 155 198 240 290 351
#     4   9  17  32  54  80 113 156 193 233 288 343
#     4  11  22  39  64  91 117 153 195 240 289 347
#     4  10  18  32  54  83 115 151 195 242 288 343
#
# _framework density 19.124621999999999
#
# number of rings (size 3 to 8) (size 9 to 14) (size 15 to 20)
#    0.000    1.500    2.500    3.750    0.000    4.500 
#    0.000    0.000    0.000    0.750    0.000    0.000 
#    0.000    0.000    0.000    0.000    0.000    0.000 
#
# Total GULP energy -396957.743111 kJ/mol
# GULP energy per Si atom -12404.929472 kJ/mol
# Density = 1.908109 g / cm^3
# Si number density = 19.124622 Si / 1000 Ang^3
#
#
#
# Elastic Constant Matrix: (Units=GPa)
#
#
# Indices 1 2 3 4 5 6 
#
# 1 67.8939 26.4762 28.0618 0.0000 -1.0043 0.0000
# 2 26.4762 63.6362 22.7721 0.0000 1.3698 0.0000
# 3 28.0618 22.7721 107.5399 0.0000 6.2962 0.0000
# 4 0.0000 0.0000 0.0000 36.4476 0.0000 0.6713
# 5 -1.0043 1.3698 6.2962 0.0000 21.4355 0.0000
# 6 0.0000 0.0000 0.0000 0.6713 0.0000 24.9515
#
#
#
# Elastic Compliance Matrix: (Units=1/GPa)
#
#
# Indices 1 2 3 4 5 6 
#
# 1 0.018844 -0.006581 -0.003663 0.000000 0.002379 0.000000
# 2 -0.006581 0.019301 -0.002319 0.000000 -0.000860 0.000000
# 3 -0.003663 -0.002319 0.010935 0.000000 -0.003235 0.000000
# 4 0.000000 0.000000 0.000000 0.027450 0.000000 -0.000738
# 5 0.002379 -0.000860 -0.003235 0.000000 0.047768 0.000000
# 6 0.000000 0.000000 0.000000 -0.000738 0.000000 0.040098
#
#
# Mechanical properties :
#
#
# Convention : Reuss Voigt Hill
#
# Bulk Modulus (GPa) = 41.74682 43.74335 42.74509
# Shear Modulus (GPa) = 25.31546 27.35091 26.33318
#
# Velocity S-wave (km/s) = 3.64223 3.78582 3.71472
# Velocity P-wave (km/s) = 6.28999 6.48324 6.38735
#
# Compressibility (1/GPa) = 0.02395392
#
# Stress axis : x y z
#
# Youngs Moduli (GPa) = 53.06643 51.81131 91.44669
#
# Poissons Ratio (x) = 0.34095 0.33498
# Poissons Ratio (y) = 0.34921 0.21211
# Poissons Ratio (z) = 0.19439 0.12018
#
# Static dielectric constant tensor:
#      x y z
#    x 3.261770 0.000000 0.156250 
#    y 0.000000 3.500040 0.000000 
#    z 0.156250 0.000000 3.758410 
# 
# 
# High freq. dielectric constant tensor:
#      x y z
#    x 1.707350 0.000000 0.008890 
#    y 0.000000 1.750290 0.000000 
#    z 0.008890 0.000000 1.761410 
# 
# From -- ./inp_files/346212.got.cif
#   From: 2010.06.25/outbox.cif.g09.slc.cpg/sg12_174_cif.got.tgz:346212.got - 2010.06.28 00:19:55.
