data_PCOD8083030
_publ_section_title
;
Structure prediction by ZEFSAII (Michael W. Deem and Ramdas Pophale) SiO2 
 PCOD8083030
Probable space group: C 2/M
;
_chemical_formula_sum "Si O2"
_cell_formula_units_Z 60
_cell_length_a 14.085104
_cell_length_b 9.002385
_cell_length_c 24.043762
_cell_angle_alpha 90.000000
_cell_angle_beta 68.963117
_cell_angle_gamma 90.000000
_cell_volume 2845.537929
_symmetry_space_group_name_H-M "C 2/M"
_symmetry_group_IT_number 12
_symmetry_cell_setting 'monoclinic'
loop_
_space_group_symop_operation_xyz
x,y,z
-x,y,-z
-x,-y,-z
x,-y,z
1/2+x,1/2+y,z
1/2-x,1/2+y,-z
1/2-x,1/2-y,-z
1/2+x,1/2-y,z
loop_
_atom_site_type_symbol
_atom_site_label
_atom_site_fract_x
_atom_site_fract_y
_atom_site_fract_z
Si Si1 0.293864 0.666066 0.593619
Si Si2 0.656007 0.322952 0.894260
Si Si3 0.920590 0.334448 0.400268
Si Si4 0.148207 0.175150 0.185012
Si Si5 0.500000 0.245765 0.500000
Si Si6 0.500308 0.172704 0.141585
Si Si7 0.354328 0.173162 0.993135
Si Si8 0.890592 0.825464 0.682089
O O1 0.260257 0.500000 0.612441
O O2 0.194950 0.735612 0.582356
O O3 0.399397 0.661114 0.536940
O O4 0.317108 0.742507 0.649015
O O5 0.646302 0.500000 0.896764
O O6 0.773052 0.272992 0.867171
O O7 0.606908 0.248472 0.850131
O O8 0.603471 0.254306 0.960460
O O9 0.923440 0.500000 0.375659
O O10 0.959777 0.346947 0.455751
O O11 0.995614 0.237365 0.346934
O O12 0.040193 0.234334 0.185814
O O13 0.157108 0.212903 0.248286
O O14 0.161678 0.000000 0.170425
O O15 0.486133 0.000000 0.160033
O O16 0.569547 0.196638 0.073189
O O17 0.337648 0.000000 0.009849
O O18 0.250000 0.250000 0.000000
O O19 0.902121 0.000000 0.671082
#
# Coordination Sequence:
#
# PCOD8083030 Si02
#       8
#     8   8   8   8   4   8   8   8
#     4   9  18  34  56  82 113 152 195 233 284 345
#     4  12  25  40  61  90 122 158 198 243 300 363
#     4  10  20  34  55  84 117 153 191 239 290 341
#     4  11  23  41  63  86 116 152 197 255 307 357
#     4  10  18  32  52  84 121 154 193 238 285 338
#     4  11  24  41  62  89 119 155 198 244 298 363
#     4  11  22  38  62  89 121 157 198 244 298 360
#     4   9  21  40  59  81 110 148 194 240 287 346
#
# _framework density 21.085643999999998
#
# number of rings (size 3 to 8) (size 9 to 14) (size 15 to 20)
#    0.000    1.600    1.333    3.600    0.000    5.867 
#    0.000    4.667    0.000    0.000    0.000    0.000 
#    0.000    0.000    0.000    0.000    0.000    0.000 
#
# Total GULP energy -371773.732239 kJ/mol
# GULP energy per Si atom -12392.457741 kJ/mol
# Density = 2.103765 g / cm^3
# Si number density = 21.085644 Si / 1000 Ang^3
#
#
#
# Elastic Constant Matrix: (Units=GPa)
#
#
# Indices 1 2 3 4 5 6 
#
# 1 121.6575 26.4094 23.2827 0.0000 12.8884 0.0000
# 2 26.4094 95.5735 36.5434 0.0000 6.2980 0.0000
# 3 23.2827 36.5434 80.7639 0.0000 11.4187 0.0000
# 4 0.0000 0.0000 0.0000 25.6667 0.0000 1.5368
# 5 12.8884 6.2980 11.4187 0.0000 26.8295 0.0000
# 6 0.0000 0.0000 0.0000 1.5368 0.0000 30.8751
#
#
#
# Elastic Compliance Matrix: (Units=1/GPa)
#
#
# Indices 1 2 3 4 5 6 
#
# 1 0.009236 -0.001806 -0.001360 0.000000 -0.003434 0.000000
# 2 -0.001806 0.013013 -0.005382 0.000000 0.000103 0.000000
# 3 -0.001360 -0.005382 0.015895 0.000000 -0.004848 0.000000
# 4 0.000000 0.000000 0.000000 0.039077 0.000000 -0.001945
# 5 -0.003434 0.000103 -0.004848 0.000000 0.040961 0.000000
# 6 0.000000 0.000000 0.000000 -0.001945 0.000000 0.032485
#
#
# Mechanical properties :
#
#
# Convention : Reuss Voigt Hill
#
# Bulk Modulus (GPa) = 47.51086 52.27398 49.89242
# Shear Modulus (GPa) = 28.60749 30.79155 29.69952
#
# Velocity S-wave (km/s) = 3.68738 3.82554 3.75709
# Velocity P-wave (km/s) = 6.38046 6.66019 6.52182
#
# Compressibility (1/GPa) = 0.02104782
#
# Stress axis : x y z
#
# Youngs Moduli (GPa) = 108.27343 76.84471 62.91482
#
# Poissons Ratio (x) = 0.13877 0.08556
# Poissons Ratio (y) = 0.19552 0.33862
# Poissons Ratio (z) = 0.14724 0.41359
#
# Static dielectric constant tensor:
#      x y z
#    x 4.160760 0.000000 0.257940 
#    y 0.000000 3.594590 0.000000 
#    z 0.257940 0.000000 3.787550 
# 
# 
# High freq. dielectric constant tensor:
#      x y z
#    x 1.844270 0.000000 0.013260 
#    y 0.000000 1.810710 0.000000 
#    z 0.013260 0.000000 1.816740 
# 
# From -- ./inp_files/338631.got.cif
#   From: 2010.06.25/outbox.cif.g09.slc.cpg/sg12_170_cif.got.tgz:338631.got - 2010.06.28 00:19:55.
