data_PCOD8083233
_publ_section_title
;
Structure prediction by ZEFSAII (Michael W. Deem and Ramdas Pophale) SiO2 
 PCOD8083233
Probable space group: C 2/M
;
_chemical_formula_sum "Si O2"
_cell_formula_units_Z 64
_cell_length_a 27.979179
_cell_length_b 9.103048
_cell_length_c 13.935105
_cell_angle_alpha 90.000000
_cell_angle_beta 73.874756
_cell_angle_gamma 90.000000
_cell_volume 3409.575736
_symmetry_space_group_name_H-M "C 2/M"
_symmetry_group_IT_number 12
_symmetry_cell_setting 'monoclinic'
loop_
_space_group_symop_operation_xyz
x,y,z
-x,y,-z
-x,-y,-z
x,-y,z
1/2+x,1/2+y,z
1/2-x,1/2+y,-z
1/2-x,1/2-y,-z
1/2+x,1/2-y,z
loop_
_atom_site_type_symbol
_atom_site_label
_atom_site_fract_x
_atom_site_fract_y
_atom_site_fract_z
Si Si1 0.428202 0.825496 0.179977
Si Si2 0.718123 0.825200 0.936732
Si Si3 0.468744 0.174727 0.790029
Si Si4 0.161249 0.325685 0.636187
Si Si5 0.544454 0.672236 0.404581
Si Si6 0.647963 0.327339 0.442205
Si Si7 0.895016 0.325693 0.994049
Si Si8 0.751759 0.826624 0.711622
O O1 0.479722 0.765933 0.194331
O O2 0.383415 0.770208 0.271604
O O3 0.428922 0.000000 0.175914
O O4 0.420345 0.762691 0.076926
O O5 0.738256 0.764609 0.823833
O O6 0.722788 0.000000 0.942088
O O7 0.750000 0.750000 0.000000
O O8 0.661558 0.771407 0.981256
O O9 0.461109 0.242057 0.690586
O O10 0.424820 0.230763 0.884432
O O11 0.468993 0.000000 0.780204
O O12 0.160643 0.500000 0.624856
O O13 0.154601 0.255113 0.537282
O O14 0.212717 0.268016 0.654123
O O15 0.500000 0.718832 0.500000
O O16 0.543170 0.500000 0.383248
O O17 0.596262 0.720434 0.423405
O O18 0.649657 0.500000 0.461541
O O19 0.692548 0.277919 0.346823
O O20 0.896852 0.500000 0.997859
O O21 0.746228 0.000000 0.718792
#
# Coordination Sequence:
#
# PCOD8083233 Si02
#       8
#     8   8   8   8   8   8   8   8
#     4   9  16  30  53  79 105 134 167 205 256 312
#     4  10  20  35  55  77 106 141 173 208 252 305
#     4  10  20  32  54  83 105 129 170 219 256 295
#     4  10  18  32  55  79 101 130 169 213 258 301
#     4  10  22  39  54  71 102 143 177 206 254 314
#     4  10  21  35  52  73 100 136 174 210 253 307
#     4   9  17  32  53  79 108 136 167 208 258 308
#     4   9  18  34  54  75 101 136 172 205 253 312
#
# _framework density 18.770664
#
# number of rings (size 3 to 8) (size 9 to 14) (size 15 to 20)
#    0.000    2.375    1.250    1.500    1.750    2.250 
#    0.000    1.250    0.000    3.000    0.000    0.000 
#    0.000    0.000    0.000    0.000    0.000    0.000 
#
# Total GULP energy -396808.070542 kJ/mol
# GULP energy per Si atom -12400.252204 kJ/mol
# Density = 1.872794 g / cm^3
# Si number density = 18.770664 Si / 1000 Ang^3
#
#
#
# Elastic Constant Matrix: (Units=GPa)
#
#
# Indices 1 2 3 4 5 6 
#
# 1 192.7487 31.6329 111.9303 0.0000 -0.5507 0.0000
# 2 31.6329 20.4000 36.4599 0.0000 3.6153 0.0000
# 3 111.9303 36.4599 180.9469 0.0000 1.8055 0.0000
# 4 0.0000 0.0000 0.0000 23.9402 0.0000 6.2105
# 5 -0.5507 3.6153 1.8055 0.0000 41.9194 0.0000
# 6 0.0000 0.0000 0.0000 6.2105 0.0000 11.8334
#
#
#
# Elastic Compliance Matrix: (Units=1/GPa)
#
#
# Indices 1 2 3 4 5 6 
#
# 1 0.008560 -0.006158 -0.004063 0.000000 0.000819 0.000000
# 2 -0.006158 0.082548 -0.012757 0.000000 -0.006651 0.000000
# 3 -0.004063 -0.012757 0.010604 0.000000 0.000590 0.000000
# 4 0.000000 0.000000 0.000000 0.048354 0.000000 -0.025377
# 5 0.000819 -0.006651 0.000590 0.000000 0.024414 0.000000
# 6 0.000000 0.000000 0.000000 -0.025377 0.000000 0.097825
#
#
# Mechanical properties :
#
#
# Convention : Reuss Voigt Hill
#
# Bulk Modulus (GPa) = 17.93519 83.79356 50.86437
# Shear Modulus (GPa) = 14.84353 29.81010 22.32682
#
# Velocity S-wave (km/s) = 2.81514 3.98945 3.45259
# Velocity P-wave (km/s) = 4.48802 8.12149 6.56128
#
# Compressibility (1/GPa) = 0.05575631
#
# Stress axis : x y z
#
# Youngs Moduli (GPa) = 116.81971 12.11418 94.30273
#
# Poissons Ratio (x) = 0.07460 0.38311
# Poissons Ratio (y) = 0.71938 1.20306
# Poissons Ratio (z) = 0.47458 0.15455
#
# Static dielectric constant tensor:
#      x y z
#    x 3.875670 0.000000 -0.203170 
#    y 0.000000 2.955180 0.000000 
#    z -0.203170 0.000000 3.640950 
# 
# 
# High freq. dielectric constant tensor:
#      x y z
#    x 1.748950 0.000000 -0.002920 
#    y 0.000000 1.677570 0.000000 
#    z -0.002920 0.000000 1.745610 
# 
# From -- ./inp_files/174605.got.cif
#   From: 2010.06.25/outbox.cif.g09.slc.cpg/sg12_88_cif.got.tgz:174605.got - 2010.06.28 00:19:55.
