data_PCOD8083025
_publ_section_title
;
Structure prediction by ZEFSAII (Michael W. Deem and Ramdas Pophale) SiO2 
 PCOD8083025
Probable space group: C 2/M
;
_chemical_formula_sum "Si O2"
_cell_formula_units_Z 36
_cell_length_a 22.509740
_cell_length_b 9.706607
_cell_length_c 24.229389
_cell_angle_alpha 90.000000
_cell_angle_beta 21.918318
_cell_angle_gamma 90.000000
_cell_volume 1976.151471
_symmetry_space_group_name_H-M "C 2/M"
_symmetry_group_IT_number 12
_symmetry_cell_setting 'monoclinic'
loop_
_space_group_symop_operation_xyz
x,y,z
-x,y,-z
-x,-y,-z
x,-y,z
1/2+x,1/2+y,z
1/2-x,1/2+y,-z
1/2-x,1/2-y,-z
1/2+x,1/2-y,z
loop_
_atom_site_type_symbol
_atom_site_label
_atom_site_fract_x
_atom_site_fract_y
_atom_site_fract_z
Si Si1 0.000000 0.257152 0.500000
Si Si2 0.550140 0.341377 0.015895
Si Si3 0.677059 0.340917 0.514688
Si Si4 0.582925 0.847016 0.310293
Si Si5 0.317765 0.848733 0.276835
O O1 0.941045 0.347429 0.602744
O O2 0.850219 0.166581 0.609893
O O3 0.499672 0.500000 0.064408
O O4 0.451628 0.261532 0.146938
O O5 0.500000 0.281206 0.000000
O O6 0.736544 0.319281 0.862845
O O7 0.647810 0.500000 0.558186
O O8 0.750000 0.250000 0.500000
O O9 0.511171 0.272500 0.639726
O O10 0.796736 0.334339 0.360370
O O11 0.530761 0.000000 0.335143
O O12 0.382663 0.000000 0.205975
#
# Coordination Sequence:
#
# PCOD8083025 Si02
#       5
#     4   8   8   8   8
#     4  10  18  32  52  82 112 146 182 226 270 328
#     4  10  20  35  52  81 118 150 184 220 265 330
#     4  10  22  40  60  82 108 140 188 235 277 326
#     4  10  20  34  56  82 112 147 184 225 272 324
#     4  10  21  35  54  81 112 145 182 228 276 327
#
# _framework density 18.217227000000001
#
# number of rings (size 3 to 8) (size 9 to 14) (size 15 to 20)
#    0.000    2.000    2.222    1.333    0.000    6.667 
#    0.000    1.111    0.000    0.000    0.000    0.000 
#    0.000    0.000    0.000    0.000    0.000    0.000 
#
# Total GULP energy -223160.855867 kJ/mol
# GULP energy per Si atom -12397.825326 kJ/mol
# Density = 1.817576 g / cm^3
# Si number density = 18.217227 Si / 1000 Ang^3
#
#
#
# Elastic Constant Matrix: (Units=GPa)
#
#
# Indices 1 2 3 4 5 6 
#
# 1 90.5187 57.6232 31.8370 0.0015 -5.4079 -0.0004
# 2 57.6232 141.2514 63.0233 -0.0021 -0.6985 0.0000
# 3 31.8370 63.0233 101.3527 -0.0003 5.7721 -0.0017
# 4 0.0015 -0.0021 -0.0003 31.0029 -0.0014 1.5656
# 5 -5.4079 -0.6985 5.7721 -0.0014 13.5360 0.0009
# 6 -0.0004 0.0000 -0.0017 1.5656 0.0009 25.2677
#
#
#
# Elastic Compliance Matrix: (Units=1/GPa)
#
#
# Indices 1 2 3 4 5 6 
#
# 1 0.015609 -0.005502 -0.001867 -0.000001 0.006748 0.000000
# 2 -0.005502 0.011873 -0.005703 0.000001 0.000846 -0.000001
# 3 -0.001867 -0.005703 0.014408 -0.000001 -0.007184 0.000001
# 4 -0.000001 0.000001 -0.000001 0.032356 0.000003 -0.002005
# 5 0.006748 0.000846 -0.007184 0.000003 0.079680 -0.000004
# 6 0.000000 -0.000001 0.000001 -0.002005 -0.000004 0.039700
#
#
# Mechanical properties :
#
#
# Convention : Reuss Voigt Hill
#
# Bulk Modulus (GPa) = 63.49871 70.89886 67.19879
# Shear Modulus (GPa) = 22.22048 26.00395 24.11221
#
# Velocity S-wave (km/s) = 3.49628 3.78224 3.64207
# Velocity P-wave (km/s) = 7.15756 7.62082 7.39282
#
# Compressibility (1/GPa) = 0.01574835
#
# Stress axis : x y z
#
# Youngs Moduli (GPa) = 64.06401 84.22813 69.40602
#
# Poissons Ratio (x) = 0.46339 0.12955
# Poissons Ratio (y) = 0.35246 0.39579
# Poissons Ratio (z) = 0.11958 0.48032
#
# Static dielectric constant tensor:
#      x y z
#    x 3.284970 0.000000 0.050560 
#    y 0.000000 3.441940 0.000000 
#    z 0.050560 0.000000 3.282600 
# 
# 
# High freq. dielectric constant tensor:
#      x y z
#    x 1.690360 0.000000 0.001050 
#    y 0.000000 1.715540 0.000000 
#    z 0.001050 0.000000 1.704230 
# 
# From -- ./inp_files/92398.got.cif
#   From: 2010.06.25/outbox.cif.g09.slc.cpg/sg12_47_cif.got.tgz:92398.got - 2010.06.28 00:19:55.
