data_PCOD8083623
_publ_section_title
;
Structure prediction by ZEFSAII (Michael W. Deem and Ramdas Pophale) SiO2 
 PCOD8083623
Probable space group: C 2/M
;
_chemical_formula_sum "Si O2"
_cell_formula_units_Z 64
_cell_length_a 20.187342
_cell_length_b 8.947657
_cell_length_c 31.396380
_cell_angle_alpha 90.000000
_cell_angle_beta 36.160635
_cell_angle_gamma 90.000000
_cell_volume 3346.244532
_symmetry_space_group_name_H-M "C 2/M"
_symmetry_group_IT_number 12
_symmetry_cell_setting 'monoclinic'
loop_
_space_group_symop_operation_xyz
x,y,z
-x,y,-z
-x,-y,-z
x,-y,z
1/2+x,1/2+y,z
1/2-x,1/2+y,-z
1/2-x,1/2-y,-z
1/2+x,1/2-y,z
loop_
_atom_site_type_symbol
_atom_site_label
_atom_site_fract_x
_atom_site_fract_y
_atom_site_fract_z
Si Si1 0.800418 0.172699 0.912347
Si Si2 0.951104 0.175988 0.347434
Si Si3 0.924836 0.672967 0.920406
Si Si4 0.445189 0.822437 0.438840
Si Si5 0.346131 0.322582 0.176429
Si Si6 0.744911 0.823037 0.398837
Si Si7 0.192578 0.322206 0.333123
Si Si8 0.806751 0.823783 0.811498
O O1 0.891587 0.268135 0.890955
O O2 0.803396 0.226394 0.862230
O O3 0.835623 0.000000 0.898282
O O4 0.676360 0.201105 0.994448
O O5 0.912648 0.257216 0.410102
O O6 0.865096 0.225496 0.355077
O O7 0.074833 0.227712 0.269607
O O8 0.945259 0.000000 0.358165
O O9 0.957156 0.500000 0.900193
O O10 0.028065 0.764609 0.885415
O O11 0.355587 0.761270 0.519500
O O12 0.567399 0.763137 0.389172
O O13 0.442436 0.000000 0.437155
O O14 0.346458 0.500000 0.174395
O O15 0.274949 0.261961 0.253644
O O16 0.292856 0.260396 0.160803
O O17 0.733441 0.756481 0.357232
O O18 0.734316 0.000000 0.402100
O O19 0.193805 0.500000 0.333083
O O20 0.788113 0.000000 0.816676
#
# Coordination Sequence:
#
# PCOD8083623 Si02
#       8
#     8   8   8   8   8   8   8   8
#     4   9  20  39  62  86 112 148 186 221 268 326
#     4  10  20  33  52  78 107 140 176 219 271 327
#     4  10  21  38  60  87 117 144 179 226 275 326
#     4  10  18  33  55  77 105 138 177 224 271 321
#     4  11  22  36  57  82 112 148 188 230 275 328
#     4   9  18  31  52  79 103 136 182 225 268 321
#     4   9  18  32  52  78 105 137 181 229 268 314
#     4  10  21  37  57  79 110 149 188 229 273 325
#
# _framework density 19.125917999999999
#
# number of rings (size 3 to 8) (size 9 to 14) (size 15 to 20)
#    0.000    2.250    1.250    1.500    1.750    3.000 
#    0.000    2.500    0.000    3.750    0.000    0.000 
#    0.000    0.000    0.000    0.000    0.000    0.000 
#
# Total GULP energy -396885.142843 kJ/mol
# GULP energy per Si atom -12402.660714 kJ/mol
# Density = 1.908239 g / cm^3
# Si number density = 19.125918 Si / 1000 Ang^3
#
#
#
# Elastic Constant Matrix: (Units=GPa)
#
#
# Indices 1 2 3 4 5 6 
#
# 1 134.3140 33.6179 41.5718 -0.0145 4.0692 0.1906
# 2 33.6179 38.9708 23.3119 -0.0130 -0.4080 -0.0463
# 3 41.5718 23.3119 67.0553 -0.0016 4.0701 0.0232
# 4 -0.0145 -0.0130 -0.0016 21.2406 -0.0096 3.4761
# 5 4.0692 -0.4080 4.0701 -0.0096 40.5947 0.0006
# 6 0.1906 -0.0463 0.0232 3.4761 0.0006 29.1338
#
#
#
# Elastic Compliance Matrix: (Units=1/GPa)
#
#
# Indices 1 2 3 4 5 6 
#
# 1 0.010367 -0.006478 -0.004133 0.000015 -0.000690 -0.000077
# 2 -0.006478 0.036532 -0.008800 0.000001 0.001899 0.000107
# 3 -0.004133 -0.008800 0.020641 -0.000007 -0.001744 -0.000003
# 4 0.000015 0.000001 -0.000007 0.048017 0.000011 -0.005729
# 5 -0.000690 0.001899 -0.001744 0.000011 0.024897 0.000007
# 6 -0.000077 0.000107 -0.000003 -0.005729 0.000007 0.035009
#
#
# Mechanical properties :
#
#
# Convention : Reuss Voigt Hill
#
# Bulk Modulus (GPa) = 34.82120 48.59372 41.70746
# Shear Modulus (GPa) = 22.33575 27.64974 24.99274
#
# Velocity S-wave (km/s) = 3.42105 3.80632 3.61882
# Velocity P-wave (km/s) = 5.81813 6.69177 6.27019
#
# Compressibility (1/GPa) = 0.02871814
#
# Stress axis : x y z
#
# Youngs Moduli (GPa) = 96.46127 27.37311 48.44829
#
# Poissons Ratio (x) = 0.17732 0.20024
# Poissons Ratio (y) = 0.62486 0.42634
# Poissons Ratio (z) = 0.39869 0.24088
#
# Static dielectric constant tensor:
#      x y z
#    x 3.649300 -0.000060 0.039890 
#    y -0.000060 3.182650 0.000040 
#    z 0.039890 0.000040 3.615920 
# 
# 
# High freq. dielectric constant tensor:
#      x y z
#    x 1.758520 0.000000 -0.000620 
#    y 0.000000 1.712110 0.000000 
#    z -0.000620 0.000000 1.750520 
# 
# From -- ./inp_files/378203.got.cif
#   From: 2010.06.25/outbox.cif.g09.slc.cpg/sg12_190_cif.got.tgz:378203.got - 2010.06.28 00:19:55.
