data_PCOD8083364
_publ_section_title
;
Structure prediction by ZEFSAII (Michael W. Deem and Ramdas Pophale) SiO2 
 PCOD8083364
Probable space group: C 2/M
;
_chemical_formula_sum "Si O2"
_cell_formula_units_Z 56
_cell_length_a 21.949813
_cell_length_b 11.314844
_cell_length_c 13.373740
_cell_angle_alpha 90.000000
_cell_angle_beta 56.889114
_cell_angle_gamma 90.000000
_cell_volume 2782.125316
_symmetry_space_group_name_H-M "C 2/M"
_symmetry_group_IT_number 12
_symmetry_cell_setting 'monoclinic'
loop_
_space_group_symop_operation_xyz
x,y,z
-x,y,-z
-x,-y,-z
x,-y,z
1/2+x,1/2+y,z
1/2-x,1/2+y,-z
1/2-x,1/2-y,-z
1/2+x,1/2-y,z
loop_
_atom_site_type_symbol
_atom_site_label
_atom_site_fract_x
_atom_site_fract_y
_atom_site_fract_z
Si Si1 0.807535 0.778300 0.720033
Si Si2 0.070863 0.635216 0.487288
Si Si3 0.565477 0.285157 0.667584
Si Si4 0.597253 0.368089 0.196884
Si Si5 0.432270 0.366606 0.123697
Si Si6 0.284148 0.635166 0.530171
Si Si7 0.187220 0.865417 0.932243
O O1 0.855060 0.674807 0.630259
O O2 0.859721 0.863358 0.737324
O O3 0.768820 0.847887 0.662986
O O4 0.753259 0.721379 0.849122
O O5 0.064970 0.500000 0.472007
O O6 0.074153 0.659818 0.603659
O O7 0.000000 0.697198 0.500000
O O8 0.484019 0.323531 0.715456
O O9 0.577707 0.276733 0.775130
O O10 0.628557 0.369225 0.565283
O O11 0.589888 0.500000 0.165070
O O12 0.642040 0.307244 0.065181
O O13 0.448992 0.500000 0.148498
O O14 0.359900 0.366453 0.125527
O O15 0.500000 0.318902 0.000000
O O16 0.255827 0.500000 0.525834
O O17 0.250000 0.750000 0.500000
O O18 0.213865 0.000000 0.931789
#
# Coordination Sequence:
#
# PCOD8083364 Si02
#       7
#     8   8   8   8   8   8   8
#     4  11  22  38  59  88 119 159 201 245 307 363
#     4  10  21  38  57  81 116 159 202 246 296 363
#     4  11  21  37  62  91 118 153 199 249 308 360
#     4  11  21  36  59  89 123 151 192 248 312 365
#     4  10  18  32  56  86 116 146 185 236 294 351
#     4  11  25  42  64  91 125 164 208 257 312 367
#     4  10  21  36  58  88 119 157 198 250 302 362
#
# _framework density 20.128495999999998
#
# number of rings (size 3 to 8) (size 9 to 14) (size 15 to 20)
#    0.000    1.429    2.857    3.429    0.000    4.000 
#    0.000    2.143    0.000    1.286    0.000    0.000 
#    0.000    0.000    0.000    0.000    0.000    0.000 
#
# Total GULP energy -346874.253017 kJ/mol
# GULP energy per Si atom -12388.366179 kJ/mol
# Density = 2.008268 g / cm^3
# Si number density = 20.128496 Si / 1000 Ang^3
#
#
#
# Elastic Constant Matrix: (Units=GPa)
#
#
# Indices 1 2 3 4 5 6 
#
# 1 75.7653 23.9750 26.1451 0.0000 0.6342 0.0000
# 2 23.9750 70.9619 24.6990 0.0000 -5.4285 0.0000
# 3 26.1451 24.6990 117.3012 0.0000 -3.6108 0.0000
# 4 0.0000 0.0000 0.0000 21.7537 0.0000 3.4958
# 5 0.6342 -5.4285 -3.6108 0.0000 45.2544 0.0000
# 6 0.0000 0.0000 0.0000 3.4958 0.0000 21.8328
#
#
#
# Elastic Compliance Matrix: (Units=1/GPa)
#
#
# Indices 1 2 3 4 5 6 
#
# 1 0.015484 -0.004416 -0.002551 0.000000 -0.000950 0.000000
# 2 -0.004416 0.016579 -0.002449 0.000000 0.001855 0.000000
# 3 -0.002551 -0.002449 0.009625 0.000000 0.000510 0.000000
# 4 0.000000 0.000000 0.000000 0.047183 0.000000 -0.007555
# 5 -0.000950 0.001855 0.000510 0.000000 0.022374 0.000000
# 6 0.000000 0.000000 0.000000 -0.007555 0.000000 0.047012
#
#
# Mechanical properties :
#
#
# Convention : Reuss Voigt Hill
#
# Bulk Modulus (GPa) = 43.75369 45.96295 44.85832
# Shear Modulus (GPa) = 27.06972 30.38215 28.72594
#
# Velocity S-wave (km/s) = 3.67119 3.88933 3.78183
# Velocity P-wave (km/s) = 6.30512 6.56152 6.43460
#
# Compressibility (1/GPa) = 0.02285522
#
# Stress axis : x y z
#
# Youngs Moduli (GPa) = 64.58165 60.31864 103.89617
#
# Poissons Ratio (x) = 0.26639 0.26500
# Poissons Ratio (y) = 0.28522 0.25448
# Poissons Ratio (z) = 0.16472 0.14774
#
# Static dielectric constant tensor:
#      x y z
#    x 3.824970 0.000000 -0.000660 
#    y 0.000000 3.459810 0.000000 
#    z -0.000660 0.000000 3.932390 
# 
# 
# High freq. dielectric constant tensor:
#      x y z
#    x 1.792870 0.000000 -0.000100 
#    y 0.000000 1.748380 0.000000 
#    z -0.000100 0.000000 1.801240 
# 
# From -- ./inp_files/174497.got.cif
#   From: 2010.06.25/outbox.cif.g09.slc.cpg/sg12_88_cif.got.tgz:174497.got - 2010.06.28 00:19:55.
