data_PCOD8083595
_publ_section_title
;
Structure prediction by ZEFSAII (Michael W. Deem and Ramdas Pophale) SiO2 
 PCOD8083595
Probable space group: C 2/M
;
_chemical_formula_sum "Si O2"
_cell_formula_units_Z 56
_cell_length_a 21.462697
_cell_length_b 18.209240
_cell_length_c 22.223248
_cell_angle_alpha 90.000000
_cell_angle_beta 157.552798
_cell_angle_gamma 90.000000
_cell_volume 3316.315754
_symmetry_space_group_name_H-M "C 2/M"
_symmetry_group_IT_number 12
_symmetry_cell_setting 'monoclinic'
loop_
_space_group_symop_operation_xyz
x,y,z
-x,y,-z
-x,-y,-z
x,-y,z
1/2+x,1/2+y,z
1/2-x,1/2+y,-z
1/2-x,1/2-y,-z
1/2+x,1/2-y,z
loop_
_atom_site_type_symbol
_atom_site_label
_atom_site_fract_x
_atom_site_fract_y
_atom_site_fract_z
Si Si1 0.950956 0.306105 0.208533
Si Si2 0.972365 0.736245 0.908830
Si Si3 0.171389 0.202033 0.327708
Si Si4 0.756938 0.181677 0.090658
Si Si5 0.298146 0.083621 0.522779
Si Si6 0.966085 0.083365 0.611608
Si Si7 0.132687 0.197383 0.570439
O O1 0.847671 0.259802 0.164593
O O2 0.090869 0.253561 0.306401
O O3 0.032057 0.374569 0.314855
O O4 0.833491 0.338703 0.052194
O O5 0.127673 0.687164 0.029578
O O6 0.000000 0.768977 0.000000
O O7 0.948830 0.801968 0.838322
O O8 0.808526 0.685386 0.760189
O O9 0.202141 0.121548 0.381592
O O10 0.342417 0.240186 0.459286
O O11 0.881685 0.117377 0.217145
O O12 0.193953 0.088048 0.490335
O O13 0.334039 0.000000 0.536096
O O14 0.930412 0.123017 0.516577
O O15 0.011187 0.000000 0.636500
O O16 0.000000 0.225268 0.500000
#
# Coordination Sequence:
#
# PCOD8083595 Si02
#       7
#     8   8   8   8   8   8   8
#     4  10  18  33  54  78 106 138 172 220 261 307
#     4   9  19  34  54  80  99 130 178 227 262 305
#     4   9  18  33  54  79 102 130 176 223 256 309
#     4  10  19  31  54  77 107 138 176 217 258 306
#     4  11  20  33  53  79 113 141 170 212 267 319
#     4  11  21  32  51  79 113 146 174 211 261 316
#     4  10  20  35  57  78 100 139 182 226 252 308
#
# _framework density 16.886208
#
# number of rings (size 3 to 8) (size 9 to 14) (size 15 to 20)
#    0.857    1.143    2.857    2.143    0.000    0.857 
#    0.000    0.714    0.000    2.571    0.000    0.000 
#    0.000    0.000    0.000    0.000    0.000    0.000 
#
# Total GULP energy -347037.486072 kJ/mol
# GULP energy per Si atom -12394.195931 kJ/mol
# Density = 1.684777 g / cm^3
# Si number density = 16.886208 Si / 1000 Ang^3
#
#
#
# Elastic Constant Matrix: (Units=GPa)
#
#
# Indices 1 2 3 4 5 6 
#
# 1 61.6712 22.4551 24.3466 -0.0132 7.6117 0.0004
# 2 22.4551 96.5104 44.8919 -0.0214 -7.7793 -0.0045
# 3 24.3466 44.8919 92.3581 -0.0438 -3.4844 -0.0073
# 4 -0.0132 -0.0214 -0.0438 16.4766 -0.0226 2.8306
# 5 7.6117 -7.7793 -3.4844 -0.0226 37.5125 -0.0013
# 6 0.0004 -0.0045 -0.0073 2.8306 -0.0013 12.9293
#
#
#
# Elastic Compliance Matrix: (Units=1/GPa)
#
#
# Indices 1 2 3 4 5 6 
#
# 1 0.019474 -0.003174 -0.003778 -0.000005 -0.004961 -0.000003
# 2 -0.003174 0.014086 -0.005896 0.000004 0.003017 0.000001
# 3 -0.003778 -0.005896 0.014724 0.000030 0.000912 0.000000
# 4 -0.000005 0.000004 0.000030 0.063064 0.000042 -0.013807
# 5 -0.004961 0.003017 0.000912 0.000042 0.028375 -0.000005
# 6 -0.000003 0.000001 0.000000 -0.013807 -0.000005 0.080366
#
#
# Mechanical properties :
#
#
# Convention : Reuss Voigt Hill
#
# Bulk Modulus (GPa) = 44.27132 48.21410 46.24271
# Shear Modulus (GPa) = 19.73830 23.97343 21.85587
#
# Velocity S-wave (km/s) = 3.42263 3.77198 3.60154
# Velocity P-wave (km/s) = 6.47252 6.89818 6.68874
#
# Compressibility (1/GPa) = 0.02258798
#
# Stress axis : x y z
#
# Youngs Moduli (GPa) = 51.34944 70.99359 67.91756
#
# Poissons Ratio (x) = 0.22530 0.25661
# Poissons Ratio (y) = 0.16296 0.40045
# Poissons Ratio (z) = 0.19401 0.41859
#
# Static dielectric constant tensor:
#      x y z
#    x 3.141740 0.000000 0.046480 
#    y 0.000000 2.875640 -0.000030 
#    z 0.046480 -0.000030 3.261990 
# 
# 
# High freq. dielectric constant tensor:
#      x y z
#    x 1.648220 0.000000 0.002560 
#    y 0.000000 1.607240 0.000000 
#    z 0.002560 0.000000 1.663810 
# 
# From -- ./inp_files/349802.got.cif
#   From: 2010.06.25/outbox.cif.g09.slc.cpg/sg12_175_cif.got.tgz:349802.got - 2010.06.28 00:19:55.
