data_PCOD8083071
_publ_section_title
;
Structure prediction by ZEFSAII (Michael W. Deem and Ramdas Pophale) SiO2 
 PCOD8083071
Probable space group: C 2/M
;
_chemical_formula_sum "Si O2"
_cell_formula_units_Z 48
_cell_length_a 18.151882
_cell_length_b 8.650340
_cell_length_c 15.128305
_cell_angle_alpha 90.000000
_cell_angle_beta 89.983132
_cell_angle_gamma 90.000000
_cell_volume 2375.445606
_symmetry_space_group_name_H-M "C 2/M"
_symmetry_group_IT_number 12
_symmetry_cell_setting 'monoclinic'
loop_
_space_group_symop_operation_xyz
x,y,z
-x,y,-z
-x,-y,-z
x,-y,z
1/2+x,1/2+y,z
1/2-x,1/2+y,-z
1/2-x,1/2-y,-z
1/2+x,1/2-y,z
loop_
_atom_site_type_symbol
_atom_site_label
_atom_site_fract_x
_atom_site_fract_y
_atom_site_fract_z
Si Si1 0.377884 0.320726 0.149148
Si Si2 0.329207 0.683372 0.475475
Si Si3 0.866003 0.682016 0.648162
Si Si4 0.084721 0.325789 0.026456
Si Si5 0.954986 0.179318 0.798495
Si Si6 0.290453 0.181792 0.303032
O O1 0.357501 0.500000 0.154547
O O2 0.459656 0.288014 0.184250
O O3 0.320658 0.223552 0.206833
O O4 0.369235 0.264343 0.048250
O O5 0.330433 0.500000 0.476666
O O6 0.250000 0.750000 0.500000
O O7 0.384348 0.749055 0.550427
O O8 0.345968 0.744005 0.376503
O O9 0.856960 0.500000 0.640849
O O10 0.933673 0.726265 0.711094
O O11 0.791564 0.752790 0.688175
O O12 0.114974 0.500000 0.035718
O O13 0.094305 0.238120 0.119340
O O14 0.000000 0.326168 0.000000
O O15 0.938044 0.000000 0.783930
O O16 0.287973 0.000000 0.316823
#
# Coordination Sequence:
#
# PCOD8083071 Si02
#       6
#     8   8   8   8   8   8
#     4  10  20  35  55  79 107 139 175 215 260 309
#     4  10  18  32  53  76 103 136 175 213 255 309
#     4  11  21  35  55  79 107 138 175 216 260 309
#     4   9  17  31  52  77 104 137 176 213 253 307
#     4  10  20  35  55  79 107 139 175 215 260 309
#     4  11  21  35  55  79 107 138 175 216 260 309
#
# _framework density 20.206734000000001
#
# number of rings (size 3 to 8) (size 9 to 14) (size 15 to 20)
#    0.000    1.833    0.000    8.000    0.000    4.000 
#    0.000    1.667    0.000    5.000    0.000    0.000 
#    0.000    0.000    0.000    0.000    0.000    0.000 
#
# Total GULP energy -297619.143375 kJ/mol
# GULP energy per Si atom -12400.797641 kJ/mol
# Density = 2.016074 g / cm^3
# Si number density = 20.206734 Si / 1000 Ang^3
#
#
#
# Elastic Constant Matrix: (Units=GPa)
#
#
# Indices 1 2 3 4 5 6 
#
# 1 16.3342 12.5451 -7.9025 0.0000 -1.1016 0.0000
# 2 12.5451 151.7446 0.5482 0.0000 -0.8442 0.0000
# 3 -7.9025 0.5482 25.4846 0.0000 -0.4334 0.0000
# 4 0.0000 0.0000 0.0000 43.5008 0.0000 0.5865
# 5 -1.1016 -0.8442 -0.4334 0.0000 25.9932 0.0000
# 6 0.0000 0.0000 0.0000 0.5865 0.0000 23.5643
#
#
#
# Elastic Compliance Matrix: (Units=1/GPa)
#
#
# Indices 1 2 3 4 5 6 
#
# 1 0.078334 -0.006545 0.024491 0.000000 0.003515 0.000000
# 2 -0.006545 0.007139 -0.002184 0.000000 -0.000082 0.000000
# 3 0.024491 -0.002184 0.046910 0.000000 0.001749 0.000000
# 4 0.000000 0.000000 0.000000 0.022996 0.000000 -0.000572
# 5 0.003515 -0.000082 0.001749 0.000000 0.038647 0.000000
# 6 0.000000 0.000000 0.000000 -0.000572 0.000000 0.042451
#
#
# Mechanical properties :
#
#
# Convention : Reuss Voigt Hill
#
# Bulk Modulus (GPa) = 6.10106 22.66056 14.38081
# Shear Modulus (GPa) = 19.26120 31.16984 25.21552
#
# Velocity S-wave (km/s) = 3.09075 3.93179 3.53636
# Velocity P-wave (km/s) = 3.97025 5.64364 4.87922
#
# Compressibility (1/GPa) = 0.16390603
#
# Stress axis : x y z
#
# Youngs Moduli (GPa) = 12.76586 140.08449 21.31722
#
# Poissons Ratio (x) = 0.91685 -0.52208
# Poissons Ratio (y) = 0.08355 0.04657
# Poissons Ratio (z) = -0.31265 0.30601
#
# Static dielectric constant tensor:
#      x y z
#    x 3.186380 0.000000 0.077960 
#    y 0.000000 3.780710 0.000000 
#    z 0.077960 0.000000 4.305880 
# 
# 
# High freq. dielectric constant tensor:
#      x y z
#    x 1.738780 0.000000 0.003610 
#    y 0.000000 1.808860 0.000000 
#    z 0.003610 0.000000 1.807310 
# 
# From -- ./inp_files/221612.got.cif
#   From: 2010.06.25/outbox.cif.g09.slc.cpg/sg12_111_cif.got.tgz:221612.got - 2010.06.28 00:19:55.
