data_PCOD8083820
_publ_section_title
;
Structure prediction by ZEFSAII (Michael W. Deem and Ramdas Pophale) SiO2 
 PCOD8083820
Probable space group: C 2/M
;
_chemical_formula_sum "Si O2"
_cell_formula_units_Z 48
_cell_length_a 25.178837
_cell_length_b 8.734878
_cell_length_c 20.528849
_cell_angle_alpha 90.000000
_cell_angle_beta 144.889834
_cell_angle_gamma 90.000000
_cell_volume 2596.800236
_symmetry_space_group_name_H-M "C 2/M"
_symmetry_group_IT_number 12
_symmetry_cell_setting 'monoclinic'
loop_
_space_group_symop_operation_xyz
x,y,z
-x,y,-z
-x,-y,-z
x,-y,z
1/2+x,1/2+y,z
1/2-x,1/2+y,-z
1/2-x,1/2-y,-z
1/2+x,1/2-y,z
loop_
_atom_site_type_symbol
_atom_site_label
_atom_site_fract_x
_atom_site_fract_y
_atom_site_fract_z
Si Si1 0.058081 0.317993 0.874803
Si Si2 0.444103 0.180857 0.882752
Si Si3 0.749707 0.318495 0.876380
Si Si4 0.742669 0.680864 0.721107
Si Si5 0.555920 0.819906 0.492406
Si Si6 0.556437 0.318798 0.736031
O O1 0.056757 0.500000 0.867656
O O2 0.025890 0.246171 0.774811
O O3 0.986874 0.258039 0.858194
O O4 0.160244 0.256442 0.995789
O O5 0.336801 0.225754 0.778621
O O6 0.456708 0.000000 0.898322
O O7 0.500000 0.252342 0.000000
O O8 0.751802 0.500000 0.877862
O O9 0.750208 0.259993 0.802737
O O10 0.658465 0.255382 0.820614
O O11 0.722722 0.500000 0.698168
O O12 0.662033 0.772121 0.604542
O O13 0.500000 0.764418 0.500000
O O14 0.516246 0.736060 0.389900
O O15 0.546891 0.000000 0.473474
O O16 0.556059 0.500000 0.737631
#
# Coordination Sequence:
#
# PCOD8083820 Si02
#       6
#     8   8   8   8   8   8
#     4  10  19  34  55  83 116 147 179 221 270 321
#     4   9  16  30  57  86 110 141 183 223 263 319
#     4   9  17  30  54  83 112 142 176 220 269 321
#     4  10  18  33  58  86 110 139 182 225 266 319
#     4  11  23  38  56  80 109 142 181 228 278 324
#     4  11  22  36  54  80 112 149 186 221 268 326
#
# _framework density 18.484287999999999
#
# number of rings (size 3 to 8) (size 9 to 14) (size 15 to 20)
#    0.000    2.000    3.333    1.500    0.000    0.667 
#    0.000    3.333    0.000    1.000    0.000    0.000 
#    0.000    0.000    0.000    0.000    0.000    0.000 
#
# Total GULP energy -297644.680567 kJ/mol
# GULP energy per Si atom -12401.861690 kJ/mol
# Density = 1.844222 g / cm^3
# Si number density = 18.484288 Si / 1000 Ang^3
#
#
#
# Elastic Constant Matrix: (Units=GPa)
#
#
# Indices 1 2 3 4 5 6 
#
# 1 153.0647 25.8857 70.6646 0.0000 -10.5743 0.0000
# 2 25.8857 30.2120 18.1963 0.0000 -2.1687 0.0000
# 3 70.6646 18.1963 114.1128 0.0000 -8.8645 0.0000
# 4 0.0000 0.0000 0.0000 15.9706 0.0000 0.7143
# 5 -10.5743 -2.1687 -8.8645 0.0000 33.7793 0.0000
# 6 0.0000 0.0000 0.0000 0.7143 0.0000 17.8044
#
#
#
# Elastic Compliance Matrix: (Units=1/GPa)
#
#
# Indices 1 2 3 4 5 6 
#
# 1 0.009919 -0.005270 -0.005193 0.000000 0.001404 0.000000
# 2 -0.005270 0.039439 -0.003018 0.000000 0.000090 0.000000
# 3 -0.005193 -0.003018 0.012575 0.000000 0.001481 0.000000
# 4 0.000000 0.000000 0.000000 0.062727 0.000000 -0.002517
# 5 0.001404 0.000090 0.001481 0.000000 0.030438 0.000000
# 6 0.000000 0.000000 0.000000 -0.002517 0.000000 0.056267
#
#
# Mechanical properties :
#
#
# Convention : Reuss Voigt Hill
#
# Bulk Modulus (GPa) = 28.59537 58.54252 43.56894
# Shear Modulus (GPa) = 20.00120 25.68706 22.84413
#
# Velocity S-wave (km/s) = 3.29304 3.73187 3.51930
# Velocity P-wave (km/s) = 5.47380 7.09291 6.33530
#
# Compressibility (1/GPa) = 0.03497070
#
# Stress axis : x y z
#
# Youngs Moduli (GPa) = 100.81904 25.35541 79.52137
#
# Poissons Ratio (x) = 0.13363 0.41294
# Poissons Ratio (y) = 0.53133 0.24003
# Poissons Ratio (z) = 0.52353 0.07653
#
# Static dielectric constant tensor:
#      x y z
#    x 3.596880 0.000000 0.069760 
#    y 0.000000 2.997820 0.000000 
#    z 0.069760 0.000000 3.413930 
# 
# 
# High freq. dielectric constant tensor:
#      x y z
#    x 1.721440 0.000000 0.000740 
#    y 0.000000 1.682590 0.000000 
#    z 0.000740 0.000000 1.720690 
# 
# From -- ./inp_files/327177.got.cif
#   From: 2010.06.25/outbox.cif.g09.slc.cpg/sg12_164_cif.got.tgz:327177.got - 2010.06.28 00:19:55.
