data_PCOD8083630
_publ_section_title
;
Structure prediction by ZEFSAII (Michael W. Deem and Ramdas Pophale) SiO2 
 PCOD8083630
Probable space group: C 2/M
;
_chemical_formula_sum "Si O2"
_cell_formula_units_Z 56
_cell_length_a 18.778772
_cell_length_b 19.165130
_cell_length_c 9.576309
_cell_angle_alpha 90.000000
_cell_angle_beta 60.808116
_cell_angle_gamma 90.000000
_cell_volume 3008.755954
_symmetry_space_group_name_H-M "C 2/M"
_symmetry_group_IT_number 12
_symmetry_cell_setting 'monoclinic'
loop_
_space_group_symop_operation_xyz
x,y,z
-x,y,-z
-x,-y,-z
x,-y,z
1/2+x,1/2+y,z
1/2-x,1/2+y,-z
1/2-x,1/2-y,-z
1/2+x,1/2-y,z
loop_
_atom_site_type_symbol
_atom_site_label
_atom_site_fract_x
_atom_site_fract_y
_atom_site_fract_z
Si Si1 0.466301 0.300549 0.375919
Si Si2 0.219200 0.827446 0.494558
Si Si3 0.685066 0.082285 0.407033
Si Si4 0.256869 0.419081 0.781917
Si Si5 0.360438 0.081620 0.856715
Si Si6 0.522116 0.146626 0.640864
Si Si7 0.942177 0.924528 0.690951
O O1 0.500000 0.291576 0.500000
O O2 0.374863 0.327985 0.455357
O O3 0.470184 0.224526 0.302191
O O4 0.523846 0.359945 0.246896
O O5 0.250000 0.750000 0.500000
O O6 0.235768 0.876516 0.612698
O O7 0.265022 0.865613 0.321513
O O8 0.674654 0.107936 0.257795
O O9 0.606928 0.104913 0.575708
O O10 0.699191 0.000000 0.406161
O O11 0.240198 0.500000 0.754169
O O12 0.349762 0.409754 0.739037
O O13 0.200122 0.394905 0.963812
O O14 0.450666 0.111287 0.798950
O O15 0.370008 0.000000 0.840133
O O16 0.500000 0.145843 0.500000
O O17 0.000000 0.926370 0.500000
O O18 0.948568 0.000000 0.762033
#
# Coordination Sequence:
#
# PCOD8083630 Si02
#       7
#     8   8   8   8   8   8   8
#     4  10  18  33  55  78 108 144 193 235 274 329
#     4  12  22  35  55  86 117 147 188 240 291 339
#     4  10  20  35  57  84 115 152 194 240 291 342
#     4  10  20  36  59  88 117 147 191 244 288 335
#     4   9  19  36  59  86 115 149 195 241 284 344
#     4   9  17  32  56  80 109 154 198 232 276 346
#     4   9  16  29  53  81 103 136 191 238 271 324
#
# _framework density 18.612344
#
# number of rings (size 3 to 8) (size 9 to 14) (size 15 to 20)
#    0.000    2.143    4.286    0.857    0.000    2.286 
#    0.000    3.571    0.000    5.143    0.000    4.000 
#    0.000    0.000    0.000    0.000    0.000    0.000 
#
# Total GULP energy -346911.316481 kJ/mol
# GULP energy per Si atom -12389.689874 kJ/mol
# Density = 1.856998 g / cm^3
# Si number density = 18.612344 Si / 1000 Ang^3
#
#
#
# Elastic Constant Matrix: (Units=GPa)
#
#
# Indices 1 2 3 4 5 6 
#
# 1 84.5313 26.1636 35.5646 0.0000 -5.0430 0.0000
# 2 26.1636 77.5396 31.4434 0.0000 10.5648 0.0000
# 3 35.5646 31.4434 86.1508 0.0000 -10.8072 0.0000
# 4 0.0000 0.0000 0.0000 17.3985 0.0000 -3.1479
# 5 -5.0430 10.5648 -10.8072 0.0000 19.3715 0.0000
# 6 0.0000 0.0000 0.0000 -3.1479 0.0000 36.3158
#
#
#
# Elastic Compliance Matrix: (Units=1/GPa)
#
#
# Indices 1 2 3 4 5 6 
#
# 1 0.015059 -0.003781 -0.004394 0.000000 0.003531 0.000000
# 2 -0.003781 0.019339 -0.007467 0.000000 -0.015697 0.000000
# 3 -0.004394 -0.007467 0.017757 0.000000 0.012835 0.000000
# 4 0.000000 0.000000 0.000000 0.058392 0.000000 0.005062
# 5 0.003531 -0.015697 0.012835 0.000000 0.068262 0.000000
# 6 0.000000 0.000000 0.000000 0.005062 0.000000 0.027975
#
#
# Mechanical properties :
#
#
# Convention : Reuss Voigt Hill
#
# Bulk Modulus (GPa) = 47.91034 48.28500 48.09767
# Shear Modulus (GPa) = 20.40613 24.95384 22.67998
#
# Velocity S-wave (km/s) = 3.31475 3.66555 3.49455
# Velocity P-wave (km/s) = 6.35981 6.62675 6.49465
#
# Compressibility (1/GPa) = 0.02087232
#
# Stress axis : x y z
#
# Youngs Moduli (GPa) = 66.40363 51.70930 56.31677
#
# Poissons Ratio (x) = 0.19550 0.24746
# Poissons Ratio (y) = 0.25105 0.42050
# Poissons Ratio (z) = 0.29178 0.38610
#
# Static dielectric constant tensor:
#      x y z
#    x 3.478280 0.000000 -0.151830 
#    y 0.000000 4.235780 0.000000 
#    z -0.151830 0.000000 3.195300 
# 
# 
# High freq. dielectric constant tensor:
#      x y z
#    x 1.723670 0.000000 -0.020500 
#    y 0.000000 1.744200 0.000000 
#    z -0.020500 0.000000 1.670070 
# 
# From -- ./inp_files/77350.got.cif
#   From: 2010.06.25/outbox.cif.g09.slc.cpg/sg12_39_cif.got.tgz:77350.got - 2010.06.28 00:19:55.
