data_PCOD8083580
_publ_section_title
;
Structure prediction by ZEFSAII (Michael W. Deem and Ramdas Pophale) SiO2 
 PCOD8083580
Probable space group: C 2/M
;
_chemical_formula_sum "Si O2"
_cell_formula_units_Z 56
_cell_length_a 19.237302
_cell_length_b 9.176625
_cell_length_c 31.245325
_cell_angle_alpha 90.000000
_cell_angle_beta 34.692877
_cell_angle_gamma 90.000000
_cell_volume 3139.494836
_symmetry_space_group_name_H-M "C 2/M"
_symmetry_group_IT_number 12
_symmetry_cell_setting 'monoclinic'
loop_
_space_group_symop_operation_xyz
x,y,z
-x,y,-z
-x,-y,-z
x,-y,z
1/2+x,1/2+y,z
1/2-x,1/2+y,-z
1/2-x,1/2-y,-z
1/2+x,1/2-y,z
loop_
_atom_site_type_symbol
_atom_site_label
_atom_site_fract_x
_atom_site_fract_y
_atom_site_fract_z
Si Si1 0.311543 0.172385 0.100353
Si Si2 0.113576 0.168498 0.411593
Si Si3 0.021241 0.671814 0.057288
Si Si4 0.633415 0.829173 0.315124
Si Si5 0.564876 0.329113 0.266154
Si Si6 0.851774 0.830541 0.310233
Si Si7 0.913481 0.166717 0.185268
O O1 0.405131 0.229285 0.088938
O O2 0.175630 0.227982 0.179885
O O3 0.317070 0.000000 0.098094
O O4 0.356429 0.223086 0.030251
O O5 0.084032 0.254844 0.383165
O O6 0.231269 0.233780 0.376193
O O7 0.000000 0.188701 0.500000
O O8 0.138186 0.000000 0.388211
O O9 0.018672 0.500000 0.064793
O O10 0.013683 0.742543 0.108046
O O11 0.561992 0.759169 0.311604
O O12 0.777251 0.798246 0.237546
O O13 0.604577 0.000000 0.331983
O O14 0.580762 0.500000 0.268090
O O15 0.438646 0.296557 0.306126
O O16 0.922850 0.790483 0.230441
O O17 0.812712 0.000000 0.328072
O O18 0.947406 0.000000 0.161061
#
# Coordination Sequence:
#
# PCOD8083580 Si02
#       7
#     8   8   8   8   8   8   8
#     4   8  15  26  44  70  98 129 170 218 257 296
#     4  10  21  38  60  83 104 130 167 206 245 300
#     4   9  15  26  45  69  94 128 176 219 256 296
#     4  10  20  33  53  80 107 135 169 210 254 301
#     4  10  18  33  54  75 103 140 177 212 254 304
#     4   9  20  35  53  77 106 138 169 207 259 308
#     4   9  17  30  45  68 100 132 169 213 258 302
#
# _framework density 17.837264999999999
#
# number of rings (size 3 to 8) (size 9 to 14) (size 15 to 20)
#    0.000    2.714    1.429    2.571    0.000    4.000 
#    0.000    3.571    0.000    0.000    0.000    0.000 
#    0.000    0.000    0.000    0.000    0.000    0.000 
#
# Total GULP energy -347117.207962 kJ/mol
# GULP energy per Si atom -12397.043142 kJ/mol
# Density = 1.779667 g / cm^3
# Si number density = 17.837265 Si / 1000 Ang^3
#
#
#
# Elastic Constant Matrix: (Units=GPa)
#
#
# Indices 1 2 3 4 5 6 
#
# 1 104.9184 52.8018 46.5865 0.0066 8.6970 0.0754
# 2 52.8018 81.2291 55.9618 0.0088 7.9701 0.0178
# 3 46.5865 55.9618 101.8978 0.0058 9.0467 0.0019
# 4 0.0066 0.0088 0.0058 23.3011 -0.0040 4.5267
# 5 8.6970 7.9701 9.0467 -0.0040 18.4283 0.0010
# 6 0.0754 0.0178 0.0019 4.5267 0.0010 25.9770
#
#
#
# Elastic Compliance Matrix: (Units=1/GPa)
#
#
# Indices 1 2 3 4 5 6 
#
# 1 0.014609 -0.007727 -0.002216 0.000006 -0.002464 -0.000038
# 2 -0.007727 0.024094 -0.009513 -0.000006 -0.002104 0.000008
# 3 -0.002216 -0.009513 0.016304 -0.000003 -0.002844 0.000012
# 4 0.000006 -0.000006 -0.000003 0.044420 0.000011 -0.007741
# 5 -0.002464 -0.002104 -0.002844 0.000011 0.057733 0.000005
# 6 -0.000038 0.000008 0.000012 -0.007741 0.000005 0.039845
#
#
# Mechanical properties :
#
#
# Convention : Reuss Voigt Hill
#
# Bulk Modulus (GPa) = 62.13609 66.52728 64.33169
# Shear Modulus (GPa) = 20.72271 22.38763 21.55517
#
# Velocity S-wave (km/s) = 3.41216 3.54659 3.48003
# Velocity P-wave (km/s) = 7.10172 7.35859 7.23129
#
# Compressibility (1/GPa) = 0.01609371
#
# Stress axis : x y z
#
# Youngs Moduli (GPa) = 68.45327 41.50412 61.33567
#
# Poissons Ratio (x) = 0.32072 0.13593
# Poissons Ratio (y) = 0.52897 0.58346
# Poissons Ratio (z) = 0.15171 0.39481
#
# Static dielectric constant tensor:
#      x y z
#    x 3.181430 -0.000020 0.094230 
#    y -0.000020 3.152340 0.000010 
#    z 0.094230 0.000010 3.309580 
# 
# 
# High freq. dielectric constant tensor:
#      x y z
#    x 1.673110 0.000000 0.014590 
#    y 0.000000 1.676290 0.000000 
#    z 0.014590 0.000000 1.685330 
# 
# From -- ./inp_files/377657.got.cif
#   From: 2010.06.25/outbox.cif.g09.slc.cpg/sg12_189_cif.got.tgz:377657.got - 2010.06.28 00:19:55.
