data_PCOD8083350
_publ_section_title
;
Structure prediction by ZEFSAII (Michael W. Deem and Ramdas Pophale) SiO2 
 PCOD8083350
Probable space group: C 2/M
;
_chemical_formula_sum "Si O2"
_cell_formula_units_Z 56
_cell_length_a 18.918323
_cell_length_b 13.991334
_cell_length_c 17.357866
_cell_angle_alpha 90.000000
_cell_angle_beta 36.549812
_cell_angle_gamma 90.000000
_cell_volume 2736.122137
_symmetry_space_group_name_H-M "C 2/M"
_symmetry_group_IT_number 12
_symmetry_cell_setting 'monoclinic'
loop_
_space_group_symop_operation_xyz
x,y,z
-x,y,-z
-x,-y,-z
x,-y,z
1/2+x,1/2+y,z
1/2-x,1/2+y,-z
1/2-x,1/2-y,-z
1/2+x,1/2-y,z
loop_
_atom_site_type_symbol
_atom_site_label
_atom_site_fract_x
_atom_site_fract_y
_atom_site_fract_z
Si Si1 0.229346 0.108946 0.342515
Si Si2 0.169014 0.730354 0.285907
Si Si3 0.000523 0.602485 0.907919
Si Si4 0.817306 0.608829 0.578800
Si Si5 0.912179 0.797428 0.003900
Si Si6 0.943961 0.106613 0.243482
Si Si7 0.431585 0.727769 0.403979
O O1 0.210368 0.167024 0.280699
O O2 0.367801 0.118080 0.242549
O O3 0.146147 0.150420 0.482050
O O4 0.192051 0.000000 0.360129
O O5 0.133561 0.659170 0.386689
O O6 0.059510 0.751897 0.327474
O O7 0.276660 0.681816 0.144966
O O8 0.951118 0.500000 0.919286
O O9 0.921173 0.693336 0.953717
O O10 0.000000 0.595819 0.000000
O O11 0.863738 0.500000 0.533390
O O12 0.675506 0.614311 0.702099
O O13 0.864969 0.669263 0.463458
O O14 0.948868 0.877241 0.909965
O O15 0.000000 0.800757 0.000000
O O16 0.946902 0.188239 0.305214
O O17 0.955965 0.000000 0.268837
#
# Coordination Sequence:
#
# PCOD8083350 Si02
#       7
#     8   8   8   8   8   8   8
#     4  10  18  32  56  83 116 160 201 241 294 356
#     4  11  22  36  60  91 120 160 201 254 304 359
#     4   9  16  29  53  84 114 146 194 250 294 338
#     4  10  21  40  66  91 118 160 208 251 296 356
#     4  11  19  38  63  85 117 156 208 259 304 354
#     4  11  24  41  63  89 121 161 205 255 305 362
#     4  11  24  39  56  88 131 159 195 247 311 367
#
# _framework density 20.466923000000001
#
# number of rings (size 3 to 8) (size 9 to 14) (size 15 to 20)
#    0.000    1.571    4.286    3.429    0.000    4.286 
#    0.000    2.143    0.000    0.000    0.000    0.000 
#    0.000    0.000    0.000    0.000    0.000    0.000 
#
# Total GULP energy -347079.659786 kJ/mol
# GULP energy per Si atom -12395.702135 kJ/mol
# Density = 2.042034 g / cm^3
# Si number density = 20.466923 Si / 1000 Ang^3
#
#
#
# Elastic Constant Matrix: (Units=GPa)
#
#
# Indices 1 2 3 4 5 6 
#
# 1 44.6722 19.5704 20.8701 0.0000 1.0535 0.0000
# 2 19.5704 134.8412 29.5967 0.0000 0.6558 0.0000
# 3 20.8701 29.5967 112.5236 0.0000 5.4532 0.0000
# 4 0.0000 0.0000 0.0000 38.6508 0.0000 5.8991
# 5 1.0535 0.6558 5.4532 0.0000 8.8346 0.0000
# 6 0.0000 0.0000 0.0000 5.8991 0.0000 17.6654
#
#
#
# Elastic Compliance Matrix: (Units=1/GPa)
#
#
# Indices 1 2 3 4 5 6 
#
# 1 0.025485 -0.002827 -0.003965 0.000000 -0.000382 0.000000
# 2 -0.002827 0.008188 -0.001666 0.000000 0.000758 0.000000
# 3 -0.003965 -0.001666 0.010341 0.000000 -0.005787 0.000000
# 4 0.000000 0.000000 0.000000 0.027262 0.000000 -0.009104
# 5 -0.000382 0.000758 -0.005787 0.000000 0.116753 0.000000
# 6 0.000000 0.000000 0.000000 -0.009104 0.000000 0.059648
#
#
# Mechanical properties :
#
#
# Convention : Reuss Voigt Hill
#
# Bulk Modulus (GPa) = 36.90162 48.01237 42.45699
# Shear Modulus (GPa) = 18.27315 27.83015 23.05165
#
# Velocity S-wave (km/s) = 2.99124 3.69150 3.35966
# Velocity P-wave (km/s) = 5.47714 6.45592 5.98657
#
# Compressibility (1/GPa) = 0.02709908
#
# Stress axis : x y z
#
# Youngs Moduli (GPa) = 39.23886 122.12359 96.70178
#
# Poissons Ratio (x) = 0.34521 0.38340
# Poissons Ratio (y) = 0.11092 0.16113
# Poissons Ratio (z) = 0.15557 0.20348
#
# Static dielectric constant tensor:
#      x y z
#    x 3.192460 0.000000 -0.068530 
#    y 0.000000 4.194090 0.000000 
#    z -0.068530 0.000000 3.820860 
# 
# 
# High freq. dielectric constant tensor:
#      x y z
#    x 1.747130 0.000000 -0.003730 
#    y 0.000000 1.813810 0.000000 
#    z -0.003730 0.000000 1.809760 
# 
# From -- ./inp_files/284507.got.cif
#   From: 2010.06.25/outbox.cif.g09.slc.cpg/sg12_143_cif.got.tgz:284507.got - 2010.06.28 00:19:55.
