data_PCOD8083604
_publ_section_title
;
Structure prediction by ZEFSAII (Michael W. Deem and Ramdas Pophale) SiO2 
 PCOD8083604
Probable space group: C 2/M
;
_chemical_formula_sum "Si O2"
_cell_formula_units_Z 52
_cell_length_a 5.335801
_cell_length_b 28.785222
_cell_length_c 18.082723
_cell_angle_alpha 90.000000
_cell_angle_beta 50.338092
_cell_angle_gamma 90.000000
_cell_volume 2138.082781
_symmetry_space_group_name_H-M "C 2/M"
_symmetry_group_IT_number 12
_symmetry_cell_setting 'monoclinic'
loop_
_space_group_symop_operation_xyz
x,y,z
-x,y,-z
-x,-y,-z
x,-y,z
1/2+x,1/2+y,z
1/2-x,1/2+y,-z
1/2-x,1/2-y,-z
1/2+x,1/2-y,z
loop_
_atom_site_type_symbol
_atom_site_label
_atom_site_fract_x
_atom_site_fract_y
_atom_site_fract_z
Si Si1 0.445469 0.773080 0.335647
Si Si2 0.113958 0.000000 0.061818
Si Si3 0.127097 0.351647 0.399578
Si Si4 0.282127 0.919068 0.793372
Si Si5 0.389001 0.235048 0.121641
Si Si6 0.373847 0.948119 0.410262
Si Si7 0.774161 0.137941 0.792431
O O1 0.587386 0.744553 0.380339
O O2 0.442743 0.826901 0.364353
O O3 0.675834 0.765930 0.220419
O O4 0.972297 0.954722 0.126137
O O5 0.500000 0.000000 0.000000
O O6 0.000000 0.000000 0.000000
O O7 0.518532 0.342366 0.317309
O O8 0.000000 0.330034 0.500000
O O9 0.074938 0.407457 0.412134
O O10 0.553311 0.944042 0.691141
O O11 0.480600 0.895164 0.822860
O O12 0.054636 0.884470 0.790095
O O13 0.756985 0.253457 0.064123
O O14 0.385004 0.180165 0.134153
O O15 0.000000 0.939890 0.500000
O O16 0.482516 0.000000 0.416523
#
# Coordination Sequence:
#
# PCOD8083604 Si02
#       7
#     8   4   8   8   8   8   8
#     4  10  21  35  52  76 117 166 227 281 344 384
#     4  12  26  50  79 108 145 168 212 284 362 426
#     4  11  23  36  54  84 121 182 236 294 342 383
#     4  11  24  43  67 104 130 181 222 269 347 400
#     4  10  18  33  54  82 122 176 218 278 332 378
#     4  10  22  41  64  91 132 181 236 286 327 393
#     4  11  22  37  62  86 137 171 226 281 315 415
#
# _framework density 24.320855999999999
#
# number of rings (size 3 to 8) (size 9 to 14) (size 15 to 20)
#    0.000    1.385    3.846    2.769    6.462    2.154 
#    1.385    0.000    0.000    0.000    0.000    0.000 
#    0.000   43.077    0.000    0.000    0.000    0.000 
#
# Total GULP energy -322220.724791 kJ/mol
# GULP energy per Si atom -12393.104800 kJ/mol
# Density = 2.426550 g / cm^3
# Si number density = 24.320856 Si / 1000 Ang^3
#
#
#
# Elastic Constant Matrix: (Units=GPa)
#
#
# Indices 1 2 3 4 5 6 
#
# 1 168.2816 44.2745 32.0443 0.0000 -7.3389 0.0000
# 2 44.2745 102.4110 16.3857 0.0000 -9.5147 0.0000
# 3 32.0443 16.3857 80.4890 0.0000 -15.8491 0.0000
# 4 0.0000 0.0000 0.0000 28.3829 0.0000 -13.8936
# 5 -7.3389 -9.5147 -15.8491 0.0000 33.6552 0.0000
# 6 0.0000 0.0000 0.0000 -13.8936 0.0000 37.8899
#
#
#
# Elastic Compliance Matrix: (Units=1/GPa)
#
#
# Indices 1 2 3 4 5 6 
#
# 1 0.007088 -0.002721 -0.002331 0.000000 -0.000322 0.000000
# 2 -0.002721 0.011272 -0.000772 0.000000 0.002230 0.000000
# 3 -0.002331 -0.000772 0.014732 0.000000 0.006211 0.000000
# 4 0.000000 0.000000 0.000000 0.042940 0.000000 0.015745
# 5 -0.000322 0.002230 0.006211 0.000000 0.033198 0.000000
# 6 0.000000 0.000000 0.000000 0.015745 0.000000 0.032166
#
#
# Mechanical properties :
#
#
# Convention : Reuss Voigt Hill
#
# Bulk Modulus (GPa) = 46.63568 59.62119 53.12844
# Shear Modulus (GPa) = 31.21219 37.21741 34.21480
#
# Velocity S-wave (km/s) = 3.58627 3.91611 3.75481
# Velocity P-wave (km/s) = 6.03036 6.70936 6.37890
#
# Compressibility (1/GPa) = 0.02144281
#
# Stress axis : x y z
#
# Youngs Moduli (GPa) = 141.07769 88.71737 67.87732
#
# Poissons Ratio (x) = 0.24143 0.15824
# Poissons Ratio (y) = 0.38391 0.05242
# Poissons Ratio (z) = 0.32890 0.06851
#
# Static dielectric constant tensor:
#      x y z
#    x 4.929560 0.000000 0.026550 
#    y 0.000000 5.508730 0.000000 
#    z 0.026550 0.000000 4.409730 
# 
# 
# High freq. dielectric constant tensor:
#      x y z
#    x 1.970280 0.000000 -0.000780 
#    y 0.000000 1.974550 0.000000 
#    z -0.000780 0.000000 1.965130 
# 
# From -- ./inp_files/298343.got.cif
#   From: 2010.06.25/outbox.cif.g09.slc.cpg/sg12_150_cif.got.tgz:298343.got - 2010.06.28 00:19:55.
