data_PCOD8083689
_publ_section_title
;
Structure prediction by ZEFSAII (Michael W. Deem and Ramdas Pophale) SiO2 
 PCOD8083689
Probable space group: C 2/M
;
_chemical_formula_sum "Si O2"
_cell_formula_units_Z 64
_cell_length_a 25.537230
_cell_length_b 8.970373
_cell_length_c 15.237604
_cell_angle_alpha 90.000000
_cell_angle_beta 70.014096
_cell_angle_gamma 90.000000
_cell_volume 3280.391387
_symmetry_space_group_name_H-M "C 2/M"
_symmetry_group_IT_number 12
_symmetry_cell_setting 'monoclinic'
loop_
_space_group_symop_operation_xyz
x,y,z
-x,y,-z
-x,-y,-z
x,-y,z
1/2+x,1/2+y,z
1/2-x,1/2+y,-z
1/2-x,1/2-y,-z
1/2+x,1/2-y,z
loop_
_atom_site_type_symbol
_atom_site_label
_atom_site_fract_x
_atom_site_fract_y
_atom_site_fract_z
Si Si1 0.145813 0.827635 0.380138
Si Si2 0.114792 0.676935 0.102278
Si Si3 0.310235 0.678564 0.461224
Si Si4 0.329303 0.823071 0.105027
Si Si5 0.624801 0.176203 0.736068
Si Si6 0.470131 0.668286 0.608934
Si Si7 0.704764 0.327296 0.173588
Si Si8 0.498062 0.174212 0.241977
O O1 0.160021 0.761454 0.467167
O O2 0.090433 0.754811 0.369403
O O3 0.196164 0.804376 0.283072
O O4 0.131567 0.000000 0.402955
O O5 0.117206 0.500000 0.104641
O O6 0.159562 0.736116 0.145595
O O7 0.052594 0.737155 0.159549
O O8 0.130410 0.733879 0.995731
O O9 0.305510 0.500000 0.461215
O O10 0.250000 0.750000 0.500000
O O11 0.344733 0.735953 0.358677
O O12 0.351191 0.762485 0.185656
O O13 0.266810 0.765901 0.119390
O O14 0.328567 0.000000 0.110619
O O15 0.558927 0.214247 0.775608
O O16 0.635183 0.000000 0.717300
O O17 0.500000 0.674148 0.500000
O O18 0.464802 0.500000 0.647612
O O19 0.505791 0.758606 0.658808
O O20 0.698402 0.500000 0.151222
O O21 0.504755 0.000000 0.248667
#
# Coordination Sequence:
#
# PCOD8083689 Si02
#       8
#     8   8   8   8   8   8   8   8
#     4   9  18  32  52  77 105 141 181 217 267 334
#     4  10  20  35  54  82 113 143 181 230 286 336
#     4  11  22  38  59  84 114 148 187 231 275 328
#     4   9  19  35  57  79 106 146 190 232 276 333
#     4  10  21  39  58  79 110 151 192 232 276 329
#     4  10  19  33  54  77 102 140 186 223 264 327
#     4  10  18  33  56  80 105 140 183 229 279 333
#     4  10  21  35  54  81 114 145 180 231 287 330
#
# _framework density 19.509865999999999
#
# number of rings (size 3 to 8) (size 9 to 14) (size 15 to 20)
#    0.000    2.125    1.250    2.250    0.000    4.250 
#    0.000    7.500    0.000    0.000    0.000    2.625 
#    0.000    0.000    0.000    0.000    0.000    0.000 
#
# Total GULP energy -396729.746928 kJ/mol
# GULP energy per Si atom -12397.804591 kJ/mol
# Density = 1.946546 g / cm^3
# Si number density = 19.509866 Si / 1000 Ang^3
#
#
#
# Elastic Constant Matrix: (Units=GPa)
#
#
# Indices 1 2 3 4 5 6 
#
# 1 124.9823 32.0522 53.9755 0.0000 -7.4239 0.0000
# 2 32.0522 25.7464 28.0557 0.0000 -2.6072 0.0000
# 3 53.9755 28.0557 125.3942 0.0000 -0.7187 0.0000
# 4 0.0000 0.0000 0.0000 18.5501 0.0000 -0.0541
# 5 -7.4239 -2.6072 -0.7187 0.0000 36.0236 0.0000
# 6 0.0000 0.0000 0.0000 -0.0541 0.0000 26.5254
#
#
#
# Elastic Compliance Matrix: (Units=1/GPa)
#
#
# Indices 1 2 3 4 5 6 
#
# 1 0.012398 -0.012519 -0.002526 0.000000 0.001598 0.000000
# 2 -0.012519 0.064448 -0.009020 0.000000 0.001904 0.000000
# 3 -0.002526 -0.009020 0.011075 0.000000 -0.000952 0.000000
# 4 0.000000 0.000000 0.000000 0.053908 0.000000 0.000110
# 5 0.001598 0.001904 -0.000952 0.000000 0.028208 0.000000
# 6 0.000000 0.000000 0.000000 0.000110 0.000000 0.037700
#
#
# Mechanical properties :
#
#
# Convention : Reuss Voigt Hill
#
# Bulk Modulus (GPa) = 25.13230 56.03218 40.58224
# Shear Modulus (GPa) = 18.57836 27.02244 22.80040
#
# Velocity S-wave (km/s) = 3.08921 3.72568 3.42228
# Velocity P-wave (km/s) = 5.06301 6.87676 6.03838
#
# Compressibility (1/GPa) = 0.03978943
#
# Stress axis : x y z
#
# Youngs Moduli (GPa) = 80.65965 15.51650 90.29441
#
# Poissons Ratio (x) = 0.19426 0.22811
# Poissons Ratio (y) = 1.00981 0.81442
# Poissons Ratio (z) = 0.20377 0.13995
#
# Static dielectric constant tensor:
#      x y z
#    x 3.868210 0.000000 -0.152320 
#    y 0.000000 3.269020 0.000000 
#    z -0.152320 0.000000 3.871910 
# 
# 
# High freq. dielectric constant tensor:
#      x y z
#    x 1.773520 0.000000 -0.005450 
#    y 0.000000 1.721770 0.000000 
#    z -0.005450 0.000000 1.771180 
# 
# From -- ./inp_files/243833.got.cif
#   From: 2010.06.25/outbox.cif.g09.slc.cpg/sg12_122_cif.got.tgz:243833.got - 2010.06.28 00:19:55.
