data_PCOD8083915
_publ_section_title
;
Structure prediction by ZEFSAII (Michael W. Deem and Ramdas Pophale) SiO2 
 PCOD8083915
Probable space group: C 2/M
;
_chemical_formula_sum "Si O2"
_cell_formula_units_Z 64
_cell_length_a 28.404219
_cell_length_b 15.956642
_cell_length_c 20.499126
_cell_angle_alpha 90.000000
_cell_angle_beta 20.811186
_cell_angle_gamma 90.000000
_cell_volume 3300.973422
_symmetry_space_group_name_H-M "C 2/M"
_symmetry_group_IT_number 12
_symmetry_cell_setting 'monoclinic'
loop_
_space_group_symop_operation_xyz
x,y,z
-x,y,-z
-x,-y,-z
x,-y,z
1/2+x,1/2+y,z
1/2-x,1/2+y,-z
1/2-x,1/2-y,-z
1/2+x,1/2-y,z
loop_
_atom_site_type_symbol
_atom_site_label
_atom_site_fract_x
_atom_site_fract_y
_atom_site_fract_z
Si Si1 0.493006 0.408209 0.773815
Si Si2 0.810320 0.593119 0.843955
Si Si3 0.322664 0.595043 0.352370
Si Si4 0.951256 0.660499 0.257952
Si Si5 0.104643 0.744093 0.807186
Si Si6 0.066087 0.762130 0.348100
Si Si7 0.605723 0.719292 0.548053
Si Si8 0.782348 0.403075 0.032126
O O1 0.550922 0.500000 0.691745
O O2 0.575118 0.367905 0.726809
O O3 0.524920 0.366338 0.663353
O O4 0.338902 0.406808 0.988241
O O5 0.871815 0.500000 0.749343
O O6 0.873875 0.668957 0.721128
O O7 0.822383 0.611628 0.905231
O O8 0.353794 0.500000 0.289512
O O9 0.173812 0.598171 0.573874
O O10 0.348533 0.658422 0.258976
O O11 0.951267 0.704592 0.187149
O O12 0.936923 0.726123 0.334638
O O13 0.089262 0.611048 0.088383
O O14 0.238865 0.697782 0.655723
O O15 0.000000 0.733461 0.000000
O O16 0.171730 0.833731 0.192428
O O17 0.000000 0.792618 0.500000
O O18 0.947612 0.745622 0.450531
O O19 0.732683 0.500000 0.105958
#
# Coordination Sequence:
#
# PCOD8083915 Si02
#       8
#     8   8   8   8   8   8   8   8
#     4  10  18  33  62  87 110 146 202 259 292 334
#     4  10  21  39  63  92 119 156 206 252 296 355
#     4  10  20  36  60  89 116 152 199 247 294 352
#     4  11  20  39  63  85 115 156 201 248 290 348
#     4  11  24  37  59  89 123 156 191 242 304 360
#     4  12  26  39  61  90 128 164 194 245 309 363
#     4  11  20  40  60  86 114 159 208 239 287 356
#     4  11  23  39  64  90 117 157 208 253 295 353
#
# _framework density 19.38822
#
# number of rings (size 3 to 8) (size 9 to 14) (size 15 to 20)
#    0.000    1.250    5.000    2.250    1.750    0.750 
#    0.000    0.000    0.000    1.875    0.000    0.000 
#    0.000    0.000    0.000    0.000    0.000    0.000 
#
# Total GULP energy -396554.303045 kJ/mol
# GULP energy per Si atom -12392.321970 kJ/mol
# Density = 1.934409 g / cm^3
# Si number density = 19.388220 Si / 1000 Ang^3
#
#
#
# Elastic Constant Matrix: (Units=GPa)
#
#
# Indices 1 2 3 4 5 6 
#
# 1 97.1061 17.3490 38.2952 0.0000 -12.6467 0.0000
# 2 17.3490 76.1596 27.1224 -0.0001 0.3481 0.0000
# 3 38.2952 27.1224 70.1291 -0.0006 0.1380 0.0002
# 4 0.0000 -0.0001 -0.0006 21.0016 0.0004 -4.6570
# 5 -12.6467 0.3481 0.1380 0.0004 35.4206 -0.0001
# 6 0.0000 0.0000 0.0002 -4.6570 -0.0001 23.1895
#
#
#
# Elastic Compliance Matrix: (Units=1/GPa)
#
#
# Indices 1 2 3 4 5 6 
#
# 1 0.013982 -0.000563 -0.007427 0.000000 0.005027 0.000000
# 2 -0.000563 0.015251 -0.005590 0.000000 -0.000329 0.000000
# 3 -0.007427 -0.005590 0.020483 0.000001 -0.002677 0.000000
# 4 0.000000 0.000000 0.000001 0.049835 -0.000001 0.010008
# 5 0.005027 -0.000329 -0.002677 -0.000001 0.030041 0.000000
# 6 0.000000 0.000000 0.000000 0.010008 0.000000 0.045133
#
#
# Mechanical properties :
#
#
# Convention : Reuss Voigt Hill
#
# Bulk Modulus (GPa) = 44.33701 45.43645 44.88673
# Shear Modulus (GPa) = 23.87736 26.63089 25.25413
#
# Velocity S-wave (km/s) = 3.51314 3.71018 3.61300
# Velocity P-wave (km/s) = 6.27486 6.46837 6.37235
#
# Compressibility (1/GPa) = 0.02255452
#
# Stress axis : x y z
#
# Youngs Moduli (GPa) = 71.51841 65.57000 48.82201
#
# Poissons Ratio (x) = 0.03692 0.36262
# Poissons Ratio (y) = 0.04027 0.27292
# Poissons Ratio (z) = 0.53120 0.36655
#
# Static dielectric constant tensor:
#      x y z
#    x 3.680280 0.000000 -0.315690 
#    y 0.000000 3.699840 0.000000 
#    z -0.315690 0.000000 3.370020 
# 
# 
# High freq. dielectric constant tensor:
#      x y z
#    x 1.754350 0.000000 -0.028470 
#    y 0.000000 1.763530 0.000000 
#    z -0.028470 0.000000 1.734870 
# 
# From -- ./inp_files/330358.got.cif
#   From: 2010.06.25/outbox.cif.g09.slc.cpg/sg12_166_cif.got.tgz:330358.got - 2010.06.28 00:19:55.
