data_PCOD8083932
_publ_section_title
;
Structure prediction by ZEFSAII (Michael W. Deem and Ramdas Pophale) SiO2 
 PCOD8083932
Probable space group: C 2/M
;
_chemical_formula_sum "Si O2"
_cell_formula_units_Z 48
_cell_length_a 27.674955
_cell_length_b 16.562203
_cell_length_c 19.437265
_cell_angle_alpha 90.000000
_cell_angle_beta 17.989775
_cell_angle_gamma 90.000000
_cell_volume 2751.591384
_symmetry_space_group_name_H-M "C 2/M"
_symmetry_group_IT_number 12
_symmetry_cell_setting 'monoclinic'
loop_
_space_group_symop_operation_xyz
x,y,z
-x,y,-z
-x,-y,-z
x,-y,z
1/2+x,1/2+y,z
1/2-x,1/2+y,-z
1/2-x,1/2-y,-z
1/2+x,1/2-y,z
loop_
_atom_site_type_symbol
_atom_site_label
_atom_site_fract_x
_atom_site_fract_y
_atom_site_fract_z
Si Si1 0.635999 0.738074 0.957774
Si Si2 0.694887 0.806426 0.136390
Si Si3 0.851677 0.312470 0.403659
Si Si4 0.031262 0.089738 0.262567
Si Si5 0.077832 0.089327 0.740636
Si Si6 0.388643 0.747622 0.506672
O O1 0.521836 0.811477 0.136495
O O2 0.541225 0.656016 0.068717
O O3 0.761029 0.728208 0.849053
O O4 0.724448 0.760331 0.768004
O O5 0.506001 0.809870 0.387542
O O6 0.750000 0.750000 0.000000
O O7 0.785814 0.891628 0.003221
O O8 0.750000 0.250000 0.500000
O O9 0.756975 0.396523 0.524822
O O10 0.865011 0.283829 0.463610
O O11 0.925776 0.094028 0.337028
O O12 0.962379 0.157474 0.406692
O O13 0.022439 0.000000 0.307489
O O14 0.026773 0.000000 0.834966
#
# Coordination Sequence:
#
# PCOD8083932 Si02
#       6
#     8   8   8   8   8   8
#     4  10  19  32  55  81 102 135 178 213 258 315
#     4   9  16  33  54  75 101 135 173 211 257 307
#     4  10  18  34  49  76 103 138 179 205 255 308
#     4   9  17  33  55  77 103 139 173 212 262 308
#     4   9  18  35  54  73 106 141 172 216 260 302
#     4  11  19  32  56  80 103 136 176 219 253 311
#
# _framework density 17.444451000000001
#
# number of rings (size 3 to 8) (size 9 to 14) (size 15 to 20)
#    0.000    2.333    6.667    0.500    0.000    2.667 
#    0.000    4.167    0.000   14.000    0.000    0.000 
#    0.000    0.000    0.000    0.000    0.000    0.000 
#
# Total GULP energy -297319.342173 kJ/mol
# GULP energy per Si atom -12388.305924 kJ/mol
# Density = 1.740475 g / cm^3
# Si number density = 17.444451 Si / 1000 Ang^3
#
#
#
# Elastic Constant Matrix: (Units=GPa)
#
#
# Indices 1 2 3 4 5 6 
#
# 1 68.3961 26.6705 49.1458 0.0008 -19.6619 -0.0004
# 2 26.6705 93.6556 36.8847 0.0050 -4.9105 -0.0052
# 3 49.1458 36.8847 123.9210 0.0057 6.3489 -0.0053
# 4 0.0008 0.0050 0.0057 16.2935 -0.0081 -0.9101
# 5 -19.6619 -4.9105 6.3489 -0.0081 25.9068 0.0048
# 6 -0.0004 -0.0052 -0.0053 -0.9101 0.0048 15.6043
#
#
#
# Elastic Compliance Matrix: (Units=1/GPa)
#
#
# Indices 1 2 3 4 5 6 
#
# 1 0.034238 -0.002602 -0.014289 0.000018 0.028993 -0.000013
# 2 -0.002602 0.012563 -0.002763 -0.000002 0.001084 0.000003
# 3 -0.014289 -0.002763 0.015334 -0.000011 -0.015126 0.000008
# 4 0.000018 -0.000002 -0.000011 0.061575 0.000035 0.003591
# 5 0.028993 0.001084 -0.015126 0.000035 0.064516 -0.000022
# 6 -0.000013 0.000003 0.000008 0.003591 -0.000022 0.064294
#
#
# Mechanical properties :
#
#
# Convention : Reuss Voigt Hill
#
# Bulk Modulus (GPa) = 43.80919 56.81943 50.31431
# Shear Modulus (GPa) = 16.69797 23.11237 19.90517
#
# Velocity S-wave (km/s) = 3.09723 3.64388 3.38162
# Velocity P-wave (km/s) = 6.16105 7.09551 6.64472
#
# Compressibility (1/GPa) = 0.02282626
#
# Stress axis : x y z
#
# Youngs Moduli (GPa) = 29.20774 79.59623 65.21485
#
# Poissons Ratio (x) = 0.20713 0.93186
# Poissons Ratio (y) = 0.07600 0.18019
# Poissons Ratio (z) = 0.41735 0.21992
#
# Static dielectric constant tensor:
#      x y z
#    x 3.884350 0.000080 -0.704900 
#    y 0.000080 2.142850 -0.000070 
#    z -0.704900 -0.000070 3.684650 
# 
# 
# High freq. dielectric constant tensor:
#      x y z
#    x 1.676970 0.000000 -0.016050 
#    y 0.000000 1.645200 0.000000 
#    z -0.016050 0.000000 1.664420 
# 
# From -- ./inp_files/144308.got.cif
#   From: 2010.06.25/outbox.cif.g09.slc.cpg/sg12_73_cif.got.tgz:144308.got - 2010.06.28 00:19:55.
