data_PCOD8083459
_publ_section_title
;
Structure prediction by ZEFSAII (Michael W. Deem and Ramdas Pophale) SiO2 
 PCOD8083459
Probable space group: C 2/M
;
_chemical_formula_sum "Si O2"
_cell_formula_units_Z 48
_cell_length_a 12.343577
_cell_length_b 15.481160
_cell_length_c 10.828609
_cell_angle_alpha 90.000000
_cell_angle_beta 72.272047
_cell_angle_gamma 90.000000
_cell_volume 1971.006840
_symmetry_space_group_name_H-M "C 2/M"
_symmetry_group_IT_number 12
_symmetry_cell_setting 'monoclinic'
loop_
_space_group_symop_operation_xyz
x,y,z
-x,y,-z
-x,-y,-z
x,-y,z
1/2+x,1/2+y,z
1/2-x,1/2+y,-z
1/2-x,1/2-y,-z
1/2+x,1/2-y,z
loop_
_atom_site_type_symbol
_atom_site_label
_atom_site_fract_x
_atom_site_fract_y
_atom_site_fract_z
Si Si1 0.625088 0.254888 0.095893
Si Si2 0.519161 0.903628 0.199867
Si Si3 0.967240 0.097918 0.177141
Si Si4 0.076621 0.828624 0.362714
Si Si5 0.274505 0.096836 0.686333
Si Si6 0.202474 0.398869 0.589756
O O1 0.561744 0.165077 0.081462
O O2 0.556245 0.339577 0.071176
O O3 0.624726 0.256035 0.249130
O O4 0.750000 0.250000 0.000000
O O5 0.614078 0.908130 0.271941
O O6 0.404063 0.862584 0.295598
O O7 0.502589 0.000000 0.148101
O O8 0.837872 0.134377 0.204460
O O9 0.998284 0.104310 0.312381
O O10 0.985308 0.000000 0.122823
O O11 0.182545 0.880588 0.378636
O O12 0.000000 0.788618 0.500000
O O13 0.297227 0.145083 0.547213
O O14 0.233267 0.000000 0.665920
O O15 0.178855 0.500000 0.586138
#
# Coordination Sequence:
#
# PCOD8083459 Si02
#       6
#     8   8   8   8   8   8
#     4  10  24  43  61  88 123 161 201 254 309 365
#     4  10  22  39  57  81 119 167 208 240 292 366
#     4   9  19  36  63  91 119 152 198 254 308 356
#     4  10  20  36  62  96 121 152 199 254 311 359
#     4   9  17  33  58  89 123 159 199 248 300 359
#     4  10  18  32  58  91 126 158 193 248 307 362
#
# _framework density 24.353038000000002
#
# number of rings (size 3 to 8) (size 9 to 14) (size 15 to 20)
#    1.000    1.333    1.667    1.000    0.000    6.000 
#    0.000    5.833    0.000    5.000    0.000    0.000 
#    0.000    0.000    0.000    0.000    0.000    0.000 
#
# Total GULP energy -297327.168394 kJ/mol
# GULP energy per Si atom -12388.632016 kJ/mol
# Density = 2.429761 g / cm^3
# Si number density = 24.353038 Si / 1000 Ang^3
#
#
#
# Elastic Constant Matrix: (Units=GPa)
#
#
# Indices 1 2 3 4 5 6 
#
# 1 119.8779 0.2187 36.5304 0.0000 -33.6947 0.0000
# 2 0.2187 105.4632 24.0253 0.0000 -33.3141 0.0000
# 3 36.5304 24.0253 106.3901 0.0000 -43.7785 0.0000
# 4 0.0000 0.0000 0.0000 -20.4806 0.0000 -40.3671
# 5 -33.6947 -33.3141 -43.7785 0.0000 56.5724 0.0000
# 6 0.0000 0.0000 0.0000 -40.3671 0.0000 8.0913
#
#
#
# Elastic Compliance Matrix: (Units=1/GPa)
#
#
# Indices 1 2 3 4 5 6 
#
# 1 0.010646 0.002403 -0.001477 0.000000 0.006613 0.000000
# 2 0.002403 0.012197 -0.000051 0.000000 0.008574 0.000000
# 3 -0.001477 -0.000051 0.014003 0.000000 0.009926 0.000000
# 4 0.000000 0.000000 0.000000 -0.004507 0.000000 -0.022486
# 5 0.006613 0.008574 0.009926 0.000000 0.034346 0.000000
# 6 0.000000 0.000000 0.000000 -0.022486 0.000000 0.011408
#
#
# Mechanical properties :
#
#
# Convention : Reuss Voigt Hill
#
# Bulk Modulus (GPa) = 25.90927 50.36444 38.13685
# Shear Modulus (GPa) = 56.04854 26.90041 41.47448
#
# Velocity S-wave (km/s) = 4.80260 3.32716 4.13128
# Velocity P-wave (km/s) = 6.43548 5.95700 6.20086
#
# Compressibility (1/GPa) = 0.03859622
#
# Stress axis : x y z
#
# Youngs Moduli (GPa) = 93.92871 81.98605 71.41573
#
# Poissons Ratio (x) = -0.19705 0.10548
# Poissons Ratio (y) = -0.22575 0.00367
# Poissons Ratio (z) = 0.13873 0.00421
#
# Static dielectric constant tensor:
#      x y z
#    x 4.224580 0.000000 -0.179290 
#    y 0.000000 4.631770 0.000000 
#    z -0.179290 0.000000 4.209990 
# 
# 
# High freq. dielectric constant tensor:
#      x y z
#    x 1.977180 0.000000 -0.012920 
#    y 0.000000 1.958880 0.000000 
#    z -0.012920 0.000000 1.955820 
# 
# From -- ./inp_files/131682.got.cif
#   From: 2010.06.25/outbox.cif.g09.slc.cpg/sg12_66_cif.got.tgz:131682.got - 2010.06.28 00:19:55.
