data_PCOD8083056
_publ_section_title
;
Structure prediction by ZEFSAII (Michael W. Deem and Ramdas Pophale) SiO2 
 PCOD8083056
Probable space group: C 2/M
;
_chemical_formula_sum "Si O2"
_cell_formula_units_Z 56
_cell_length_a 28.706176
_cell_length_b 8.889314
_cell_length_c 19.114333
_cell_angle_alpha 90.000000
_cell_angle_beta 138.690383
_cell_angle_gamma 90.000000
_cell_volume 3219.813616
_symmetry_space_group_name_H-M "C 2/M"
_symmetry_group_IT_number 12
_symmetry_cell_setting 'monoclinic'
loop_
_space_group_symop_operation_xyz
x,y,z
-x,y,-z
-x,-y,-z
x,-y,z
1/2+x,1/2+y,z
1/2-x,1/2+y,-z
1/2-x,1/2-y,-z
1/2+x,1/2-y,z
loop_
_atom_site_type_symbol
_atom_site_label
_atom_site_fract_x
_atom_site_fract_y
_atom_site_fract_z
Si Si1 0.787497 0.321886 0.296102
Si Si2 0.762394 0.676628 0.622646
Si Si3 0.239417 0.174388 0.877211
Si Si4 0.984197 0.324133 0.693902
Si Si5 0.854672 0.326908 0.120296
Si Si6 0.357725 0.676281 0.621647
Si Si7 0.553867 0.178674 0.503438
O O1 0.784241 0.500000 0.298080
O O2 0.741521 0.252554 0.306329
O O3 0.753698 0.268951 0.185549
O O4 0.867814 0.261866 0.391540
O O5 0.771213 0.500000 0.641712
O O6 0.692373 0.719294 0.500053
O O7 0.830993 0.740709 0.660994
O O8 0.171449 0.225918 0.844795
O O9 0.231102 0.000000 0.849420
O O10 0.310293 0.208118 0.000729
O O11 0.966052 0.500000 0.679430
O O12 0.936135 0.233136 0.693828
O O13 0.969964 0.264467 0.599540
O O14 0.064515 0.288912 0.805122
O O15 0.845877 0.500000 0.133790
O O16 0.357800 0.500000 0.636325
O O17 0.500000 0.246480 0.500000
O O18 0.551741 0.000000 0.504179
#
# Coordination Sequence:
#
# PCOD8083056 Si02
#       7
#     8   8   8   8   8   8   8
#     4  11  20  32  52  76 104 137 173 210 256 308
#     4  10  20  34  52  74 104 137 172 210 252 304
#     4  10  20  34  52  76 105 137 176 219 258 298
#     4  10  18  32  53  75 102 135 173 212 255 305
#     4   9  19  35  55  76 100 137 181 217 253 303
#     4  10  20  33  51  76 106 135 169 209 256 309
#     4   9  17  28  45  71 101 132 166 203 245 298
#
# _framework density 17.392310999999999
#
# number of rings (size 3 to 8) (size 9 to 14) (size 15 to 20)
#    0.000    2.143    1.429    2.571    0.000    4.571 
#    0.000    0.000    0.000    3.000    0.000    6.000 
#    0.000    0.000    0.000    0.000    0.000    0.000 
#
# Total GULP energy -347320.812656 kJ/mol
# GULP energy per Si atom -12404.314738 kJ/mol
# Density = 1.735273 g / cm^3
# Si number density = 17.392311 Si / 1000 Ang^3
#
#
#
# Elastic Constant Matrix: (Units=GPa)
#
#
# Indices 1 2 3 4 5 6 
#
# 1 145.5722 50.7827 59.8027 0.0000 -2.1975 0.0000
# 2 50.7827 67.8410 33.8878 0.0000 -2.9421 0.0000
# 3 59.8027 33.8878 81.0384 0.0000 -1.4221 0.0000
# 4 0.0000 0.0000 0.0000 23.7570 0.0000 -1.7830
# 5 -2.1975 -2.9421 -1.4221 0.0000 24.4218 0.0000
# 6 0.0000 0.0000 0.0000 -1.7830 0.0000 33.6043
#
#
#
# Elastic Compliance Matrix: (Units=1/GPa)
#
#
# Indices 1 2 3 4 5 6 
#
# 1 0.011228 -0.005392 -0.006031 0.000000 0.000010 0.000000
# 2 -0.005392 0.021300 -0.004897 0.000000 0.001796 0.000000
# 3 -0.006031 -0.004897 0.018837 0.000000 -0.000036 0.000000
# 4 0.000000 0.000000 0.000000 0.042261 0.000000 0.002242
# 5 0.000010 0.001796 -0.000036 0.000000 0.041162 0.000000
# 6 0.000000 0.000000 0.000000 0.002242 0.000000 0.029877
#
#
# Mechanical properties :
#
#
# Convention : Reuss Voigt Hill
#
# Bulk Modulus (GPa) = 53.39933 64.82201 59.11067
# Shear Modulus (GPa) = 24.56430 26.35519 25.45975
#
# Velocity S-wave (km/s) = 3.76222 3.89695 3.83018
# Velocity P-wave (km/s) = 7.04570 7.58945 7.32262
#
# Compressibility (1/GPa) = 0.01872683
#
# Stress axis : x y z
#
# Youngs Moduli (GPa) = 89.06212 46.94768 53.08585
#
# Poissons Ratio (x) = 0.25314 0.32016
# Poissons Ratio (y) = 0.48021 0.25994
# Poissons Ratio (z) = 0.53713 0.22989
#
# Static dielectric constant tensor:
#      x y z
#    x 3.253720 0.000000 0.018640 
#    y 0.000000 3.123580 0.000000 
#    z 0.018640 0.000000 3.144370 
# 
# 
# High freq. dielectric constant tensor:
#      x y z
#    x 1.674800 0.000000 -0.000830 
#    y 0.000000 1.667330 0.000000 
#    z -0.000830 0.000000 1.653160 
# 
# From -- ./inp_files/288157.got.cif
#   From: 2010.06.25/outbox.cif.g09.slc.cpg/sg12_145_cif.got.tgz:288157.got - 2010.06.28 00:19:55.
