data_PCOD8083006
_publ_section_title
;
Structure prediction by ZEFSAII (Michael W. Deem and Ramdas Pophale) SiO2 
 PCOD8083006
Probable space group: C 2/M
;
_chemical_formula_sum "Si O2"
_cell_formula_units_Z 56
_cell_length_a 20.005767
_cell_length_b 8.930245
_cell_length_c 29.739574
_cell_angle_alpha 90.000000
_cell_angle_beta 30.668565
_cell_angle_gamma 90.000000
_cell_volume 2710.091980
_symmetry_space_group_name_H-M "C 2/M"
_symmetry_group_IT_number 12
_symmetry_cell_setting 'monoclinic'
loop_
_space_group_symop_operation_xyz
x,y,z
-x,y,-z
-x,-y,-z
x,-y,z
1/2+x,1/2+y,z
1/2-x,1/2+y,-z
1/2-x,1/2-y,-z
1/2+x,1/2-y,z
loop_
_atom_site_type_symbol
_atom_site_label
_atom_site_fract_x
_atom_site_fract_y
_atom_site_fract_z
Si Si1 0.371992 0.821978 0.829181
Si Si2 0.072581 0.672975 0.639336
Si Si3 0.216051 0.173556 0.412885
Si Si4 0.000392 0.325528 0.585352
Si Si5 0.350097 0.824370 0.092593
Si Si6 0.287478 0.670829 0.220820
Si Si7 0.074740 0.826351 0.770198
O O1 0.461661 0.761182 0.736463
O O2 0.227681 0.758303 0.902770
O O3 0.438602 0.755340 0.835818
O O4 0.367934 0.000000 0.836498
O O5 0.038147 0.500000 0.654062
O O6 0.214113 0.700170 0.579186
O O7 0.060589 0.743284 0.596852
O O8 0.069632 0.239634 0.503637
O O9 0.297982 0.257167 0.327443
O O10 0.210193 0.000000 0.403078
O O11 0.032104 0.500000 0.560909
O O12 0.845857 0.292590 0.674815
O O13 0.301661 0.777018 0.169920
O O14 0.329331 0.000000 0.099050
O O15 0.500000 0.776378 0.000000
O O16 0.282754 0.500000 0.205785
O O17 0.406293 0.694791 0.187132
O O18 0.066229 0.000000 0.761988
#
# Coordination Sequence:
#
# PCOD8083006 Si02
#       7
#     8   8   8   8   8   8   8
#     4  10  19  37  63  89 117 154 196 237 289 351
#     4   8  15  29  50  75 107 144 190 239 282 338
#     4  10  20  32  48  78 114 156 202 243 289 343
#     4  10  18  32  52  76 110 152 197 245 291 339
#     4  11  24  41  64  95 124 148 184 236 291 351
#     4  10  22  40  62  86 116 156 200 243 293 353
#     4  10  21  38  59  85 118 158 201 244 292 343
#
# _framework density 20.663505000000001
#
# number of rings (size 3 to 8) (size 9 to 14) (size 15 to 20)
#    0.000    2.143    1.429    3.000    0.000    3.429 
#    0.000    4.286    0.000    0.000    0.000    0.000 
#    0.000    0.000    0.000    0.000    0.000    0.000 
#
# Total GULP energy -347134.826060 kJ/mol
# GULP energy per Si atom -12397.672359 kJ/mol
# Density = 2.061647 g / cm^3
# Si number density = 20.663505 Si / 1000 Ang^3
#
#
#
# Elastic Constant Matrix: (Units=GPa)
#
#
# Indices 1 2 3 4 5 6 
#
# 1 91.3730 37.8766 19.6864 -0.0003 -9.3347 -0.0015
# 2 37.8766 93.8728 30.1506 -0.0015 -11.8386 -0.0046
# 3 19.6864 30.1506 55.0753 0.0004 -22.1681 0.0010
# 4 -0.0003 -0.0015 0.0004 27.8451 0.0000 -3.4372
# 5 -9.3347 -11.8386 -22.1681 0.0000 19.3733 0.0007
# 6 -0.0015 -0.0046 0.0010 -3.4372 0.0007 27.6953
#
#
#
# Elastic Compliance Matrix: (Units=1/GPa)
#
#
# Indices 1 2 3 4 5 6 
#
# 1 0.013400 -0.004701 -0.001434 0.000000 0.001943 0.000000
# 2 -0.004701 0.014576 -0.006721 0.000001 -0.001049 0.000003
# 3 -0.001434 -0.006721 0.037851 -0.000001 0.038513 -0.000004
# 4 0.000000 0.000001 -0.000001 0.036472 -0.000001 0.004526
# 5 0.001943 -0.001049 0.038513 -0.000001 0.095981 -0.000004
# 6 0.000000 0.000003 -0.000004 0.004526 -0.000004 0.036669
#
#
# Mechanical properties :
#
#
# Convention : Reuss Voigt Hill
#
# Bulk Modulus (GPa) = 24.92926 46.19426 35.56176
# Shear Modulus (GPa) = 18.24586 25.15658 21.70122
#
# Velocity S-wave (km/s) = 2.97475 3.49297 3.24423
# Velocity P-wave (km/s) = 4.88768 6.21866 5.59291
#
# Compressibility (1/GPa) = 0.04011350
#
# Stress axis : x y z
#
# Youngs Moduli (GPa) = 74.62448 68.60526 26.41941
#
# Poissons Ratio (x) = 0.32253 0.03789
# Poissons Ratio (y) = 0.35083 0.17758
# Poissons Ratio (z) = 0.10703 0.46113
#
# Static dielectric constant tensor:
#      x y z
#    x 3.900580 0.000000 -0.159200 
#    y 0.000000 3.535800 0.000000 
#    z -0.159200 0.000000 3.492710 
# 
# 
# High freq. dielectric constant tensor:
#      x y z
#    x 1.817670 0.000000 -0.012740 
#    y 0.000000 1.796360 0.000000 
#    z -0.012740 0.000000 1.784050 
# 
# From -- ./inp_files/380588.got.cif
#   From: 2010.06.25/outbox.cif.g09.slc.cpg/sg12_191_cif.got.tgz:380588.got - 2010.06.28 00:19:55.
