data_PCOD8083194
_publ_section_title
;
Structure prediction by ZEFSAII (Michael W. Deem and Ramdas Pophale) SiO2 
 PCOD8083194
Probable space group: C 2/M
;
_chemical_formula_sum "Si O2"
_cell_formula_units_Z 64
_cell_length_a 26.448082
_cell_length_b 10.367311
_cell_length_c 24.264832
_cell_angle_alpha 90.000000
_cell_angle_beta 29.372175
_cell_angle_gamma 90.000000
_cell_volume 3263.318281
_symmetry_space_group_name_H-M "C 2/M"
_symmetry_group_IT_number 12
_symmetry_cell_setting 'monoclinic'
loop_
_space_group_symop_operation_xyz
x,y,z
-x,y,-z
-x,-y,-z
x,-y,z
1/2+x,1/2+y,z
1/2-x,1/2+y,-z
1/2-x,1/2-y,-z
1/2+x,1/2-y,z
loop_
_atom_site_type_symbol
_atom_site_label
_atom_site_fract_x
_atom_site_fract_y
_atom_site_fract_z
Si Si1 0.354127 0.361542 0.436501
Si Si2 0.058615 0.704600 0.249800
Si Si3 0.042723 0.357279 0.143038
Si Si4 0.248717 0.352777 0.897281
Si Si5 0.786073 0.355954 0.652297
Si Si6 0.980790 0.639480 0.595966
Si Si7 0.171554 0.222523 0.657752
Si Si8 0.174780 0.154433 0.296276
O O1 0.395940 0.500000 0.414498
O O2 0.446659 0.267032 0.360380
O O3 0.253889 0.336108 0.569233
O O4 0.322397 0.366351 0.402221
O O5 0.154224 0.801873 0.160688
O O6 0.063541 0.619678 0.300273
O O7 0.064998 0.626912 0.187150
O O8 0.023155 0.500000 0.137648
O O9 0.943875 0.272216 0.223818
O O10 0.140940 0.289277 0.019911
O O11 0.242137 0.500000 0.920971
O O12 0.258543 0.335442 0.822408
O O13 0.777635 0.500000 0.687739
O O14 0.701752 0.354102 0.683933
O O15 0.764032 0.235376 0.714880
O O16 0.897756 0.334940 0.519056
O O17 0.955825 0.500000 0.590603
O O18 0.930522 0.762235 0.612324
O O19 0.154990 0.000000 0.329210
#
# Coordination Sequence:
#
# PCOD8083194 Si02
#       8
#     8   8   8   8   8   8   8   8
#     4  10  19  32  51  78 113 147 179 224 278 329
#     4  10  18  32  54  84 113 144 182 226 271 342
#     4  10  20  34  54  79 111 149 191 233 275 329
#     4   9  19  36  55  78 109 146 187 236 288 328
#     4  11  22  38  58  81 112 151 188 229 281 338
#     4  10  20  35  55  83 117 150 180 222 281 343
#     4  10  21  35  51  79 108 148 186 227 268 334
#     4  10  22  38  57  82 111 144 189 241 284 328
#
# _framework density 19.611940000000001
#
# number of rings (size 3 to 8) (size 9 to 14) (size 15 to 20)
#    0.000    2.000    1.250    2.625    0.000    3.500 
#    0.000    0.625    0.000   18.000    0.000    0.000 
#    0.000    0.000    0.000    0.000    0.000    0.000 
#
# Total GULP energy -396438.885826 kJ/mol
# GULP energy per Si atom -12388.715182 kJ/mol
# Density = 1.956730 g / cm^3
# Si number density = 19.611940 Si / 1000 Ang^3
#
#
#
# Elastic Constant Matrix: (Units=GPa)
#
#
# Indices 1 2 3 4 5 6 
#
# 1 86.7009 32.5833 32.7521 -0.0058 -8.0296 0.0201
# 2 32.5833 109.5766 26.3193 -0.0165 -0.2215 0.0607
# 3 32.7521 26.3193 111.1737 -0.0078 -8.6244 0.0250
# 4 -0.0058 -0.0165 -0.0078 -119.0345 0.0017 399.5411
# 5 -8.0296 -0.2215 -8.6244 0.0017 20.9057 -0.0071
# 6 0.0201 0.0607 0.0250 399.5411 -0.0071-1189.3757
#
#
#
# Elastic Compliance Matrix: (Units=1/GPa)
#
#
# Indices 1 2 3 4 5 6 
#
# 1 0.014420 -0.003539 -0.003082 0.000000 0.004230 0.000000
# 2 -0.003539 0.010560 -0.001606 -0.000003 -0.001910 0.000000
# 3 -0.003082 -0.001606 0.010527 0.000000 0.003142 0.000000
# 4 0.000000 -0.000003 0.000000 0.065870 0.000002 0.022127
# 5 0.004230 -0.001910 0.003142 0.000002 0.050734 0.000001
# 6 0.000000 0.000000 0.000000 0.022127 0.000001 0.006592
#
#
# Mechanical properties :
#
#
# Convention : Reuss Voigt Hill
#
# Bulk Modulus (GPa) = 52.48425 54.52894 53.50659
# Shear Modulus (GPa) = 27.54696 -243.11445 -107.78374
#
# Velocity S-wave (km/s) = 3.75187 -11.14592 -7.42142
# Velocity P-wave (km/s) = 6.75190 11.73788 6.78932
#
# Compressibility (1/GPa) = 0.01905334
#
# Stress axis : x y z
#
# Youngs Moduli (GPa) = 69.34841 94.69550 94.99568
#
# Poissons Ratio (x) = 0.33513 0.29280
# Poissons Ratio (y) = 0.24542 0.15252
# Poissons Ratio (z) = 0.21375 0.15204
#
# Static dielectric constant tensor:
#      x y z
#    x 3.598400 0.000000 0.078950 
#    y 0.000000 3.534790 0.000000 
#    z 0.078950 0.000000 3.546360 
# 
# 
# High freq. dielectric constant tensor:
#      x y z
#    x 1.760890 0.000000 0.003870 
#    y 0.000000 1.759490 0.000000 
#    z 0.003870 0.000000 1.752840 
# 
# From -- ./inp_files/349345.got.cif
#   From: 2010.06.25/outbox.cif.g09.slc.cpg/sg12_175_cif.got.tgz:349345.got - 2010.06.28 00:19:55.
