data_PCOD8083131
_publ_section_title
;
Structure prediction by ZEFSAII (Michael W. Deem and Ramdas Pophale) SiO2 
 PCOD8083131
Probable space group: C 2/M
;
_chemical_formula_sum "Si O2"
_cell_formula_units_Z 48
_cell_length_a 27.495142
_cell_length_b 8.866147
_cell_length_c 11.812479
_cell_angle_alpha 90.000000
_cell_angle_beta 72.265913
_cell_angle_gamma 90.000000
_cell_volume 2742.761263
_symmetry_space_group_name_H-M "C 2/M"
_symmetry_group_IT_number 12
_symmetry_cell_setting 'monoclinic'
loop_
_space_group_symop_operation_xyz
x,y,z
-x,y,-z
-x,-y,-z
x,-y,z
1/2+x,1/2+y,z
1/2-x,1/2+y,-z
1/2-x,1/2-y,-z
1/2+x,1/2-y,z
loop_
_atom_site_type_symbol
_atom_site_label
_atom_site_fract_x
_atom_site_fract_y
_atom_site_fract_z
Si Si1 0.620759 0.329825 0.894919
Si Si2 0.462614 0.327934 0.861706
Si Si3 0.886295 0.323505 0.752945
Si Si4 0.805230 0.178751 0.961247
Si Si5 0.434525 0.177990 0.250147
Si Si6 0.554080 0.177724 0.503777
O O1 0.632974 0.500000 0.848128
O O2 0.615775 0.227243 0.785662
O O3 0.567634 0.322102 0.999701
O O4 0.665924 0.268990 0.944494
O O5 0.464814 0.500000 0.815436
O O6 0.435975 0.221727 0.788553
O O7 0.518509 0.262247 0.842880
O O8 0.875720 0.500000 0.775746
O O9 0.836291 0.233868 0.829013
O O10 0.899451 0.280617 0.613743
O O11 0.801795 0.000000 0.957803
O O12 0.750000 0.250000 0.000000
O O13 0.430371 0.235982 0.382595
O O14 0.441727 0.000000 0.237520
O O15 0.500000 0.249314 0.500000
O O16 0.546680 0.000000 0.513061
#
# Coordination Sequence:
#
# PCOD8083131 Si02
#       6
#     8   8   8   8   8   8
#     4   9  20  35  48  69 103 134 161 207 263 306
#     4  10  19  31  46  68 103 140 172 210 256 301
#     4  10  18  32  54  76 103 137 174 213 255 301
#     4  10  21  38  59  81 104 128 163 212 266 312
#     4  11  20  30  48  72 100 139 179 210 244 300
#     4   9  17  31  48  71 106 142 175 212 250 291
#
# _framework density 17.500612
#
# number of rings (size 3 to 8) (size 9 to 14) (size 15 to 20)
#    0.000    2.167    1.667    3.500    0.000    6.000 
#    0.000    4.167    0.000    1.000    0.000    0.000 
#    0.000    0.000    0.000    0.000    0.000    0.000 
#
# Total GULP energy -297533.201378 kJ/mol
# GULP energy per Si atom -12397.216724 kJ/mol
# Density = 1.746078 g / cm^3
# Si number density = 17.500612 Si / 1000 Ang^3
#
#
#
# Elastic Constant Matrix: (Units=GPa)
#
#
# Indices 1 2 3 4 5 6 
#
# 1 111.2827 39.5710 68.2403 0.0000 1.7367 0.0000
# 2 39.5710 62.1126 44.1579 0.0000 -0.5143 0.0000
# 3 68.2403 44.1579 105.1621 0.0000 17.5025 0.0000
# 4 0.0000 0.0000 0.0000 20.7687 0.0000 4.2310
# 5 1.7367 -0.5143 17.5025 0.0000 18.5380 0.0000
# 6 0.0000 0.0000 0.0000 4.2310 0.0000 27.1460
#
#
#
# Elastic Compliance Matrix: (Units=1/GPa)
#
#
# Indices 1 2 3 4 5 6 
#
# 1 0.016626 -0.002550 -0.011208 0.000000 0.008954 0.000000
# 2 -0.002550 0.025635 -0.010996 0.000000 0.011332 0.000000
# 3 -0.011208 -0.010996 0.025242 0.000000 -0.023087 0.000000
# 4 0.000000 0.000000 0.000000 0.049728 0.000000 -0.007751
# 5 0.008954 0.011332 -0.023087 0.000000 0.075216 0.000000
# 6 0.000000 0.000000 0.000000 -0.007751 0.000000 0.038046
#
#
# Mechanical properties :
#
#
# Convention : Reuss Voigt Hill
#
# Bulk Modulus (GPa) = 55.56927 64.72175 60.14551
# Shear Modulus (GPa) = 17.48252 21.72977 19.60614
#
# Velocity S-wave (km/s) = 3.16407 3.52754 3.35074
# Velocity P-wave (km/s) = 6.72087 7.32490 7.02938
#
# Compressibility (1/GPa) = 0.01799556
#
# Stress axis : x y z
#
# Youngs Moduli (GPa) = 60.14586 39.00882 39.61659
#
# Poissons Ratio (x) = 0.09946 0.44404
# Poissons Ratio (y) = 0.15335 0.43561
# Poissons Ratio (z) = 0.67414 0.42893
#
# Static dielectric constant tensor:
#      x y z
#    x 3.116820 0.000000 0.121680 
#    y 0.000000 3.181430 0.000000 
#    z 0.121680 0.000000 3.377880 
# 
# 
# High freq. dielectric constant tensor:
#      x y z
#    x 1.650560 0.000000 0.012930 
#    y 0.000000 1.673610 0.000000 
#    z 0.012930 0.000000 1.671300 
# 
# From -- ./inp_files/172148.got.cif
#   From: 2010.06.25/outbox.cif.g09.slc.cpg/sg12_87_cif.got.tgz:172148.got - 2010.06.28 00:19:55.
