data_PCOD8083556
_publ_section_title
;
Structure prediction by ZEFSAII (Michael W. Deem and Ramdas Pophale) SiO2 
 PCOD8083556
Probable space group: C 2/M
;
_chemical_formula_sum "Si O2"
_cell_formula_units_Z 56
_cell_length_a 12.156332
_cell_length_b 29.871912
_cell_length_c 14.825381
_cell_angle_alpha 90.000000
_cell_angle_beta 144.702273
_cell_angle_gamma 90.000000
_cell_volume 3110.770346
_symmetry_space_group_name_H-M "C 2/M"
_symmetry_group_IT_number 12
_symmetry_cell_setting 'monoclinic'
loop_
_space_group_symop_operation_xyz
x,y,z
-x,y,-z
-x,-y,-z
x,-y,z
1/2+x,1/2+y,z
1/2-x,1/2+y,-z
1/2-x,1/2-y,-z
1/2+x,1/2-y,z
loop_
_atom_site_type_symbol
_atom_site_label
_atom_site_fract_x
_atom_site_fract_y
_atom_site_fract_z
Si Si1 0.437265 0.551978 0.720287
Si Si2 0.867514 0.602702 0.584094
Si Si3 0.211591 0.770199 0.608042
Si Si4 0.837987 0.184670 0.614968
Si Si5 0.791248 0.127717 0.143500
Si Si6 0.893210 0.356167 0.795670
Si Si7 0.656001 0.049133 0.681804
O O1 0.488747 0.500000 0.746617
O O2 0.285911 0.563789 0.539806
O O3 0.629970 0.580055 0.837355
O O4 0.351949 0.563312 0.763185
O O5 0.814191 0.643998 0.481762
O O6 0.845877 0.616528 0.673508
O O7 0.082509 0.585235 0.706585
O O8 0.204386 0.789732 0.504391
O O9 0.307837 0.720734 0.674908
O O10 0.334533 0.803977 0.751490
O O11 0.000000 0.764906 0.500000
O O12 0.051328 0.166167 0.761256
O O13 0.727498 0.121689 0.204552
O O14 0.617006 0.142109 0.964085
O O15 0.500000 0.045595 0.500000
O O16 0.680325 0.000000 0.743728
#
# Coordination Sequence:
#
# PCOD8083556 Si02
#       7
#     8   8   8   8   8   8   8
#     4   9  18  33  55  79 105 135 172 218 260 308
#     4   9  17  31  53  79 104 133 174 210 260 306
#     4  10  18  33  53  76 100 125 169 219 258 302
#     4   9  19  30  52  78  98 128 169 213 255 302
#     4  10  20  37  53  73 104 146 178 202 263 312
#     4  10  21  35  53  72 104 144 173 215 256 310
#     4   8  14  28  51  78 104 130 162 208 259 305
#
# _framework density 18.001971999999999
#
# number of rings (size 3 to 8) (size 9 to 14) (size 15 to 20)
#    0.000    2.714    1.429    1.286    0.000    3.429 
#    0.000    5.714    0.000    1.714    0.000    0.000 
#    0.000    0.000    0.000    0.000    0.000    0.000 
#
# Total GULP energy -347022.573586 kJ/mol
# GULP energy per Si atom -12393.663342 kJ/mol
# Density = 1.796100 g / cm^3
# Si number density = 18.001972 Si / 1000 Ang^3
#
#
#
# Elastic Constant Matrix: (Units=GPa)
#
#
# Indices 1 2 3 4 5 6 
#
# 1 91.3877 64.2622 38.4466 0.0000 19.1973 0.0000
# 2 64.2622 118.5168 39.7977 0.0000 25.1401 0.0000
# 3 38.4466 39.7977 68.0563 0.0000 20.9667 0.0000
# 4 0.0000 0.0000 0.0000 12.3936 0.0000 7.5625
# 5 19.1973 25.1401 20.9667 0.0000 21.3566 0.0000
# 6 0.0000 0.0000 0.0000 7.5625 0.0000 34.9376
#
#
#
# Elastic Compliance Matrix: (Units=1/GPa)
#
#
# Indices 1 2 3 4 5 6 
#
# 1 0.019561 -0.008238 -0.005453 0.000000 -0.002532 0.000000
# 2 -0.008238 0.015359 -0.001489 0.000000 -0.009212 0.000000
# 3 -0.005453 -0.001489 0.023790 0.000000 -0.016701 0.000000
# 4 0.000000 0.000000 0.000000 0.092966 0.000000 -0.020123
# 5 -0.002532 -0.009212 -0.016701 0.000000 0.076341 0.000000
# 6 0.000000 0.000000 0.000000 -0.020123 0.000000 0.032978
#
#
# Mechanical properties :
#
#
# Convention : Reuss Voigt Hill
#
# Bulk Modulus (GPa) = 35.27404 62.55268 48.91336
# Shear Modulus (GPa) = 16.62195 22.76785 19.69490
#
# Velocity S-wave (km/s) = 3.04195 3.56018 3.31122
# Velocity P-wave (km/s) = 5.65465 7.19187 6.46908
#
# Compressibility (1/GPa) = 0.02834946
#
# Stress axis : x y z
#
# Youngs Moduli (GPa) = 51.12089 65.10893 42.03362
#
# Poissons Ratio (x) = 0.53639 0.22921
# Poissons Ratio (y) = 0.42115 0.06260
# Poissons Ratio (z) = 0.27876 0.09697
#
# Static dielectric constant tensor:
#      x y z
#    x 3.461700 0.000000 0.133220 
#    y 0.000000 3.722350 0.000000 
#    z 0.133220 0.000000 3.035670 
# 
# 
# High freq. dielectric constant tensor:
#      x y z
#    x 1.697100 0.000000 0.012990 
#    y 0.000000 1.702960 0.000000 
#    z 0.012990 0.000000 1.665050 
# 
# From -- ./inp_files/209708.got.cif
#   From: 2010.06.25/outbox.cif.g09.slc.cpg/sg12_105_cif.got.tgz:209708.got - 2010.06.28 00:19:55.
