data_PCOD8083757
_publ_section_title
;
Structure prediction by ZEFSAII (Michael W. Deem and Ramdas Pophale) SiO2 
 PCOD8083757
Probable space group: C 2/M
;
_chemical_formula_sum "Si O2"
_cell_formula_units_Z 64
_cell_length_a 15.524323
_cell_length_b 8.776495
_cell_length_c 25.225928
_cell_angle_alpha 90.000000
_cell_angle_beta 107.963132
_cell_angle_gamma 90.000000
_cell_volume 3269.474528
_symmetry_space_group_name_H-M "C 2/M"
_symmetry_group_IT_number 12
_symmetry_cell_setting 'monoclinic'
loop_
_space_group_symop_operation_xyz
x,y,z
-x,y,-z
-x,-y,-z
x,-y,z
1/2+x,1/2+y,z
1/2-x,1/2+y,-z
1/2-x,1/2-y,-z
1/2+x,1/2-y,z
loop_
_atom_site_type_symbol
_atom_site_label
_atom_site_fract_x
_atom_site_fract_y
_atom_site_fract_z
Si Si1 0.468162 0.178347 0.744681
Si Si2 0.267633 0.819050 0.867236
Si Si3 0.460978 0.321866 0.632164
Si Si4 0.154085 0.179516 0.632969
Si Si5 0.275744 0.819885 0.560537
Si Si6 0.089822 0.321319 0.866716
Si Si7 0.464076 0.181527 0.937219
Si Si8 0.273649 0.180615 0.750097
O O1 0.488414 0.277941 0.696853
O O2 0.544465 0.218262 0.801928
O O3 0.372611 0.231096 0.750100
O O4 0.467017 0.000000 0.729609
O O5 0.187421 0.757319 0.888807
O O6 0.362345 0.758233 0.908752
O O7 0.255411 0.753392 0.805229
O O8 0.266070 0.000000 0.866958
O O9 0.437613 0.500000 0.624420
O O10 0.547511 0.281086 0.611548
O O11 0.376827 0.225138 0.595885
O O12 0.204221 0.244343 0.590305
O O13 0.200731 0.248988 0.694746
O O14 0.169618 0.000000 0.637615
O O15 0.250000 0.750000 0.500000
O O16 0.269947 0.000000 0.555194
O O17 0.102644 0.500000 0.876066
O O18 0.028227 0.255886 0.902532
O O19 0.464699 0.000000 0.936285
O O20 0.500000 0.245077 0.000000
O O21 0.268168 0.000000 0.751690
#
# Coordination Sequence:
#
# PCOD8083757 Si02
#       8
#     8   8   8   8   8   8   8   8
#     4  10  18  33  57  81 110 147 182 219 276 337
#     4  10  19  33  56  81 106 142 186 228 272 334
#     4  11  22  37  59  89 115 142 184 230 275 328
#     4   9  19  35  58  81 108 146 182 216 267 335
#     4  11  23  42  63  83 112 152 192 232 275 323
#     4  10  20  34  54  81 111 143 181 231 283 330
#     4   9  18  34  55  77 104 146 196 233 268 331
#     4   9  15  30  56  80 103 141 185 217 261 333
#
# _framework density 19.575012000000001
#
# number of rings (size 3 to 8) (size 9 to 14) (size 15 to 20)
#    0.000    2.125    2.500    1.500    0.000    2.500 
#    0.000    6.250    0.000    0.750    0.000    0.000 
#    0.000    0.000    0.000    0.000    0.000    0.000 
#
# Total GULP energy -396802.147219 kJ/mol
# GULP energy per Si atom -12400.067101 kJ/mol
# Density = 1.953046 g / cm^3
# Si number density = 19.575012 Si / 1000 Ang^3
#
#
#
# Elastic Constant Matrix: (Units=GPa)
#
#
# Indices 1 2 3 4 5 6 
#
# 1 162.2639 26.5090 68.4479 0.0000 2.2472 0.0000
# 2 26.5090 29.9282 25.5698 0.0000 -0.1778 0.0000
# 3 68.4479 25.5698 137.3547 0.0000 -1.7286 0.0000
# 4 0.0000 0.0000 0.0000 18.9975 0.0000 0.8066
# 5 2.2472 -0.1778 -1.7286 0.0000 15.8419 0.0000
# 6 0.0000 0.0000 0.0000 0.8066 0.0000 27.8145
#
#
#
# Elastic Compliance Matrix: (Units=1/GPa)
#
#
# Indices 1 2 3 4 5 6 
#
# 1 0.008330 -0.004547 -0.003325 0.000000 -0.001595 0.000000
# 2 -0.004547 0.042217 -0.005587 0.000000 0.000509 0.000000
# 3 -0.003325 -0.005587 0.009996 0.000000 0.001500 0.000000
# 4 0.000000 0.000000 0.000000 0.052703 0.000000 -0.001528
# 5 -0.001595 0.000509 0.001500 0.000000 0.063519 0.000000
# 6 0.000000 0.000000 0.000000 -0.001528 0.000000 0.035997
#
#
# Mechanical properties :
#
#
# Convention : Reuss Voigt Hill
#
# Bulk Modulus (GPa) = 29.73884 63.40001 46.56942
# Shear Modulus (GPa) = 19.92910 26.46547 23.19728
#
# Velocity S-wave (km/s) = 3.19421 3.68095 3.44618
# Velocity P-wave (km/s) = 5.36928 7.10805 6.29895
#
# Compressibility (1/GPa) = 0.03362606
#
# Stress axis : x y z
#
# Youngs Moduli (GPa) = 120.04371 23.68699 100.03900
#
# Poissons Ratio (x) = 0.10772 0.33261
# Poissons Ratio (y) = 0.54590 0.55887
# Poissons Ratio (z) = 0.39912 0.13233
#
# Static dielectric constant tensor:
#      x y z
#    x 3.878380 0.000000 0.005020 
#    y 0.000000 3.089380 0.000000 
#    z 0.005020 0.000000 3.784650 
# 
# 
# High freq. dielectric constant tensor:
#      x y z
#    x 1.779360 0.000000 0.000470 
#    y 0.000000 1.717640 0.000000 
#    z 0.000470 0.000000 1.764860 
# 
# From -- ./inp_files/359942.got.cif
#   From: 2010.06.25/outbox.cif.g09.slc.cpg/sg12_180_cif.got.tgz:359942.got - 2010.06.28 00:19:55.
