data_PCOD8083440
_publ_section_title
;
Structure prediction by ZEFSAII (Michael W. Deem and Ramdas Pophale) SiO2 
 PCOD8083440
Probable space group: C 2/M
;
_chemical_formula_sum "Si O2"
_cell_formula_units_Z 44
_cell_length_a 18.844751
_cell_length_b 17.287002
_cell_length_c 10.919497
_cell_angle_alpha 90.000000
_cell_angle_beta 138.113004
_cell_angle_gamma 90.000000
_cell_volume 2375.037240
_symmetry_space_group_name_H-M "C 2/M"
_symmetry_group_IT_number 12
_symmetry_cell_setting 'monoclinic'
loop_
_space_group_symop_operation_xyz
x,y,z
-x,y,-z
-x,-y,-z
x,-y,z
1/2+x,1/2+y,z
1/2-x,1/2+y,-z
1/2-x,1/2-y,-z
1/2+x,1/2-y,z
loop_
_atom_site_type_symbol
_atom_site_label
_atom_site_fract_x
_atom_site_fract_y
_atom_site_fract_z
Si Si1 0.099264 0.087262 0.486500
Si Si2 0.693696 0.592212 0.104199
Si Si3 0.363165 0.280152 0.612830
Si Si4 0.500000 0.666272 0.000000
Si Si5 0.612329 0.804930 0.601569
Si Si6 0.130559 0.848925 0.767283
O O1 0.158746 0.129519 0.451565
O O2 0.163615 0.093656 0.697202
O O3 0.992402 0.137087 0.361855
O O4 0.074373 0.000000 0.417543
O O5 0.703511 0.500000 0.111119
O O6 0.587450 0.613598 0.043254
O O7 0.798600 0.628867 0.300311
O O8 0.696210 0.628759 0.971362
O O9 0.250000 0.250000 0.500000
O O10 0.443725 0.276629 0.830640
O O11 0.409565 0.231891 0.559381
O O12 0.500000 0.841798 0.500000
O O13 0.650011 0.739173 0.747624
#
# Coordination Sequence:
#
# PCOD8083440 Si02
#       6
#     8   8   8   4   8   8
#     4  10  18  32  58  84 116 148 184 245 298 343
#     4  12  24  36  58  90 123 154 198 251 305 356
#     4  11  22  39  57  89 120 157 199 243 299 365
#     4  12  23  38  62  82 123 156 202 250 303 346
#     4  11  21  41  61  84 117 162 201 242 297 361
#     4  10  18  34  58  85 113 144 194 241 293 348
#
# _framework density 18.526024
#
# number of rings (size 3 to 8) (size 9 to 14) (size 15 to 20)
#    0.000    1.091    7.273    3.000    0.000    1.091 
#    0.000    0.000    0.000    0.000    0.000    1.273 
#    0.000    0.000    0.000    0.000    0.000    0.000 
#
# Total GULP energy -272631.975216 kJ/mol
# GULP energy per Si atom -12392.362510 kJ/mol
# Density = 1.848386 g / cm^3
# Si number density = 18.526024 Si / 1000 Ang^3
#
#
#
# Elastic Constant Matrix: (Units=GPa)
#
#
# Indices 1 2 3 4 5 6 
#
# 1 96.6870 48.1906 51.4016 0.0000 1.2621 0.0000
# 2 48.1906 95.8859 50.7516 0.0000 6.6051 0.0000
# 3 51.4016 50.7516 106.5845 0.0000 -12.8686 0.0000
# 4 0.0000 0.0000 0.0000 17.9240 0.0000 4.3074
# 5 1.2621 6.6051 -12.8686 0.0000 38.6213 0.0000
# 6 0.0000 0.0000 0.0000 4.3074 0.0000 22.6965
#
#
#
# Elastic Compliance Matrix: (Units=1/GPa)
#
#
# Indices 1 2 3 4 5 6 
#
# 1 0.015686 -0.004926 -0.005396 0.000000 -0.001468 0.000000
# 2 -0.004926 0.016396 -0.005991 0.000000 -0.004639 0.000000
# 3 -0.005396 -0.005991 0.015611 0.000000 0.006402 0.000000
# 4 0.000000 0.000000 0.000000 0.058457 0.000000 -0.011094
# 5 -0.001468 -0.004639 0.006402 0.000000 0.028867 0.000000
# 6 0.000000 0.000000 0.000000 -0.011094 0.000000 0.046165
#
#
# Mechanical properties :
#
#
# Convention : Reuss Voigt Hill
#
# Bulk Modulus (GPa) = 66.38198 66.64945 66.51571
# Shear Modulus (GPa) = 22.84868 25.76927 24.30897
#
# Velocity S-wave (km/s) = 3.51569 3.73363 3.62629
# Velocity P-wave (km/s) = 7.23807 7.39194 7.31541
#
# Compressibility (1/GPa) = 0.01506433
#
# Stress axis : x y z
#
# Youngs Moduli (GPa) = 63.75140 60.99182 64.05905
#
# Poissons Ratio (x) = 0.30045 0.34569
# Poissons Ratio (y) = 0.31405 0.38381
# Poissons Ratio (z) = 0.34403 0.36543
#
# Static dielectric constant tensor:
#      x y z
#    x 3.786120 0.000000 -0.352620 
#    y 0.000000 3.309070 0.000000 
#    z -0.352620 0.000000 3.313090 
# 
# 
# High freq. dielectric constant tensor:
#      x y z
#    x 1.725980 0.000000 -0.021290 
#    y 0.000000 1.701540 0.000000 
#    z -0.021290 0.000000 1.705680 
# 
# From -- ./inp_files/158396.got.cif
#   From: 2010.06.25/outbox.cif.g09.slc.cpg/sg12_80_cif.got.tgz:158396.got - 2010.06.28 00:19:55.
