data_PCOD8083170
_publ_section_title
;
Structure prediction by ZEFSAII (Michael W. Deem and Ramdas Pophale) SiO2 
 PCOD8083170
Probable space group: C 2/M
;
_chemical_formula_sum "Si O2"
_cell_formula_units_Z 64
_cell_length_a 19.373645
_cell_length_b 8.816824
_cell_length_c 21.195492
_cell_angle_alpha 90.000000
_cell_angle_beta 88.585888
_cell_angle_gamma 90.000000
_cell_volume 3619.384507
_symmetry_space_group_name_H-M "C 2/M"
_symmetry_group_IT_number 12
_symmetry_cell_setting 'monoclinic'
loop_
_space_group_symop_operation_xyz
x,y,z
-x,y,-z
-x,-y,-z
x,-y,z
1/2+x,1/2+y,z
1/2-x,1/2+y,-z
1/2-x,1/2-y,-z
1/2+x,1/2-y,z
loop_
_atom_site_type_symbol
_atom_site_label
_atom_site_fract_x
_atom_site_fract_y
_atom_site_fract_z
Si Si1 0.424652 0.178332 0.890870
Si Si2 0.434193 0.322606 0.088529
Si Si3 0.098237 0.177058 0.769235
Si Si4 0.958896 0.322411 0.748663
Si Si5 0.794521 0.330658 0.318905
Si Si6 0.675440 0.320543 0.013912
Si Si7 0.236321 0.320044 0.432808
Si Si8 0.644290 0.329695 0.341855
O O1 0.493692 0.236283 0.924821
O O2 0.427378 0.223664 0.817147
O O3 0.418209 0.000000 0.901084
O O4 0.356543 0.258424 0.920236
O O5 0.450622 0.500000 0.082285
O O6 0.403776 0.279450 0.157303
O O7 0.376920 0.269392 0.040076
O O8 0.165340 0.253204 0.738651
O O9 0.030869 0.238433 0.735494
O O10 0.103347 0.000000 0.758184
O O11 0.972037 0.500000 0.744794
O O12 0.909862 0.272100 0.693610
O O13 0.823333 0.500000 0.331190
O O14 0.798224 0.232816 0.383972
O O15 0.714461 0.338310 0.298718
O O16 0.683407 0.500000 0.017027
O O17 0.750000 0.250000 0.000000
O O18 0.232928 0.500000 0.437012
O O19 0.250000 0.250000 0.500000
O O20 0.163462 0.252523 0.407926
O O21 0.615616 0.500000 0.354819
#
# Coordination Sequence:
#
# PCOD8083170 Si02
#       8
#     8   8   8   8   8   8   8   8
#     4  10  21  36  55  78 102 134 175 217 263 321
#     4   9  20  37  55  75 100 135 176 217 263 319
#     4  10  19  33  54  77 104 138 175 219 269 317
#     4  10  20  34  53  77 107 140 174 217 266 317
#     4   9  19  33  50  77 108 138 176 218 259 307
#     4  11  23  38  54  75 103 136 173 220 271 320
#     4  10  18  32  54  80 109 143 180 217 259 304
#     4   9  19  33  51  78 107 138 177 218 259 306
#
# _framework density 17.682563999999999
#
# number of rings (size 3 to 8) (size 9 to 14) (size 15 to 20)
#    0.750    1.500    0.000    3.375    0.000    5.500 
#    0.000    3.750    0.000    0.750    0.000    5.250 
#    0.000    0.000    0.000    0.000    0.000    0.000 
#
# Total GULP energy -396700.851623 kJ/mol
# GULP energy per Si atom -12396.901613 kJ/mol
# Density = 1.764232 g / cm^3
# Si number density = 17.682564 Si / 1000 Ang^3
#
#
#
# Elastic Constant Matrix: (Units=GPa)
#
#
# Indices 1 2 3 4 5 6 
#
# 1 43.8660 12.5388 4.7042 0.0000 9.0412 0.0000
# 2 12.5388 81.0172 13.2035 0.0000 -1.0358 0.0000
# 3 4.7042 13.2035 42.4831 0.0000 14.7494 0.0000
# 4 0.0000 0.0000 0.0000 31.2958 0.0000 -1.5387
# 5 9.0412 -1.0358 14.7494 0.0000 27.4093 0.0000
# 6 0.0000 0.0000 0.0000 -1.5387 0.0000 34.5075
#
#
#
# Elastic Compliance Matrix: (Units=1/GPa)
#
#
# Indices 1 2 3 4 5 6 
#
# 1 0.025864 -0.004435 0.001887 0.000000 -0.009715 0.000000
# 2 -0.004435 0.014006 -0.005600 0.000000 0.005005 0.000000
# 3 0.001887 -0.005600 0.031186 0.000000 -0.017616 0.000000
# 4 0.000000 0.000000 0.000000 0.032023 0.000000 0.001428
# 5 -0.009715 0.005005 -0.017616 0.000000 0.049357 0.000000
# 6 0.000000 0.000000 0.000000 0.001428 0.000000 0.029043
#
#
# Mechanical properties :
#
#
# Convention : Reuss Voigt Hill
#
# Bulk Modulus (GPa) = 18.26099 25.36215 21.81157
# Shear Modulus (GPa) = 23.14513 27.77050 25.45782
#
# Velocity S-wave (km/s) = 3.62183 3.96726 3.79847
# Velocity P-wave (km/s) = 5.27634 5.94640 5.62136
#
# Compressibility (1/GPa) = 0.05476155
#
# Stress axis : x y z
#
# Youngs Moduli (GPa) = 38.66343 71.39800 32.06556
#
# Poissons Ratio (x) = 0.31663 -0.06051
# Poissons Ratio (y) = 0.17146 0.17956
# Poissons Ratio (z) = -0.07296 0.39981
#
# Static dielectric constant tensor:
#      x y z
#    x 3.173060 0.000000 -0.016840 
#    y 0.000000 3.379700 0.000000 
#    z -0.016840 0.000000 3.188990 
# 
# 
# High freq. dielectric constant tensor:
#      x y z
#    x 1.668290 0.000000 0.001410 
#    y 0.000000 1.701290 0.000000 
#    z 0.001410 0.000000 1.671330 
# 
# From -- ./inp_files/314113.got.cif
#   From: 2010.06.25/outbox.cif.g09.slc.cpg/sg12_158_cif.got.tgz:314113.got - 2010.06.28 00:19:55.
