data_PCOD8083084
_publ_section_title
;
Structure prediction by ZEFSAII (Michael W. Deem and Ramdas Pophale) SiO2 
 PCOD8083084
Probable space group: C 2/M
;
_chemical_formula_sum "Si O2"
_cell_formula_units_Z 40
_cell_length_a 5.323144
_cell_length_b 15.226650
_cell_length_c 21.779739
_cell_angle_alpha 90.000000
_cell_angle_beta 97.019336
_cell_angle_gamma 90.000000
_cell_volume 1752.096168
_symmetry_space_group_name_H-M "C 2/M"
_symmetry_group_IT_number 12
_symmetry_cell_setting 'monoclinic'
loop_
_space_group_symop_operation_xyz
x,y,z
-x,y,-z
-x,-y,-z
x,-y,z
1/2+x,1/2+y,z
1/2-x,1/2+y,-z
1/2-x,1/2-y,-z
1/2+x,1/2-y,z
loop_
_atom_site_type_symbol
_atom_site_label
_atom_site_fract_x
_atom_site_fract_y
_atom_site_fract_z
Si Si1 0.536622 0.848918 0.073233
Si Si2 0.168155 0.397034 0.336306
Si Si3 0.262989 0.152027 0.525977
Si Si4 0.437462 0.652454 0.874934
Si Si5 0.631213 0.603076 0.262420
O O1 0.548501 0.749480 0.096981
O O2 0.300753 0.896832 0.100086
O O3 0.799346 0.896832 0.100084
O O4 0.500000 0.852717 0.000000
O O5 0.175526 0.500000 0.351052
O O6 0.200095 0.344604 0.400189
O O7 0.399795 0.369477 0.299413
O O8 0.899623 0.369476 0.299413
O O9 0.500000 0.103077 0.500000
O O10 0.250000 0.250000 0.500000
O O11 0.000000 0.103077 0.500000
O O12 0.400529 0.656776 0.801061
O O13 0.623655 0.500000 0.247304
#
# Coordination Sequence:
#
# PCOD8083084 Si02
#       5
#     8   8   8   8   8
#     4  10  19  33  53  76 105 139 177 221 266 317
#     4  10  21  38  58  78 104 143 183 216 259 321
#     4  10  21  38  56  81 112 141 172 218 273 311
#     4  10  18  32  53  78 103 136 178 219 264 308
#     4  10  21  37  56  79 108 141 178 218 259 310
#
# _framework density 22.829798
#
# number of rings (size 3 to 8) (size 9 to 14) (size 15 to 20)
#    0.000    2.000    0.000    5.400    0.000    0.800 
#    0.000   24.000    0.000    6.600    0.000    0.000 
#    0.000    0.000    0.000    0.000    0.000    0.000 
#
# Total GULP energy -247929.495498 kJ/mol
# GULP energy per Si atom -12396.474775 kJ/mol
# Density = 2.277784 g / cm^3
# Si number density = 22.829798 Si / 1000 Ang^3
#
#
#
# Elastic Constant Matrix: (Units=GPa)
#
#
# Indices 1 2 3 4 5 6 
#
# 1 297.3979 7.3198 116.2811 0.0000 0.2297 0.0000
# 2 7.3198 18.3332 20.3801 0.0000 -0.0390 0.0000
# 3 116.2811 20.3801 235.2026 0.0000 -0.0422 0.0000
# 4 0.0000 0.0000 0.0000 2.3559 0.0000 -0.0077
# 5 0.2297 -0.0390 -0.0422 0.0000 52.2589 0.0000
# 6 0.0000 0.0000 0.0000 -0.0077 0.0000 -0.2652
#
#
#
# Elastic Compliance Matrix: (Units=1/GPa)
#
#
# Indices 1 2 3 4 5 6 
#
# 1 0.004176 0.000695 -0.002125 0.000000 -0.000020 0.000000
# 2 0.000695 0.060475 -0.005584 0.000000 0.000038 0.000000
# 3 -0.002125 -0.005584 0.005786 0.000000 0.000010 0.000000
# 4 0.000000 0.000000 0.000000 0.424429 0.000000 -0.012394
# 5 -0.000020 0.000038 0.000010 0.000000 0.019136 0.000000
# 6 0.000000 0.000000 0.000000 -0.012394 0.000000 -3.769717
#
#
# Mechanical properties :
#
#
# Convention : Reuss Voigt Hill
#
# Bulk Modulus (GPa) = 17.72733 93.21066 55.46899
# Shear Modulus (GPa) = -1.55141 38.00008 18.22434
#
# Velocity S-wave (km/s) = -0.82524 4.08425 2.82843
# Velocity P-wave (km/s) = 2.62180 7.94724 5.91745
#
# Compressibility (1/GPa) = 0.05641008
#
# Stress axis : x y z
#
# Youngs Moduli (GPa) = 239.45043 16.53563 172.83172
#
# Poissons Ratio (x) = -0.01149 0.36724
# Poissons Ratio (y) = -0.16633 0.96502
# Poissons Ratio (z) = 0.50880 0.09233
#
# Static dielectric constant tensor:
#      x y z
#    x 17.615600 0.000000 0.040810 
#    y 0.000000 3.418390 0.000000 
#    z 0.040810 0.000000 3.977160 
# 
# 
# High freq. dielectric constant tensor:
#      x y z
#    x 1.945980 0.000000 0.000110 
#    y 0.000000 1.847410 0.000000 
#    z 0.000110 0.000000 1.910460 
# 
# From -- ./inp_files/252592.got.cif
#   From: 2010.06.25/outbox.cif.g09.slc.cpg/sg12_127_cif.got.tgz:252592.got - 2010.06.28 00:19:55.
