data_PCOD8083064
_publ_section_title
;
Structure prediction by ZEFSAII (Michael W. Deem and Ramdas Pophale) SiO2 
 PCOD8083064
Probable space group: C 2/M
;
_chemical_formula_sum "Si O2"
_cell_formula_units_Z 64
_cell_length_a 17.249791
_cell_length_b 15.921836
_cell_length_c 22.270418
_cell_angle_alpha 90.000000
_cell_angle_beta 34.112223
_cell_angle_gamma 90.000000
_cell_volume 3430.247557
_symmetry_space_group_name_H-M "C 2/M"
_symmetry_group_IT_number 12
_symmetry_cell_setting 'monoclinic'
loop_
_space_group_symop_operation_xyz
x,y,z
-x,y,-z
-x,-y,-z
x,-y,z
1/2+x,1/2+y,z
1/2-x,1/2+y,-z
1/2-x,1/2-y,-z
1/2+x,1/2-y,z
loop_
_atom_site_type_symbol
_atom_site_label
_atom_site_fract_x
_atom_site_fract_y
_atom_site_fract_z
Si Si1 0.406636 0.234137 0.110689
Si Si2 0.326101 0.305348 0.826187
Si Si3 0.411887 0.098450 0.952652
Si Si4 0.592328 0.596951 0.658562
Si Si5 0.879646 0.402129 0.423130
Si Si6 0.909553 0.407897 0.614605
Si Si7 0.491188 0.830788 0.231524
Si Si8 0.153305 0.185175 0.734864
O O1 0.252116 0.223094 0.184288
O O2 0.461891 0.141189 0.092319
O O3 0.429279 0.300100 0.150249
O O4 0.500000 0.276065 0.000000
O O5 0.456926 0.358739 0.718926
O O6 0.381800 0.224358 0.825594
O O7 0.230491 0.358331 0.933621
O O8 0.440564 0.110961 0.863297
O O9 0.406475 0.000000 0.970920
O O10 0.578001 0.500000 0.653578
O O11 0.729922 0.636138 0.538568
O O12 0.596994 0.611159 0.728104
O O13 0.867755 0.500000 0.443578
O O14 0.000456 0.367395 0.389078
O O15 0.919944 0.386034 0.328738
O O16 0.843928 0.500000 0.675569
O O17 0.805187 0.336030 0.660443
O O18 0.000000 0.428894 0.500000
O O19 0.363579 0.773076 0.290004
#
# Coordination Sequence:
#
# PCOD8083064 Si02
#       8
#     8   8   8   8   8   8   8   8
#     4   9  20  36  53  76 102 135 173 213 260 309
#     4  10  20  34  54  79 105 133 170 218 266 306
#     4  10  20  36  58  78 101 136 178 218 255 307
#     4  10  20  34  52  76 106 137 172 213 258 307
#     4  10  20  35  54  76 105 142 177 212 253 306
#     4  10  18  32  53  75  99 133 175 213 248 296
#     4  10  21  35  53  79 108 139 170 213 263 313
#     4  10  19  33  52  76 103 135 169 213 261 302
#
# _framework density 18.657546
#
# number of rings (size 3 to 8) (size 9 to 14) (size 15 to 20)
#    0.000    2.125    1.250    2.250    0.000    5.750 
#    2.250    0.000    0.000    1.500    0.000    4.375 
#    0.000    0.000    0.000    0.000    0.000    0.000 
#
# Total GULP energy -396468.241039 kJ/mol
# GULP energy per Si atom -12389.632532 kJ/mol
# Density = 1.861508 g / cm^3
# Si number density = 18.657546 Si / 1000 Ang^3
#
#
#
# Elastic Constant Matrix: (Units=GPa)
#
#
# Indices 1 2 3 4 5 6 
#
# 1 89.4320 3.5231 44.4670 -0.0004 -5.9929 0.0000
# 2 3.5231 33.2366 21.0232 -0.0005 -5.4849 0.0001
# 3 44.4670 21.0232 84.0481 -0.0022 -3.4189 0.0008
# 4 -0.0004 -0.0005 -0.0022 32.5072 0.0006 -4.8678
# 5 -5.9929 -5.4849 -3.4189 0.0006 40.7013 -0.0001
# 6 0.0000 0.0001 0.0008 -4.8678 -0.0001 28.0440
#
#
#
# Elastic Compliance Matrix: (Units=1/GPa)
#
#
# Indices 1 2 3 4 5 6 
#
# 1 0.015848 0.004663 -0.009463 0.000000 0.002167 0.000000
# 2 0.004663 0.037803 -0.011728 0.000000 0.004796 0.000000
# 3 -0.009463 -0.011728 0.019785 0.000001 -0.001312 0.000000
# 4 0.000000 0.000000 0.000001 0.031583 0.000000 0.005482
# 5 0.002167 0.004796 -0.001312 0.000000 0.025424 0.000000
# 6 0.000000 0.000000 0.000000 0.005482 0.000000 0.036610
#
#
# Mechanical properties :
#
#
# Convention : Reuss Voigt Hill
#
# Bulk Modulus (GPa) = 24.76435 38.30479 31.53457
# Shear Modulus (GPa) = 23.41166 29.43074 26.42120
#
# Velocity S-wave (km/s) = 3.54617 3.97598 3.76721
# Velocity P-wave (km/s) = 5.48352 6.45391 5.98840
#
# Compressibility (1/GPa) = 0.04038063
#
# Stress axis : x y z
#
# Youngs Moduli (GPa) = 63.09778 26.45316 50.54397
#
# Poissons Ratio (x) = -0.12336 0.47831
# Poissons Ratio (y) = -0.29425 0.59277
# Poissons Ratio (z) = 0.59711 0.31024
#
# Static dielectric constant tensor:
#      x y z
#    x 3.671650 -0.000010 -0.186090 
#    y -0.000010 3.300420 0.000030 
#    z -0.186090 0.000030 4.182290 
# 
# 
# High freq. dielectric constant tensor:
#      x y z
#    x 1.733170 0.000000 0.002110 
#    y 0.000000 1.708720 0.000000 
#    z 0.002110 0.000000 1.718420 
# 
# From -- ./inp_files/328614.got.cif
#   From: 2010.06.25/outbox.cif.g09.slc.cpg/sg12_165_cif.got.tgz:328614.got - 2010.06.28 00:19:55.
