data_PCOD8083167
_publ_section_title
;
Structure prediction by ZEFSAII (Michael W. Deem and Ramdas Pophale) SiO2 
 PCOD8083167
Probable space group: C 2/M
;
_chemical_formula_sum "Si O2"
_cell_formula_units_Z 52
_cell_length_a 9.729412
_cell_length_b 18.453843
_cell_length_c 24.295476
_cell_angle_alpha 90.000000
_cell_angle_beta 141.540811
_cell_angle_gamma 90.000000
_cell_volume 2713.058851
_symmetry_space_group_name_H-M "C 2/M"
_symmetry_group_IT_number 12
_symmetry_cell_setting 'monoclinic'
loop_
_space_group_symop_operation_xyz
x,y,z
-x,y,-z
-x,-y,-z
x,-y,z
1/2+x,1/2+y,z
1/2-x,1/2+y,-z
1/2-x,1/2-y,-z
1/2+x,1/2-y,z
loop_
_atom_site_type_symbol
_atom_site_label
_atom_site_fract_x
_atom_site_fract_y
_atom_site_fract_z
Si Si1 0.514750 0.500000 0.615759
Si Si2 0.444794 0.199639 0.226328
Si Si3 0.143961 0.137217 0.824779
Si Si4 0.285176 0.615712 0.398823
Si Si5 0.406298 0.500000 0.707396
Si Si6 0.561508 0.836305 0.899682
Si Si7 0.960536 0.173266 0.087637
Si Si8 0.589242 0.000000 0.415510
O O1 0.637234 0.570024 0.629715
O O2 0.517639 0.500000 0.682325
O O3 0.261478 0.500000 0.518930
O O4 0.431061 0.286552 0.225942
O O5 0.639706 0.181636 0.330237
O O6 0.502545 0.170991 0.183854
O O7 0.220991 0.154486 0.170807
O O8 0.380575 0.113302 0.873321
O O9 0.161020 0.147943 0.895260
O O10 0.974958 0.072840 0.760260
O O11 0.500000 0.643998 0.500000
O O12 0.127230 0.570009 0.389326
O O13 0.142648 0.500000 0.626221
O O14 0.541659 0.758986 0.923340
O O15 0.814813 0.862828 0.991948
#
# Coordination Sequence:
#
# PCOD8083167 Si02
#       8
#     4   8   8   8   4   8   8   4
#     4   9  19  35  55  75  98 134 176 209 247 306
#     4  10  18  32  54  80 102 129 173 217 254 300
#     4  10  21  32  49  74 105 138 171 206 254 308
#     4   9  18  35  57  79 102 129 165 212 261 305
#     4  12  21  34  51  72 104 142 172 208 254 300
#     4   9  17  31  51  74 101 132 168 209 249 295
#     4   9  17  31  51  74 101 132 168 209 249 295
#     4   9  19  35  55  75  98 134 176 209 247 306
#
# _framework density 19.166557000000001
#
# number of rings (size 3 to 8) (size 9 to 14) (size 15 to 20)
#    0.000    2.462    0.000    3.923    0.000    3.692 
#    0.000    3.077    0.000   12.000    0.000    8.615 
#    0.000    0.000    0.000    0.000    0.000    0.000 
#
# Total GULP energy -322170.771595 kJ/mol
# GULP energy per Si atom -12391.183523 kJ/mol
# Density = 1.912293 g / cm^3
# Si number density = 19.166557 Si / 1000 Ang^3
#
#
#
# Elastic Constant Matrix: (Units=GPa)
#
#
# Indices 1 2 3 4 5 6 
#
# 1 74.8669 12.0619 13.4867 -0.0002 11.6107 -0.0008
# 2 12.0619 58.3857 40.0688 0.0001 1.5883 -0.0008
# 3 13.4867 40.0688 114.0681 0.0003 8.6625 -0.0020
# 4 -0.0002 0.0001 0.0003 14.5538 0.0001 0.2859
# 5 11.6107 1.5883 8.6625 0.0001 33.8583 -0.0007
# 6 -0.0008 -0.0008 -0.0020 0.2859 -0.0007 15.6708
#
#
#
# Elastic Compliance Matrix: (Units=1/GPa)
#
#
# Indices 1 2 3 4 5 6 
#
# 1 0.014593 -0.002569 -0.000461 0.000000 -0.004766 0.000000
# 2 -0.002569 0.023053 -0.007933 0.000000 0.001829 0.000000
# 3 -0.000461 -0.007933 0.011797 0.000000 -0.002488 0.000001
# 4 0.000000 0.000000 0.000000 0.068735 0.000000 -0.001254
# 5 -0.004766 0.001829 -0.002488 0.000000 0.031720 0.000001
# 6 0.000000 0.000000 0.000001 -0.001254 0.000001 0.063836
#
#
# Mechanical properties :
#
#
# Convention : Reuss Voigt Hill
#
# Bulk Modulus (GPa) = 36.34127 42.06172 39.20150
# Shear Modulus (GPa) = 20.42223 24.93012 22.67617
#
# Velocity S-wave (km/s) = 3.26776 3.61045 3.44337
# Velocity P-wave (km/s) = 5.76538 6.27483 6.02549
#
# Compressibility (1/GPa) = 0.02751692
#
# Stress axis : x y z
#
# Youngs Moduli (GPa) = 68.52574 43.37914 84.76913
#
# Poissons Ratio (x) = 0.11143 0.03909
# Poissons Ratio (y) = 0.17602 0.67246
# Poissons Ratio (z) = 0.03160 0.34412
#
# Static dielectric constant tensor:
#      x y z
#    x 3.525920 0.000000 0.175690 
#    y 0.000000 3.103850 0.000000 
#    z 0.175690 0.000000 3.577460 
# 
# 
# High freq. dielectric constant tensor:
#      x y z
#    x 1.756350 0.000000 0.006420 
#    y 0.000000 1.696650 0.000000 
#    z 0.006420 0.000000 1.752240 
# 
# From -- ./inp_files/197111.got.cif
#   From: 2010.06.25/outbox.cif.g09.slc.cpg/sg12_99_cif.got.tgz:197111.got - 2010.06.28 00:19:55.
