data_PCOD8083369
_publ_section_title
;
Structure prediction by ZEFSAII (Michael W. Deem and Ramdas Pophale) SiO2 
 PCOD8083369
Probable space group: C 2/M
;
_chemical_formula_sum "Si O2"
_cell_formula_units_Z 56
_cell_length_a 29.611927
_cell_length_b 7.390571
_cell_length_c 18.563110
_cell_angle_alpha 90.000000
_cell_angle_beta 139.419980
_cell_angle_gamma 90.000000
_cell_volume 2642.706806
_symmetry_space_group_name_H-M "C 2/M"
_symmetry_group_IT_number 12
_symmetry_cell_setting 'monoclinic'
loop_
_space_group_symop_operation_xyz
x,y,z
-x,y,-z
-x,-y,-z
x,-y,z
1/2+x,1/2+y,z
1/2-x,1/2+y,-z
1/2-x,1/2-y,-z
1/2+x,1/2-y,z
loop_
_atom_site_type_symbol
_atom_site_label
_atom_site_fract_x
_atom_site_fract_y
_atom_site_fract_z
Si Si1 0.017739 0.786214 0.943125
Si Si2 0.221698 0.286851 0.885584
Si Si3 0.278037 0.284619 0.685259
Si Si4 0.551634 0.500000 0.468478
Si Si5 0.831502 0.785480 0.901385
Si Si6 0.884606 0.213782 0.695757
Si Si7 0.874092 0.299413 0.523124
Si Si8 0.611026 0.500000 0.698174
O O1 0.958177 0.728588 0.816840
O O2 0.023569 0.000000 0.959367
O O3 0.089747 0.712323 0.996355
O O4 0.000000 0.702544 0.000000
O O5 0.205327 0.500000 0.855756
O O6 0.282976 0.215867 0.907295
O O7 0.151869 0.176055 0.779114
O O8 0.250000 0.250000 0.000000
O O9 0.281054 0.500000 0.687942
O O10 0.304715 0.207658 0.793171
O O11 0.324709 0.211846 0.676102
O O12 0.200488 0.210951 0.583130
O O13 0.566974 0.678330 0.441009
O O14 0.601230 0.500000 0.599535
O O15 0.468878 0.500000 0.374574
O O16 0.829524 0.000000 0.899186
O O17 0.880659 0.316588 0.616352
O O18 0.878658 0.000000 0.676609
O O19 0.880427 0.500000 0.497193
#
# Coordination Sequence:
#
# PCOD8083369 Si02
#       8
#     8   8   8   4   8   8   8   4
#     4   9  15  27  52  85 122 164 211 260 314 383
#     4  11  23  43  71 103 140 175 222 281 345 407
#     4   9  17  31  55  86 124 168 218 266 312 378
#     4  11  26  48  70 100 131 175 223 287 352 414
#     4   9  17  31  56  90 122 165 214 261 319 383
#     4  10  18  32  56  87 129 173 218 267 318 378
#     4  11  23  40  62  92 131 172 222 270 333 399
#     4  11  26  48  76 100 133 168 227 285 350 420
#
# _framework density 21.190394999999999
#
# number of rings (size 3 to 8) (size 9 to 14) (size 15 to 20)
#    0.000    2.000    2.857    1.286    0.000    3.429 
#    1.286    1.429    1.571    0.429    0.000    0.000 
#    0.000    0.000    0.000    0.000    0.000    0.000 
#
# Total GULP energy -347060.157501 kJ/mol
# GULP energy per Si atom -12395.005625 kJ/mol
# Density = 2.114216 g / cm^3
# Si number density = 21.190395 Si / 1000 Ang^3
#
#
#
# Elastic Constant Matrix: (Units=GPa)
#
#
# Indices 1 2 3 4 5 6 
#
# 1 147.7263 32.2099 53.2841 0.0000 6.9342 0.0000
# 2 32.2099 81.9886 28.2239 0.0000 7.3633 -0.0001
# 3 53.2841 28.2239 74.3207 0.0000 25.4661 0.0000
# 4 0.0000 0.0000 0.0000 19.4126 0.0000 8.1796
# 5 6.9342 7.3633 25.4661 0.0000 38.8631 0.0000
# 6 0.0000 -0.0001 0.0000 8.1796 0.0000 7.1483
#
#
#
# Elastic Compliance Matrix: (Units=1/GPa)
#
#
# Indices 1 2 3 4 5 6 
#
# 1 0.009659 -0.001509 -0.007556 0.000000 0.003514 0.000000
# 2 -0.001509 0.014302 -0.004530 0.000000 0.000528 0.000000
# 3 -0.007556 -0.004530 0.025580 0.000000 -0.014556 0.000000
# 4 0.000000 0.000000 0.000000 0.099475 0.000000 -0.113827
# 5 0.003514 0.000528 -0.014556 0.000000 0.034542 0.000000
# 6 0.000000 0.000000 0.000000 -0.113827 0.000000 0.270145
#
#
# Mechanical properties :
#
#
# Convention : Reuss Voigt Hill
#
# Bulk Modulus (GPa) = 44.74143 59.05238 51.89690
# Shear Modulus (GPa) = 10.23871 25.77264 18.00567
#
# Velocity S-wave (km/s) = 2.20051 3.49125 2.91814
# Velocity P-wave (km/s) = 5.25511 6.64679 5.99149
#
# Compressibility (1/GPa) = 0.02235065
#
# Stress axis : x y z
#
# Youngs Moduli (GPa) = 103.53415 69.92152 39.09293
#
# Poissons Ratio (x) = 0.10552 0.29537
# Poissons Ratio (y) = 0.15624 0.17710
# Poissons Ratio (z) = 0.78226 0.31676
#
# Static dielectric constant tensor:
#      x y z
#    x 4.019550 0.000000 0.088960 
#    y 0.000000 3.490830 0.000000 
#    z 0.088960 0.000000 3.991910 
# 
# 
# High freq. dielectric constant tensor:
#      x y z
#    x 1.830880 0.000000 0.001270 
#    y 0.000000 1.817650 0.000000 
#    z 0.001270 0.000000 1.838310 
# 
# From -- ./inp_files/292614.got.cif
#   From: 2010.06.25/outbox.cif.g09.slc.cpg/sg12_147_cif.got.tgz:292614.got - 2010.06.28 00:19:55.
