data_PCOD8083718
_publ_section_title
;
Structure prediction by ZEFSAII (Michael W. Deem and Ramdas Pophale) SiO2 
 PCOD8083718
Probable space group: C 2/M
;
_chemical_formula_sum "Si O2"
_cell_formula_units_Z 64
_cell_length_a 20.024818
_cell_length_b 20.162707
_cell_length_c 9.623966
_cell_angle_alpha 90.000000
_cell_angle_beta 58.533846
_cell_angle_gamma 90.000000
_cell_volume 3314.319653
_symmetry_space_group_name_H-M "C 2/M"
_symmetry_group_IT_number 12
_symmetry_cell_setting 'monoclinic'
loop_
_space_group_symop_operation_xyz
x,y,z
-x,y,-z
-x,-y,-z
x,-y,z
1/2+x,1/2+y,z
1/2-x,1/2+y,-z
1/2-x,1/2-y,-z
1/2+x,1/2-y,z
loop_
_atom_site_type_symbol
_atom_site_label
_atom_site_fract_x
_atom_site_fract_y
_atom_site_fract_z
Si Si1 0.977645 0.575021 0.364295
Si Si2 0.831484 0.844953 0.239038
Si Si3 0.436995 0.573560 0.946153
Si Si4 0.975319 0.815780 0.280087
Si Si5 0.795988 0.700668 0.188371
Si Si6 0.631149 0.737913 0.394295
Si Si7 0.174485 0.351825 0.548065
Si Si8 0.420078 0.193434 0.826345
O O1 0.992138 0.500000 0.296508
O O2 0.887126 0.593077 0.434623
O O3 0.000000 0.581965 0.500000
O O4 0.031988 0.625205 0.219979
O O5 0.904668 0.826174 0.252752
O O6 0.802626 0.779479 0.193963
O O7 0.760963 0.875552 0.407260
O O8 0.855644 0.898454 0.096191
O O9 0.422436 0.500000 0.901780
O O10 0.467548 0.620356 0.787429
O O11 0.500000 0.571755 0.000000
O O12 0.942590 0.805994 0.472539
O O13 0.025314 0.752125 0.172914
O O14 0.702233 0.689472 0.270182
O O15 0.827805 0.658375 0.283626
O O16 0.843319 0.679236 0.000934
O O17 0.655681 0.780401 0.502399
O O18 0.604812 0.787482 0.302280
#
# Coordination Sequence:
#
# PCOD8083718 Si02
#       8
#     8   8   8   8   8   8   8   8
#     4  11  23  41  62  86 119 163 208 251 302 366
#     4  10  18  33  56  83 117 149 190 239 299 349
#     4   9  19  32  52  86 119 146 187 242 297 355
#     4  11  18  33  59  83 115 152 194 244 297 349
#     4  11  21  35  58  91 117 153 193 251 302 355
#     4  11  20  36  57  88 122 153 194 249 297 360
#     4  11  20  37  59  84 117 154 198 246 298 358
#     4  12  22  36  59  92 122 156 203 250 307 354
#
# _framework density 19.310148000000002
#
# number of rings (size 3 to 8) (size 9 to 14) (size 15 to 20)
#    0.000    1.250    6.250    1.500    0.000    2.000 
#    0.000    1.250    0.000    2.250    0.000    0.000 
#    0.000    0.000    0.000    0.000    0.000    0.000 
#
# Total GULP energy -396738.504067 kJ/mol
# GULP energy per Si atom -12398.078252 kJ/mol
# Density = 1.926620 g / cm^3
# Si number density = 19.310148 Si / 1000 Ang^3
#
#
#
# Elastic Constant Matrix: (Units=GPa)
#
#
# Indices 1 2 3 4 5 6 
#
# 1 60.3283 27.1327 23.8593 0.0000 -8.5251 0.0000
# 2 27.1327 124.6393 52.8681 0.0000 -16.7503 0.0000
# 3 23.8593 52.8681 132.1559 0.0000 -27.8718 0.0000
# 4 0.0000 0.0000 0.0000 25.7187 0.0000 -2.0353
# 5 -8.5251 -16.7503 -27.8718 0.0000 27.8889 0.0000
# 6 0.0000 0.0000 0.0000 -2.0353 0.0000 16.0789
#
#
#
# Elastic Compliance Matrix: (Units=1/GPa)
#
#
# Indices 1 2 3 4 5 6 
#
# 1 0.018963 -0.003103 -0.001714 0.000000 0.002220 0.000000
# 2 -0.003103 0.010305 -0.003113 0.000000 0.002130 0.000000
# 3 -0.001714 -0.003113 0.010918 0.000000 0.008518 0.000000
# 4 0.000000 0.000000 0.000000 0.039276 0.000000 0.004972
# 5 0.002220 0.002130 0.008518 0.000000 0.046327 0.000000
# 6 0.000000 0.000000 0.000000 0.004972 0.000000 0.062822
#
#
# Mechanical properties :
#
#
# Convention : Reuss Voigt Hill
#
# Bulk Modulus (GPa) = 41.10774 58.31595 49.71185
# Shear Modulus (GPa) = 23.52055 28.15487 25.83771
#
# Velocity S-wave (km/s) = 3.49383 3.82256 3.66189
# Velocity P-wave (km/s) = 6.13271 7.05322 6.60901
#
# Compressibility (1/GPa) = 0.02432632
#
# Stress axis : x y z
#
# Youngs Moduli (GPa) = 52.73422 97.03721 91.59099
#
# Poissons Ratio (x) = 0.30107 0.15700
# Poissons Ratio (y) = 0.16361 0.28515
# Poissons Ratio (z) = 0.09040 0.30210
#
# Static dielectric constant tensor:
#      x y z
#    x 3.631070 0.000000 -0.404730 
#    y 0.000000 3.480370 0.000000 
#    z -0.404730 0.000000 3.732910 
# 
# 
# High freq. dielectric constant tensor:
#      x y z
#    x 1.752420 0.000000 -0.021190 
#    y 0.000000 1.716840 0.000000 
#    z -0.021190 0.000000 1.752990 
# 
# From -- ./inp_files/89555.got.cif
#   From: 2010.06.25/outbox.cif.g09.slc.cpg/sg12_45_cif.got.tgz:89555.got - 2010.06.28 00:19:55.
