data_PCOD8083805
_publ_section_title
;
Structure prediction by ZEFSAII (Michael W. Deem and Ramdas Pophale) SiO2 
 PCOD8083805
Probable space group: C 2/M
;
_chemical_formula_sum "Si O2"
_cell_formula_units_Z 60
_cell_length_a 25.249345
_cell_length_b 18.472858
_cell_length_c 21.507210
_cell_angle_alpha 90.000000
_cell_angle_beta 161.450272
_cell_angle_gamma 90.000000
_cell_volume 3191.314736
_symmetry_space_group_name_H-M "C 2/M"
_symmetry_group_IT_number 12
_symmetry_cell_setting 'monoclinic'
loop_
_space_group_symop_operation_xyz
x,y,z
-x,y,-z
-x,-y,-z
x,-y,z
1/2+x,1/2+y,z
1/2-x,1/2+y,-z
1/2-x,1/2-y,-z
1/2+x,1/2-y,z
loop_
_atom_site_type_symbol
_atom_site_label
_atom_site_fract_x
_atom_site_fract_y
_atom_site_fract_z
Si Si1 0.615640 0.227944 0.898599
Si Si2 0.191930 0.081553 0.446977
Si Si3 0.849557 0.214028 0.517631
Si Si4 0.851434 0.788745 0.379379
Si Si5 0.926682 0.422107 0.102903
Si Si6 0.000000 0.792538 0.000000
Si Si7 0.352125 0.081724 0.878197
Si Si8 0.549349 0.684557 0.189020
O O1 0.441643 0.231974 0.667822
O O2 0.668867 0.146491 0.975714
O O3 0.611663 0.283413 0.953192
O O4 0.750000 0.250000 0.000000
O O5 0.134691 0.131393 0.441004
O O6 0.389342 0.078695 0.664740
O O7 0.127078 0.115655 0.310092
O O8 0.119025 0.000000 0.373319
O O9 0.922079 0.216039 0.528378
O O10 0.661518 0.242640 0.310428
O O11 0.671163 0.750241 0.175343
O O12 0.814543 0.871132 0.317035
O O13 0.000000 0.757684 0.500000
O O14 0.843484 0.500000 0.028567
O O15 0.928378 0.413772 0.031248
O O16 0.981582 0.840669 0.916713
O O17 0.304328 0.000000 0.806104
O O18 0.500000 0.112552 0.000000
#
# Coordination Sequence:
#
# PCOD8083805 Si02
#       8
#     8   8   8   8   8   4   8   8
#     4  11  21  33  56  81 113 146 182 231 282 329
#     4  10  18  33  58  83 107 143 190 234 280 337
#     4  10  20  36  53  82 111 142 183 236 275 331
#     4  11  23  35  56  83 110 147 193 228 275 338
#     4  10  19  33  56  82 110 147 189 228 275 338
#     4  10  22  38  60  78 114 146 176 244 290 328
#     4  10  20  34  53  78 113 154 186 221 277 334
#     4  10  19  38  56  80 110 143 185 227 288 335
#
# _framework density 18.801029
#
# number of rings (size 3 to 8) (size 9 to 14) (size 15 to 20)
#    0.000    1.733    3.333    2.400    3.733    1.867 
#    0.000    3.000    0.000    0.000    0.000    0.000 
#    0.000    5.867    0.000    0.000    0.000    0.000 
#
# Total GULP energy -371695.551937 kJ/mol
# GULP energy per Si atom -12389.851731 kJ/mol
# Density = 1.875824 g / cm^3
# Si number density = 18.801029 Si / 1000 Ang^3
#
#
#
# Elastic Constant Matrix: (Units=GPa)
#
#
# Indices 1 2 3 4 5 6 
#
# 1 132.4637 35.3589 24.1695 0.0585 -7.0736 0.0215
# 2 35.3589 95.5992 5.6130 -0.0263 -6.5662 -0.0063
# 3 24.1695 5.6130 31.8663 -0.0494 0.4272 -0.0187
# 4 0.0585 -0.0263 -0.0494 6.9266 -0.0412 -3.1865
# 5 -7.0736 -6.5662 0.4272 -0.0412 37.7569 -0.0251
# 6 0.0215 -0.0063 -0.0187 -3.1865 -0.0251 25.0687
#
#
#
# Elastic Compliance Matrix: (Units=1/GPa)
#
#
# Indices 1 2 3 4 5 6 
#
# 1 0.009692 -0.003091 -0.006825 -0.000149 0.001355 -0.000032
# 2 -0.003091 0.011688 0.000266 0.000090 0.001451 0.000019
# 3 -0.006825 0.000266 0.036533 0.000344 -0.001645 0.000075
# 4 -0.000149 0.000090 0.000344 0.153343 0.000164 0.019492
# 5 0.001355 0.001451 -0.001645 0.000164 0.027010 0.000046
# 6 -0.000032 0.000019 0.000075 0.019492 0.000046 0.042368
#
#
# Mechanical properties :
#
#
# Convention : Reuss Voigt Hill
#
# Bulk Modulus (GPa) = 25.89745 43.35687 34.62716
# Shear Modulus (GPa) = 15.98441 26.93629 21.46035
#
# Velocity S-wave (km/s) = 2.91896 3.78921 3.38219
# Velocity P-wave (km/s) = 5.01646 6.50040 5.80603
#
# Compressibility (1/GPa) = 0.03861384
#
# Stress axis : x y z
#
# Youngs Moduli (GPa) = 103.17698 85.56063 27.37220
#
# Poissons Ratio (x) = 0.26447 0.18682
# Poissons Ratio (y) = 0.31892 -0.00729
# Poissons Ratio (z) = 0.70419 -0.02280
#
# Static dielectric constant tensor:
#      x y z
#    x 3.614210 -0.000080 -0.168970 
#    y -0.000080 3.108400 -0.000190 
#    z -0.168970 -0.000190 3.006800 
# 
# 
# High freq. dielectric constant tensor:
#      x y z
#    x 1.736010 0.000000 -0.015070 
#    y 0.000000 1.707120 -0.000010 
#    z -0.015070 -0.000010 1.714440 
# 
# From -- ./inp_files/326163.got.cif
#   From: 2010.06.25/outbox.cif.g09.slc.cpg/sg12_164_cif.got.tgz:326163.got - 2010.06.28 00:19:55.
