data_PCOD8083648
_publ_section_title
;
Structure prediction by ZEFSAII (Michael W. Deem and Ramdas Pophale) SiO2 
 PCOD8083648
Probable space group: C 2/M
;
_chemical_formula_sum "Si O2"
_cell_formula_units_Z 56
_cell_length_a 20.035646
_cell_length_b 8.863690
_cell_length_c 19.452973
_cell_angle_alpha 90.000000
_cell_angle_beta 59.121657
_cell_angle_gamma 90.000000
_cell_volume 2964.983195
_symmetry_space_group_name_H-M "C 2/M"
_symmetry_group_IT_number 12
_symmetry_cell_setting 'monoclinic'
loop_
_space_group_symop_operation_xyz
x,y,z
-x,y,-z
-x,-y,-z
x,-y,z
1/2+x,1/2+y,z
1/2-x,1/2+y,-z
1/2-x,1/2-y,-z
1/2+x,1/2-y,z
loop_
_atom_site_type_symbol
_atom_site_label
_atom_site_fract_x
_atom_site_fract_y
_atom_site_fract_z
Si Si1 0.153278 0.176054 0.841949
Si Si2 0.705667 0.829332 0.326168
Si Si3 0.421438 0.830137 0.998520
Si Si4 0.465964 0.821659 0.318864
Si Si5 0.544614 0.675894 0.406938
Si Si6 0.799992 0.172427 0.415681
Si Si7 0.997742 0.822394 0.162585
O O1 0.237333 0.215684 0.766445
O O2 0.085772 0.226623 0.824491
O O3 0.143467 0.000000 0.861877
O O4 0.146803 0.261967 0.918029
O O5 0.635382 0.712626 0.367080
O O6 0.754191 0.817876 0.369539
O O7 0.674312 0.000000 0.332798
O O8 0.432475 0.731782 0.923913
O O9 0.399245 0.000000 0.989415
O O10 0.500000 0.823784 0.000000
O O11 0.511007 0.773442 0.363054
O O12 0.379469 0.760207 0.366305
O O13 0.510213 0.757099 0.229079
O O14 0.464016 0.000000 0.315539
O O15 0.500000 0.721842 0.500000
O O16 0.533890 0.500000 0.396469
O O17 0.750000 0.250000 0.500000
O O18 0.817821 0.000000 0.426701
O O19 0.003030 0.000000 0.170546
#
# Coordination Sequence:
#
# PCOD8083648 Si02
#       7
#     8   8   8   8   8   8   8
#     4   9  17  32  53  80 113 152 188 228 283 340
#     4  10  21  38  59  83 114 149 190 236 286 343
#     4   9  17  28  46  79 117 150 186 232 277 332
#     4  12  24  38  59  85 115 152 192 239 289 343
#     4  11  25  43  61  82 111 150 196 242 289 347
#     4  11  22  38  58  85 116 148 186 236 291 344
#     4  10  18  33  55  81 115 153 190 233 283 339
#
# _framework density 18.887122999999999
#
# number of rings (size 3 to 8) (size 9 to 14) (size 15 to 20)
#    0.000    1.714    1.429    3.857    0.000    7.429 
#    0.000    0.000    0.000    0.857    0.000    0.000 
#    0.000    0.000    0.000    0.000    0.000    0.000 
#
# Total GULP energy -347289.768461 kJ/mol
# GULP energy per Si atom -12403.206016 kJ/mol
# Density = 1.884413 g / cm^3
# Si number density = 18.887123 Si / 1000 Ang^3
#
#
#
# Elastic Constant Matrix: (Units=GPa)
#
#
# Indices 1 2 3 4 5 6 
#
# 1 57.6158 35.6225 43.5620 0.0002 -3.0951 0.0001
# 2 35.6225 125.4669 77.1942 0.0003 4.6535 0.0012
# 3 43.5620 77.1942 166.4569 0.0000 -3.8590 -0.0001
# 4 0.0002 0.0003 0.0000 33.6828 0.0000 1.7570
# 5 -3.0951 4.6535 -3.8590 0.0000 25.2161 0.0003
# 6 0.0001 0.0012 -0.0001 1.7570 0.0003 26.2493
#
#
#
# Elastic Compliance Matrix: (Units=1/GPa)
#
#
# Indices 1 2 3 4 5 6 
#
# 1 0.023175 -0.004201 -0.004047 0.000000 0.003001 0.000000
# 2 -0.004201 0.012123 -0.004603 0.000000 -0.003457 -0.000001
# 3 -0.004047 -0.004603 0.009242 0.000000 0.001767 0.000000
# 4 0.000000 0.000000 0.000000 0.029793 0.000000 -0.001994
# 5 0.003001 -0.003457 0.001767 0.000000 0.040934 0.000000
# 6 0.000000 -0.000001 0.000000 -0.001994 0.000000 0.038230
#
#
# Mechanical properties :
#
#
# Convention : Reuss Voigt Hill
#
# Bulk Modulus (GPa) = 53.08353 73.58858 63.33605
# Shear Modulus (GPa) = 26.95736 29.90703 28.43220
#
# Velocity S-wave (km/s) = 3.78205 3.98359 3.88413
# Velocity P-wave (km/s) = 6.87303 7.75922 7.32953
#
# Compressibility (1/GPa) = 0.01883823
#
# Stress axis : x y z
#
# Youngs Moduli (GPa) = 43.15016 82.48688 108.19931
#
# Poissons Ratio (x) = 0.34654 0.43789
# Poissons Ratio (y) = 0.18128 0.49802
# Poissons Ratio (z) = 0.17463 0.37967
#
# Static dielectric constant tensor:
#      x y z
#    x 3.140250 0.000000 -0.008920 
#    y 0.000000 3.593720 0.000000 
#    z -0.008920 0.000000 3.737630 
# 
# 
# High freq. dielectric constant tensor:
#      x y z
#    x 1.697600 0.000000 -0.003370 
#    y 0.000000 1.743660 0.000000 
#    z -0.003370 0.000000 1.754410 
# 
# From -- ./inp_files/275276.got.cif
#   From: 2010.06.25/outbox.cif.g09.slc.cpg/sg12_138_cif.got.tgz:275276.got - 2010.06.28 00:19:55.
