data_PCOD8083412
_publ_section_title
;
Structure prediction by ZEFSAII (Michael W. Deem and Ramdas Pophale) SiO2 
 PCOD8083412
Probable space group: C 2/M
;
_chemical_formula_sum "Si O2"
_cell_formula_units_Z 56
_cell_length_a 15.365104
_cell_length_b 8.692835
_cell_length_c 24.473604
_cell_angle_alpha 90.000000
_cell_angle_beta 119.283508
_cell_angle_gamma 90.000000
_cell_volume 2851.123176
_symmetry_space_group_name_H-M "C 2/M"
_symmetry_group_IT_number 12
_symmetry_cell_setting 'monoclinic'
loop_
_space_group_symop_operation_xyz
x,y,z
-x,y,-z
-x,-y,-z
x,-y,z
1/2+x,1/2+y,z
1/2-x,1/2+y,-z
1/2-x,1/2-y,-z
1/2+x,1/2-y,z
loop_
_atom_site_type_symbol
_atom_site_label
_atom_site_fract_x
_atom_site_fract_y
_atom_site_fract_z
Si Si1 0.917592 0.819591 0.714566
Si Si2 0.724621 0.317903 0.933550
Si Si3 0.707044 0.679070 0.632645
Si Si4 0.016304 0.818120 0.634296
Si Si5 0.988073 0.681196 0.151111
Si Si6 0.080511 0.317605 0.067290
Si Si7 0.652679 0.321165 0.495218
O O1 0.802662 0.787003 0.665960
O O2 0.984604 0.759899 0.684503
O O3 0.949206 0.722845 0.776570
O O4 0.932775 0.000000 0.730153
O O5 0.724012 0.500000 0.938627
O O6 0.619061 0.261276 0.879015
O O7 0.808920 0.262366 0.916133
O O8 0.750000 0.250000 0.000000
O O9 0.738745 0.500000 0.647068
O O10 0.630574 0.728936 0.657169
O O11 0.647955 0.710951 0.558270
O O12 0.943121 0.748563 0.565179
O O13 0.007117 0.000000 0.629180
O O14 0.970918 0.500000 0.142026
O O15 0.051615 0.742254 0.118693
O O16 0.075747 0.500000 0.064571
O O17 0.000000 0.249264 0.000000
O O18 0.657020 0.500000 0.484188
O O19 0.750000 0.250000 0.500000
#
# Coordination Sequence:
#
# PCOD8083412 Si02
#       7
#     8   8   8   8   8   8   8
#     4  11  23  40  58  81 117 154 190 236 290 342
#     4  11  21  37  62  91 119 149 187 231 284 337
#     4  10  20  36  60  85 110 149 199 239 279 341
#     4   9  19  36  58  82 114 154 192 232 287 349
#     4  11  23  41  62  85 116 153 195 236 279 340
#     4   9  18  36  61  86 114 150 185 221 277 345
#     4  10  18  32  57  86 113 145 189 241 290 338
#
# _framework density 19.641380999999999
#
# number of rings (size 3 to 8) (size 9 to 14) (size 15 to 20)
#    0.000    1.857    2.857    1.714    0.000    2.857 
#    0.000   11.429    0.000    1.714    0.000    0.000 
#    0.000    0.000    0.000    0.000    0.000    0.000 
#
# Total GULP energy -347186.732657 kJ/mol
# GULP energy per Si atom -12399.526166 kJ/mol
# Density = 1.959668 g / cm^3
# Si number density = 19.641381 Si / 1000 Ang^3
#
#
#
# Elastic Constant Matrix: (Units=GPa)
#
#
# Indices 1 2 3 4 5 6 
#
# 1 165.0901 30.0784 43.7950 0.0000 -22.0223 0.0000
# 2 30.0784 37.1470 23.5861 0.0000 -2.7315 0.0000
# 3 43.7950 23.5861 82.2032 0.0000 -22.3088 0.0000
# 4 0.0000 0.0000 0.0000 29.1078 0.0000 4.5233
# 5 -22.0223 -2.7315 -22.3088 0.0000 25.6687 0.0000
# 6 0.0000 0.0000 0.0000 4.5233 0.0000 27.5355
#
#
#
# Elastic Compliance Matrix: (Units=1/GPa)
#
#
# Indices 1 2 3 4 5 6 
#
# 1 0.008075 -0.005279 -0.001387 0.000000 0.005161 0.000000
# 2 -0.005279 0.037128 -0.010466 0.000000 -0.009674 0.000000
# 3 -0.001387 -0.010466 0.019999 0.000000 0.015077 0.000000
# 4 0.000000 0.000000 0.000000 0.035255 0.000000 -0.005791
# 5 0.005161 -0.009674 0.015077 0.000000 0.055460 0.000000
# 6 0.000000 0.000000 0.000000 -0.005791 0.000000 0.037268
#
#
# Mechanical properties :
#
#
# Convention : Reuss Voigt Hill
#
# Bulk Modulus (GPa) = 32.32196 53.26214 42.79205
# Shear Modulus (GPa) = 21.02942 28.92779 24.97860
#
# Velocity S-wave (km/s) = 3.27566 3.84187 3.57001
# Velocity P-wave (km/s) = 5.54963 6.84515 6.23115
#
# Compressibility (1/GPa) = 0.03093871
#
# Stress axis : x y z
#
# Youngs Moduli (GPa) = 123.83207 26.93368 50.00316
#
# Poissons Ratio (x) = 0.14217 0.06936
# Poissons Ratio (y) = 0.65365 0.52334
# Poissons Ratio (z) = 0.17178 0.28189
#
# Static dielectric constant tensor:
#      x y z
#    x 4.032870 0.000000 -0.135980 
#    y 0.000000 3.314810 0.000000 
#    z -0.135980 0.000000 3.668160 
# 
# 
# High freq. dielectric constant tensor:
#      x y z
#    x 1.782940 0.000000 -0.003370 
#    y 0.000000 1.736180 0.000000 
#    z -0.003370 0.000000 1.765720 
# 
# From -- ./inp_files/308959.got.cif
#   From: 2010.06.25/outbox.cif.g09.slc.cpg/sg12_155_cif.got.tgz:308959.got - 2010.06.28 00:19:55.
