data_PCOD8083808
_publ_section_title
;
Structure prediction by ZEFSAII (Michael W. Deem and Ramdas Pophale) SiO2 
 PCOD8083808
Probable space group: C 2/M
;
_chemical_formula_sum "Si O2"
_cell_formula_units_Z 64
_cell_length_a 15.292261
_cell_length_b 9.492222
_cell_length_c 32.623695
_cell_angle_alpha 90.000000
_cell_angle_beta 133.642568
_cell_angle_gamma 90.000000
_cell_volume 3426.943064
_symmetry_space_group_name_H-M "C 2/M"
_symmetry_group_IT_number 12
_symmetry_cell_setting 'monoclinic'
loop_
_space_group_symop_operation_xyz
x,y,z
-x,y,-z
-x,-y,-z
x,-y,z
1/2+x,1/2+y,z
1/2-x,1/2+y,-z
1/2-x,1/2-y,-z
1/2+x,1/2-y,z
loop_
_atom_site_type_symbol
_atom_site_label
_atom_site_fract_x
_atom_site_fract_y
_atom_site_fract_z
Si Si1 0.213467 0.165146 0.365743
Si Si2 0.268747 0.335040 0.246457
Si Si3 0.467982 0.334050 0.248340
Si Si4 0.888034 0.834464 0.935877
Si Si5 0.847191 0.161918 0.125573
Si Si6 0.887656 0.163587 0.370957
Si Si7 0.338449 0.336058 0.557106
Si Si8 0.065237 0.837677 0.141829
O O1 0.333673 0.246630 0.390832
O O2 0.189347 0.200287 0.405039
O O3 0.100181 0.224948 0.302626
O O4 0.233891 0.000000 0.365118
O O5 0.246739 0.500000 0.232179
O O6 0.368106 0.273520 0.247174
O O7 0.311660 0.301710 0.305885
O O8 0.144641 0.254278 0.198290
O O9 0.473615 0.500000 0.256609
O O10 0.431451 0.289729 0.190756
O O11 0.771084 0.756571 0.915510
O O12 0.917307 0.786344 0.899084
O O13 0.863579 0.000000 0.930729
O O14 0.000000 0.788811 0.000000
O O15 0.925013 0.182087 0.109327
O O16 0.807064 0.000000 0.118558
O O17 0.025174 0.210032 0.408564
O O18 0.879291 0.000000 0.379627
O O19 0.319182 0.500000 0.542023
O O20 0.250000 0.250000 0.500000
O O21 0.103609 0.000000 0.159397
#
# Coordination Sequence:
#
# PCOD8083808 Si02
#       8
#     8   8   8   8   8   8   8   8
#     4  10  20  37  60  83 110 147 185 221 268 328
#     4  10  18  33  58  83 110 144 178 215 269 332
#     4   9  16  31  56  81 107 139 173 215 268 322
#     4  10  22  39  55  75 109 147 181 225 277 320
#     4  10  20  35  57  82 107 139 180 223 267 322
#     4  10  21  37  57  83 113 143 177 223 275 324
#     4  10  22  40  59  79 109 148 188 229 273 320
#     4  10  21  36  55  82 112 141 179 226 272 320
#
# _framework density 18.675538
#
# number of rings (size 3 to 8) (size 9 to 14) (size 15 to 20)
#    0.000    2.125    2.500    0.750    0.000    4.250 
#    0.000    3.750    0.000    0.000    0.000    0.000 
#    0.000    0.000    0.000    0.000    0.000    0.000 
#
# Total GULP energy -396876.827580 kJ/mol
# GULP energy per Si atom -12402.400862 kJ/mol
# Density = 1.863303 g / cm^3
# Si number density = 18.675538 Si / 1000 Ang^3
#
#
#
# Elastic Constant Matrix: (Units=GPa)
#
#
# Indices 1 2 3 4 5 6 
#
# 1 139.5567 51.1399 52.4510 0.0000 15.3324 0.0000
# 2 51.1399 49.0170 51.9599 0.0000 12.5334 0.0000
# 3 52.4510 51.9599 119.9737 0.0000 21.0336 0.0000
# 4 0.0000 0.0000 0.0000 30.1972 0.0000 5.3656
# 5 15.3324 12.5334 21.0336 0.0000 14.2171 0.0000
# 6 0.0000 0.0000 0.0000 5.3656 0.0000 32.6774
#
#
#
# Elastic Compliance Matrix: (Units=1/GPa)
#
#
# Indices 1 2 3 4 5 6 
#
# 1 0.011689 -0.012162 0.000658 0.000000 -0.002858 0.000000
# 2 -0.012162 0.052024 -0.015491 0.000000 -0.009828 0.000000
# 3 0.000658 -0.015491 0.016860 0.000000 -0.011997 0.000000
# 4 0.000000 0.000000 0.000000 0.034111 0.000000 -0.005601
# 5 -0.002858 -0.009828 -0.011997 0.000000 0.099832 0.000000
# 6 0.000000 0.000000 0.000000 -0.005601 0.000000 0.031522
#
#
# Mechanical properties :
#
#
# Convention : Reuss Voigt Hill
#
# Bulk Modulus (GPa) = 37.61869 68.84991 53.23430
# Shear Modulus (GPa) = 16.18706 25.61811 20.90258
#
# Velocity S-wave (km/s) = 2.94726 3.70773 3.34915
# Velocity P-wave (km/s) = 5.63638 7.43479 6.59715
#
# Compressibility (1/GPa) = 0.02658253
#
# Stress axis : x y z
#
# Youngs Moduli (GPa) = 85.55143 19.22190 59.31261
#
# Poissons Ratio (x) = 0.23378 -0.03903
# Poissons Ratio (y) = 1.04047 0.91882
# Poissons Ratio (z) = -0.05630 0.29777
#
# Static dielectric constant tensor:
#      x y z
#    x 3.527110 0.000000 -0.019900 
#    y 0.000000 3.175100 0.000000 
#    z -0.019900 0.000000 3.413800 
# 
# 
# High freq. dielectric constant tensor:
#      x y z
#    x 1.739210 0.000000 -0.001390 
#    y 0.000000 1.703540 0.000000 
#    z -0.001390 0.000000 1.721840 
# 
# From -- ./inp_files/359784.got.cif
#   From: 2010.06.25/outbox.cif.g09.slc.cpg/sg12_180_cif.got.tgz:359784.got - 2010.06.28 00:19:55.
