data_PCOD8083654
_publ_section_title
;
Structure prediction by ZEFSAII (Michael W. Deem and Ramdas Pophale) SiO2 
 PCOD8083654
Probable space group: C 2/M
;
_chemical_formula_sum "Si O2"
_cell_formula_units_Z 48
_cell_length_a 14.589173
_cell_length_b 16.552039
_cell_length_c 10.809372
_cell_angle_alpha 90.000000
_cell_angle_beta 67.946135
_cell_angle_gamma 90.000000
_cell_volume 2419.264294
_symmetry_space_group_name_H-M "C 2/M"
_symmetry_group_IT_number 12
_symmetry_cell_setting 'monoclinic'
loop_
_space_group_symop_operation_xyz
x,y,z
-x,y,-z
-x,-y,-z
x,-y,z
1/2+x,1/2+y,z
1/2-x,1/2+y,-z
1/2-x,1/2-y,-z
1/2+x,1/2-y,z
loop_
_atom_site_type_symbol
_atom_site_label
_atom_site_fract_x
_atom_site_fract_y
_atom_site_fract_z
Si Si1 0.571349 0.166472 0.075295
Si Si2 0.451842 0.176059 0.640758
Si Si3 0.733647 0.591476 0.122022
Si Si4 0.462134 0.642834 0.889718
Si Si5 0.892151 0.201785 0.360591
Si Si6 0.719027 0.289352 0.346517
O O1 0.544394 0.130706 0.226801
O O2 0.567520 0.262860 0.088701
O O3 0.500000 0.135086 0.000000
O O4 0.682342 0.139294 0.993744
O O5 0.500000 0.124158 0.500000
O O6 0.522860 0.253113 0.608233
O O7 0.342151 0.210274 0.667525
O O8 0.768087 0.500000 0.129422
O O9 0.632847 0.590221 0.095203
O O10 0.710007 0.635462 0.261341
O O11 0.552881 0.631534 0.745661
O O12 0.500000 0.609190 0.000000
O O13 0.833436 0.260791 0.295071
O O14 0.814001 0.172991 0.503831
#
# Coordination Sequence:
#
# PCOD8083654 Si02
#       6
#     8   8   8   8   8   8
#     4  10  20  36  59  83 109 139 192 244 289 325
#     4   9  17  31  56  84 106 131 181 245 286 323
#     4  12  24  35  53  82 120 155 182 223 287 352
#     4  10  20  35  58  80 108 145 195 238 275 326
#     4   9  18  32  56  85 106 138 178 245 280 319
#     4  10  18  33  55  82 115 137 188 231 282 327
#
# _framework density 19.840743
#
# number of rings (size 3 to 8) (size 9 to 14) (size 15 to 20)
#    0.000    2.000    3.333    3.500    2.333    0.667 
#    0.000    1.667    0.000    0.500    0.000    0.000 
#    0.000    0.000    0.000    0.000    0.000    0.000 
#
# Total GULP energy -297365.482244 kJ/mol
# GULP energy per Si atom -12390.228427 kJ/mol
# Density = 1.979558 g / cm^3
# Si number density = 19.840743 Si / 1000 Ang^3
#
#
#
# Elastic Constant Matrix: (Units=GPa)
#
#
# Indices 1 2 3 4 5 6 
#
# 1 89.6329 11.9064 37.5996 0.0000 10.7448 0.0000
# 2 11.9064 34.3131 18.2224 0.0000 -0.9588 0.0000
# 3 37.5996 18.2224 150.7722 0.0000 10.8978 0.0000
# 4 0.0000 0.0000 0.0000 3.1917 0.0000 2.1487
# 5 10.7448 -0.9588 10.8978 0.0000 36.6893 0.0000
# 6 0.0000 0.0000 0.0000 2.1487 0.0000 9.7007
#
#
#
# Elastic Compliance Matrix: (Units=1/GPa)
#
#
# Indices 1 2 3 4 5 6 
#
# 1 0.013068 -0.003218 -0.002644 0.000000 -0.003126 0.000000
# 2 -0.003218 0.032075 -0.003273 0.000000 0.002753 0.000000
# 3 -0.002644 -0.003273 0.007805 0.000000 -0.001630 0.000000
# 4 0.000000 0.000000 0.000000 0.368225 0.000000 -0.081563
# 5 -0.003126 0.002753 -0.001630 0.000000 0.028727 0.000000
# 6 0.000000 0.000000 0.000000 -0.081563 0.000000 0.121152
#
#
# Mechanical properties :
#
#
# Convention : Reuss Voigt Hill
#
# Bulk Modulus (GPa) = 28.83629 45.57499 37.20564
# Shear Modulus (GPa) = 8.32110 23.71563 16.01837
#
# Velocity S-wave (km/s) = 2.05013 3.46106 2.84447
# Velocity P-wave (km/s) = 4.49105 6.24437 5.43883
#
# Compressibility (1/GPa) = 0.03467853
#
# Stress axis : x y z
#
# Youngs Moduli (GPa) = 76.52347 31.17683 128.11835
#
# Poissons Ratio (x) = 0.10032 0.33875
# Poissons Ratio (y) = 0.24623 0.41935
# Poissons Ratio (z) = 0.20233 0.10205
#
# Static dielectric constant tensor:
#      x y z
#    x 3.849820 0.000000 0.106420 
#    y 0.000000 2.816540 0.000000 
#    z 0.106420 0.000000 4.305760 
# 
# 
# High freq. dielectric constant tensor:
#      x y z
#    x 1.796390 0.000000 0.003800 
#    y 0.000000 1.681880 0.000000 
#    z 0.003800 0.000000 1.802580 
# 
# From -- ./inp_files/143580.got.cif
#   From: 2010.06.25/outbox.cif.g09.slc.cpg/sg12_72_cif.got.tgz:143580.got - 2010.06.28 00:19:55.
