data_PCOD8083057
_publ_section_title
;
Structure prediction by ZEFSAII (Michael W. Deem and Ramdas Pophale) SiO2 
 PCOD8083057
Probable space group: C 2/M
;
_chemical_formula_sum "Si O2"
_cell_formula_units_Z 64
_cell_length_a 20.753503
_cell_length_b 8.857779
_cell_length_c 21.868245
_cell_angle_alpha 90.000000
_cell_angle_beta 118.232320
_cell_angle_gamma 90.000000
_cell_volume 3541.801422
_symmetry_space_group_name_H-M "C 2/M"
_symmetry_group_IT_number 12
_symmetry_cell_setting 'monoclinic'
loop_
_space_group_symop_operation_xyz
x,y,z
-x,y,-z
-x,-y,-z
x,-y,z
1/2+x,1/2+y,z
1/2-x,1/2+y,-z
1/2-x,1/2-y,-z
1/2+x,1/2-y,z
loop_
_atom_site_type_symbol
_atom_site_label
_atom_site_fract_x
_atom_site_fract_y
_atom_site_fract_z
Si Si1 0.828859 0.678712 0.037440
Si Si2 0.083133 0.678006 0.670788
Si Si3 0.704602 0.676523 0.533272
Si Si4 0.583797 0.178740 0.040981
Si Si5 0.302704 0.679599 0.823007
Si Si6 0.724791 0.322139 0.679348
Si Si7 0.461104 0.322378 0.545193
Si Si8 0.658364 0.823144 0.823875
O O1 0.821418 0.500000 0.030262
O O2 0.863589 0.732494 0.118063
O O3 0.750000 0.750000 0.000000
O O4 0.878683 0.738427 0.004564
O O5 0.090689 0.500000 0.663337
O O6 0.144106 0.760625 0.657681
O O7 0.095370 0.721474 0.747620
O O8 0.002726 0.736278 0.618343
O O9 0.703903 0.500000 0.521664
O O10 0.750000 0.750000 0.500000
O O11 0.740443 0.714538 0.615153
O O12 0.621613 0.737392 0.493444
O O13 0.621520 0.255798 0.116560
O O14 0.590630 0.000000 0.051469
O O15 0.500000 0.230631 0.000000
O O16 0.306899 0.500000 0.821474
O O17 0.287618 0.742234 0.747929
O O18 0.236949 0.741486 0.836752
O O19 0.725517 0.500000 0.692294
O O20 0.500000 0.275893 0.500000
O O21 0.466161 0.500000 0.559034
O O22 0.669615 0.000000 0.830179
#
# Coordination Sequence:
#
# PCOD8083057 Si02
#       8
#     8   8   8   8   8   8   8   8
#     4  10  18  32  53  75 102 136 175 221 264 313
#     4  10  19  31  51  82 111 138 178 229 276 322
#     4  10  22  38  57  80 110 147 182 224 272 325
#     4  10  21  35  52  78 110 146 184 219 267 329
#     4  10  19  33  54  80 107 137 179 229 273 318
#     4  10  19  35  56  79 108 145 183 219 270 329
#     4  10  19  36  56  77 108 143 180 223 274 323
#     4   8  16  30  48  74 106 133 167 218 271 311
#
# _framework density 18.069898999999999
#
# number of rings (size 3 to 8) (size 9 to 14) (size 15 to 20)
#    0.000    2.250    2.500    1.875    0.000    2.000 
#    0.000    1.875    0.000    3.000    0.000    0.000 
#    0.000    0.000    0.000    0.000    0.000    0.000 
#
# Total GULP energy -396720.189858 kJ/mol
# GULP energy per Si atom -12397.505933 kJ/mol
# Density = 1.802877 g / cm^3
# Si number density = 18.069899 Si / 1000 Ang^3
#
#
#
# Elastic Constant Matrix: (Units=GPa)
#
#
# Indices 1 2 3 4 5 6 
#
# 1 114.4202 33.3084 77.9740 0.0000 1.0468 0.0000
# 2 33.3084 48.8014 48.5876 0.0000 2.6084 0.0000
# 3 77.9740 48.5876 169.1452 0.0000 6.9000 0.0000
# 4 0.0000 0.0000 0.0000 30.6922 0.0000 3.3581
# 5 1.0468 2.6084 6.9000 0.0000 30.6099 0.0000
# 6 0.0000 0.0000 0.0000 3.3581 0.0000 23.6656
#
#
#
# Elastic Compliance Matrix: (Units=1/GPa)
#
#
# Indices 1 2 3 4 5 6 
#
# 1 0.013355 -0.004200 -0.004992 0.000000 0.001026 0.000000
# 2 -0.004200 0.030030 -0.006653 0.000000 -0.000916 0.000000
# 3 -0.004992 -0.006653 0.010188 0.000000 -0.001559 0.000000
# 4 0.000000 0.000000 0.000000 0.033095 0.000000 -0.004696
# 5 0.001026 -0.000916 -0.001559 0.000000 0.033063 0.000000
# 6 0.000000 0.000000 0.000000 -0.004696 0.000000 0.042922
#
#
# Mechanical properties :
#
#
# Convention : Reuss Voigt Hill
#
# Bulk Modulus (GPa) = 45.69578 72.45631 59.07604
# Shear Modulus (GPa) = 24.79698 28.49334 26.64516
#
# Velocity S-wave (km/s) = 3.70845 3.97525 3.84417
# Velocity P-wave (km/s) = 6.60909 7.82656 7.24345
#
# Compressibility (1/GPa) = 0.02188386
#
# Stress axis : x y z
#
# Youngs Moduli (GPa) = 74.87995 33.29955 98.15559
#
# Poissons Ratio (x) = 0.13985 0.48997
# Poissons Ratio (y) = 0.31449 0.65302
# Poissons Ratio (z) = 0.37379 0.22154
#
# Static dielectric constant tensor:
#      x y z
#    x 3.508140 0.000000 0.122000 
#    y 0.000000 3.190420 0.000000 
#    z 0.122000 0.000000 3.746850 
# 
# 
# High freq. dielectric constant tensor:
#      x y z
#    x 1.668710 0.000000 -0.000180 
#    y 0.000000 1.690190 0.000000 
#    z -0.000180 0.000000 1.719390 
# 
# From -- ./inp_files/319995.got.cif
#   From: 2010.06.25/outbox.cif.g09.slc.cpg/sg12_160_cif.got.tgz:319995.got - 2010.06.28 00:19:55.
