data_PCOD8083444
_publ_section_title
;
Structure prediction by ZEFSAII (Michael W. Deem and Ramdas Pophale) SiO2 
 PCOD8083444
Probable space group: C 2/M
;
_chemical_formula_sum "Si O2"
_cell_formula_units_Z 64
_cell_length_a 28.983296
_cell_length_b 9.009716
_cell_length_c 12.950053
_cell_angle_alpha 90.000000
_cell_angle_beta 79.374423
_cell_angle_gamma 90.000000
_cell_volume 3323.678799
_symmetry_space_group_name_H-M "C 2/M"
_symmetry_group_IT_number 12
_symmetry_cell_setting 'monoclinic'
loop_
_space_group_symop_operation_xyz
x,y,z
-x,y,-z
-x,-y,-z
x,-y,z
1/2+x,1/2+y,z
1/2-x,1/2+y,-z
1/2-x,1/2-y,-z
1/2+x,1/2-y,z
loop_
_atom_site_type_symbol
_atom_site_label
_atom_site_fract_x
_atom_site_fract_y
_atom_site_fract_z
Si Si1 0.709385 0.174441 0.952899
Si Si2 0.202220 0.673402 0.550834
Si Si3 0.924944 0.166159 0.119044
Si Si4 0.893386 0.673923 0.508589
Si Si5 0.566528 0.826307 0.296341
Si Si6 0.539967 0.173644 0.698986
Si Si7 0.681519 0.667043 0.767686
Si Si8 0.895206 0.673964 0.935000
O O1 0.659645 0.209177 0.027023
O O2 0.718386 0.000000 0.939318
O O3 0.750000 0.250000 0.000000
O O4 0.712514 0.248255 0.839276
O O5 0.211195 0.500000 0.560407
O O6 0.250000 0.750000 0.500000
O O7 0.161999 0.705603 0.482257
O O8 0.183747 0.739007 0.664000
O O9 0.955686 0.248503 0.192182
O O10 0.871709 0.163224 0.176597
O O11 0.944594 0.000000 0.097189
O O12 0.927753 0.249118 0.008091
O O13 0.904516 0.500000 0.505665
O O14 0.909716 0.745322 0.610923
O O15 0.923155 0.739903 0.399859
O O16 0.511450 0.792605 0.323895
O O17 0.589828 0.760179 0.182657
O O18 0.576951 0.000000 0.291732
O O19 0.548613 0.000000 0.714120
O O20 0.701251 0.500000 0.743701
O O21 0.905571 0.500000 0.939158
#
# Coordination Sequence:
#
# PCOD8083444 Si02
#       8
#     8   8   8   8   8   8   8   8
#     4  10  20  34  55  81 109 144 187 232 282 341
#     4  11  22  36  56  84 115 146 184 229 281 338
#     4  10  20  34  55  79 108 145 183 228 278 330
#     4   9  18  33  55  83 113 144 182 231 278 326
#     4   9  18  33  55  83 111 142 183 230 279 331
#     4  10  18  32  58  85 108 140 186 231 275 333
#     4  10  20  36  56  77 105 143 186 233 279 327
#     4   9  19  35  54  78 110 146 185 230 279 331
#
# _framework density 19.255770999999999
#
# number of rings (size 3 to 8) (size 9 to 14) (size 15 to 20)
#    0.000    2.250    1.250    1.875    0.000    4.500 
#    0.000    5.625    0.000    5.250    0.000    0.000 
#    0.000    0.000    0.000    0.000    0.000    0.000 
#
# Total GULP energy -396793.902279 kJ/mol
# GULP energy per Si atom -12399.809446 kJ/mol
# Density = 1.921194 g / cm^3
# Si number density = 19.255771 Si / 1000 Ang^3
#
#
#
# Elastic Constant Matrix: (Units=GPa)
#
#
# Indices 1 2 3 4 5 6 
#
# 1 69.3424 42.9840 50.3441 0.0000 14.5998 0.0000
# 2 42.9840 85.5937 46.1773 0.0000 12.2313 0.0000
# 3 50.3441 46.1773 145.3878 0.0000 19.4409 0.0000
# 4 0.0000 0.0000 0.0000 22.3277 0.0000 2.0287
# 5 14.5998 12.2313 19.4409 0.0000 33.5880 0.0000
# 6 0.0000 0.0000 0.0000 2.0287 0.0000 22.5651
#
#
#
# Elastic Compliance Matrix: (Units=1/GPa)
#
#
# Indices 1 2 3 4 5 6 
#
# 1 0.024618 -0.008986 -0.005070 0.000000 -0.004494 0.000000
# 2 -0.008986 0.017618 -0.002329 0.000000 -0.001162 0.000000
# 3 -0.005070 -0.002329 0.009717 0.000000 -0.002573 0.000000
# 4 0.000000 0.000000 0.000000 0.045156 0.000000 -0.004060
# 5 -0.004494 -0.001162 -0.002573 0.000000 0.033638 0.000000
# 6 0.000000 0.000000 0.000000 -0.004060 0.000000 0.044681
#
#
# Mechanical properties :
#
#
# Convention : Reuss Voigt Hill
#
# Bulk Modulus (GPa) = 52.12362 64.37052 58.24707
# Shear Modulus (GPa) = 23.29992 26.41737 24.85865
#
# Velocity S-wave (km/s) = 3.48231 3.70796 3.59691
# Velocity P-wave (km/s) = 6.58001 7.19957 6.89675
#
# Compressibility (1/GPa) = 0.01918516
#
# Stress axis : x y z
#
# Youngs Moduli (GPa) = 40.62039 56.76009 102.90836
#
# Poissons Ratio (x) = 0.51002 0.52172
# Poissons Ratio (y) = 0.36500 0.23966
# Poissons Ratio (z) = 0.20593 0.13219
#
# Static dielectric constant tensor:
#      x y z
#    x 3.881870 0.000000 -0.530130 
#    y 0.000000 3.340520 0.000000 
#    z -0.530130 0.000000 4.632370 
# 
# 
# High freq. dielectric constant tensor:
#      x y z
#    x 1.747530 0.000000 0.007870 
#    y 0.000000 1.724970 0.000000 
#    z 0.007870 0.000000 1.760030 
# 
# From -- ./inp_files/187584.got.cif
#   From: 2010.06.25/outbox.cif.g09.slc.cpg/sg12_94_cif.got.tgz:187584.got - 2010.06.28 00:19:55.
