data_PCOD8083880
_publ_section_title
;
Structure prediction by ZEFSAII (Michael W. Deem and Ramdas Pophale) SiO2 
 PCOD8083880
Probable space group: C 2/M
;
_chemical_formula_sum "Si O2"
_cell_formula_units_Z 36
_cell_length_a 22.768130
_cell_length_b 12.915257
_cell_length_c 7.601329
_cell_angle_alpha 90.000000
_cell_angle_beta 139.447988
_cell_angle_gamma 90.000000
_cell_volume 1453.200497
_symmetry_space_group_name_H-M "C 2/M"
_symmetry_group_IT_number 12
_symmetry_cell_setting 'monoclinic'
loop_
_space_group_symop_operation_xyz
x,y,z
-x,y,-z
-x,-y,-z
x,-y,z
1/2+x,1/2+y,z
1/2-x,1/2+y,-z
1/2-x,1/2-y,-z
1/2+x,1/2-y,z
loop_
_atom_site_type_symbol
_atom_site_label
_atom_site_fract_x
_atom_site_fract_y
_atom_site_fract_z
Si Si1 0.929731 0.780793 0.185081
Si Si2 0.249021 0.680852 0.256472
Si Si3 0.373605 0.500000 0.528535
Si Si4 0.581061 0.500000 0.957781
Si Si5 0.000000 0.682472 0.000000
Si Si6 0.190508 0.613939 0.498693
O O1 0.000000 0.776588 0.500000
O O2 0.882649 0.894448 0.053379
O O3 0.853371 0.692461 0.049825
O O4 0.982156 0.758941 0.122680
O O5 0.315560 0.597442 0.319347
O O6 0.246119 0.644906 0.452108
O O7 0.293408 0.793972 0.325911
O O8 0.472881 0.500000 0.672281
O O9 0.387663 0.500000 0.770008
O O10 0.916032 0.606636 0.779356
O O11 0.224058 0.500000 0.639047
#
# Coordination Sequence:
#
# PCOD8083880 Si02
#       6
#     8   8   4   4   4   8
#     4  11  24  42  64  94 132 168 217 264 318 385
#     4  10  21  34  61  93 128 167 210 265 321 371
#     4  11  20  40  67  99 130 167 218 265 321 389
#     4  11  21  36  66  95 129 170 215 267 320 379
#     4  10  21  39  62  92 120 175 206 257 324 378
#     4  10  18  33  59  92 124 159 216 259 311 384
#
# _framework density 24.772905999999999
#
# number of rings (size 3 to 8) (size 9 to 14) (size 15 to 20)
#    0.000    1.556    1.111    7.333    1.556    0.000 
#    0.000    5.000    0.000    0.000    0.000    0.000 
#    0.000    0.000    0.000    0.000    0.000    0.000 
#
# Total GULP energy -223078.954635 kJ/mol
# GULP energy per Si atom -12393.275258 kJ/mol
# Density = 2.471652 g / cm^3
# Si number density = 24.772906 Si / 1000 Ang^3
#
#
#
# Elastic Constant Matrix: (Units=GPa)
#
#
# Indices 1 2 3 4 5 6 
#
# 1 41.2128 16.3864 14.2569 0.0000 9.5066 0.0000
# 2 16.3864 195.1390 43.0280 0.0000 8.6238 0.0000
# 3 14.2569 43.0280 75.3613 0.0000 -7.8232 0.0000
# 4 0.0000 0.0000 0.0000 44.9400 0.0000 13.0459
# 5 9.5066 8.6238 -7.8232 0.0000 29.9116 0.0000
# 6 0.0000 0.0000 0.0000 13.0459 0.0000 10.7711
#
#
#
# Elastic Compliance Matrix: (Units=1/GPa)
#
#
# Indices 1 2 3 4 5 6 
#
# 1 0.029153 -0.000585 -0.006297 0.000000 -0.010744 0.000000
# 2 -0.000585 0.006084 -0.003624 0.000000 -0.002516 0.000000
# 3 -0.006297 -0.003624 0.017316 0.000000 0.007575 0.000000
# 4 0.000000 0.000000 0.000000 0.034318 0.000000 -0.041566
# 5 -0.010744 -0.002516 0.007575 0.000000 0.039553 0.000000
# 6 0.000000 0.000000 0.000000 -0.041566 0.000000 0.143185
#
#
# Mechanical properties :
#
#
# Convention : Reuss Voigt Hill
#
# Bulk Modulus (GPa) = 31.70364 51.00617 41.35491
# Shear Modulus (GPa) = 16.60384 32.99401 24.79892
#
# Velocity S-wave (km/s) = 2.59171 3.65342 3.16737
# Velocity P-wave (km/s) = 4.66706 6.19926 5.48691
#
# Compressibility (1/GPa) = 0.03154212
#
# Stress axis : x y z
#
# Youngs Moduli (GPa) = 34.30142 164.36549 57.74929
#
# Poissons Ratio (x) = 0.09614 0.36362
# Poissons Ratio (y) = 0.02006 0.20930
# Poissons Ratio (z) = 0.21598 0.59570
#
# Static dielectric constant tensor:
#      x y z
#    x 4.150310 0.000000 0.506550 
#    y 0.000000 4.746920 0.000000 
#    z 0.506550 0.000000 4.428700 
# 
# 
# High freq. dielectric constant tensor:
#      x y z
#    x 1.950740 0.000000 0.040970 
#    y 0.000000 1.991610 0.000000 
#    z 0.040970 0.000000 1.992420 
# 
# From -- ./inp_files/105125.got.cif
#   From: 2010.06.25/outbox.cif.g09.slc.cpg/sg12_53_cif.got.tgz:105125.got - 2010.06.28 00:19:55.
