data_PCOD8083427
_publ_section_title
;
Structure prediction by ZEFSAII (Michael W. Deem and Ramdas Pophale) SiO2 
 PCOD8083427
Probable space group: C 2/M
;
_chemical_formula_sum "Si O2"
_cell_formula_units_Z 64
_cell_length_a 31.435353
_cell_length_b 14.440194
_cell_length_c 21.835162
_cell_angle_alpha 90.000000
_cell_angle_beta 162.771083
_cell_angle_gamma 90.000000
_cell_volume 2935.745355
_symmetry_space_group_name_H-M "C 2/M"
_symmetry_group_IT_number 12
_symmetry_cell_setting 'monoclinic'
loop_
_space_group_symop_operation_xyz
x,y,z
-x,y,-z
-x,-y,-z
x,-y,z
1/2+x,1/2+y,z
1/2-x,1/2+y,-z
1/2-x,1/2-y,-z
1/2+x,1/2-y,z
loop_
_atom_site_type_symbol
_atom_site_label
_atom_site_fract_x
_atom_site_fract_y
_atom_site_fract_z
Si Si1 0.117343 0.890396 0.613017
Si Si2 0.058620 0.605416 0.755186
Si Si3 0.522567 0.607554 0.121429
Si Si4 0.270865 0.397960 0.941190
Si Si5 0.423290 0.394645 0.580405
Si Si6 0.735539 0.610077 0.312278
Si Si7 0.625967 0.288026 0.371458
Si Si8 0.158330 0.293573 0.003405
O O1 0.095786 0.853384 0.514220
O O2 0.000000 0.850671 0.500000
O O3 0.110063 0.000000 0.602378
O O4 0.271449 0.856669 0.848226
O O5 0.052011 0.500000 0.770462
O O6 0.169339 0.661608 0.950929
O O7 0.897776 0.650567 0.531432
O O8 0.124311 0.609009 0.777863
O O9 0.518413 0.500000 0.103469
O O10 0.660275 0.645595 0.271868
O O11 0.544013 0.629554 0.222027
O O12 0.369165 0.647410 0.886242
O O13 0.273794 0.500000 0.911928
O O14 0.407752 0.389382 0.173991
O O15 0.274761 0.310494 0.900827
O O16 0.365332 0.500000 0.504615
O O17 0.334426 0.331749 0.507632
O O18 0.748642 0.500000 0.327067
O O19 0.750000 0.250000 0.500000
O O20 0.512519 0.204772 0.219697
#
# Coordination Sequence:
#
# PCOD8083427 Si02
#       8
#     8   8   8   8   8   8   8   8
#     4  10  21  41  67  95 126 163 209 261 320 381
#     4  10  18  32  57  88 121 154 194 255 315 366
#     4   9  17  35  56  77 109 154 204 247 298 368
#     4   9  19  36  60  88 120 160 202 247 305 374
#     4   9  19  39  65  87 117 165 212 256 309 376
#     4   8  16  31  55  84 110 146 197 249 306 366
#     4  11  23  39  56  86 120 158 207 256 317 369
#     4  11  22  37  56  91 121 159 207 253 308 371
#
# _framework density 21.800256000000001
#
# number of rings (size 3 to 8) (size 9 to 14) (size 15 to 20)
#    0.000    2.375    0.000    3.375    0.000    3.500 
#   11.250    1.875    0.000    1.875    0.000    0.000 
#    0.000    0.000    0.000    0.000    0.000    0.000 
#
# Total GULP energy -396556.610263 kJ/mol
# GULP energy per Si atom -12392.394071 kJ/mol
# Density = 2.175064 g / cm^3
# Si number density = 21.800256 Si / 1000 Ang^3
#
#
#
# Elastic Constant Matrix: (Units=GPa)
#
#
# Indices 1 2 3 4 5 6 
#
# 1 125.6777 29.2733 40.1244 0.0000 -8.2201 -0.0001
# 2 29.2733 35.1382 13.6227 -0.0001 5.6056 -0.0001
# 3 40.1244 13.6227 72.3885 0.0003 2.6606 0.0003
# 4 0.0000 -0.0001 0.0003 23.6338 0.0002 2.3420
# 5 -8.2201 5.6056 2.6606 0.0002 35.6190 0.0001
# 6 -0.0001 -0.0001 0.0003 2.3420 0.0001 32.1041
#
#
#
# Elastic Compliance Matrix: (Units=1/GPa)
#
#
# Indices 1 2 3 4 5 6 
#
# 1 0.011903 -0.008642 -0.005137 0.000000 0.004491 0.000000
# 2 -0.008642 0.037680 -0.002015 0.000000 -0.007774 0.000000
# 3 -0.005137 -0.002015 0.017120 0.000000 -0.002147 0.000000
# 4 0.000000 0.000000 0.000000 0.042620 0.000000 -0.003109
# 5 0.004491 -0.007774 -0.002147 0.000000 0.030495 0.000000
# 6 0.000000 0.000000 0.000000 -0.003109 0.000000 0.031375
#
#
# Mechanical properties :
#
#
# Convention : Reuss Voigt Hill
#
# Bulk Modulus (GPa) = 28.47727 44.36058 36.41893
# Shear Modulus (GPa) = 23.31156 28.28365 25.79760
#
# Velocity S-wave (km/s) = 3.27360 3.60585 3.44374
# Velocity P-wave (km/s) = 5.23257 6.14240 5.70565
#
# Compressibility (1/GPa) = 0.03511572
#
# Stress axis : x y z
#
# Youngs Moduli (GPa) = 84.00961 26.53957 58.41194
#
# Poissons Ratio (x) = 0.22934 0.30005
# Poissons Ratio (y) = 0.72597 0.11771
# Poissons Ratio (z) = 0.43154 0.05348
#
# Static dielectric constant tensor:
#      x y z
#    x 3.996570 0.000000 0.046930 
#    y 0.000000 3.956000 0.000000 
#    z 0.046930 0.000000 3.903560 
# 
# 
# High freq. dielectric constant tensor:
#      x y z
#    x 1.854230 0.000000 0.005290 
#    y 0.000000 1.847380 0.000000 
#    z 0.005290 0.000000 1.842740 
# 
# From -- ./inp_files/330400.got.cif
#   From: 2010.06.25/outbox.cif.g09.slc.cpg/sg12_166_cif.got.tgz:330400.got - 2010.06.28 00:19:55.
