data_PCOD8083540
_publ_section_title
;
Structure prediction by ZEFSAII (Michael W. Deem and Ramdas Pophale) SiO2 
 PCOD8083540
Probable space group: C 2/M
;
_chemical_formula_sum "Si O2"
_cell_formula_units_Z 56
_cell_length_a 20.388545
_cell_length_b 15.330842
_cell_length_c 13.952535
_cell_angle_alpha 90.000000
_cell_angle_beta 36.567858
_cell_angle_gamma 90.000000
_cell_volume 2598.287538
_symmetry_space_group_name_H-M "C 2/M"
_symmetry_group_IT_number 12
_symmetry_cell_setting 'monoclinic'
loop_
_space_group_symop_operation_xyz
x,y,z
-x,y,-z
-x,-y,-z
x,-y,z
1/2+x,1/2+y,z
1/2-x,1/2+y,-z
1/2-x,1/2-y,-z
1/2+x,1/2-y,z
loop_
_atom_site_type_symbol
_atom_site_label
_atom_site_fract_x
_atom_site_fract_y
_atom_site_fract_z
Si Si1 0.839820 0.902267 0.783440
Si Si2 0.472810 0.342784 0.798865
Si Si3 0.890736 0.832712 0.091086
Si Si4 0.124528 0.338356 0.143376
Si Si5 0.184514 0.096567 0.631580
Si Si6 0.095923 0.598362 0.538097
Si Si7 0.830483 0.730353 0.703012
O O1 0.933331 0.899424 0.755350
O O2 0.871902 0.830947 0.663610
O O3 0.838702 0.000000 0.741140
O O4 0.719523 0.879756 0.967105
O O5 0.431995 0.243925 0.840574
O O6 0.606983 0.344297 0.653229
O O7 0.418105 0.382648 0.959486
O O8 0.857453 0.904247 0.208958
O O9 0.791843 0.764221 0.196422
O O10 0.000000 0.781301 0.000000
O O11 0.178529 0.310907 0.180674
O O12 0.025534 0.406605 0.274408
O O13 0.313359 0.125825 0.487316
O O14 0.175389 0.000000 0.599769
O O15 0.123819 0.500000 0.467123
O O16 0.092687 0.670691 0.455872
#
# Coordination Sequence:
#
# PCOD8083540 Si02
#       7
#     8   8   8   8   8   8   8
#     4  11  21  33  57  84 110 147 183 228 278 319
#     4  10  18  33  52  78 111 145 182 228 274 322
#     4   9  16  29  51  74 103 143 175 222 271 317
#     4  11  20  34  54  81 117 143 177 224 279 336
#     4   9  19  32  50  80 111 141 184 229 268 328
#     4  10  22  37  56  84 114 146 180 223 280 333
#     4  10  19  37  51  79 113 144 186 225 266 328
#
# _framework density 21.552657
#
# number of rings (size 3 to 8) (size 9 to 14) (size 15 to 20)
#    0.000    2.000    2.857    2.143    0.000    5.429 
#    0.000    0.000    0.000    8.143    0.000    0.000 
#    0.000    0.000    0.000    0.000    0.000    0.000 
#
# Total GULP energy -346878.316104 kJ/mol
# GULP energy per Si atom -12388.511289 kJ/mol
# Density = 2.150360 g / cm^3
# Si number density = 21.552657 Si / 1000 Ang^3
#
#
#
# Elastic Constant Matrix: (Units=GPa)
#
#
# Indices 1 2 3 4 5 6 
#
# 1 114.4917 38.0242 31.2791 0.0000 -30.2847 0.0000
# 2 38.0242 117.4829 22.7969 0.0000 -10.6569 0.0000
# 3 31.2791 22.7969 54.9321 0.0000 -12.9463 0.0000
# 4 0.0000 0.0000 0.0000 20.1111 0.0000 -1.7370
# 5 -30.2847 -10.6569 -12.9463 0.0000 19.6694 0.0000
# 6 0.0000 0.0000 0.0000 -1.7370 0.0000 24.0338
#
#
#
# Elastic Compliance Matrix: (Units=1/GPa)
#
#
# Indices 1 2 3 4 5 6 
#
# 1 0.016097 -0.002688 -0.003021 0.000000 0.021339 0.000000
# 2 -0.002688 0.009852 -0.002693 0.000000 -0.000573 0.000000
# 3 -0.003021 -0.002693 0.023201 0.000000 0.009160 0.000000
# 4 0.000000 0.000000 0.000000 0.050036 0.000000 0.003616
# 5 0.021339 -0.000573 0.009160 0.000000 0.089415 0.000000
# 6 0.000000 0.000000 0.000000 0.003616 0.000000 0.041869
#
#
# Mechanical properties :
#
#
# Convention : Reuss Voigt Hill
#
# Bulk Modulus (GPa) = 30.91600 52.34523 41.63062
# Shear Modulus (GPa) = 19.37554 25.74997 22.56275
#
# Velocity S-wave (km/s) = 3.00156 3.46026 3.23904
# Velocity P-wave (km/s) = 5.13693 6.34857 5.77462
#
# Compressibility (1/GPa) = 0.03234571
#
# Stress axis : x y z
#
# Youngs Moduli (GPa) = 62.12379 101.49727 43.10143
#
# Poissons Ratio (x) = 0.27282 0.13021
# Poissons Ratio (y) = 0.16699 0.11609
# Poissons Ratio (z) = 0.18768 0.27337
#
# Static dielectric constant tensor:
#      x y z
#    x 4.160860 0.000000 -0.312760 
#    y 0.000000 3.656190 0.000000 
#    z -0.312760 0.000000 3.829440 
# 
# 
# High freq. dielectric constant tensor:
#      x y z
#    x 1.854400 0.000000 -0.032730 
#    y 0.000000 1.814140 0.000000 
#    z -0.032730 0.000000 1.830270 
# 
# From -- ./inp_files/233661.got.cif
#   From: 2010.06.25/outbox.cif.g09.slc.cpg/sg12_117_cif.got.tgz:233661.got - 2010.06.28 00:19:55.
