data_PCOD8083714
_publ_section_title
;
Structure prediction by ZEFSAII (Michael W. Deem and Ramdas Pophale) SiO2 
 PCOD8083714
Probable space group: C 2/M
;
_chemical_formula_sum "Si O2"
_cell_formula_units_Z 48
_cell_length_a 25.183078
_cell_length_b 13.016014
_cell_length_c 19.975974
_cell_angle_alpha 90.000000
_cell_angle_beta 22.208775
_cell_angle_gamma 90.000000
_cell_volume 2474.950795
_symmetry_space_group_name_H-M "C 2/M"
_symmetry_group_IT_number 12
_symmetry_cell_setting 'monoclinic'
loop_
_space_group_symop_operation_xyz
x,y,z
-x,y,-z
-x,-y,-z
x,-y,z
1/2+x,1/2+y,z
1/2-x,1/2+y,-z
1/2-x,1/2-y,-z
1/2+x,1/2-y,z
loop_
_atom_site_type_symbol
_atom_site_label
_atom_site_fract_x
_atom_site_fract_y
_atom_site_fract_z
Si Si1 0.348801 0.716643 0.211644
Si Si2 0.296764 0.691717 0.040605
Si Si3 0.413253 0.617746 0.269997
Si Si4 0.646109 0.381433 0.168609
Si Si5 0.346556 0.116034 0.667692
Si Si6 0.323844 0.383105 0.516863
O O1 0.345325 0.634424 0.276473
O O2 0.236401 0.683603 0.288404
O O3 0.297162 0.823720 0.302428
O O4 0.500000 0.727186 0.000000
O O5 0.224374 0.804826 0.128959
O O6 0.227843 0.615991 0.174135
O O7 0.460542 0.699389 0.868970
O O8 0.277933 0.637497 0.990990
O O9 0.468941 0.500000 0.210030
O O10 0.306744 0.636339 0.456543
O O11 0.667118 0.500000 0.166340
O O12 0.481573 0.352180 0.355666
O O13 0.500000 0.164095 0.500000
O O14 0.355515 0.000000 0.630002
O O15 0.295995 0.500000 0.567768
#
# Coordination Sequence:
#
# PCOD8083714 Si02
#       6
#     8   8   8   8   8   8
#     4  12  23  36  59  89 119 154 190 240 291 352
#     4  10  18  33  56  83 113 149 190 239 290 345
#     4  10  20  37  61  85 114 152 196 243 289 342
#     4   9  18  34  59  83 109 150 199 242 282 339
#     4  11  23  37  55  83 120 153 188 238 295 348
#     4   9  20  39  59  81 113 156 200 240 286 338
#
# _framework density 19.394324999999998
#
# number of rings (size 3 to 8) (size 9 to 14) (size 15 to 20)
#    0.000    1.833    1.667    4.500    0.000    1.000 
#    0.000    1.667    0.000    9.000    0.000    0.000 
#    0.000    0.000    0.000    0.000    0.000    0.000 
#
# Total GULP energy -297516.190235 kJ/mol
# GULP energy per Si atom -12396.507926 kJ/mol
# Density = 1.935018 g / cm^3
# Si number density = 19.394325 Si / 1000 Ang^3
#
#
#
# Elastic Constant Matrix: (Units=GPa)
#
#
# Indices 1 2 3 4 5 6 
#
# 1 100.8385 42.0442 57.7605 0.0002 -1.7013 -0.0002
# 2 42.0442 93.5029 49.2967 0.0001 -2.7110 -0.0001
# 3 57.7605 49.2967 103.1898 0.0004 4.2735 -0.0003
# 4 0.0002 0.0001 0.0004 31.6093 -0.0003 -2.3881
# 5 -1.7013 -2.7110 4.2735 -0.0003 25.6713 0.0003
# 6 -0.0002 -0.0001 -0.0003 -2.3881 0.0003 33.6187
#
#
#
# Elastic Compliance Matrix: (Units=1/GPa)
#
#
# Indices 1 2 3 4 5 6 
#
# 1 0.015352 -0.003042 -0.007219 0.000000 0.001898 0.000000
# 2 -0.003042 0.015082 -0.005598 0.000000 0.002323 0.000000
# 3 -0.007219 -0.005598 0.016564 0.000000 -0.003827 0.000000
# 4 0.000000 0.000000 0.000000 0.031807 0.000000 0.002259
# 5 0.001898 0.002323 -0.003827 0.000000 0.039962 0.000000
# 6 0.000000 0.000000 0.000000 0.002259 0.000000 0.029906
#
#
# Mechanical properties :
#
#
# Convention : Reuss Voigt Hill
#
# Bulk Modulus (GPa) = 65.44502 66.19268 65.81885
# Shear Modulus (GPa) = 26.95639 28.07520 27.51579
#
# Velocity S-wave (km/s) = 3.73220 3.80886 3.77072
# Velocity P-wave (km/s) = 7.23810 7.31760 7.27796
#
# Compressibility (1/GPa) = 0.01528000
#
# Stress axis : x y z
#
# Youngs Moduli (GPa) = 65.13727 66.30543 60.37061
#
# Poissons Ratio (x) = 0.20173 0.43579
# Poissons Ratio (y) = 0.19818 0.33796
# Poissons Ratio (z) = 0.47020 0.37119
#
# Static dielectric constant tensor:
#      x y z
#    x 3.626100 0.000000 0.057870 
#    y 0.000000 3.437070 0.000000 
#    z 0.057870 0.000000 3.516070 
# 
# 
# High freq. dielectric constant tensor:
#      x y z
#    x 1.751130 0.000000 0.006550 
#    y 0.000000 1.745780 0.000000 
#    z 0.006550 0.000000 1.751710 
# 
# From -- ./inp_files/327961.got.cif
#   From: 2010.06.25/outbox.cif.g09.slc.cpg/sg12_164_cif.got.tgz:327961.got - 2010.06.28 00:19:55.
