data_PCOD8083725
_publ_section_title
;
Structure prediction by ZEFSAII (Michael W. Deem and Ramdas Pophale) SiO2 
 PCOD8083725
Probable space group: C 2/M
;
_chemical_formula_sum "Si O2"
_cell_formula_units_Z 64
_cell_length_a 12.515406
_cell_length_b 24.723046
_cell_length_c 14.983567
_cell_angle_alpha 90.000000
_cell_angle_beta 45.270338
_cell_angle_gamma 90.000000
_cell_volume 3293.719601
_symmetry_space_group_name_H-M "C 2/M"
_symmetry_group_IT_number 12
_symmetry_cell_setting 'monoclinic'
loop_
_space_group_symop_operation_xyz
x,y,z
-x,y,-z
-x,-y,-z
x,-y,z
1/2+x,1/2+y,z
1/2-x,1/2+y,-z
1/2-x,1/2-y,-z
1/2+x,1/2-y,z
loop_
_atom_site_type_symbol
_atom_site_label
_atom_site_fract_x
_atom_site_fract_y
_atom_site_fract_z
Si Si1 0.088660 0.839438 0.540408
Si Si2 0.355051 0.102016 0.638050
Si Si3 0.978505 0.558015 0.300173
Si Si4 0.099504 0.667827 0.724410
Si Si5 0.324217 0.559013 0.420808
Si Si6 0.657527 0.796791 0.874577
Si Si7 0.106549 0.174708 0.859467
Si Si8 0.459644 0.717780 0.776333
O O1 0.268333 0.829781 0.426557
O O2 0.059375 0.896036 0.610560
O O3 0.000000 0.838907 0.500000
O O4 0.032750 0.790994 0.636163
O O5 0.500000 0.127884 0.500000
O O6 0.418779 0.059399 0.671684
O O7 0.239932 0.073504 0.638866
O O8 0.264908 0.145213 0.750573
O O9 0.016858 0.500000 0.229187
O O10 0.996735 0.611905 0.228014
O O11 0.806078 0.555676 0.429830
O O12 0.190259 0.670283 0.764694
O O13 0.985391 0.718906 0.785126
O O14 0.403944 0.500000 0.367034
O O15 0.650263 0.733537 0.864164
O O16 0.786578 0.801761 0.872827
O O17 0.500000 0.820879 0.000000
O O18 0.023046 0.177648 0.813733
O O19 0.000000 0.148035 0.000000
#
# Coordination Sequence:
#
# PCOD8083725 Si02
#       8
#     8   8   8   8   8   8   8   8
#     4  11  20  35  55  82 119 149 185 234 290 335
#     4  10  18  33  56  86 117 149 191 238 291 333
#     4   9  18  32  54  82 113 147 191 239 281 337
#     4  10  21  35  55  84 113 151 189 227 292 341
#     4   9  18  32  52  81 113 150 192 235 284 340
#     4  10  22  38  56  80 111 152 194 231 276 342
#     4  10  22  37  57  85 117 157 192 229 285 348
#     4  11  21  38  56  82 120 148 184 236 284 341
#
# _framework density 19.430918999999999
#
# number of rings (size 3 to 8) (size 9 to 14) (size 15 to 20)
#    0.000    2.000    2.500    1.500    0.000    7.250 
#    4.500    0.000    0.000    1.875    0.000    0.000 
#    0.000    0.000    0.000    0.000    0.000    0.000 
#
# Total GULP energy -396465.815891 kJ/mol
# GULP energy per Si atom -12389.556747 kJ/mol
# Density = 1.938669 g / cm^3
# Si number density = 19.430919 Si / 1000 Ang^3
#
#
#
# Elastic Constant Matrix: (Units=GPa)
#
#
# Indices 1 2 3 4 5 6 
#
# 1 94.8766 25.6195 10.7867 -0.0001 -0.6788 0.0001
# 2 25.6195 90.8488 26.7376 0.0000 3.2512 0.0000
# 3 10.7867 26.7376 77.6305 -0.0002 -7.4996 0.0001
# 4 -0.0001 0.0000 -0.0002 12.1590 0.0001 3.2569
# 5 -0.6788 3.2512 -7.4996 0.0001 21.5688 -0.0001
# 6 0.0001 0.0000 0.0001 3.2569 -0.0001 17.0704
#
#
#
# Elastic Compliance Matrix: (Units=1/GPa)
#
#
# Indices 1 2 3 4 5 6 
#
# 1 0.011438 -0.003117 -0.000451 0.000000 0.000673 0.000000
# 2 -0.003117 0.013348 -0.004520 0.000000 -0.003682 0.000000
# 3 -0.000451 -0.004520 0.015072 0.000000 0.005908 0.000000
# 4 0.000000 0.000000 0.000000 0.086673 0.000000 -0.016536
# 5 0.000673 -0.003682 0.005908 0.000000 0.048993 0.000000
# 6 0.000000 0.000000 0.000000 -0.016536 0.000000 0.061736
#
#
# Mechanical properties :
#
#
# Convention : Reuss Voigt Hill
#
# Bulk Modulus (GPa) = 42.22542 43.29373 42.75958
# Shear Modulus (GPa) = 19.13293 23.50712 21.32002
#
# Velocity S-wave (km/s) = 3.14134 3.48196 3.31603
# Velocity P-wave (km/s) = 5.91063 6.20440 6.05930
#
# Compressibility (1/GPa) = 0.02368241
#
# Stress axis : x y z
#
# Youngs Moduli (GPa) = 87.43002 74.91580 66.34952
#
# Poissons Ratio (x) = 0.23350 0.02990
# Poissons Ratio (y) = 0.27251 0.29990
# Poissons Ratio (z) = 0.03941 0.33862
#
# Static dielectric constant tensor:
#      x y z
#    x 3.676650 0.000000 0.031650 
#    y 0.000000 3.656930 0.000000 
#    z 0.031650 0.000000 3.549530 
# 
# 
# High freq. dielectric constant tensor:
#      x y z
#    x 1.764690 0.000000 0.003430 
#    y 0.000000 1.738680 0.000000 
#    z 0.003430 0.000000 1.726530 
# 
# From -- ./inp_files/209384.got.cif
#   From: 2010.06.25/outbox.cif.g09.slc.cpg/sg12_105_cif.got.tgz:209384.got - 2010.06.28 00:19:55.
