data_PCOD8083741
_publ_section_title
;
Structure prediction by ZEFSAII (Michael W. Deem and Ramdas Pophale) SiO2 
 PCOD8083741
Probable space group: C 2/M
;
_chemical_formula_sum "Si O2"
_cell_formula_units_Z 64
_cell_length_a 20.498941
_cell_length_b 8.976116
_cell_length_c 21.648476
_cell_angle_alpha 90.000000
_cell_angle_beta 61.885037
_cell_angle_gamma 90.000000
_cell_volume 3513.319783
_symmetry_space_group_name_H-M "C 2/M"
_symmetry_group_IT_number 12
_symmetry_cell_setting 'monoclinic'
loop_
_space_group_symop_operation_xyz
x,y,z
-x,y,-z
-x,-y,-z
x,-y,z
1/2+x,1/2+y,z
1/2-x,1/2+y,-z
1/2-x,1/2-y,-z
1/2+x,1/2-y,z
loop_
_atom_site_type_symbol
_atom_site_label
_atom_site_fract_x
_atom_site_fract_y
_atom_site_fract_z
Si Si1 0.227730 0.825473 0.946356
Si Si2 0.701204 0.328729 0.197496
Si Si3 0.581387 0.673745 0.940851
Si Si4 0.337100 0.323086 0.574464
Si Si5 0.350499 0.170809 0.202589
Si Si6 0.412395 0.676770 0.415499
Si Si7 0.077083 0.176948 0.343712
Si Si8 0.320359 0.323373 0.339068
O O1 0.284523 0.771077 0.868710
O O2 0.143401 0.783480 0.964499
O O3 0.237065 0.000000 0.950485
O O4 0.250000 0.750000 0.000000
O O5 0.693686 0.500000 0.179401
O O6 0.766371 0.311729 0.218063
O O7 0.627301 0.268068 0.263902
O O8 0.587540 0.500000 0.922005
O O9 0.593740 0.766107 0.873267
O O10 0.500000 0.717229 0.000000
O O11 0.324952 0.500000 0.580232
O O12 0.372483 0.264813 0.494978
O O13 0.390635 0.269613 0.605349
O O14 0.259715 0.245225 0.618771
O O15 0.361588 0.263895 0.259949
O O16 0.370795 0.000000 0.206255
O O17 0.417219 0.500000 0.416108
O O18 0.494995 0.743934 0.373792
O O19 0.367307 0.732064 0.376583
O O20 0.076362 0.000000 0.342849
O O21 0.314829 0.500000 0.338199
#
# Coordination Sequence:
#
# PCOD8083741 Si02
#       8
#     8   8   8   8   8   8   8   8
#     4  10  20  35  56  81 109 140 173 213 258 307
#     4   9  17  32  55  79 102 133 176 219 258 304
#     4   9  19  37  59  83 109 139 176 215 259 309
#     4  10  18  33  57  79  99 132 180 224 263 310
#     4  10  19  34  56  81 105 137 180 220 259 304
#     4   9  19  32  50  78 107 135 172 221 269 313
#     4   9  16  31  54  79 102 131 176 224 263 302
#     4  11  21  33  50  76 109 142 174 212 264 320
#
# _framework density 18.216390000000001
#
# number of rings (size 3 to 8) (size 9 to 14) (size 15 to 20)
#    0.000    2.375    1.250    1.875    0.000    2.750 
#    2.250    0.625    0.000    4.500    0.000    0.000 
#    0.000    0.000    0.000    0.000    0.000    0.000 
#
# Total GULP energy -396827.461921 kJ/mol
# GULP energy per Si atom -12400.858185 kJ/mol
# Density = 1.817493 g / cm^3
# Si number density = 18.216390 Si / 1000 Ang^3
#
#
#
# Elastic Constant Matrix: (Units=GPa)
#
#
# Indices 1 2 3 4 5 6 
#
# 1 67.8679 33.4950 56.9910 -0.0001 10.9584 -0.0003
# 2 33.4950 52.2918 45.7004 -0.0001 4.1093 -0.0007
# 3 56.9910 45.7004 139.3199 -0.0001 8.5458 0.0000
# 4 -0.0001 -0.0001 -0.0001 30.3332 0.0001 1.3882
# 5 10.9584 4.1093 8.5458 0.0001 32.4676 -0.0001
# 6 -0.0003 -0.0007 0.0000 1.3882 -0.0001 20.1972
#
#
#
# Elastic Compliance Matrix: (Units=1/GPa)
#
#
# Indices 1 2 3 4 5 6 
#
# 1 0.026903 -0.010470 -0.007212 0.000000 -0.005857 0.000000
# 2 -0.010470 0.030922 -0.005933 0.000000 0.001182 0.000001
# 3 -0.007212 -0.005933 0.012073 0.000000 0.000007 0.000000
# 4 0.000000 0.000000 0.000000 0.033071 0.000000 -0.002273
# 5 -0.005857 0.001182 0.000007 0.000000 0.032625 0.000000
# 6 0.000000 0.000001 0.000000 -0.002273 0.000000 0.049668
#
#
# Mechanical properties :
#
#
# Convention : Reuss Voigt Hill
#
# Bulk Modulus (GPa) = 44.11076 59.09473 51.60274
# Shear Modulus (GPa) = 20.82917 24.81915 22.82416
#
# Velocity S-wave (km/s) = 3.38513 3.69516 3.54354
# Velocity P-wave (km/s) = 6.28858 7.12155 6.71799
#
# Compressibility (1/GPa) = 0.02267021
#
# Stress axis : x y z
#
# Youngs Moduli (GPa) = 37.17028 32.33962 82.82667
#
# Poissons Ratio (x) = 0.33859 0.59731
# Poissons Ratio (y) = 0.38916 0.49139
# Poissons Ratio (z) = 0.26806 0.19186
#
# Static dielectric constant tensor:
#      x y z
#    x 3.479380 0.000000 0.022580 
#    y 0.000000 3.174960 0.000000 
#    z 0.022580 0.000000 3.598350 
# 
# 
# High freq. dielectric constant tensor:
#      x y z
#    x 1.700550 0.000000 0.000180 
#    y 0.000000 1.683070 0.000000 
#    z 0.000180 0.000000 1.719540 
# 
# From -- ./inp_files/319763.got.cif
#   From: 2010.06.25/outbox.cif.g09.slc.cpg/sg12_160_cif.got.tgz:319763.got - 2010.06.28 00:19:55.
