data_PCOD8083927
_publ_section_title
;
Structure prediction by ZEFSAII (Michael W. Deem and Ramdas Pophale) SiO2 
 PCOD8083927
Probable space group: C 2/M
;
_chemical_formula_sum "Si O2"
_cell_formula_units_Z 56
_cell_length_a 14.129233
_cell_length_b 19.997934
_cell_length_c 14.175335
_cell_angle_alpha 90.000000
_cell_angle_beta 60.539859
_cell_angle_gamma 90.000000
_cell_volume 3487.422946
_symmetry_space_group_name_H-M "C 2/M"
_symmetry_group_IT_number 12
_symmetry_cell_setting 'monoclinic'
loop_
_space_group_symop_operation_xyz
x,y,z
-x,y,-z
-x,-y,-z
x,-y,z
1/2+x,1/2+y,z
1/2-x,1/2+y,-z
1/2-x,1/2-y,-z
1/2+x,1/2-y,z
loop_
_atom_site_type_symbol
_atom_site_label
_atom_site_fract_x
_atom_site_fract_y
_atom_site_fract_z
Si Si1 0.003524 0.577836 0.770023
Si Si2 0.541410 0.425640 0.374483
Si Si3 0.403416 0.299712 0.411860
Si Si4 0.215716 0.375010 0.767389
Si Si5 0.270510 0.753068 0.644650
Si Si6 0.959722 0.326616 0.623767
Si Si7 0.385702 0.926527 0.006408
O O1 0.985946 0.500000 0.763015
O O2 0.980962 0.611478 0.681087
O O3 0.126145 0.588251 0.747007
O O4 0.912863 0.604530 0.889890
O O5 0.500000 0.428795 0.500000
O O6 0.524893 0.500000 0.336647
O O7 0.468439 0.368448 0.360145
O O8 0.668062 0.407497 0.309664
O O9 0.353456 0.293337 0.541986
O O10 0.308110 0.296163 0.382375
O O11 0.481343 0.236860 0.358791
O O12 0.208787 0.296783 0.744988
O O13 0.191326 0.380088 0.891612
O O14 0.333271 0.807406 0.677133
O O15 0.000000 0.346244 0.500000
O O16 0.330677 0.000000 0.024261
O O17 0.500000 0.936173 0.000000
#
# Coordination Sequence:
#
# PCOD8083927 Si02
#       7
#     8   8   8   8   8   8   8
#     4  10  20  34  51  75 103 132 167 210 253 293
#     4  11  20  29  46  75 104 126 161 213 253 291
#     4  10  18  34  47  68 101 137 166 193 246 300
#     4  11  17  31  52  78  97 129 166 210 250 298
#     4  10  19  30  52  69  96 137 170 194 237 302
#     4  10  19  32  51  72  99 134 169 200 244 301
#     4   8  16  30  48  71 101 130 161 205 259 301
#
# _framework density 16.057701999999999
#
# number of rings (size 3 to 8) (size 9 to 14) (size 15 to 20)
#    0.000    2.000    4.286    2.571    0.000    0.286 
#    0.000    1.429    0.000    0.000    0.000    0.000 
#    0.000    3.429    0.000    0.000    0.000    0.000 
#
# Total GULP energy -347003.566812 kJ/mol
# GULP energy per Si atom -12392.984529 kJ/mol
# Density = 1.602115 g / cm^3
# Si number density = 16.057702 Si / 1000 Ang^3
#
#
#
# Elastic Constant Matrix: (Units=GPa)
#
#
# Indices 1 2 3 4 5 6 
#
# 1 79.5780 38.0363 34.3452 0.0000 -3.5926 0.0000
# 2 38.0363 90.9575 46.6334 0.0000 2.1137 0.0000
# 3 34.3452 46.6334 84.1457 0.0000 -4.7651 0.0000
# 4 0.0000 0.0000 0.0000 22.5720 0.0000 -2.0067
# 5 -3.5926 2.1137 -4.7651 0.0000 18.9733 0.0000
# 6 0.0000 0.0000 0.0000 -2.0067 0.0000 22.1200
#
#
#
# Elastic Compliance Matrix: (Units=1/GPa)
#
#
# Indices 1 2 3 4 5 6 
#
# 1 0.016803 -0.005107 -0.003871 0.000000 0.002778 0.000000
# 2 -0.005107 0.017200 -0.007721 0.000000 -0.004822 0.000000
# 3 -0.003871 -0.007721 0.018006 0.000000 0.004649 0.000000
# 4 0.000000 0.000000 0.000000 0.044663 0.000000 0.004052
# 5 0.002778 -0.004822 0.004649 0.000000 0.054937 0.000000
# 6 0.000000 0.000000 0.000000 0.004052 0.000000 0.045576
#
#
# Mechanical properties :
#
#
# Convention : Reuss Voigt Hill
#
# Bulk Modulus (GPa) = 53.72748 54.74566 54.23657
# Shear Modulus (GPa) = 21.11605 21.77748 21.44677
#
# Velocity S-wave (km/s) = 3.63024 3.68666 3.65856
# Velocity P-wave (km/s) = 7.14865 7.23112 7.19000
#
# Compressibility (1/GPa) = 0.01861245
#
# Stress axis : x y z
#
# Youngs Moduli (GPa) = 59.51217 58.13875 55.53564
#
# Poissons Ratio (x) = 0.29689 0.21498
# Poissons Ratio (y) = 0.30391 0.42879
# Poissons Ratio (z) = 0.23038 0.44889
#
# Static dielectric constant tensor:
#      x y z
#    x 2.975890 0.000000 -0.108760 
#    y 0.000000 3.081770 0.000000 
#    z -0.108760 0.000000 3.255400 
# 
# 
# High freq. dielectric constant tensor:
#      x y z
#    x 1.602810 0.000000 -0.010390 
#    y 0.000000 1.609330 0.000000 
#    z -0.010390 0.000000 1.602440 
# 
# From -- ./inp_files/215858.got.cif
#   From: 2010.06.25/outbox.cif.g09.slc.cpg/sg12_108_cif.got.tgz:215858.got - 2010.06.28 00:19:55.
