data_PCOD8083697
_publ_section_title
;
Structure prediction by ZEFSAII (Michael W. Deem and Ramdas Pophale) SiO2 
 PCOD8083697
Probable space group: C 2/M
;
_chemical_formula_sum "Si O2"
_cell_formula_units_Z 48
_cell_length_a 14.187387
_cell_length_b 8.381494
_cell_length_c 28.989797
_cell_angle_alpha 90.000000
_cell_angle_beta 138.358386
_cell_angle_gamma 90.000000
_cell_volume 2290.571537
_symmetry_space_group_name_H-M "C 2/M"
_symmetry_group_IT_number 12
_symmetry_cell_setting 'monoclinic'
loop_
_space_group_symop_operation_xyz
x,y,z
-x,y,-z
-x,-y,-z
x,-y,z
1/2+x,1/2+y,z
1/2-x,1/2+y,-z
1/2-x,1/2-y,-z
1/2+x,1/2-y,z
loop_
_atom_site_type_symbol
_atom_site_label
_atom_site_fract_x
_atom_site_fract_y
_atom_site_fract_z
Si Si1 0.905334 0.188675 0.006580
Si Si2 0.663677 0.310655 0.512264
Si Si3 0.915798 0.184463 0.650051
Si Si4 0.910261 0.314486 0.369861
Si Si5 0.914437 0.688854 0.107044
Si Si6 0.600681 0.186286 0.259946
O O1 0.744828 0.253447 0.942262
O O2 0.907311 0.000000 0.004994
O O3 0.971541 0.243877 0.079407
O O4 0.000000 0.261601 0.000000
O O5 0.664007 0.500000 0.516620
O O6 0.750000 0.250000 0.500000
O O7 0.747790 0.233400 0.586280
O O8 0.502103 0.249568 0.447377
O O9 0.963593 0.220729 0.719570
O O10 0.005218 0.289550 0.646954
O O11 0.937640 0.000000 0.645553
O O12 0.876972 0.500000 0.364884
O O13 0.766255 0.216810 0.313424
O O14 0.917232 0.500000 0.105784
O O15 0.016583 0.752108 0.184780
O O16 0.573274 0.000000 0.257288
#
# Coordination Sequence:
#
# PCOD8083697 Si02
#       6
#     8   8   8   8   8   8
#     4   9  18  35  60  87 113 145 183 221 267 326
#     4  10  18  33  56  81 109 145 188 238 290 338
#     4  11  22  38  58  83 113 149 192 237 288 343
#     4  11  22  38  58  82 111 148 193 241 292 341
#     4   9  20  37  56  82 116 147 180 227 274 323
#     4  11  23  39  56  81 117 154 192 234 282 336
#
# _framework density 20.955468
#
# number of rings (size 3 to 8) (size 9 to 14) (size 15 to 20)
#    0.000    1.833    0.000    7.000    0.000    3.667 
#    0.000    5.000    0.000    0.000    0.000    0.000 
#    0.000    0.000    0.000    0.000    0.000    0.000 
#
# Total GULP energy -297630.676505 kJ/mol
# GULP energy per Si atom -12401.278188 kJ/mol
# Density = 2.090777 g / cm^3
# Si number density = 20.955468 Si / 1000 Ang^3
#
#
#
# Elastic Constant Matrix: (Units=GPa)
#
#
# Indices 1 2 3 4 5 6 
#
# 1 58.8834 -1.8656 22.1569 0.0000 -11.1191 0.0000
# 2 -1.8656 72.6115 13.8576 0.0000 -4.9162 0.0000
# 3 22.1569 13.8576 125.7957 0.0000 -16.8294 0.0000
# 4 0.0000 0.0000 0.0000 31.3886 0.0000 -3.4996
# 5 -11.1191 -4.9162 -16.8294 0.0000 29.2572 0.0000
# 6 0.0000 0.0000 0.0000 -3.4996 0.0000 27.2180
#
#
#
# Elastic Compliance Matrix: (Units=1/GPa)
#
#
# Indices 1 2 3 4 5 6 
#
# 1 0.019182 0.001419 -0.002738 0.000000 0.005953 0.000000
# 2 0.001419 0.014242 -0.001545 0.000000 0.002043 0.000000
# 3 -0.002738 -0.001545 0.009131 0.000000 0.003952 0.000000
# 4 0.000000 0.000000 0.000000 0.032322 0.000000 0.004156
# 5 0.005953 0.002043 0.003952 0.000000 0.039059 0.000000
# 6 0.000000 0.000000 0.000000 0.004156 0.000000 0.037275
#
#
# Mechanical properties :
#
#
# Convention : Reuss Voigt Hill
#
# Bulk Modulus (GPa) = 27.15620 36.17648 31.66634
# Shear Modulus (GPa) = 29.54819 32.44888 30.99853
#
# Velocity S-wave (km/s) = 3.75913 3.93933 3.85028
# Velocity P-wave (km/s) = 5.64168 6.16377 5.90849
#
# Compressibility (1/GPa) = 0.03682400
#
# Stress axis : x y z
#
# Youngs Moduli (GPa) = 52.13151 70.21667 109.52135
#
# Poissons Ratio (x) = -0.09961 0.29992
# Poissons Ratio (y) = -0.07395 0.16925
# Poissons Ratio (z) = 0.14276 0.10851
#
# Static dielectric constant tensor:
#      x y z
#    x 3.752220 0.000000 -0.013800 
#    y 0.000000 3.605920 0.000000 
#    z -0.013800 0.000000 4.227290 
# 
# 
# High freq. dielectric constant tensor:
#      x y z
#    x 1.818230 0.000000 -0.007810 
#    y 0.000000 1.818140 0.000000 
#    z -0.007810 0.000000 1.823080 
# 
# From -- ./inp_files/360322.got.cif
#   From: 2010.06.25/outbox.cif.g09.slc.cpg/sg12_181_cif.got.tgz:360322.got - 2010.06.28 00:19:55.
