data_PCOD8083871
_publ_section_title
;
Structure prediction by ZEFSAII (Michael W. Deem and Ramdas Pophale) SiO2 
 PCOD8083871
Probable space group: C 2/M
;
_chemical_formula_sum "Si O2"
_cell_formula_units_Z 44
_cell_length_a 23.959508
_cell_length_b 10.521656
_cell_length_c 10.011435
_cell_angle_alpha 90.000000
_cell_angle_beta 69.651237
_cell_angle_gamma 90.000000
_cell_volume 2366.316511
_symmetry_space_group_name_H-M "C 2/M"
_symmetry_group_IT_number 12
_symmetry_cell_setting 'monoclinic'
loop_
_space_group_symop_operation_xyz
x,y,z
-x,y,-z
-x,-y,-z
x,-y,z
1/2+x,1/2+y,z
1/2-x,1/2+y,-z
1/2-x,1/2-y,-z
1/2+x,1/2-y,z
loop_
_atom_site_type_symbol
_atom_site_label
_atom_site_fract_x
_atom_site_fract_y
_atom_site_fract_z
Si Si1 0.932242 0.761154 0.572211
Si Si2 0.685279 0.500000 0.965255
Si Si3 0.147950 0.739750 0.886964
Si Si4 0.554632 0.855411 0.160955
Si Si5 0.858562 0.000000 0.717283
Si Si6 0.770912 0.500000 0.119504
Si Si7 0.081525 0.647257 0.698475
O O1 0.927485 0.665456 0.700257
O O2 0.909813 0.685582 0.461814
O O3 0.000000 0.810162 0.500000
O O4 0.889190 0.878604 0.628290
O O5 0.679401 0.375726 0.877730
O O6 0.635392 0.500000 0.125557
O O7 0.750647 0.500000 0.980144
O O8 0.193108 0.627510 0.883517
O O9 0.126028 0.728871 0.752823
O O10 0.091690 0.734991 0.033022
O O11 0.485357 0.825578 0.196525
O O12 0.569617 0.000000 0.110064
O O13 0.788311 0.000000 0.737850
O O14 0.097550 0.500000 0.702305
#
# Coordination Sequence:
#
# PCOD8083871 Si02
#       7
#     8   4   8   8   4   4   8
#     4  10  20  36  59  83 119 157 189 234 291 349
#     4  10  24  36  59  86 117 142 203 242 284 346
#     4  12  20  39  61  88 118 154 187 250 298 334
#     4  10  18  33  59  89 115 156 196 233 284 351
#     4  10  21  39  58  83 113 148 206 239 279 347
#     4  10  22  39  65  82 113 156 201 243 287 337
#     4  10  21  35  58  90 123 148 192 239 290 348
#
# _framework density 18.5943
#
# number of rings (size 3 to 8) (size 9 to 14) (size 15 to 20)
#    0.545    1.091    3.636    1.909    0.000    4.364 
#    0.000    3.636    2.000    0.000    0.000    0.000 
#    0.000    0.000    0.000    0.000    0.000    0.000 
#
# Total GULP energy -272798.732096 kJ/mol
# GULP energy per Si atom -12399.942368 kJ/mol
# Density = 1.855198 g / cm^3
# Si number density = 18.594300 Si / 1000 Ang^3
#
#
#
# Elastic Constant Matrix: (Units=GPa)
#
#
# Indices 1 2 3 4 5 6 
#
# 1 94.8810 53.1574 33.7886 0.0000 24.5010 0.0000
# 2 53.1574 112.3304 17.7693 0.0000 10.5190 0.0000
# 3 33.7886 17.7693 65.6366 0.0000 20.3445 0.0000
# 4 0.0000 0.0000 0.0000 15.0729 0.0000 -9.3003
# 5 24.5010 10.5190 20.3445 0.0000 35.5239 0.0000
# 6 0.0000 0.0000 0.0000 -9.3003 0.0000 19.2846
#
#
#
# Elastic Compliance Matrix: (Units=1/GPa)
#
#
# Indices 1 2 3 4 5 6 
#
# 1 0.018341 -0.007154 -0.005156 0.000000 -0.007579 0.000000
# 2 -0.007154 0.012166 -0.000029 0.000000 0.001348 0.000000
# 3 -0.005156 -0.000029 0.020417 0.000000 -0.008128 0.000000
# 4 0.000000 0.000000 0.000000 0.094450 0.000000 0.045550
# 5 -0.007579 0.001348 -0.008128 0.000000 0.037633 0.000000
# 6 0.000000 0.000000 0.000000 0.045550 0.000000 0.073822
#
#
# Mechanical properties :
#
#
# Convention : Reuss Voigt Hill
#
# Bulk Modulus (GPa) = 38.10022 53.58651 45.84337
# Shear Modulus (GPa) = 17.22630 25.18510 21.20570
#
# Velocity S-wave (km/s) = 3.04703 3.68428 3.38071
# Velocity P-wave (km/s) = 5.73707 6.85419 6.32036
#
# Compressibility (1/GPa) = 0.02624657
#
# Stress axis : x y z
#
# Youngs Moduli (GPa) = 54.52395 82.19604 48.97969
#
# Poissons Ratio (x) = 0.58803 0.25252
# Poissons Ratio (y) = 0.39006 0.00141
# Poissons Ratio (z) = 0.28111 0.00236
#
# Static dielectric constant tensor:
#      x y z
#    x 3.394060 0.000000 0.035250 
#    y 0.000000 3.346610 0.000000 
#    z 0.035250 0.000000 3.344400 
# 
# 
# High freq. dielectric constant tensor:
#      x y z
#    x 1.718340 0.000000 0.006720 
#    y 0.000000 1.719000 0.000000 
#    z 0.006720 0.000000 1.712970 
# 
# From -- ./inp_files/94243.got.cif
#   From: 2010.06.25/outbox.cif.g09.slc.cpg/sg12_48_cif.got.tgz:94243.got - 2010.06.28 00:19:55.
