data_PCOD8083100
_publ_section_title
;
Structure prediction by ZEFSAII (Michael W. Deem and Ramdas Pophale) SiO2 
 PCOD8083100
Probable space group: C 2/M
;
_chemical_formula_sum "Si O2"
_cell_formula_units_Z 40
_cell_length_a 13.972332
_cell_length_b 18.425946
_cell_length_c 14.398290
_cell_angle_alpha 90.000000
_cell_angle_beta 32.410498
_cell_angle_gamma 90.000000
_cell_volume 1986.823998
_symmetry_space_group_name_H-M "C 2/M"
_symmetry_group_IT_number 12
_symmetry_cell_setting 'monoclinic'
loop_
_space_group_symop_operation_xyz
x,y,z
-x,y,-z
-x,-y,-z
x,-y,z
1/2+x,1/2+y,z
1/2-x,1/2+y,-z
1/2-x,1/2-y,-z
1/2+x,1/2-y,z
loop_
_atom_site_type_symbol
_atom_site_label
_atom_site_fract_x
_atom_site_fract_y
_atom_site_fract_z
Si Si1 0.260006 0.282614 0.350920
Si Si2 0.421621 0.189997 0.961730
Si Si3 0.103561 0.281993 0.277773
Si Si4 0.946738 0.919734 0.145718
Si Si5 0.832873 0.419366 0.888580
O O1 0.438966 0.234992 0.216770
O O2 0.173986 0.268071 0.322216
O O3 0.308910 0.368058 0.312383
O O4 0.109130 0.261926 0.551481
O O5 0.401473 0.111611 0.931025
O O6 0.500000 0.179999 0.000000
O O7 0.230214 0.231080 0.110879
O O8 0.115732 0.366232 0.238201
O O9 0.860873 0.000000 0.202199
O O10 0.000000 0.887110 0.000000
O O11 0.119989 0.925408 0.067994
O O12 0.915780 0.500000 0.805374
#
# Coordination Sequence:
#
# PCOD8083100 Si02
#       5
#     8   8   8   8   8
#     4  10  19  34  58  84 109 144 175 220 278 323
#     4  10  21  40  58  77 109 144 185 232 269 306
#     4  10  20  34  58  86 108 136 185 224 268 329
#     4  10  18  32  53  79 116 150 174 212 271 328
#     4  11  22  36  56  82 112 146 183 221 266 327
#
# _framework density 20.132632999999998
#
# number of rings (size 3 to 8) (size 9 to 14) (size 15 to 20)
#    0.000    1.800    4.000    1.200    0.000    2.000 
#    0.000    2.000    0.000    0.000    0.000    5.600 
#    0.000    0.000    0.000    0.000    0.000    0.000 
#
# Total GULP energy -247858.161037 kJ/mol
# GULP energy per Si atom -12392.908052 kJ/mol
# Density = 2.008681 g / cm^3
# Si number density = 20.132633 Si / 1000 Ang^3
#
#
#
# Elastic Constant Matrix: (Units=GPa)
#
#
# Indices 1 2 3 4 5 6 
#
# 1 46.9028 28.4690 34.6814 -0.0047 -6.9329 0.0009
# 2 28.4690 96.7186 31.4268 -0.0150 -9.4402 0.0019
# 3 34.6814 31.4268 121.5655 -0.0266 -19.8846 0.0044
# 4 -0.0047 -0.0150 -0.0266 15.9106 0.0058 -0.3736
# 5 -6.9329 -9.4402 -19.8846 0.0058 24.9472 -0.0018
# 6 0.0009 0.0019 0.0044 -0.3736 -0.0018 32.2360
#
#
#
# Elastic Compliance Matrix: (Units=1/GPa)
#
#
# Indices 1 2 3 4 5 6 
#
# 1 0.030571 -0.006708 -0.006914 -0.000009 0.000446 0.000000
# 2 -0.006708 0.012869 -0.001060 0.000008 0.002161 0.000000
# 3 -0.006914 -0.001060 0.011606 0.000014 0.006928 -0.000001
# 4 -0.000009 0.000008 0.000014 0.062868 -0.000003 0.000729
# 5 0.000446 0.002161 0.006928 -0.000003 0.046549 0.000001
# 6 0.000000 0.000000 -0.000001 0.000729 0.000001 0.031030
#
#
# Mechanical properties :
#
#
# Convention : Reuss Voigt Hill
#
# Bulk Modulus (GPa) = 38.93889 50.48238 44.71063
# Shear Modulus (GPa) = 21.42082 25.99275 23.70678
#
# Velocity S-wave (km/s) = 3.26542 3.59705 3.43524
# Velocity P-wave (km/s) = 5.79659 6.51007 6.16366
#
# Compressibility (1/GPa) = 0.02568127
#
# Stress axis : x y z
#
# Youngs Moduli (GPa) = 32.71048 77.70568 86.16362
#
# Poissons Ratio (x) = 0.52128 0.59578
# Poissons Ratio (y) = 0.21943 0.09130
# Poissons Ratio (z) = 0.22618 0.08234
#
# Static dielectric constant tensor:
#      x y z
#    x 3.551760 -0.000010 -0.243170 
#    y -0.000010 3.582600 0.000080 
#    z -0.243170 0.000080 4.088490 
# 
# 
# High freq. dielectric constant tensor:
#      x y z
#    x 1.792580 0.000000 -0.011160 
#    y 0.000000 1.765580 0.000000 
#    z -0.011160 0.000000 1.773830 
# 
# From -- ./inp_files/60235.got.cif
#   From: 2010.06.25/outbox.cif.g09.slc.cpg/sg12_31_cif.got.tgz:60235.got - 2010.06.28 00:19:55.
