data_PCOD8083530
_publ_section_title
;
Structure prediction by ZEFSAII (Michael W. Deem and Ramdas Pophale) SiO2 
 PCOD8083530
Probable space group: C 2/M
;
_chemical_formula_sum "Si O2"
_cell_formula_units_Z 48
_cell_length_a 23.686523
_cell_length_b 8.572978
_cell_length_c 23.464175
_cell_angle_alpha 90.000000
_cell_angle_beta 34.027991
_cell_angle_gamma 90.000000
_cell_volume 2666.332770
_symmetry_space_group_name_H-M "C 2/M"
_symmetry_group_IT_number 12
_symmetry_cell_setting 'monoclinic'
loop_
_space_group_symop_operation_xyz
x,y,z
-x,y,-z
-x,-y,-z
x,-y,z
1/2+x,1/2+y,z
1/2-x,1/2+y,-z
1/2-x,1/2-y,-z
1/2+x,1/2-y,z
loop_
_atom_site_type_symbol
_atom_site_label
_atom_site_fract_x
_atom_site_fract_y
_atom_site_fract_z
Si Si1 0.612420 0.813708 0.890712
Si Si2 0.746400 0.816350 0.131069
Si Si3 0.150512 0.685975 0.611861
Si Si4 0.897562 0.675915 0.224954
Si Si5 0.881894 0.677346 0.923198
Si Si6 0.556922 0.682352 0.244602
O O1 0.695629 0.741610 0.861954
O O2 0.639623 0.751189 0.803891
O O3 0.617332 0.000000 0.890332
O O4 0.500000 0.755163 0.000000
O O5 0.629827 0.760479 0.231148
O O6 0.754311 0.000000 0.120836
O O7 0.790398 0.741925 0.036641
O O8 0.148900 0.500000 0.613856
O O9 0.250000 0.750000 0.500000
O O10 0.144214 0.755800 0.682012
O O11 0.054228 0.743731 0.656576
O O12 0.858640 0.500000 0.259632
O O13 0.018762 0.682144 0.120928
O O14 0.859475 0.500000 0.922111
O O15 0.896961 0.785263 0.856033
O O16 0.549616 0.500000 0.262380
#
# Coordination Sequence:
#
# PCOD8083530 Si02
#       6
#     8   8   8   8   8   8
#     4  10  18  33  54  75 104 147 188 218 257 313
#     4  12  23  33  47  74 110 148 182 220 264 316
#     4  10  20  37  60  85 109 137 173 221 274 324
#     4   8  16  31  53  78 105 138 178 218 260 313
#     4  10  18  33  52  74 105 144 181 220 264 318
#     4  11  22  36  53  77 105 139 179 224 273 324
#
# _framework density 18.002254000000001
#
# number of rings (size 3 to 8) (size 9 to 14) (size 15 to 20)
#    0.000    1.833    1.667    5.500    0.000    0.333 
#    0.000    1.667    0.000    1.000    0.000    7.000 
#    0.000    0.000    0.000    0.000    0.000    0.000 
#
# Total GULP energy -297510.064333 kJ/mol
# GULP energy per Si atom -12396.252681 kJ/mol
# Density = 1.796128 g / cm^3
# Si number density = 18.002254 Si / 1000 Ang^3
#
#
#
# Elastic Constant Matrix: (Units=GPa)
#
#
# Indices 1 2 3 4 5 6 
#
# 1 124.8223 29.5628 55.7179 -0.0012 -16.7431 0.0009
# 2 29.5628 66.5118 26.8986 -0.0083 -2.2993 0.0114
# 3 55.7179 26.8986 104.1555 -0.0027 -14.0891 0.0018
# 4 -0.0012 -0.0083 -0.0027 24.8944 0.0008 -3.8997
# 5 -16.7431 -2.2993 -14.0891 0.0008 18.2012 -0.0027
# 6 0.0009 0.0114 0.0018 -3.8997 -0.0027 27.8296
#
#
#
# Elastic Compliance Matrix: (Units=1/GPa)
#
#
# Indices 1 2 3 4 5 6 
#
# 1 0.011690 -0.003132 -0.004516 -0.000001 0.006861 0.000002
# 2 -0.003132 0.017659 -0.003321 0.000004 -0.003221 -0.000007
# 3 -0.004516 -0.003321 0.013689 0.000000 0.006022 0.000001
# 4 -0.000001 0.000004 0.000000 0.041071 -0.000001 0.005755
# 5 0.006861 -0.003221 0.006022 -0.000001 0.065508 0.000007
# 6 0.000002 -0.000007 0.000001 0.005755 0.000007 0.036739
#
#
# Mechanical properties :
#
#
# Convention : Reuss Voigt Hill
#
# Bulk Modulus (GPa) = 47.39443 57.76091 52.57767
# Shear Modulus (GPa) = 23.22047 26.40572 24.81310
#
# Velocity S-wave (km/s) = 3.59536 3.83404 3.71662
# Velocity P-wave (km/s) = 6.60452 7.19408 6.90559
#
# Compressibility (1/GPa) = 0.02109953
#
# Stress axis : x y z
#
# Youngs Moduli (GPa) = 85.54682 56.62956 73.05013
#
# Poissons Ratio (x) = 0.17736 0.32991
# Poissons Ratio (y) = 0.26793 0.24257
# Poissons Ratio (z) = 0.38635 0.18805
#
# Static dielectric constant tensor:
#      x y z
#    x 3.584530 -0.000010 -0.039660 
#    y -0.000010 3.214000 0.000010 
#    z -0.039660 0.000010 3.135030 
# 
# 
# High freq. dielectric constant tensor:
#      x y z
#    x 1.705630 0.000000 -0.006050 
#    y 0.000000 1.690200 0.000000 
#    z -0.006050 0.000000 1.664810 
# 
# From -- ./inp_files/319582.got.cif
#   From: 2010.06.25/outbox.cif.g09.slc.cpg/sg12_160_cif.got.tgz:319582.got - 2010.06.28 00:19:55.
