data_PCOD8083044
_publ_section_title
;
Structure prediction by ZEFSAII (Michael W. Deem and Ramdas Pophale) SiO2 
 PCOD8083044
Probable space group: C 2/M
;
_chemical_formula_sum "Si O2"
_cell_formula_units_Z 64
_cell_length_a 19.845634
_cell_length_b 9.265541
_cell_length_c 20.410333
_cell_angle_alpha 90.000000
_cell_angle_beta 101.157035
_cell_angle_gamma 90.000000
_cell_volume 3682.132069
_symmetry_space_group_name_H-M "C 2/M"
_symmetry_group_IT_number 12
_symmetry_cell_setting 'monoclinic'
loop_
_space_group_symop_operation_xyz
x,y,z
-x,y,-z
-x,-y,-z
x,-y,z
1/2+x,1/2+y,z
1/2-x,1/2+y,-z
1/2-x,1/2-y,-z
1/2+x,1/2-y,z
loop_
_atom_site_type_symbol
_atom_site_label
_atom_site_fract_x
_atom_site_fract_y
_atom_site_fract_z
Si Si1 0.243999 0.166501 0.931928
Si Si2 0.508166 0.330771 0.573466
Si Si3 0.479186 0.167060 0.801567
Si Si4 0.914884 0.165660 0.671497
Si Si5 0.387123 0.669212 0.175914
Si Si6 0.663014 0.164846 0.167422
Si Si7 0.727173 0.332812 0.296966
Si Si8 0.861660 0.170298 0.321407
O O1 0.178034 0.219270 0.878598
O O2 0.312325 0.196113 0.901772
O O3 0.236521 0.000000 0.948284
O O4 0.250000 0.250000 0.000000
O O5 0.500000 0.258704 0.500000
O O6 0.518739 0.500000 0.567142
O O7 0.439735 0.296744 0.602785
O O8 0.575114 0.270333 0.623460
O O9 0.455600 0.232070 0.728217
O O10 0.546842 0.247497 0.840144
O O11 0.418842 0.189561 0.843820
O O12 0.496141 0.000000 0.794174
O O13 0.833181 0.190210 0.660852
O O14 0.934247 0.000000 0.692946
O O15 0.400864 0.500000 0.172296
O O16 0.374658 0.713837 0.248683
O O17 0.703099 0.270832 0.222995
O O18 0.682307 0.000000 0.190991
O O19 0.744899 0.500000 0.290756
O O20 0.793792 0.249250 0.335407
O O21 0.851142 0.000000 0.326565
#
# Coordination Sequence:
#
# PCOD8083044 Si02
#       8
#     8   8   8   8   8   8   8   8
#     4  10  21  37  55  74 101 136 170 206 251 303
#     4   9  17  31  53  76  97 132 179 212 241 298
#     4  10  19  30  52  81 104 129 168 214 251 295
#     4   9  17  32  50  72 104 136 167 208 257 299
#     4  10  19  34  54  75 102 136 169 208 255 297
#     4   9  18  35  53  73 104 138 168 203 252 303
#     4  10  19  29  49  78 104 130 166 215 256 295
#     4  10  18  32  53  74 101 134 170 212 252 296
#
# _framework density 17.381233999999999
#
# number of rings (size 3 to 8) (size 9 to 14) (size 15 to 20)
#    0.000    2.375    2.500    0.750    0.000    2.500 
#    0.000    1.250    0.000    5.250    0.000    0.000 
#    0.000    0.000    0.000    0.000    0.000    0.000 
#
# Total GULP energy -396781.390398 kJ/mol
# GULP energy per Si atom -12399.418450 kJ/mol
# Density = 1.734167 g / cm^3
# Si number density = 17.381234 Si / 1000 Ang^3
#
#
#
# Elastic Constant Matrix: (Units=GPa)
#
#
# Indices 1 2 3 4 5 6 
#
# 1 142.6049 53.7071 71.9803 0.0000 -4.8661 0.0000
# 2 53.7071 55.1594 37.6548 0.0000 -1.2229 0.0000
# 3 71.9803 37.6548 124.9611 0.0000 -3.1580 0.0000
# 4 0.0000 0.0000 0.0000 17.7465 0.0000 1.6217
# 5 -4.8661 -1.2229 -3.1580 0.0000 24.5562 0.0000
# 6 0.0000 0.0000 0.0000 1.6217 0.0000 32.8202
#
#
#
# Elastic Compliance Matrix: (Units=1/GPa)
#
#
# Indices 1 2 3 4 5 6 
#
# 1 0.012918 -0.009430 -0.004561 0.000000 0.001504 0.000000
# 2 -0.009430 0.029711 -0.003542 0.000000 -0.000845 0.000000
# 3 -0.004561 -0.003542 0.011708 0.000000 0.000425 0.000000
# 4 0.000000 0.000000 0.000000 0.056605 0.000000 -0.002797
# 5 0.001504 -0.000845 0.000425 0.000000 0.041033 0.000000
# 6 0.000000 0.000000 0.000000 -0.002797 0.000000 0.030607
#
#
# Mechanical properties :
#
#
# Convention : Reuss Voigt Hill
#
# Bulk Modulus (GPa) = 51.89687 72.15668 62.02677
# Shear Modulus (GPa) = 22.31429 25.65013 23.98221
#
# Velocity S-wave (km/s) = 3.58692 3.84570 3.71856
# Velocity P-wave (km/s) = 6.86130 7.83093 7.36210
#
# Compressibility (1/GPa) = 0.01926899
#
# Stress axis : x y z
#
# Youngs Moduli (GPa) = 77.41391 33.65795 85.41279
#
# Poissons Ratio (x) = 0.31741 0.38958
# Poissons Ratio (y) = 0.73005 0.30253
# Poissons Ratio (z) = 0.35309 0.11922
#
# Static dielectric constant tensor:
#      x y z
#    x 3.534730 0.000000 -0.068530 
#    y 0.000000 3.136120 0.000000 
#    z -0.068530 0.000000 3.070520 
# 
# 
# High freq. dielectric constant tensor:
#      x y z
#    x 1.687480 0.000000 -0.007410 
#    y 0.000000 1.659570 0.000000 
#    z -0.007410 0.000000 1.640160 
# 
# From -- ./inp_files/319121.got.cif
#   From: 2010.06.25/outbox.cif.g09.slc.cpg/sg12_160_cif.got.tgz:319121.got - 2010.06.28 00:19:55.
