data_PCOD8083306
_publ_section_title
;
Structure prediction by ZEFSAII (Michael W. Deem and Ramdas Pophale) SiO2 
 PCOD8083306
Probable space group: C 2/M
;
_chemical_formula_sum "Si O2"
_cell_formula_units_Z 56
_cell_length_a 16.169674
_cell_length_b 9.419011
_cell_length_c 22.751442
_cell_angle_alpha 90.000000
_cell_angle_beta 58.236973
_cell_angle_gamma 90.000000
_cell_volume 2946.138970
_symmetry_space_group_name_H-M "C 2/M"
_symmetry_group_IT_number 12
_symmetry_cell_setting 'monoclinic'
loop_
_space_group_symop_operation_xyz
x,y,z
-x,y,-z
-x,-y,-z
x,-y,z
1/2+x,1/2+y,z
1/2-x,1/2+y,-z
1/2-x,1/2-y,-z
1/2+x,1/2-y,z
loop_
_atom_site_type_symbol
_atom_site_label
_atom_site_fract_x
_atom_site_fract_y
_atom_site_fract_z
Si Si1 0.222485 0.164514 0.150755
Si Si2 0.357573 0.338036 0.289679
Si Si3 0.980718 0.167856 0.571345
Si Si4 0.200461 0.835321 0.289963
Si Si5 0.541030 0.664498 0.148375
Si Si6 0.059456 0.664710 0.918596
Si Si7 0.828485 0.166833 0.433193
O O1 0.172047 0.188915 0.232847
O O2 0.331993 0.229884 0.110191
O O3 0.147442 0.225057 0.129315
O O4 0.234322 0.000000 0.132245
O O5 0.323777 0.500000 0.295814
O O6 0.300852 0.244103 0.263871
O O7 0.471271 0.322419 0.231658
O O8 0.331137 0.283469 0.364736
O O9 0.882640 0.230188 0.636749
O O10 0.000000 0.235395 0.500000
O O11 0.067633 0.210790 0.580893
O O12 0.969843 0.000000 0.570199
O O13 0.217158 0.000000 0.297189
O O14 0.548368 0.500000 0.126123
O O15 0.498699 0.753058 0.110192
O O16 0.067369 0.500000 0.896407
O O17 0.000000 0.683749 0.000000
O O18 0.750000 0.250000 0.500000
O O19 0.808327 0.000000 0.447282
#
# Coordination Sequence:
#
# PCOD8083306 Si02
#       7
#     8   8   8   8   8   8   8
#     4   9  18  34  56  81 108 144 186 223 267 328
#     4  10  20  33  51  77 108 137 170 225 281 317
#     4   9  17  29  47  72  97 126 172 222 259 305
#     4  10  18  32  56  77  99 138 183 220 262 324
#     4  10  20  36  58  82 111 147 187 226 273 332
#     4  10  21  38  58  83 116 147 180 230 281 323
#     4  10  20  34  50  72 103 136 175 221 272 322
#
# _framework density 19.007929000000001
#
# number of rings (size 3 to 8) (size 9 to 14) (size 15 to 20)
#    0.000    2.286    1.429    1.714    0.000    6.000 
#    0.000    2.143    0.000    4.286    0.000    0.000 
#    0.000    0.000    0.000    0.000    0.000    0.000 
#
# Total GULP energy -347062.285012 kJ/mol
# GULP energy per Si atom -12395.081608 kJ/mol
# Density = 1.896467 g / cm^3
# Si number density = 19.007929 Si / 1000 Ang^3
#
#
#
# Elastic Constant Matrix: (Units=GPa)
#
#
# Indices 1 2 3 4 5 6 
#
# 1 162.0558 43.2803 53.3823 0.0000 5.2118 0.0000
# 2 43.2803 40.6144 29.4891 0.0001 6.5176 0.0001
# 3 53.3823 29.4891 93.2890 0.0000 -2.5705 0.0000
# 4 0.0000 0.0001 0.0000 19.3392 0.0000 3.0393
# 5 5.2118 6.5176 -2.5705 0.0000 29.9818 0.0000
# 6 0.0000 0.0001 0.0000 3.0393 0.0000 23.8579
#
#
#
# Elastic Compliance Matrix: (Units=1/GPa)
#
#
# Indices 1 2 3 4 5 6 
#
# 1 0.009156 -0.007688 -0.002813 0.000000 -0.000161 0.000000
# 2 -0.007688 0.040358 -0.008583 0.000000 -0.008173 0.000000
# 3 -0.002813 -0.008583 0.015143 0.000000 0.003653 0.000000
# 4 0.000000 0.000000 0.000000 0.052765 0.000000 -0.006722
# 5 -0.000161 -0.008173 0.003653 0.000000 0.035472 0.000000
# 6 0.000000 0.000000 0.000000 -0.006722 0.000000 0.042771
#
#
# Mechanical properties :
#
#
# Convention : Reuss Voigt Hill
#
# Bulk Modulus (GPa) = 37.75352 60.91805 49.33579
# Shear Modulus (GPa) = 20.60459 25.95626 23.28043
#
# Velocity S-wave (km/s) = 3.29599 3.69934 3.50347
# Velocity P-wave (km/s) = 5.86428 7.09684 6.50980
#
# Compressibility (1/GPa) = 0.02648759
#
# Stress axis : x y z
#
# Youngs Moduli (GPa) = 109.21819 24.77797 66.03636
#
# Poissons Ratio (x) = 0.19050 0.18579
# Poissons Ratio (y) = 0.83970 0.56681
# Poissons Ratio (z) = 0.30728 0.21268
#
# Static dielectric constant tensor:
#      x y z
#    x 3.536510 0.000000 -0.017470 
#    y 0.000000 3.125640 0.000000 
#    z -0.017470 0.000000 3.546210 
# 
# 
# High freq. dielectric constant tensor:
#      x y z
#    x 1.750390 0.000000 -0.003170 
#    y 0.000000 1.694650 0.000000 
#    z -0.003170 0.000000 1.748480 
# 
# From -- ./inp_files/337870.got.cif
#   From: 2010.06.25/outbox.cif.g09.slc.cpg/sg12_169_cif.got.tgz:337870.got - 2010.06.28 00:19:55.
