data_PCOD8083034
_publ_section_title
;
Structure prediction by ZEFSAII (Michael W. Deem and Ramdas Pophale) SiO2 
 PCOD8083034
Probable space group: C 2/M
;
_chemical_formula_sum "Si O2"
_cell_formula_units_Z 64
_cell_length_a 20.543257
_cell_length_b 9.008244
_cell_length_c 23.938844
_cell_angle_alpha 90.000000
_cell_angle_beta 126.106179
_cell_angle_gamma 90.000000
_cell_volume 3579.186932
_symmetry_space_group_name_H-M "C 2/M"
_symmetry_group_IT_number 12
_symmetry_cell_setting 'monoclinic'
loop_
_space_group_symop_operation_xyz
x,y,z
-x,y,-z
-x,-y,-z
x,-y,z
1/2+x,1/2+y,z
1/2-x,1/2+y,-z
1/2-x,1/2-y,-z
1/2+x,1/2-y,z
loop_
_atom_site_type_symbol
_atom_site_label
_atom_site_fract_x
_atom_site_fract_y
_atom_site_fract_z
Si Si1 0.578331 0.323975 0.574659
Si Si2 0.860104 0.172249 0.583546
Si Si3 0.867604 0.823174 0.167225
Si Si4 0.189348 0.676041 0.065077
Si Si5 0.941872 0.324534 0.924006
Si Si6 0.458744 0.325320 0.320728
Si Si7 0.069290 0.324815 0.906298
Si Si8 0.697653 0.172763 0.555662
O O1 0.500000 0.273870 0.500000
O O2 0.587570 0.500000 0.578251
O O3 0.567033 0.260908 0.631865
O O4 0.660005 0.255896 0.590000
O O5 0.794177 0.203942 0.598959
O O6 0.844118 0.271659 0.521683
O O7 0.949309 0.214916 0.649677
O O8 0.855821 0.000000 0.562657
O O9 0.778713 0.756086 0.110733
O O10 0.900373 0.761739 0.242996
O O11 0.924785 0.763408 0.147810
O O12 0.868765 0.000000 0.166901
O O13 0.195057 0.500000 0.066484
O O14 0.147807 0.728067 0.103249
O O15 0.138128 0.728585 0.985212
O O16 0.945676 0.500000 0.930502
O O17 0.979199 0.279555 0.882984
O O18 0.000000 0.255305 0.000000
O O19 0.448910 0.500000 0.319247
O O20 0.076793 0.500000 0.899554
O O21 0.679764 0.000000 0.553749
#
# Coordination Sequence:
#
# PCOD8083034 Si02
#       8
#     8   8   8   8   8   8   8   8
#     4  10  18  32  53  70  91 126 160 188 227 286
#     4   9  17  33  51  67  93 127 156 183 228 289
#     4  10  19  30  46  68  93 121 157 196 230 270
#     4   8  14  26  46  70  92 118 155 196 229 266
#     4   7  11  22  42  65  86 112 148 185 219 263
#     4   9  18  33  50  66  88 126 165 189 222 281
#     4   9  16  28  47  69  93 121 154 189 234 283
#     4  10  19  29  49  78  98 113 147 200 240 269
#
# _framework density 17.881157000000002
#
# number of rings (size 3 to 8) (size 9 to 14) (size 15 to 20)
#    0.000    3.000    1.250    2.250    0.000    0.750 
#    0.000    2.500    0.000    5.625    0.000    0.000 
#    0.000    0.000    0.000    0.000    0.000    0.000 
#
# Total GULP energy -396418.275405 kJ/mol
# GULP energy per Si atom -12388.071106 kJ/mol
# Density = 1.784046 g / cm^3
# Si number density = 17.881157 Si / 1000 Ang^3
#
#
#
# Elastic Constant Matrix: (Units=GPa)
#
#
# Indices 1 2 3 4 5 6 
#
# 1 132.5598 24.3864 50.8254 0.0000 -27.5042 0.0000
# 2 24.3864 21.9202 17.3509 0.0000 -4.5598 0.0000
# 3 50.8254 17.3509 92.3921 0.0000 -19.8494 0.0000
# 4 0.0000 0.0000 0.0000 15.0005 0.0000 -6.3196
# 5 -27.5042 -4.5598 -19.8494 0.0000 20.6931 0.0000
# 6 0.0000 0.0000 0.0000 -6.3196 0.0000 26.5054
#
#
#
# Elastic Compliance Matrix: (Units=1/GPa)
#
#
# Indices 1 2 3 4 5 6 
#
# 1 0.012932 -0.009724 -0.002589 0.000000 0.012562 0.000000
# 2 -0.009724 0.061019 -0.007555 0.000000 -0.006726 0.000000
# 3 -0.002589 -0.007555 0.015832 0.000000 0.010081 0.000000
# 4 0.000000 0.000000 0.000000 0.074108 0.000000 0.017669
# 5 0.012562 -0.006726 0.010081 0.000000 0.073210 0.000000
# 6 0.000000 0.000000 0.000000 0.017669 0.000000 0.041941
#
#
# Mechanical properties :
#
#
# Convention : Reuss Voigt Hill
#
# Bulk Modulus (GPa) = 19.98114 47.99975 33.99045
# Shear Modulus (GPa) = 14.90487 22.72708 18.81598
#
# Velocity S-wave (km/s) = 2.89026 3.56899 3.24740
# Velocity P-wave (km/s) = 4.72618 6.62462 5.75423
#
# Compressibility (1/GPa) = 0.05004720
#
# Stress axis : x y z
#
# Youngs Moduli (GPa) = 77.32906 16.38829 63.16285
#
# Poissons Ratio (x) = 0.15937 0.16352
# Poissons Ratio (y) = 0.75197 0.47718
# Poissons Ratio (z) = 0.20019 0.12381
#
# Static dielectric constant tensor:
#      x y z
#    x 3.857140 0.000000 0.033030 
#    y 0.000000 2.882640 0.000000 
#    z 0.033030 0.000000 3.221970 
# 
# 
# High freq. dielectric constant tensor:
#      x y z
#    x 1.716240 0.000000 -0.006990 
#    y 0.000000 1.648560 0.000000 
#    z -0.006990 0.000000 1.657710 
# 
# From -- ./inp_files/320019.got.cif
#   From: 2010.06.25/outbox.cif.g09.slc.cpg/sg12_161_cif.got.tgz:320019.got - 2010.06.28 00:19:55.
