data_PCOD8083975
_publ_section_title
;
Structure prediction by ZEFSAII (Michael W. Deem and Ramdas Pophale) SiO2 
 PCOD8083975
Probable space group: C 2/M
;
_chemical_formula_sum "Si O2"
_cell_formula_units_Z 56
_cell_length_a 16.306042
_cell_length_b 18.191525
_cell_length_c 11.713314
_cell_angle_alpha 90.000000
_cell_angle_beta 59.133948
_cell_angle_gamma 90.000000
_cell_volume 2982.438452
_symmetry_space_group_name_H-M "C 2/M"
_symmetry_group_IT_number 12
_symmetry_cell_setting 'monoclinic'
loop_
_space_group_symop_operation_xyz
x,y,z
-x,y,-z
-x,-y,-z
x,-y,z
1/2+x,1/2+y,z
1/2-x,1/2+y,-z
1/2-x,1/2-y,-z
1/2+x,1/2-y,z
loop_
_atom_site_type_symbol
_atom_site_label
_atom_site_fract_x
_atom_site_fract_y
_atom_site_fract_z
Si Si1 0.031254 0.578314 0.108321
Si Si2 0.855700 0.659862 0.281882
Si Si3 0.101786 0.799871 0.624812
Si Si4 0.392234 0.804028 0.585644
Si Si5 0.803376 0.336994 0.059415
Si Si6 0.387193 0.729326 0.826427
Si Si7 0.743009 0.086682 0.451664
O O1 0.010652 0.500000 0.182041
O O2 0.969198 0.641620 0.214097
O O3 0.145160 0.592434 0.034127
O O4 0.000000 0.576360 0.000000
O O5 0.838547 0.740021 0.345683
O O6 0.818045 0.661600 0.182826
O O7 0.801214 0.596729 0.391006
O O8 0.110791 0.771692 0.487435
O O9 0.150298 0.878512 0.615079
O O10 0.992334 0.805393 0.745421
O O11 0.500000 0.835955 0.500000
O O12 0.366275 0.783656 0.734361
O O13 0.320952 0.868393 0.594489
O O14 0.690311 0.336999 0.119437
O O15 0.863183 0.268926 0.963058
O O16 0.749212 0.000000 0.415583
#
# Coordination Sequence:
#
# PCOD8083975 Si02
#       7
#     8   8   8   8   8   8   8
#     4   9  17  29  46  72 105 132 162 211 270 321
#     4  10  18  34  54  79 103 136 181 229 271 313
#     4  10  19  34  56  78 105 141 186 231 262 316
#     4   9  19  36  56  79 107 141 184 230 272 317
#     4  10  19  31  52  79 107 135 180 223 271 317
#     4  10  19  33  53  80 106 139 182 227 263 315
#     4  11  22  35  55  82 111 146 180 223 277 325
#
# _framework density 18.776582000000001
#
# number of rings (size 3 to 8) (size 9 to 14) (size 15 to 20)
#    0.000    2.143    1.429    3.857    0.000    0.857 
#    0.000    1.429    0.000    8.143    0.000   10.000 
#    0.000    0.000    0.000    0.000    0.000    0.000 
#
# Total GULP energy -346895.997829 kJ/mol
# GULP energy per Si atom -12389.142780 kJ/mol
# Density = 1.873385 g / cm^3
# Si number density = 18.776582 Si / 1000 Ang^3
#
#
#
# Elastic Constant Matrix: (Units=GPa)
#
#
# Indices 1 2 3 4 5 6 
#
# 1 79.1031 39.0968 18.6146 0.0000 -22.2466 0.0000
# 2 39.0968 93.8219 16.3652 0.0000 -15.7652 0.0000
# 3 18.6146 16.3652 60.5475 0.0000 -14.0766 0.0000
# 4 0.0000 0.0000 0.0000 17.9621 0.0000 -2.8021
# 5 -22.2466 -15.7652 -14.0766 0.0000 32.7647 0.0000
# 6 0.0000 0.0000 0.0000 -2.8021 0.0000 20.6642
#
#
#
# Elastic Compliance Matrix: (Units=1/GPa)
#
#
# Indices 1 2 3 4 5 6 
#
# 1 0.018519 -0.005870 -0.002044 0.000000 0.008871 0.000000
# 2 -0.005870 0.013688 -0.001434 0.000000 0.001985 0.000000
# 3 -0.002044 -0.001434 0.018941 0.000000 0.006060 0.000000
# 4 0.000000 0.000000 0.000000 0.056876 0.000000 0.007712
# 5 0.008871 0.001985 0.006060 0.000000 0.040102 0.000000
# 6 0.000000 0.000000 0.000000 0.007712 0.000000 0.049439
#
#
# Mechanical properties :
#
#
# Convention : Reuss Voigt Hill
#
# Bulk Modulus (GPa) = 30.81474 42.40286 36.60880
# Shear Modulus (GPa) = 22.01887 24.90459 23.46173
#
# Velocity S-wave (km/s) = 3.42815 3.64588 3.53869
# Velocity P-wave (km/s) = 5.66714 6.35257 6.01962
#
# Compressibility (1/GPa) = 0.03245200
#
# Stress axis : x y z
#
# Youngs Moduli (GPa) = 53.99892 73.05628 52.79620
#
# Poissons Ratio (x) = 0.42882 0.10794
# Poissons Ratio (y) = 0.31696 0.07569
# Poissons Ratio (z) = 0.11040 0.10474
#
# Static dielectric constant tensor:
#      x y z
#    x 3.572590 0.000000 -0.152910 
#    y 0.000000 3.298650 0.000000 
#    z -0.152910 0.000000 3.621110 
# 
# 
# High freq. dielectric constant tensor:
#      x y z
#    x 1.728730 0.000000 -0.010280 
#    y 0.000000 1.689850 0.000000 
#    z -0.010280 0.000000 1.739020 
# 
# From -- ./inp_files/146060.got.cif
#   From: 2010.06.25/outbox.cif.g09.slc.cpg/sg12_74_cif.got.tgz:146060.got - 2010.06.28 00:19:55.
