data_PCOD8083019
_publ_section_title
;
Structure prediction by ZEFSAII (Michael W. Deem and Ramdas Pophale) SiO2 
 PCOD8083019
Probable space group: C 2/M
;
_chemical_formula_sum "Si O2"
_cell_formula_units_Z 32
_cell_length_a 23.333279
_cell_length_b 10.554785
_cell_length_c 7.683065
_cell_angle_alpha 90.000000
_cell_angle_beta 63.679307
_cell_angle_gamma 90.000000
_cell_volume 1695.999959
_symmetry_space_group_name_H-M "C 2/M"
_symmetry_group_IT_number 12
_symmetry_cell_setting 'monoclinic'
loop_
_space_group_symop_operation_xyz
x,y,z
-x,y,-z
-x,-y,-z
x,-y,z
1/2+x,1/2+y,z
1/2-x,1/2+y,-z
1/2-x,1/2-y,-z
1/2+x,1/2-y,z
loop_
_atom_site_type_symbol
_atom_site_label
_atom_site_fract_x
_atom_site_fract_y
_atom_site_fract_z
Si Si1 0.691481 0.356175 0.395493
Si Si2 0.896827 0.858960 0.797805
Si Si3 0.325425 0.271240 0.203687
Si Si4 0.944808 0.642535 0.938125
O O1 0.711765 0.500000 0.333742
O O2 0.635153 0.316314 0.340029
O O3 0.665251 0.340907 0.625429
O O4 0.752664 0.270056 0.277112
O O5 0.928041 0.000000 0.740175
O O6 0.842520 0.866171 0.022350
O O7 0.948747 0.749818 0.779341
O O8 0.375765 0.153807 0.127517
O O9 0.952160 0.500000 0.852618
O O10 0.000000 0.673808 0.000000
#
# Coordination Sequence:
#
# PCOD8083019 Si02
#       4
#     8   8   8   8
#     4  10  18  32  52  80 108 131 169 211 255 309
#     4   9  19  33  53  79 103 133 170 212 256 302
#     4   9  19  32  52  76 105 139 163 206 259 298
#     4   9  19  36  55  74 101 138 175 210 251 303
#
# _framework density 18.867926000000001
#
# number of rings (size 3 to 8) (size 9 to 14) (size 15 to 20)
#    1.500    1.250    0.000    2.250    0.000    0.500 
#    0.000    7.500    0.000    6.000    0.000    0.000 
#    0.000    0.000    0.000    0.000    0.000    0.000 
#
# Total GULP energy -198209.660143 kJ/mol
# GULP energy per Si atom -12388.103759 kJ/mol
# Density = 1.882498 g / cm^3
# Si number density = 18.867926 Si / 1000 Ang^3
#
#
#
# Elastic Constant Matrix: (Units=GPa)
#
#
# Indices 1 2 3 4 5 6 
#
# 1 83.3241 57.8134 11.5452 0.0000 33.1840 0.0000
# 2 57.8134 111.1409 7.8898 0.0000 31.1329 0.0000
# 3 11.5452 7.8898 47.2960 0.0000 26.9259 0.0000
# 4 0.0000 0.0000 0.0000 19.1241 0.0000 7.4739
# 5 33.1840 31.1329 26.9259 0.0000 34.8998 0.0000
# 6 0.0000 0.0000 0.0000 7.4739 0.0000 24.9746
#
#
#
# Elastic Compliance Matrix: (Units=1/GPa)
#
#
# Indices 1 2 3 4 5 6 
#
# 1 0.025598 -0.006842 0.009406 0.000000 -0.025492 0.000000
# 2 -0.006842 0.015424 0.005754 0.000000 -0.011692 0.000000
# 3 0.009406 0.005754 0.046188 0.000000 -0.049711 0.000000
# 4 0.000000 0.000000 0.000000 0.059216 0.000000 -0.017721
# 5 -0.025492 -0.011692 -0.049711 0.000000 0.101675 0.000000
# 6 0.000000 0.000000 0.000000 -0.017721 0.000000 0.045344
#
#
# Mechanical properties :
#
#
# Convention : Reuss Voigt Hill
#
# Bulk Modulus (GPa) = 9.62989 44.02866 26.82928
# Shear Modulus (GPa) = 16.05525 26.76721 21.41123
#
# Velocity S-wave (km/s) = 2.92023 3.77060 3.37233
# Velocity P-wave (km/s) = 4.06020 6.50710 5.42345
#
# Compressibility (1/GPa) = 0.10384330
#
# Stress axis : x y z
#
# Youngs Moduli (GPa) = 39.06572 64.83599 21.65054
#
# Poissons Ratio (x) = 0.44363 -0.20364
# Poissons Ratio (y) = 0.26730 -0.12457
# Poissons Ratio (z) = -0.36744 -0.37304
#
# Static dielectric constant tensor:
#      x y z
#    x 3.230050 0.000000 0.205100 
#    y 0.000000 3.306520 0.000000 
#    z 0.205100 0.000000 3.318470 
# 
# 
# High freq. dielectric constant tensor:
#      x y z
#    x 1.724190 0.000000 0.020240 
#    y 0.000000 1.728970 0.000000 
#    z 0.020240 0.000000 1.715570 
# 
# From -- ./inp_files/27098.got.cif
#   From: 2010.06.25/outbox.cif.g09.slc.cpg/sg12_14_cif.got.tgz:27098.got - 2010.06.28 00:19:55.
