data_PCOD8083962
_publ_section_title
;
Structure prediction by ZEFSAII (Michael W. Deem and Ramdas Pophale) SiO2 
 PCOD8083962
Probable space group: C 2/M
;
_chemical_formula_sum "Si O2"
_cell_formula_units_Z 44
_cell_length_a 14.886011
_cell_length_b 21.844128
_cell_length_c 11.113448
_cell_angle_alpha 90.000000
_cell_angle_beta 40.935557
_cell_angle_gamma 90.000000
_cell_volume 2367.784800
_symmetry_space_group_name_H-M "C 2/M"
_symmetry_group_IT_number 12
_symmetry_cell_setting 'monoclinic'
loop_
_space_group_symop_operation_xyz
x,y,z
-x,y,-z
-x,-y,-z
x,-y,z
1/2+x,1/2+y,z
1/2-x,1/2+y,-z
1/2-x,1/2-y,-z
1/2+x,1/2-y,z
loop_
_atom_site_type_symbol
_atom_site_label
_atom_site_fract_x
_atom_site_fract_y
_atom_site_fract_z
Si Si1 0.040703 0.852370 0.323362
Si Si2 0.613046 0.069696 0.742158
Si Si3 0.134475 0.929292 0.665099
Si Si4 0.391938 0.740061 0.923093
Si Si5 0.000000 0.849224 0.000000
Si Si6 0.853522 0.369836 0.041260
O O1 0.007959 0.790254 0.279693
O O2 0.200386 0.870306 0.144542
O O3 0.000000 0.838049 0.500000
O O4 0.955714 0.909514 0.358961
O O5 0.706571 0.082803 0.530788
O O6 0.653629 0.115456 0.809483
O O7 0.635527 0.000000 0.762557
O O8 0.451819 0.080662 0.874565
O O9 0.097540 0.890986 0.819817
O O10 0.105691 0.000000 0.721275
O O11 0.250000 0.750000 0.000000
O O12 0.392769 0.691696 0.032413
O O13 0.433006 0.805470 0.936289
#
# Coordination Sequence:
#
# PCOD8083962 Si02
#       6
#     8   8   8   8   4   8
#     4  10  19  35  54  80 110 144 185 233 275 323
#     4  10  20  33  52  80 110 143 183 225 274 330
#     4  10  21  35  55  82 109 145 188 227 276 329
#     4   9  20  36  56  80 113 143 184 228 274 340
#     4  10  19  38  58  80 113 146 184 234 278 326
#     4  10  18  34  53  77 111 143 177 225 279 323
#
# _framework density 18.582771000000001
#
# number of rings (size 3 to 8) (size 9 to 14) (size 15 to 20)
#    0.000    2.182    1.818    2.455    0.000    1.818 
#    6.545    2.727    0.000    0.000    0.000   24.182 
#    0.000    0.000    0.000    0.000    0.000    0.000 
#
# Total GULP energy -272560.371329 kJ/mol
# GULP energy per Si atom -12389.107788 kJ/mol
# Density = 1.854048 g / cm^3
# Si number density = 18.582771 Si / 1000 Ang^3
#
#
#
# Elastic Constant Matrix: (Units=GPa)
#
#
# Indices 1 2 3 4 5 6 
#
# 1 71.6112 45.8581 45.9484 -0.0003 13.2004 0.0003
# 2 45.8581 104.8398 53.0596 -0.0001 13.4993 0.0001
# 3 45.9484 53.0596 124.3908 -0.0005 8.0947 0.0005
# 4 -0.0003 -0.0001 -0.0005 25.5859 0.0004 3.2710
# 5 13.2004 13.4993 8.0947 0.0004 33.8315 -0.0003
# 6 0.0003 0.0001 0.0005 3.2710 -0.0003 21.5046
#
#
#
# Elastic Compliance Matrix: (Units=1/GPa)
#
#
# Indices 1 2 3 4 5 6 
#
# 1 0.022360 -0.006546 -0.005150 0.000000 -0.004880 0.000000
# 2 -0.006546 0.014546 -0.003632 0.000000 -0.002381 0.000000
# 3 -0.005150 -0.003632 0.011444 0.000000 0.000720 0.000000
# 4 0.000000 0.000000 0.000000 0.039859 -0.000001 -0.006063
# 5 -0.004880 -0.002381 0.000720 -0.000001 0.032240 0.000001
# 6 0.000000 0.000000 0.000000 -0.006063 0.000001 0.047424
#
#
# Mechanical properties :
#
#
# Convention : Reuss Voigt Hill
#
# Bulk Modulus (GPa) = 56.51283 65.61933 61.06608
# Shear Modulus (GPa) = 24.45867 26.58280 25.52073
#
# Velocity S-wave (km/s) = 3.63189 3.78631 3.70990
# Velocity P-wave (km/s) = 6.93288 7.38264 7.16130
#
# Compressibility (1/GPa) = 0.01769510
#
# Stress axis : x y z
#
# Youngs Moduli (GPa) = 44.72277 68.74611 87.38384
#
# Poissons Ratio (x) = 0.45000 0.45001
# Poissons Ratio (y) = 0.29275 0.31737
# Poissons Ratio (z) = 0.23031 0.24968
#
# Static dielectric constant tensor:
#      x y z
#    x 3.371730 0.000000 -0.010800 
#    y 0.000000 3.784460 0.000000 
#    z -0.010800 0.000000 3.536120 
# 
# 
# High freq. dielectric constant tensor:
#      x y z
#    x 1.704560 0.000000 0.001920 
#    y 0.000000 1.730450 0.000000 
#    z 0.001920 0.000000 1.718890 
# 
# From -- ./inp_files/147491.got.cif
#   From: 2010.06.25/outbox.cif.g09.slc.cpg/sg12_74_cif.got.tgz:147491.got - 2010.06.28 00:19:55.
