data_PCOD8083614
_publ_section_title
;
Structure prediction by ZEFSAII (Michael W. Deem and Ramdas Pophale) SiO2 
 PCOD8083614
Probable space group: C 2/M
;
_chemical_formula_sum "Si O2"
_cell_formula_units_Z 56
_cell_length_a 11.577592
_cell_length_b 19.838015
_cell_length_c 14.310635
_cell_angle_alpha 90.000000
_cell_angle_beta 136.488558
_cell_angle_gamma 90.000000
_cell_volume 2262.970740
_symmetry_space_group_name_H-M "C 2/M"
_symmetry_group_IT_number 12
_symmetry_cell_setting 'monoclinic'
loop_
_space_group_symop_operation_xyz
x,y,z
-x,y,-z
-x,-y,-z
x,-y,z
1/2+x,1/2+y,z
1/2-x,1/2+y,-z
1/2-x,1/2-y,-z
1/2+x,1/2-y,z
loop_
_atom_site_type_symbol
_atom_site_label
_atom_site_fract_x
_atom_site_fract_y
_atom_site_fract_z
Si Si1 0.887538 0.663540 0.065231
Si Si2 0.885660 0.074831 0.180947
Si Si3 0.996406 0.424028 0.390265
Si Si4 0.661061 0.816174 0.354116
Si Si5 0.291946 0.270347 0.865220
Si Si6 0.004218 0.803467 0.368048
Si Si7 0.112564 0.097194 0.146174
O O1 0.809051 0.687779 0.116270
O O2 0.084807 0.656144 0.210053
O O3 0.786782 0.597636 0.972450
O O4 0.893754 0.714958 0.983041
O O5 0.941602 0.124342 0.295349
O O6 0.043307 0.072384 0.203682
O O7 0.854184 0.000000 0.202730
O O8 0.066910 0.500000 0.416387
O O9 0.804559 0.422782 0.242795
O O10 0.000000 0.402944 0.500000
O O11 0.111374 0.370264 0.404746
O O12 0.866590 0.814706 0.469332
O O13 0.601376 0.740081 0.344649
O O14 0.409931 0.320867 0.875315
O O15 0.165537 0.239446 0.712475
O O16 0.000000 0.062466 0.000000
#
# Coordination Sequence:
#
# PCOD8083614 Si02
#       7
#     8   8   8   8   8   8   8
#     4   9  17  33  52  69  98 138 188 229 261 299
#     4  11  22  34  51  79 116 151 180 216 270 330
#     4  11  23  36  48  74 119 154 175 212 268 330
#     4  10  18  33  55  71  91 144 194 232 259 305
#     4   9  17  34  50  70  97 139 185 232 259 306
#     4   9  19  35  55  71  96 143 195 230 262 307
#     4  12  21  33  49  77 108 151 181 211 264 325
#
# _framework density 24.746234000000001
#
# number of rings (size 3 to 8) (size 9 to 14) (size 15 to 20)
#    0.000    1.857    4.286    2.143    0.000    4.571 
#    0.000    0.000    0.000    0.000    0.000    0.000 
#    0.000   14.286    0.286    0.571    0.000    0.000 
#
# Total GULP energy -346945.190265 kJ/mol
# GULP energy per Si atom -12390.899652 kJ/mol
# Density = 2.468991 g / cm^3
# Si number density = 24.746234 Si / 1000 Ang^3
#
#
#
# Elastic Constant Matrix: (Units=GPa)
#
#
# Indices 1 2 3 4 5 6 
#
# 1 23.2244 12.3605 8.9042 0.0001 21.5180 0.0000
# 2 12.3605 163.8852 45.3308 0.0000 7.2036 0.0000
# 3 8.9042 45.3308 192.5356 0.0001 31.5003 0.0001
# 4 0.0001 0.0000 0.0001 29.5247 0.0001 -0.8232
# 5 21.5180 7.2036 31.5003 0.0001 32.7576 0.0000
# 6 0.0000 0.0000 0.0001 -0.8232 0.0000 25.6653
#
#
#
# Elastic Compliance Matrix: (Units=1/GPa)
#
#
# Indices 1 2 3 4 5 6 
#
# 1 0.132898 -0.009037 0.011795 0.000000 -0.096654 0.000000
# 2 -0.009037 0.007142 -0.002347 0.000000 0.006623 0.000000
# 3 0.011795 -0.002347 0.007576 0.000000 -0.014517 0.000000
# 4 0.000000 0.000000 0.000000 0.033900 0.000000 0.001087
# 5 -0.096654 0.006623 -0.014517 0.000000 0.106522 0.000000
# 6 0.000000 0.000000 0.000000 0.001087 0.000000 0.038998
#
#
# Mechanical properties :
#
#
# Convention : Reuss Voigt Hill
#
# Bulk Modulus (GPa) = 6.73687 56.98181 31.85934
# Shear Modulus (GPa) = 13.30871 38.45950 25.88411
#
# Velocity S-wave (km/s) = 2.32158 3.94656 3.23767
# Velocity P-wave (km/s) = 3.14875 6.62144 5.18450
#
# Compressibility (1/GPa) = 0.14843687
#
# Stress axis : x y z
#
# Youngs Moduli (GPa) = 7.52455 140.02602 131.99449
#
# Poissons Ratio (x) = 1.26548 -1.55688
# Poissons Ratio (y) = 0.06800 0.30980
# Poissons Ratio (z) = -0.08875 0.32865
#
# Static dielectric constant tensor:
#      x y z
#    x 4.142720 0.000000 0.419330 
#    y 0.000000 4.515650 0.000000 
#    z 0.419330 0.000000 5.040790 
# 
# 
# High freq. dielectric constant tensor:
#      x y z
#    x 1.962060 0.000000 0.021920 
#    y 0.000000 1.969560 0.000000 
#    z 0.021920 0.000000 2.008130 
# 
# From -- ./inp_files/217726.got.cif
#   From: 2010.06.25/outbox.cif.g09.slc.cpg/sg12_109_cif.got.tgz:217726.got - 2010.06.28 00:19:55.
