data_PCOD8083165
_publ_section_title
;
Structure prediction by ZEFSAII (Michael W. Deem and Ramdas Pophale) SiO2 
 PCOD8083165
Probable space group: C 2/M
;
_chemical_formula_sum "Si O2"
_cell_formula_units_Z 56
_cell_length_a 19.753625
_cell_length_b 8.652469
_cell_length_c 18.941426
_cell_angle_alpha 90.000000
_cell_angle_beta 114.260008
_cell_angle_gamma 90.000000
_cell_volume 2951.527657
_symmetry_space_group_name_H-M "C 2/M"
_symmetry_group_IT_number 12
_symmetry_cell_setting 'monoclinic'
loop_
_space_group_symop_operation_xyz
x,y,z
-x,y,-z
-x,-y,-z
x,-y,z
1/2+x,1/2+y,z
1/2-x,1/2+y,-z
1/2-x,1/2-y,-z
1/2+x,1/2-y,z
loop_
_atom_site_type_symbol
_atom_site_label
_atom_site_fract_x
_atom_site_fract_y
_atom_site_fract_z
Si Si1 0.828921 0.816086 0.511789
Si Si2 0.785765 0.316029 0.355346
Si Si3 0.128355 0.683748 0.332151
Si Si4 0.024499 0.317496 0.800535
Si Si5 0.777781 0.819568 0.940114
Si Si6 0.943621 0.180961 0.034124
Si Si7 0.334526 0.816209 0.223466
O O1 0.750000 0.750000 0.500000
O O2 0.842414 0.752884 0.438448
O O3 0.885651 0.747905 0.594145
O O4 0.830382 0.000000 0.513404
O O5 0.783898 0.500000 0.360243
O O6 0.701853 0.254714 0.328299
O O7 0.818954 0.255597 0.295606
O O8 0.136343 0.500000 0.338020
O O9 0.057202 0.740084 0.256893
O O10 0.027167 0.500000 0.800306
O O11 0.043380 0.264078 0.886739
O O12 0.086603 0.253606 0.772292
O O13 0.731232 0.750806 0.854706
O O14 0.763778 0.000000 0.938620
O O15 0.750000 0.750000 0.000000
O O16 0.863759 0.778605 0.967302
O O17 0.954349 0.000000 0.052023
O O18 0.000000 0.245227 0.000000
O O19 0.333510 0.000000 0.223609
#
# Coordination Sequence:
#
# PCOD8083165 Si02
#       7
#     8   8   8   8   8   8   8
#     4  10  18  32  54  79 109 140 172 215 261 311
#     4  10  19  33  57  82 105 138 176 218 262 310
#     4  10  20  34  54  80 108 138 175 218 264 313
#     4  10  21  38  56  76 106 142 178 220 263 311
#     4  10  19  35  56  77 103 140 179 218 259 310
#     4  10  22  36  54  80 109 139 176 221 267 315
#     4   9  19  35  55  77 104 139 180 217 258 311
#
# _framework density 18.973226
#
# number of rings (size 3 to 8) (size 9 to 14) (size 15 to 20)
#    0.000    2.143    1.429    3.857    2.000    1.429 
#    0.000    3.571    0.000    4.286    0.000    0.000 
#    0.000    0.000    0.000    0.000    0.000    0.000 
#
# Total GULP energy -347105.004479 kJ/mol
# GULP energy per Si atom -12396.607303 kJ/mol
# Density = 1.893004 g / cm^3
# Si number density = 18.973226 Si / 1000 Ang^3
#
#
#
# Elastic Constant Matrix: (Units=GPa)
#
#
# Indices 1 2 3 4 5 6 
#
# 1 109.5153 20.4058 43.9617 0.0000 -17.1071 0.0000
# 2 20.4058 53.4610 22.6158 0.0000 1.5688 0.0000
# 3 43.9617 22.6158 105.6152 0.0000 -22.5139 0.0000
# 4 0.0000 0.0000 0.0000 31.2137 0.0000 -2.6467
# 5 -17.1071 1.5688 -22.5139 0.0000 35.0492 0.0000
# 6 0.0000 0.0000 0.0000 -2.6467 0.0000 20.5294
#
#
#
# Elastic Compliance Matrix: (Units=1/GPa)
#
#
# Indices 1 2 3 4 5 6 
#
# 1 0.011646 -0.003111 -0.003407 0.000000 0.003635 0.000000
# 2 -0.003111 0.021987 -0.004573 0.000000 -0.005440 0.000000
# 3 -0.003407 -0.004573 0.013388 0.000000 0.007142 0.000000
# 4 0.000000 0.000000 0.000000 0.032391 0.000000 0.004176
# 5 0.003635 -0.005440 0.007142 0.000000 0.035137 0.000000
# 6 0.000000 0.000000 0.000000 0.004176 0.000000 0.049249
#
#
# Mechanical properties :
#
#
# Convention : Reuss Voigt Hill
#
# Bulk Modulus (GPa) = 40.25723 49.17311 44.71517
# Shear Modulus (GPa) = 25.73894 29.46568 27.60231
#
# Velocity S-wave (km/s) = 3.68719 3.94510 3.81833
# Velocity P-wave (km/s) = 6.27624 6.83558 6.56187
#
# Compressibility (1/GPa) = 0.02484026
#
# Stress axis : x y z
#
# Youngs Moduli (GPa) = 85.86557 45.48196 74.69449
#
# Poissons Ratio (x) = 0.14149 0.25445
# Poissons Ratio (y) = 0.26712 0.34157
# Poissons Ratio (z) = 0.29250 0.20798
#
# Static dielectric constant tensor:
#      x y z
#    x 3.592330 0.000000 0.040650 
#    y 0.000000 3.338700 0.000000 
#    z 0.040650 0.000000 4.166580 
# 
# 
# High freq. dielectric constant tensor:
#      x y z
#    x 1.724980 0.000000 -0.003090 
#    y 0.000000 1.724480 0.000000 
#    z -0.003090 0.000000 1.754660 
# 
# From -- ./inp_files/281669.got.cif
#   From: 2010.06.25/outbox.cif.g09.slc.cpg/sg12_141_cif.got.tgz:281669.got - 2010.06.28 00:19:55.
