data_PCOD8083503
_publ_section_title
;
Structure prediction by ZEFSAII (Michael W. Deem and Ramdas Pophale) SiO2 
 PCOD8083503
Probable space group: C 2/M
;
_chemical_formula_sum "Si O2"
_cell_formula_units_Z 64
_cell_length_a 29.790727
_cell_length_b 17.190588
_cell_length_c 23.873924
_cell_angle_alpha 90.000000
_cell_angle_beta 162.667288
_cell_angle_gamma 90.000000
_cell_volume 3642.463400
_symmetry_space_group_name_H-M "C 2/M"
_symmetry_group_IT_number 12
_symmetry_cell_setting 'monoclinic'
loop_
_space_group_symop_operation_xyz
x,y,z
-x,y,-z
-x,-y,-z
x,-y,z
1/2+x,1/2+y,z
1/2-x,1/2+y,-z
1/2-x,1/2-y,-z
1/2+x,1/2-y,z
loop_
_atom_site_type_symbol
_atom_site_label
_atom_site_fract_x
_atom_site_fract_y
_atom_site_fract_z
Si Si1 0.430595 0.813449 0.160940
Si Si2 0.404552 0.701147 0.560466
Si Si3 0.320534 0.345405 0.982598
Si Si4 0.762667 0.181075 0.709164
Si Si5 0.155022 0.089317 0.870734
Si Si6 0.485687 0.315734 0.073495
Si Si7 0.986925 0.588717 0.418693
Si Si8 0.161206 0.695112 0.351897
O O1 0.516033 0.774870 0.315052
O O2 0.550725 0.854953 0.260998
O O3 0.339282 0.745237 0.020404
O O4 0.319765 0.879707 0.050762
O O5 0.314432 0.737546 0.401105
O O6 0.526473 0.638152 0.684743
O O7 0.290021 0.655072 0.467060
O O8 0.145423 0.356974 0.761511
O O9 0.372915 0.399712 0.096217
O O10 0.422748 0.368490 0.050043
O O11 0.642633 0.113287 0.575638
O O12 0.877247 0.145944 0.798638
O O13 0.848185 0.202943 0.868163
O O14 0.142077 0.000000 0.837908
O O15 0.550606 0.237318 0.176804
O O16 0.951830 0.500000 0.360334
O O17 0.000000 0.599619 0.500000
O O18 0.250000 0.750000 0.500000
#
# Coordination Sequence:
#
# PCOD8083503 Si02
#       8
#     8   8   8   8   8   8   8   8
#     4   9  17  31  52  72  93 124 163 207 249 288
#     4   9  17  31  52  73  96 124 162 207 245 287
#     4  10  18  34  51  71  96 128 170 207 238 284
#     4  10  18  33  50  71  98 128 167 206 237 286
#     4  11  21  32  48  74 103 132 162 202 251 297
#     4   9  18  30  51  76  95 121 167 208 243 283
#     4  11  21  31  43  65 100 138 167 195 231 279
#     4   8  15  29  51  74  95 118 155 211 253 279
#
# _framework density 17.570526999999998
#
# number of rings (size 3 to 8) (size 9 to 14) (size 15 to 20)
#    0.000    2.375    1.250    4.125    0.000    0.000 
#    0.000    3.125    0.000    0.000    0.000   14.000 
#    0.000    0.000    0.000    0.000    0.000    0.000 
#
# Total GULP energy -396443.884357 kJ/mol
# GULP energy per Si atom -12388.871386 kJ/mol
# Density = 1.753054 g / cm^3
# Si number density = 17.570527 Si / 1000 Ang^3
#
#
#
# Elastic Constant Matrix: (Units=GPa)
#
#
# Indices 1 2 3 4 5 6 
#
# 1 96.7966 22.1424 31.7882 -0.0264 17.6631 -0.0276
# 2 22.1424 49.0859 19.8661 -0.0689 6.5984 -0.0682
# 3 31.7882 19.8661 91.6646 -0.0691 6.6528 -0.0768
# 4 -0.0264 -0.0689 -0.0691 8.3471 -0.0471 -1.1708
# 5 17.6631 6.5984 6.6528 -0.0471 33.7866 -0.0344
# 6 -0.0276 -0.0682 -0.0768 -1.1708 -0.0344 10.2740
#
#
#
# Elastic Compliance Matrix: (Units=1/GPa)
#
#
# Indices 1 2 3 4 5 6 
#
# 1 0.013347 -0.003907 -0.003379 -0.000055 -0.005549 -0.000040
# 2 -0.003907 0.023881 -0.003683 0.000162 -0.001896 0.000133
# 3 -0.003379 -0.003683 0.012883 0.000075 -0.000051 0.000071
# 4 -0.000055 0.000162 0.000075 0.121752 0.000166 0.013877
# 5 -0.005549 -0.001896 -0.000051 0.000166 0.032879 0.000101
# 6 -0.000040 0.000133 0.000071 0.013877 0.000101 0.098916
#
#
# Mechanical properties :
#
#
# Convention : Reuss Voigt Hill
#
# Bulk Modulus (GPa) = 35.49559 42.79340 39.14449
# Shear Modulus (GPa) = 14.92594 21.39822 18.16208
#
# Velocity S-wave (km/s) = 2.91776 3.49355 3.21856
# Velocity P-wave (km/s) = 5.62110 6.37819 6.01157
#
# Compressibility (1/GPa) = 0.02817251
#
# Stress axis : x y z
#
# Youngs Moduli (GPa) = 74.92293 41.87471 77.62100
#
# Poissons Ratio (x) = 0.16362 0.26229
# Poissons Ratio (y) = 0.29275 0.28586
# Poissons Ratio (z) = 0.25317 0.15421
#
# Static dielectric constant tensor:
#      x y z
#    x 3.809220 -0.000070 0.227060 
#    y -0.000070 2.721050 -0.000010 
#    z 0.227060 -0.000010 3.558650 
# 
# 
# High freq. dielectric constant tensor:
#      x y z
#    x 1.695130 0.000000 0.014910 
#    y 0.000000 1.608120 0.000000 
#    z 0.014910 0.000000 1.698520 
# 
# From -- ./inp_files/328652.got.cif
#   From: 2010.06.25/outbox.cif.g09.slc.cpg/sg12_165_cif.got.tgz:328652.got - 2010.06.28 00:19:55.
