data_PCOD8083255
_publ_section_title
;
Structure prediction by ZEFSAII (Michael W. Deem and Ramdas Pophale) SiO2 
 PCOD8083255
Probable space group: C 2/M
;
_chemical_formula_sum "Si O2"
_cell_formula_units_Z 44
_cell_length_a 18.829449
_cell_length_b 9.788786
_cell_length_c 18.444872
_cell_angle_alpha 90.000000
_cell_angle_beta 42.246427
_cell_angle_gamma 90.000000
_cell_volume 2285.696374
_symmetry_space_group_name_H-M "C 2/M"
_symmetry_group_IT_number 12
_symmetry_cell_setting 'monoclinic'
loop_
_space_group_symop_operation_xyz
x,y,z
-x,y,-z
-x,-y,-z
x,-y,z
1/2+x,1/2+y,z
1/2-x,1/2+y,-z
1/2-x,1/2-y,-z
1/2+x,1/2-y,z
loop_
_atom_site_type_symbol
_atom_site_label
_atom_site_fract_x
_atom_site_fract_y
_atom_site_fract_z
Si Si1 0.582245 0.841355 0.732687
Si Si2 0.767610 0.149115 0.687337
Si Si3 0.000000 0.210812 0.500000
Si Si4 0.257730 0.659025 0.160665
Si Si5 0.482035 0.154685 0.667221
Si Si6 0.436904 0.841611 0.973609
O O1 0.705508 0.814937 0.659519
O O2 0.550692 0.771111 0.679329
O O3 0.509708 0.787230 0.853257
O O4 0.557080 0.000000 0.743155
O O5 0.892146 0.124994 0.580787
O O6 0.740892 0.270992 0.761566
O O7 0.724543 0.000000 0.748269
O O8 0.005885 0.295322 0.569016
O O9 0.291979 0.500000 0.141962
O O10 0.140140 0.671676 0.217665
O O11 0.334660 0.743314 0.049879
O O12 0.517342 0.000000 0.636701
O O13 0.402601 0.000000 0.990365
O O14 0.500000 0.819548 0.000000
#
# Coordination Sequence:
#
# PCOD8083255 Si02
#       6
#     8   8   4   8   8   8
#     4   9  18  33  54  76 105 142 181 215 253 315
#     4  10  19  35  56  79 105 139 180 221 262 312
#     4  10  20  32  56  80 103 134 177 224 271 316
#     4  10  20  33  53  80 111 142 174 215 263 313
#     4   9  19  35  52  76 108 143 176 214 266 320
#     4  10  18  32  55  81 105 142 183 210 252 313
#
# _framework density 19.250150999999999
#
# number of rings (size 3 to 8) (size 9 to 14) (size 15 to 20)
#    0.000    2.364    1.818    1.091    0.000    2.545 
#    0.000    0.000    0.000   12.000    0.000    0.000 
#    0.000    0.000    0.000    0.000    0.000    0.000 
#
# Total GULP energy -272542.520326 kJ/mol
# GULP energy per Si atom -12388.296378 kJ/mol
# Density = 1.920634 g / cm^3
# Si number density = 19.250151 Si / 1000 Ang^3
#
#
#
# Elastic Constant Matrix: (Units=GPa)
#
#
# Indices 1 2 3 4 5 6 
#
# 1 151.5634 39.0471 54.1309 0.0000 16.5072 0.0000
# 2 39.0471 76.8561 24.1942 0.0000 -4.2792 0.0001
# 3 54.1309 24.1942 90.2427 0.0000 6.8224 0.0000
# 4 0.0000 0.0000 0.0000 16.0822 0.0000 1.8013
# 5 16.5072 -4.2792 6.8224 0.0000 31.0320 0.0000
# 6 0.0000 0.0001 0.0000 1.8013 0.0000 -4.3015
#
#
#
# Elastic Compliance Matrix: (Units=1/GPa)
#
#
# Indices 1 2 3 4 5 6 
#
# 1 0.009663 -0.003776 -0.004430 0.000000 -0.004687 0.000000
# 2 -0.003776 0.015937 -0.002365 0.000000 0.004726 0.000000
# 3 -0.004430 -0.002365 0.014459 0.000000 -0.001149 0.000000
# 4 0.000000 0.000000 0.000000 0.059395 0.000000 0.024872
# 5 -0.004687 0.004726 -0.001149 0.000000 0.035622 0.000000
# 6 0.000000 0.000000 0.000000 0.024872 0.000000 -0.222059
#
#
# Mechanical properties :
#
#
# Convention : Reuss Voigt Hill
#
# Bulk Modulus (GPa) = 52.85896 61.48960 57.17428
# Shear Modulus (GPa) = -83.98482 21.98187 -31.00147
#
# Velocity S-wave (km/s) = -6.61233 3.38288 -4.01740
# Velocity P-wave (km/s) = 5.54784 6.87533 2.87156
#
# Compressibility (1/GPa) = 0.01891827
#
# Stress axis : x y z
#
# Youngs Moduli (GPa) = 103.48491 62.74528 69.15978
#
# Poissons Ratio (x) = 0.23692 0.30636
# Poissons Ratio (y) = 0.39076 0.16358
# Poissons Ratio (z) = 0.45840 0.14841
#
# Static dielectric constant tensor:
#      x y z
#    x 3.813130 0.000000 -0.044970 
#    y 0.000000 3.324270 0.000000 
#    z -0.044970 0.000000 3.635190 
# 
# 
# High freq. dielectric constant tensor:
#      x y z
#    x 1.758700 0.000000 -0.008060 
#    y 0.000000 1.721100 0.000000 
#    z -0.008060 0.000000 1.740650 
# 
# From -- ./inp_files/274853.got.cif
#   From: 2010.06.25/outbox.cif.g09.slc.cpg/sg12_138_cif.got.tgz:274853.got - 2010.06.28 00:19:55.
