data_PCOD8083612
_publ_section_title
;
Structure prediction by ZEFSAII (Michael W. Deem and Ramdas Pophale) SiO2 
 PCOD8083612
Probable space group: C 2/M
;
_chemical_formula_sum "Si O2"
_cell_formula_units_Z 32
_cell_length_a 9.010959
_cell_length_b 18.753487
_cell_length_c 12.801534
_cell_angle_alpha 90.000000
_cell_angle_beta 57.901810
_cell_angle_gamma 90.000000
_cell_volume 1832.608032
_symmetry_space_group_name_H-M "C 2/M"
_symmetry_group_IT_number 12
_symmetry_cell_setting 'monoclinic'
loop_
_space_group_symop_operation_xyz
x,y,z
-x,y,-z
-x,-y,-z
x,-y,z
1/2+x,1/2+y,z
1/2-x,1/2+y,-z
1/2-x,1/2-y,-z
1/2+x,1/2-y,z
loop_
_atom_site_type_symbol
_atom_site_label
_atom_site_fract_x
_atom_site_fract_y
_atom_site_fract_z
Si Si1 0.460416 0.170541 0.333144
Si Si2 0.682151 0.308694 0.687586
Si Si3 0.442484 0.223333 0.911608
Si Si4 0.650270 0.583096 0.525879
O O1 0.335760 0.240495 0.382982
O O2 0.616601 0.178929 0.357479
O O3 0.540935 0.163086 0.185269
O O4 0.340923 0.103368 0.407796
O O5 0.562281 0.292447 0.834680
O O6 0.613225 0.377133 0.649437
O O7 0.500000 0.189353 0.000000
O O8 0.250000 0.250000 0.000000
O O9 0.500000 0.603883 0.500000
O O10 0.649551 0.500000 0.551182
#
# Coordination Sequence:
#
# PCOD8083612 Si02
#       4
#     8   8   8   8
#     4  10  20  34  58  84 111 140 180 226 270 318
#     4  10  20  34  58  84 111 140 181 224 271 318
#     4  10  18  33  54  87 112 138 173 225 268 317
#     4  11  24  39  54  77 111 147 183 226 276 324
#
# _framework density 17.461452999999999
#
# number of rings (size 3 to 8) (size 9 to 14) (size 15 to 20)
#    1.500    0.250    2.500    3.000    3.500    2.000 
#    0.000    0.000    0.000    3.000    0.000    0.000 
#    0.000    0.000    0.000    0.000    0.000    0.000 
#
# Total GULP energy -198215.718782 kJ/mol
# GULP energy per Si atom -12388.482424 kJ/mol
# Density = 1.742171 g / cm^3
# Si number density = 17.461453 Si / 1000 Ang^3
#
#
#
# Elastic Constant Matrix: (Units=GPa)
#
#
# Indices 1 2 3 4 5 6 
#
# 1 126.0095 31.5902 13.1480 0.0000 6.6217 0.0000
# 2 31.5902 59.4090 15.5401 0.0000 13.0615 0.0000
# 3 13.1480 15.5401 81.7516 0.0000 -0.7217 0.0000
# 4 0.0000 0.0000 0.0000 -3.4084 0.0000 1.8202
# 5 6.6217 13.0615 -0.7217 0.0000 35.7970 0.0000
# 6 0.0000 0.0000 0.0000 1.8202 0.0000 24.3644
#
#
#
# Elastic Compliance Matrix: (Units=1/GPa)
#
#
# Indices 1 2 3 4 5 6 
#
# 1 0.009182 -0.004736 -0.000576 0.000000 0.000018 0.000000
# 2 -0.004736 0.021827 -0.003451 0.000000 -0.007158 0.000000
# 3 -0.000576 -0.003451 0.012995 0.000000 0.001628 0.000000
# 4 0.000000 0.000000 0.000000 -0.282136 0.000000 0.021077
# 5 0.000018 -0.007158 0.001628 0.000000 0.030577 0.000000
# 6 0.000000 0.000000 0.000000 0.021077 0.000000 0.039469
#
#
# Mechanical properties :
#
#
# Convention : Reuss Voigt Hill
#
# Bulk Modulus (GPa) = 37.76593 43.08076 40.42335
# Shear Modulus (GPa) = -35.27735 25.14338 -5.06699
#
# Velocity S-wave (km/s) = -4.49965 3.79877 -1.70532
# Velocity P-wave (km/s) = 2.30666 6.63071 4.39577
#
# Compressibility (1/GPa) = 0.02647889
#
# Stress axis : x y z
#
# Youngs Moduli (GPa) = 108.90437 45.81491 76.95166
#
# Poissons Ratio (x) = 0.21697 0.04436
# Poissons Ratio (y) = 0.51575 0.26553
# Poissons Ratio (z) = 0.06277 0.15809
#
# Static dielectric constant tensor:
#      x y z
#    x 3.250920 0.000000 -0.041540 
#    y 0.000000 2.827310 0.000000 
#    z -0.041540 0.000000 3.120460 
# 
# 
# High freq. dielectric constant tensor:
#      x y z
#    x 1.698070 0.000000 0.004830 
#    y 0.000000 1.623730 0.000000 
#    z 0.004830 0.000000 1.681370 
# 
# From -- ./inp_files/118312.got.cif
#   From: 2010.06.25/outbox.cif.g09.slc.cpg/sg12_60_cif.got.tgz:118312.got - 2010.06.28 00:19:55.
