data_PCOD8083058
_publ_section_title
;
Structure prediction by ZEFSAII (Michael W. Deem and Ramdas Pophale) SiO2 
 PCOD8083058
Probable space group: C 2/M
;
_chemical_formula_sum "Si O2"
_cell_formula_units_Z 56
_cell_length_a 30.596345
_cell_length_b 9.115632
_cell_length_c 12.037358
_cell_angle_alpha 90.000000
_cell_angle_beta 60.338812
_cell_angle_gamma 90.000000
_cell_volume 2917.364966
_symmetry_space_group_name_H-M "C 2/M"
_symmetry_group_IT_number 12
_symmetry_cell_setting 'monoclinic'
loop_
_space_group_symop_operation_xyz
x,y,z
-x,y,-z
-x,-y,-z
x,-y,z
1/2+x,1/2+y,z
1/2-x,1/2+y,-z
1/2-x,1/2-y,-z
1/2+x,1/2-y,z
loop_
_atom_site_type_symbol
_atom_site_label
_atom_site_fract_x
_atom_site_fract_y
_atom_site_fract_z
Si Si1 0.758001 0.824902 0.609716
Si Si2 0.442911 0.825792 0.587840
Si Si3 0.003215 0.836585 0.127040
Si Si4 0.355598 0.835742 0.536264
Si Si5 0.590793 0.827051 0.131549
Si Si6 0.408374 0.836389 0.246461
Si Si7 0.660549 0.172999 0.858222
O O1 0.750000 0.750000 0.500000
O O2 0.808570 0.772930 0.608700
O O3 0.714890 0.769958 0.750535
O O4 0.758872 0.000000 0.592200
O O5 0.500000 0.761873 0.500000
O O6 0.405013 0.774270 0.538396
O O7 0.417265 0.765665 0.734023
O O8 0.447093 0.000000 0.583659
O O9 0.048995 0.737062 0.104410
O O10 0.952270 0.766328 0.238058
O O11 0.009211 0.000000 0.168101
O O12 0.000000 0.836842 0.000000
O O13 0.365763 0.844261 0.393114
O O14 0.342354 0.000000 0.597406
O O15 0.584116 0.000000 0.141380
O O16 0.644859 0.784559 0.005632
O O17 0.382556 0.765138 0.170200
O O18 0.429843 0.000000 0.195841
O O19 0.660503 0.000000 0.842504
#
# Coordination Sequence:
#
# PCOD8083058 Si02
#       7
#     8   8   8   8   8   8   8
#     4  11  21  36  56  82 113 145 183 226 276 327
#     4   9  18  34  58  84 107 138 183 230 266 311
#     4  11  22  32  45  75 113 140 169 218 279 332
#     4  10  20  36  57  83 111 139 181 229 273 320
#     4  10  19  35  57  76 101 143 187 224 265 316
#     4  10  18  32  53  75 103 140 179 218 261 320
#     4   9  18  32  52  78 104 135 179 223 262 315
#
# _framework density 19.195405000000001
#
# number of rings (size 3 to 8) (size 9 to 14) (size 15 to 20)
#    0.000    2.000    2.857    1.714    0.000    3.429 
#    0.000    2.857    0.000    1.714    0.000    0.000 
#    0.000    0.000    0.000    0.000    0.000    0.000 
#
# Total GULP energy -346967.080926 kJ/mol
# GULP energy per Si atom -12391.681462 kJ/mol
# Density = 1.915172 g / cm^3
# Si number density = 19.195405 Si / 1000 Ang^3
#
#
#
# Elastic Constant Matrix: (Units=GPa)
#
#
# Indices 1 2 3 4 5 6 
#
# 1 103.3843 19.8075 51.7394 0.0000 -13.7345 0.0000
# 2 19.8075 25.8401 32.1439 0.0000 -6.9699 0.0000
# 3 51.7394 32.1439 134.3745 0.0000 -12.9444 0.0000
# 4 0.0000 0.0000 0.0000 15.2543 0.0000 -7.2022
# 5 -13.7345 -6.9699 -12.9444 0.0000 32.3043 0.0000
# 6 0.0000 0.0000 0.0000 -7.2022 0.0000 21.2281
#
#
#
# Elastic Compliance Matrix: (Units=1/GPa)
#
#
# Indices 1 2 3 4 5 6 
#
# 1 0.012703 -0.004558 -0.003511 0.000000 0.003011 0.000000
# 2 -0.004558 0.058236 -0.011600 0.000000 0.005979 0.000000
# 3 -0.003511 -0.011600 0.011633 0.000000 0.000666 0.000000
# 4 0.000000 0.000000 0.000000 0.078059 0.000000 0.026484
# 5 0.003011 0.005979 0.000666 0.000000 0.033792 0.000000
# 6 0.000000 0.000000 0.000000 0.026484 0.000000 0.056093
#
#
# Mechanical properties :
#
#
# Convention : Reuss Voigt Hill
#
# Bulk Modulus (GPa) = 23.12982 52.33117 37.73049
# Shear Modulus (GPa) = 16.43312 24.41788 20.42550
#
# Velocity S-wave (km/s) = 2.92909 3.57048 3.26557
# Velocity P-wave (km/s) = 4.84925 6.65727 5.82385
#
# Compressibility (1/GPa) = 0.04323424
#
# Stress axis : x y z
#
# Youngs Moduli (GPa) = 78.72253 17.17160 85.96550
#
# Poissons Ratio (x) = 0.07827 0.30180
# Poissons Ratio (y) = 0.35882 0.99717
# Poissons Ratio (z) = 0.27637 0.19918
#
# Static dielectric constant tensor:
#      x y z
#    x 3.453620 0.000000 -0.143080 
#    y 0.000000 3.306140 0.000000 
#    z -0.143080 0.000000 3.858850 
# 
# 
# High freq. dielectric constant tensor:
#      x y z
#    x 1.733040 0.000000 -0.010720 
#    y 0.000000 1.710220 0.000000 
#    z -0.010720 0.000000 1.753600 
# 
# From -- ./inp_files/180672.got.cif
#   From: 2010.06.25/outbox.cif.g09.slc.cpg/sg12_91_cif.got.tgz:180672.got - 2010.06.28 00:19:55.
