data_PCOD8083471
_publ_section_title
;
Structure prediction by ZEFSAII (Michael W. Deem and Ramdas Pophale) SiO2 
 PCOD8083471
Probable space group: C 2/M
;
_chemical_formula_sum "Si O2"
_cell_formula_units_Z 48
_cell_length_a 16.462180
_cell_length_b 15.064209
_cell_length_c 13.308392
_cell_angle_alpha 90.000000
_cell_angle_beta 137.650547
_cell_angle_gamma 90.000000
_cell_volume 2223.279160
_symmetry_space_group_name_H-M "C 2/M"
_symmetry_group_IT_number 12
_symmetry_cell_setting 'monoclinic'
loop_
_space_group_symop_operation_xyz
x,y,z
-x,y,-z
-x,-y,-z
x,-y,z
1/2+x,1/2+y,z
1/2-x,1/2+y,-z
1/2-x,1/2-y,-z
1/2+x,1/2-y,z
loop_
_atom_site_type_symbol
_atom_site_label
_atom_site_fract_x
_atom_site_fract_y
_atom_site_fract_z
Si Si1 0.358872 0.905334 0.174581
Si Si2 0.933063 0.680513 0.543671
Si Si3 0.334020 0.720987 0.918275
Si Si4 0.986257 0.168653 0.242534
Si Si5 0.254255 0.596843 0.135915
Si Si6 0.328293 0.601941 0.734255
O O1 0.499111 0.895390 0.330348
O O2 0.291163 0.823405 0.163002
O O3 0.312321 0.000000 0.176172
O O4 0.342879 0.906614 0.041415
O O5 0.797508 0.648402 0.406124
O O6 0.000000 0.696788 0.500000
O O7 0.937837 0.770819 0.612230
O O8 0.294214 0.819800 0.841930
O O9 0.388894 0.661267 0.878882
O O10 0.421453 0.726130 0.094966
O O11 0.887727 0.111796 0.213122
O O12 0.082014 0.102704 0.278536
O O13 0.253639 0.500000 0.191614
O O14 0.310676 0.500000 0.752212
#
# Coordination Sequence:
#
# PCOD8083471 Si02
#       6
#     8   8   8   8   8   8
#     4  10  18  32  59  91 120 152 204 259 305 354
#     4  12  22  39  63  89 128 166 209 253 307 373
#     4  11  20  39  62  91 126 164 209 258 309 369
#     4  11  22  41  60  90 132 169 204 254 316 378
#     4  10  19  36  65  91 117 161 215 262 300 360
#     4  12  26  39  62  98 131 164 203 258 326 377
#
# _framework density 21.589732000000001
#
# number of rings (size 3 to 8) (size 9 to 14) (size 15 to 20)
#    0.000    1.000    5.000    3.500    0.000    3.333 
#    0.000    0.000    0.000   17.000    0.000    0.000 
#    0.000    0.000    0.000    0.000    0.000    0.000 
#
# Total GULP energy -297383.159430 kJ/mol
# GULP energy per Si atom -12390.964976 kJ/mol
# Density = 2.154059 g / cm^3
# Si number density = 21.589732 Si / 1000 Ang^3
#
#
#
# Elastic Constant Matrix: (Units=GPa)
#
#
# Indices 1 2 3 4 5 6 
#
# 1 54.9827 22.1953 22.1245 0.0000 2.6127 0.0000
# 2 22.1953 176.4116 28.4245 0.0000 -7.1517 0.0000
# 3 22.1245 28.4245 78.9764 0.0000 7.7412 0.0000
# 4 0.0000 0.0000 0.0000 17.4268 0.0000 -1.7596
# 5 2.6127 -7.1517 7.7412 0.0000 20.3121 0.0000
# 6 0.0000 0.0000 0.0000 -1.7596 0.0000 19.4527
#
#
#
# Elastic Compliance Matrix: (Units=1/GPa)
#
#
# Indices 1 2 3 4 5 6 
#
# 1 0.021063 -0.001890 -0.005079 0.000000 -0.001439 0.000000
# 2 -0.001890 0.006376 -0.002087 0.000000 0.003283 0.000000
# 3 -0.005079 -0.002087 0.015420 0.000000 -0.005958 0.000000
# 4 0.000000 0.000000 0.000000 0.057912 0.000000 0.005239
# 5 -0.001439 0.003283 -0.005958 0.000000 0.052844 0.000000
# 6 0.000000 0.000000 0.000000 0.005239 0.000000 0.051881
#
#
# Mechanical properties :
#
#
# Convention : Reuss Voigt Hill
#
# Bulk Modulus (GPa) = 40.41066 50.65107 45.53086
# Shear Modulus (GPa) = 21.56512 27.28008 24.42260
#
# Velocity S-wave (km/s) = 3.16390 3.55853 3.36700
# Velocity P-wave (km/s) = 5.66615 6.35577 6.02084
#
# Compressibility (1/GPa) = 0.02474595
#
# Stress axis : x y z
#
# Youngs Moduli (GPa) = 47.47730 156.84468 64.85039
#
# Poissons Ratio (x) = 0.29643 0.32939
# Poissons Ratio (y) = 0.08973 0.13535
# Poissons Ratio (z) = 0.24115 0.32735
#
# Static dielectric constant tensor:
#      x y z
#    x 3.726290 0.000000 0.020570 
#    y 0.000000 4.218770 0.000000 
#    z 0.020570 0.000000 4.004030 
# 
# 
# High freq. dielectric constant tensor:
#      x y z
#    x 1.813350 0.000000 0.013480 
#    y 0.000000 1.855980 0.000000 
#    z 0.013480 0.000000 1.848230 
# 
# From -- ./inp_files/225447.got.cif
#   From: 2010.06.25/outbox.cif.g09.slc.cpg/sg12_113_cif.got.tgz:225447.got - 2010.06.28 00:19:55.
