data_PCOD8083219
_publ_section_title
;
Structure prediction by ZEFSAII (Michael W. Deem and Ramdas Pophale) SiO2 
 PCOD8083219
Probable space group: C 2/M
;
_chemical_formula_sum "Si O2"
_cell_formula_units_Z 56
_cell_length_a 18.883891
_cell_length_b 9.463673
_cell_length_c 26.800813
_cell_angle_alpha 90.000000
_cell_angle_beta 41.105694
_cell_angle_gamma 90.000000
_cell_volume 3148.922668
_symmetry_space_group_name_H-M "C 2/M"
_symmetry_group_IT_number 12
_symmetry_cell_setting 'monoclinic'
loop_
_space_group_symop_operation_xyz
x,y,z
-x,y,-z
-x,-y,-z
x,-y,z
1/2+x,1/2+y,z
1/2-x,1/2+y,-z
1/2-x,1/2-y,-z
1/2+x,1/2-y,z
loop_
_atom_site_type_symbol
_atom_site_label
_atom_site_fract_x
_atom_site_fract_y
_atom_site_fract_z
Si Si1 0.305424 0.345346 0.820928
Si Si2 0.270473 0.830707 0.741693
Si Si3 0.969630 0.661842 0.569508
Si Si4 0.678644 0.668108 0.077135
Si Si5 0.435910 0.335053 0.207053
Si Si6 0.556378 0.653205 0.687497
Si Si7 0.643898 0.839455 0.558935
O O1 0.254656 0.500000 0.834708
O O2 0.277299 0.232125 0.793583
O O3 0.271122 0.294748 0.894733
O O4 0.431233 0.367947 0.760401
O O5 0.367759 0.772526 0.654125
O O6 0.156383 0.774994 0.780676
O O7 0.278164 0.000000 0.741986
O O8 0.938646 0.500000 0.575692
O O9 0.000000 0.735052 0.500000
O O10 0.078245 0.677046 0.543172
O O11 0.683612 0.500000 0.065570
O O12 0.555854 0.727233 0.134897
O O13 0.750000 0.750000 0.000000
O O14 0.444035 0.500000 0.193522
O O15 0.393758 0.304469 0.285533
O O16 0.605569 0.500000 0.643704
O O17 0.573211 0.780847 0.641248
O O18 0.750000 0.750000 0.500000
O O19 0.673302 0.000000 0.554876
#
# Coordination Sequence:
#
# PCOD8083219 Si02
#       7
#     8   8   8   8   8   8   8
#     4   9  18  33  53  76 106 136 164 203 261 314
#     4  10  18  32  55  78 101 133 176 217 251 300
#     4   9  19  33  50  74 101 132 173 218 258 298
#     4   9  18  35  56  80 106 137 172 209 252 304
#     4   8  17  32  54  79 102 133 174 210 250 304
#     4   9  17  33  54  72  95 132 170 210 255 302
#     4  11  22  34  50  73 100 130 171 218 260 308
#
# _framework density 17.783861000000002
#
# number of rings (size 3 to 8) (size 9 to 14) (size 15 to 20)
#    0.000    2.714    1.429    2.143    2.000    0.571 
#    0.000    4.286    0.000    6.429    0.000    0.000 
#    0.000    0.000    0.000    0.000    0.000    0.000 
#
# Total GULP energy -346902.962475 kJ/mol
# GULP energy per Si atom -12389.391517 kJ/mol
# Density = 1.774338 g / cm^3
# Si number density = 17.783861 Si / 1000 Ang^3
#
#
#
# Elastic Constant Matrix: (Units=GPa)
#
#
# Indices 1 2 3 4 5 6 
#
# 1 98.4988 39.0876 45.9695 0.0000 19.3226 -0.0001
# 2 39.0876 64.0194 43.8720 0.0000 11.9568 -0.0002
# 3 45.9695 43.8720 106.9477 0.0000 21.2375 0.0000
# 4 0.0000 0.0000 0.0000 27.1140 0.0000 0.5077
# 5 19.3226 11.9568 21.2375 0.0000 25.9924 0.0000
# 6 -0.0001 -0.0002 0.0000 0.5077 0.0000 21.3146
#
#
#
# Elastic Compliance Matrix: (Units=1/GPa)
#
#
# Indices 1 2 3 4 5 6 
#
# 1 0.015088 -0.006199 -0.002723 0.000000 -0.006140 0.000000
# 2 -0.006199 0.024506 -0.007240 0.000000 -0.000750 0.000000
# 3 -0.002723 -0.007240 0.014834 0.000000 -0.006766 0.000000
# 4 0.000000 0.000000 0.000000 0.036898 0.000000 -0.000879
# 5 -0.006140 -0.000750 -0.006766 0.000000 0.048910 0.000000
# 6 0.000000 0.000000 0.000000 -0.000879 0.000000 0.046937
#
#
# Mechanical properties :
#
#
# Convention : Reuss Voigt Hill
#
# Bulk Modulus (GPa) = 45.23892 58.59158 51.91525
# Shear Modulus (GPa) = 22.03955 24.25332 23.14644
#
# Velocity S-wave (km/s) = 3.52419 3.69695 3.61160
# Velocity P-wave (km/s) = 6.48485 7.15830 6.82988
#
# Compressibility (1/GPa) = 0.02210486
#
# Stress axis : x y z
#
# Youngs Moduli (GPa) = 66.27933 40.80558 67.41205
#
# Poissons Ratio (x) = 0.25296 0.18356
# Poissons Ratio (y) = 0.41088 0.48803
# Poissons Ratio (z) = 0.18047 0.29541
#
# Static dielectric constant tensor:
#      x y z
#    x 3.490860 0.000000 -0.079140 
#    y 0.000000 2.883610 0.000000 
#    z -0.079140 0.000000 3.008920 
# 
# 
# High freq. dielectric constant tensor:
#      x y z
#    x 1.691170 0.000000 0.008140 
#    y 0.000000 1.656460 0.000000 
#    z 0.008140 0.000000 1.683510 
# 
# From -- ./inp_files/342273.got.cif
#   From: 2010.06.25/outbox.cif.g09.slc.cpg/sg12_172_cif.got.tgz:342273.got - 2010.06.28 00:19:55.
