data_PCOD8083934
_publ_section_title
;
Structure prediction by ZEFSAII (Michael W. Deem and Ramdas Pophale) SiO2 
 PCOD8083934
Probable space group: C 2/M
;
_chemical_formula_sum "Si O2"
_cell_formula_units_Z 48
_cell_length_a 34.741248
_cell_length_b 15.783412
_cell_length_c 5.150017
_cell_angle_alpha 90.000000
_cell_angle_beta 95.641162
_cell_angle_gamma 90.000000
_cell_volume 2810.260572
_symmetry_space_group_name_H-M "C 2/M"
_symmetry_group_IT_number 12
_symmetry_cell_setting 'monoclinic'
loop_
_space_group_symop_operation_xyz
x,y,z
-x,y,-z
-x,-y,-z
x,-y,z
1/2+x,1/2+y,z
1/2-x,1/2+y,-z
1/2-x,1/2-y,-z
1/2+x,1/2-y,z
loop_
_atom_site_type_symbol
_atom_site_label
_atom_site_fract_x
_atom_site_fract_y
_atom_site_fract_z
Si Si1 0.772687 0.500000 0.410797
Si Si2 0.253851 0.659990 0.376859
Si Si3 0.672358 0.820988 0.149170
Si Si4 0.956830 0.899646 0.958386
Si Si5 0.664183 0.711733 0.655948
Si Si6 0.676605 0.000000 0.061149
Si Si7 0.410096 0.399555 0.424696
O O1 0.747847 0.587165 0.398202
O O2 0.789245 0.500000 0.710471
O O3 0.805635 0.500000 0.216728
O O4 0.250000 0.750000 0.500000
O O5 0.218493 0.657217 0.144424
O O6 0.296529 0.657090 0.279905
O O7 0.665196 0.782165 0.428966
O O8 0.651659 0.913421 0.093890
O O9 0.656190 0.758377 0.921454
O O10 0.936753 0.870345 0.680684
O O11 0.959745 0.000000 0.975833
O O12 0.931470 0.866504 0.181496
O O13 0.000000 0.860584 0.000000
O O14 0.631009 0.644743 0.575182
O O15 0.403220 0.500000 0.418534
#
# Coordination Sequence:
#
# PCOD8083934 Si02
#       7
#     4   8   8   8   8   4   8
#     4  10  20  30  48  68  82 116 161 216 247 288
#     4   9  19  33  48  64  90 124 169 206 248 296
#     4  10  20  34  50  68  87 129 165 212 247 294
#     4   9  17  32  52  71  94 131 171 199 226 278
#     4  11  21  32  49  68 101 128 157 198 257 290
#     4  10  18  34  50  66  86 108 169 212 249 274
#     4  10  20  32  48  73 104 132 164 198 240 289
#
# _framework density 17.080266000000002
#
# number of rings (size 3 to 8) (size 9 to 14) (size 15 to 20)
#    0.000    2.167    0.000    5.000    1.167    6.000 
#    0.000    0.000    1.833    0.000    0.000    0.000 
#    0.000    0.000    0.000   52.500    0.000    1.667 
#
# Total GULP energy -297356.005675 kJ/mol
# GULP energy per Si atom -12389.833570 kJ/mol
# Density = 1.704139 g / cm^3
# Si number density = 17.080266 Si / 1000 Ang^3
#
#
#
# Elastic Constant Matrix: (Units=GPa)
#
#
# Indices 1 2 3 4 5 6 
#
# 1 76.7073 23.6249 10.8593 0.0000 6.3736 0.0000
# 2 23.6249 79.8636 28.7312 0.0000 1.7104 0.0000
# 3 10.8593 28.7312 74.1183 0.0000 -3.4851 0.0000
# 4 0.0000 0.0000 0.0000 20.2912 0.0000 -1.9292
# 5 6.3736 1.7104 -3.4851 0.0000 21.9238 0.0000
# 6 0.0000 0.0000 0.0000 -1.9292 0.0000 17.8296
#
#
#
# Elastic Compliance Matrix: (Units=1/GPa)
#
#
# Indices 1 2 3 4 5 6 
#
# 1 0.014715 -0.003975 -0.000808 0.000000 -0.004096 0.000000
# 2 -0.003975 0.015716 -0.005555 0.000000 -0.000954 0.000000
# 3 -0.000808 -0.005555 0.015914 0.000000 0.003198 0.000000
# 4 0.000000 0.000000 0.000000 0.049795 0.000000 0.005388
# 5 -0.004096 -0.000954 0.003198 0.000000 0.047386 0.000000
# 6 0.000000 0.000000 0.000000 0.005388 0.000000 0.056670
#
#
# Mechanical properties :
#
#
# Convention : Reuss Voigt Hill
#
# Bulk Modulus (GPa) = 38.95467 39.67999 39.31733
# Shear Modulus (GPa) = 21.79345 23.17384 22.48365
#
# Velocity S-wave (km/s) = 3.57591 3.68742 3.63209
# Velocity P-wave (km/s) = 6.31711 6.43516 6.37641
#
# Compressibility (1/GPa) = 0.02567086
#
# Stress axis : x y z
#
# Youngs Moduli (GPa) = 67.95581 63.63016 62.83836
#
# Poissons Ratio (x) = 0.25291 0.05076
# Poissons Ratio (y) = 0.27010 0.34904
# Poissons Ratio (z) = 0.05490 0.35344
#
# Static dielectric constant tensor:
#      x y z
#    x 3.223370 0.000000 0.059350 
#    y 0.000000 3.593410 0.000000 
#    z 0.059350 0.000000 3.269170 
# 
# 
# High freq. dielectric constant tensor:
#      x y z
#    x 1.616790 0.000000 -0.005820 
#    y 0.000000 1.652300 0.000000 
#    z -0.005820 0.000000 1.669330 
# 
# From -- ./inp_files/31283.got.cif
#   From: 2010.06.25/outbox.cif.g09.slc.cpg/sg12_16_cif.got.tgz:31283.got - 2010.06.28 00:19:55.
