data_PCOD8083961
_publ_section_title
;
Structure prediction by ZEFSAII (Michael W. Deem and Ramdas Pophale) SiO2 
 PCOD8083961
Probable space group: C 2/M
;
_chemical_formula_sum "Si O2"
_cell_formula_units_Z 40
_cell_length_a 9.783085
_cell_length_b 19.968706
_cell_length_c 15.816015
_cell_angle_alpha 90.000000
_cell_angle_beta 51.252120
_cell_angle_gamma 90.000000
_cell_volume 2409.716736
_symmetry_space_group_name_H-M "C 2/M"
_symmetry_group_IT_number 12
_symmetry_cell_setting 'monoclinic'
loop_
_space_group_symop_operation_xyz
x,y,z
-x,y,-z
-x,-y,-z
x,-y,z
1/2+x,1/2+y,z
1/2-x,1/2+y,-z
1/2-x,1/2-y,-z
1/2+x,1/2-y,z
loop_
_atom_site_type_symbol
_atom_site_label
_atom_site_fract_x
_atom_site_fract_y
_atom_site_fract_z
Si Si1 0.803224 0.423932 0.096771
Si Si2 0.427980 0.813339 0.787212
Si Si3 0.311627 0.576598 0.043722
Si Si4 0.263279 0.302610 0.767237
Si Si5 0.050509 0.728444 0.572035
O O1 0.801034 0.500000 0.131900
O O2 0.723582 0.377119 0.200153
O O3 0.689125 0.416133 0.056791
O O4 0.000000 0.400795 0.000000
O O5 0.339888 0.880915 0.853398
O O6 0.286440 0.752515 0.833846
O O7 0.578384 0.790118 0.793507
O O8 0.511205 0.826284 0.661134
O O9 0.278755 0.500000 0.083975
O O10 0.500000 0.602765 0.000000
O O11 0.424255 0.293067 0.638651
O O12 0.250000 0.750000 0.500000
O O13 0.000000 0.698148 0.500000
#
# Coordination Sequence:
#
# PCOD8083961 Si02
#       5
#     8   8   8   8   8
#     4  10  20  35  54  76 109 146 171 206 262 317
#     4  10  21  34  54  82 102 141 177 222 258 309
#     4  10  22  37  54  77 111 147 174 207 259 320
#     4  10  21  33  54  83 103 139 179 220 255 315
#     4  10  18  34  53  76 105 135 172 221 275 309
#
# _framework density 16.599461000000002
#
# number of rings (size 3 to 8) (size 9 to 14) (size 15 to 20)
#    1.200    0.800    4.000    0.000    2.800    1.600 
#    0.000    0.000    0.000    2.400    0.000    0.000 
#    0.000    0.000    0.000    0.000    0.000    0.000 
#
# Total GULP energy -247858.380425 kJ/mol
# GULP energy per Si atom -12392.919021 kJ/mol
# Density = 1.656168 g / cm^3
# Si number density = 16.599461 Si / 1000 Ang^3
#
#
#
# Elastic Constant Matrix: (Units=GPa)
#
#
# Indices 1 2 3 4 5 6 
#
# 1 141.3198 33.4850 32.6528 0.0000 -3.1410 0.0000
# 2 33.4850 72.6163 40.7956 0.0000 -1.4469 0.0000
# 3 32.6528 40.7956 70.3944 0.0000 -0.6199 0.0000
# 4 0.0000 0.0000 0.0000 11.9507 0.0000 -0.5251
# 5 -3.1410 -1.4469 -0.6199 0.0000 29.1448 0.0000
# 6 0.0000 0.0000 0.0000 -0.5251 0.0000 22.9519
#
#
#
# Elastic Compliance Matrix: (Units=1/GPa)
#
#
# Indices 1 2 3 4 5 6 
#
# 1 0.008222 -0.002429 -0.002400 0.000000 0.000714 0.000000
# 2 -0.002429 0.021153 -0.011128 0.000000 0.000552 0.000000
# 3 -0.002400 -0.011128 0.021765 0.000000 -0.000348 0.000000
# 4 0.000000 0.000000 0.000000 0.083761 0.000000 0.001916
# 5 0.000714 0.000552 -0.000348 0.000000 0.034408 0.000000
# 6 0.000000 0.000000 0.000000 0.001916 0.000000 0.043613
#
#
# Mechanical properties :
#
#
# Convention : Reuss Voigt Hill
#
# Bulk Modulus (GPa) = 52.00921 55.35526 53.68223
# Shear Modulus (GPa) = 19.90090 24.63594 22.26842
#
# Velocity S-wave (km/s) = 3.46625 3.85663 3.66664
# Velocity P-wave (km/s) = 6.88620 7.29736 7.09476
#
# Compressibility (1/GPa) = 0.01922737
#
# Stress axis : x y z
#
# Youngs Moduli (GPa) = 121.62401 47.27373 45.94625
#
# Poissons Ratio (x) = 0.11482 0.11027
# Poissons Ratio (y) = 0.29541 0.51127
# Poissons Ratio (z) = 0.29189 0.52604
#
# Static dielectric constant tensor:
#      x y z
#    x 3.396180 0.000000 0.097840 
#    y 0.000000 2.885790 0.000000 
#    z 0.097840 0.000000 3.015700 
# 
# 
# High freq. dielectric constant tensor:
#      x y z
#    x 1.667120 0.000000 0.006090 
#    y 0.000000 1.611470 0.000000 
#    z 0.006090 0.000000 1.620600 
# 
# From -- ./inp_files/196398.got.cif
#   From: 2010.06.25/outbox.cif.g09.slc.cpg/sg12_99_cif.got.tgz:196398.got - 2010.06.28 00:19:55.
