data_PCOD8083514
_publ_section_title
;
Structure prediction by ZEFSAII (Michael W. Deem and Ramdas Pophale) SiO2 
 PCOD8083514
Probable space group: C 2/M
;
_chemical_formula_sum "Si O2"
_cell_formula_units_Z 56
_cell_length_a 14.527490
_cell_length_b 27.719475
_cell_length_c 10.636907
_cell_angle_alpha 90.000000
_cell_angle_beta 45.203544
_cell_angle_gamma 90.000000
_cell_volume 3039.578184
_symmetry_space_group_name_H-M "C 2/M"
_symmetry_group_IT_number 12
_symmetry_cell_setting 'monoclinic'
loop_
_space_group_symop_operation_xyz
x,y,z
-x,y,-z
-x,-y,-z
x,-y,z
1/2+x,1/2+y,z
1/2-x,1/2+y,-z
1/2-x,1/2-y,-z
1/2+x,1/2-y,z
loop_
_atom_site_type_symbol
_atom_site_label
_atom_site_fract_x
_atom_site_fract_y
_atom_site_fract_z
Si Si1 0.438993 0.806935 0.183820
Si Si2 0.790170 0.735213 0.657394
Si Si3 0.733773 0.858686 0.467988
Si Si4 0.701098 0.553606 0.741981
Si Si5 0.443929 0.743335 0.738718
Si Si6 0.078460 0.053764 0.114793
Si Si7 0.997204 0.138357 0.652336
O O1 0.315054 0.775357 0.268906
O O2 0.394083 0.848334 0.324578
O O3 0.550610 0.772272 0.135370
O O4 0.500000 0.830763 0.000000
O O5 0.739036 0.683636 0.659262
O O6 0.826437 0.733993 0.770267
O O7 0.917021 0.750373 0.459851
O O8 0.706292 0.907301 0.414631
O O9 0.856154 0.864794 0.440572
O O10 0.759471 0.500000 0.664761
O O11 0.560132 0.557300 0.817177
O O12 0.687907 0.564381 0.903767
O O13 0.424690 0.686022 0.775061
O O14 0.087087 0.092809 0.218196
O O15 0.099080 0.000000 0.151422
O O16 0.000000 0.138730 0.500000
#
# Coordination Sequence:
#
# PCOD8083514 Si02
#       7
#     8   8   8   8   8   8   8
#     4  11  21  32  47  72 105 136 171 211 250 297
#     4  10  18  34  51  70  96 134 176 209 245 293
#     4  10  18  33  51  70  97 134 172 207 251 305
#     4   8  15  30  51  71  93 122 164 215 254 295
#     4  10  18  33  52  69  97 137 172 210 247 296
#     4   8  16  28  44  73 102 124 160 206 250 301
#     4  11  17  28  49  71 102 140 164 194 249 313
#
# _framework density 18.423608999999999
#
# number of rings (size 3 to 8) (size 9 to 14) (size 15 to 20)
#    0.000    2.286    4.286    1.714    0.000    2.000 
#    0.000    1.429    0.000    0.429    0.000    8.000 
#    0.000    0.000    0.000    0.000    0.000    2.000 
#
# Total GULP energy -347073.967940 kJ/mol
# GULP energy per Si atom -12395.498855 kJ/mol
# Density = 1.838168 g / cm^3
# Si number density = 18.423609 Si / 1000 Ang^3
#
#
#
# Elastic Constant Matrix: (Units=GPa)
#
#
# Indices 1 2 3 4 5 6 
#
# 1 67.0239 25.8771 12.1103 0.0000 8.7116 0.0000
# 2 25.8771 135.9894 62.0029 0.0000 19.2962 0.0000
# 3 12.1103 62.0029 60.9413 0.0000 19.1380 0.0000
# 4 0.0000 0.0000 0.0000 23.3863 0.0000 7.5839
# 5 8.7116 19.2962 19.1380 0.0000 19.2270 0.0000
# 6 0.0000 0.0000 0.0000 7.5839 0.0000 15.6133
#
#
#
# Elastic Compliance Matrix: (Units=1/GPa)
#
#
# Indices 1 2 3 4 5 6 
#
# 1 0.016598 -0.003101 0.001805 0.000000 -0.006205 0.000000
# 2 -0.003101 0.014296 -0.014350 0.000000 0.001341 0.000000
# 3 0.001805 -0.014350 0.038382 0.000000 -0.024621 0.000000
# 4 0.000000 0.000000 0.000000 0.050755 0.000000 -0.024653
# 5 -0.006205 0.001341 -0.024621 0.000000 0.077983 0.000000
# 6 0.000000 0.000000 0.000000 -0.024653 0.000000 0.076023
#
#
# Mechanical properties :
#
#
# Convention : Reuss Voigt Hill
#
# Bulk Modulus (GPa) = 26.32628 51.54837 38.93732
# Shear Modulus (GPa) = 15.72377 22.57627 19.15002
#
# Velocity S-wave (km/s) = 2.92457 3.50437 3.22751
# Velocity P-wave (km/s) = 5.07194 6.66441 5.92195
#
# Compressibility (1/GPa) = 0.03798486
#
# Stress axis : x y z
#
# Youngs Moduli (GPa) = 60.24962 69.94960 26.05356
#
# Poissons Ratio (x) = 0.21691 -0.04704
# Poissons Ratio (y) = 0.18683 0.37387
# Poissons Ratio (z) = -0.10877 1.00377
#
# Static dielectric constant tensor:
#      x y z
#    x 3.571080 0.000000 0.344380 
#    y 0.000000 3.671530 0.000000 
#    z 0.344380 0.000000 3.305700 
# 
# 
# High freq. dielectric constant tensor:
#      x y z
#    x 1.700910 0.000000 0.021280 
#    y 0.000000 1.704830 0.000000 
#    z 0.021280 0.000000 1.688960 
# 
# From -- ./inp_files/149432.got.cif
#   From: 2010.06.25/outbox.cif.g09.slc.cpg/sg12_75_cif.got.tgz:149432.got - 2010.06.28 00:19:55.
