data_PCOD8083073
_publ_section_title
;
Structure prediction by ZEFSAII (Michael W. Deem and Ramdas Pophale) SiO2 
 PCOD8083073
Probable space group: C 2/M
;
_chemical_formula_sum "Si O2"
_cell_formula_units_Z 64
_cell_length_a 14.713805
_cell_length_b 8.472687
_cell_length_c 27.393170
_cell_angle_alpha 90.000000
_cell_angle_beta 106.976040
_cell_angle_gamma 90.000000
_cell_volume 3266.181019
_symmetry_space_group_name_H-M "C 2/M"
_symmetry_group_IT_number 12
_symmetry_cell_setting 'monoclinic'
loop_
_space_group_symop_operation_xyz
x,y,z
-x,y,-z
-x,-y,-z
x,-y,z
1/2+x,1/2+y,z
1/2-x,1/2+y,-z
1/2-x,1/2-y,-z
1/2+x,1/2-y,z
loop_
_atom_site_type_symbol
_atom_site_label
_atom_site_fract_x
_atom_site_fract_y
_atom_site_fract_z
Si Si1 0.854563 0.815271 0.883450
Si Si2 0.541691 0.183779 0.869564
Si Si3 0.974491 0.186522 0.761658
Si Si4 0.851562 0.313497 0.499547
Si Si5 0.275871 0.686167 0.769538
Si Si6 0.269494 0.684245 0.056158
Si Si7 0.042402 0.312447 0.578518
Si Si8 0.084849 0.688226 0.692634
O O1 0.787735 0.761617 0.827666
O O2 0.823832 0.715375 0.925708
O O3 0.963860 0.781175 0.887832
O O4 0.843310 0.000000 0.892798
O O5 0.541971 0.232786 0.812692
O O6 0.644214 0.219786 0.907163
O O7 0.519136 0.000000 0.870987
O O8 0.999520 0.245189 0.711716
O O9 0.866806 0.243796 0.753291
O O10 0.985208 0.000000 0.768662
O O11 0.845582 0.500000 0.499523
O O12 0.750000 0.250000 0.500000
O O13 0.880597 0.254213 0.449644
O O14 0.935566 0.253827 0.548870
O O15 0.268688 0.500000 0.765737
O O16 0.181995 0.759707 0.730458
O O17 0.293118 0.500000 0.057682
O O18 0.250000 0.750000 0.000000
O O19 0.042269 0.500000 0.578794
O O20 0.072319 0.245233 0.635936
O O21 0.083406 0.500000 0.692983
#
# Coordination Sequence:
#
# PCOD8083073 Si02
#       8
#     8   8   8   8   8   8   8   8
#     4  10  20  38  60  84 113 147 184 229 278 332
#     4  11  22  39  61  85 112 149 191 231 274 328
#     4  10  20  35  53  79 111 142 175 220 271 322
#     4   9  17  33  53  73  98 136 179 222 267 319
#     4   8  17  32  52  75 103 136 172 209 258 318
#     4  12  25  41  60  86 115 147 186 232 283 337
#     4   8  17  32  50  72 103 139 177 215 266 329
#     4  10  18  32  53  76 103 141 180 218 263 324
#
# _framework density 19.594750999999999
#
# number of rings (size 3 to 8) (size 9 to 14) (size 15 to 20)
#    0.000    2.250    0.000    5.250    0.000    2.500 
#    0.000    9.375    0.000    0.000    0.000    0.000 
#    0.000    0.000    0.000    0.000    0.000    0.000 
#
# Total GULP energy -396784.384330 kJ/mol
# GULP energy per Si atom -12399.512010 kJ/mol
# Density = 1.955015 g / cm^3
# Si number density = 19.594751 Si / 1000 Ang^3
#
#
#
# Elastic Constant Matrix: (Units=GPa)
#
#
# Indices 1 2 3 4 5 6 
#
# 1 108.5504 18.0631 55.5013 0.0000 -16.1268 0.0000
# 2 18.0631 54.4898 26.7737 0.0000 -3.4242 0.0000
# 3 55.5013 26.7737 117.8934 0.0000 -25.5480 0.0000
# 4 0.0000 0.0000 0.0000 21.1550 0.0000 -4.2600
# 5 -16.1268 -3.4242 -25.5480 0.0000 25.6509 0.0000
# 6 0.0000 0.0000 0.0000 -4.2600 0.0000 32.5500
#
#
#
# Elastic Compliance Matrix: (Units=1/GPa)
#
#
# Indices 1 2 3 4 5 6 
#
# 1 0.012368 -0.001527 -0.004890 0.000000 0.002701 0.000000
# 2 -0.001527 0.020966 -0.004647 0.000000 -0.002790 0.000000
# 3 -0.004890 -0.004647 0.014078 0.000000 0.010326 0.000000
# 4 0.000000 0.000000 0.000000 0.048550 0.000000 0.006354
# 5 0.002701 -0.002790 0.010326 0.000000 0.050596 0.000000
# 6 0.000000 0.000000 0.000000 0.006354 0.000000 0.031554
#
#
# Mechanical properties :
#
#
# Convention : Reuss Voigt Hill
#
# Bulk Modulus (GPa) = 39.55276 53.51220 46.53248
# Shear Modulus (GPa) = 23.96150 27.91088 25.93619
#
# Velocity S-wave (km/s) = 3.50073 3.77822 3.64212
# Velocity P-wave (km/s) = 6.04726 6.81191 6.44094
#
# Compressibility (1/GPa) = 0.02528268
#
# Stress axis : x y z
#
# Youngs Moduli (GPa) = 80.85231 47.69541 71.03493
#
# Poissons Ratio (x) = 0.07285 0.34739
# Poissons Ratio (y) = 0.12349 0.33010
# Poissons Ratio (z) = 0.39540 0.22164
#
# Static dielectric constant tensor:
#      x y z
#    x 3.807950 0.000000 0.047580 
#    y 0.000000 3.306540 0.000000 
#    z 0.047580 0.000000 3.599890 
# 
# 
# High freq. dielectric constant tensor:
#      x y z
#    x 1.771680 0.000000 -0.005130 
#    y 0.000000 1.742610 0.000000 
#    z -0.005130 0.000000 1.762940 
# 
# From -- ./inp_files/359939.got.cif
#   From: 2010.06.25/outbox.cif.g09.slc.cpg/sg12_180_cif.got.tgz:359939.got - 2010.06.28 00:19:55.
