data_PCOD8083716
_publ_section_title
;
Structure prediction by ZEFSAII (Michael W. Deem and Ramdas Pophale) SiO2 
 PCOD8083716
Probable space group: C 2/M
;
_chemical_formula_sum "Si O2"
_cell_formula_units_Z 48
_cell_length_a 17.369145
_cell_length_b 16.636396
_cell_length_c 9.025949
_cell_angle_alpha 90.000000
_cell_angle_beta 99.671497
_cell_angle_gamma 90.000000
_cell_volume 2571.068959
_symmetry_space_group_name_H-M "C 2/M"
_symmetry_group_IT_number 12
_symmetry_cell_setting 'monoclinic'
loop_
_space_group_symop_operation_xyz
x,y,z
-x,y,-z
-x,-y,-z
x,-y,z
1/2+x,1/2+y,z
1/2-x,1/2+y,-z
1/2-x,1/2-y,-z
1/2+x,1/2-y,z
loop_
_atom_site_type_symbol
_atom_site_label
_atom_site_fract_x
_atom_site_fract_y
_atom_site_fract_z
Si Si1 0.796675 0.227729 0.162984
Si Si2 0.542731 0.911717 0.667382
Si Si3 0.575974 0.708873 0.435890
Si Si4 0.806916 0.093784 0.389322
Si Si5 0.312641 0.841955 0.417774
Si Si6 0.477763 0.241537 0.160969
O O1 0.782331 0.138520 0.227385
O O2 0.766538 0.289378 0.279735
O O3 0.889364 0.232169 0.164944
O O4 0.750000 0.250000 0.000000
O O5 0.500000 0.899970 0.500000
O O6 0.634091 0.901765 0.660418
O O7 0.510146 0.849021 0.776345
O O8 0.528379 0.000000 0.730561
O O9 0.500000 0.738868 0.500000
O O10 0.611287 0.627304 0.517002
O O11 0.640026 0.779083 0.465083
O O12 0.542071 0.699317 0.258601
O O13 0.742956 0.106157 0.496519
O O14 0.816081 0.000000 0.356038
O O15 0.500000 0.244604 0.000000
#
# Coordination Sequence:
#
# PCOD8083716 Si02
#       6
#     8   8   8   8   8   8
#     4  10  22  39  61  86 118 160 196 239 296 367
#     4  10  18  33  56  83 116 146 185 248 301 342
#     4  11  18  40  62  86 112 157 209 245 282 353
#     4  11  24  39  63  94 120 154 201 257 303 343
#     4  10  19  37  62  85 115 155 204 237 290 362
#     4  11  22  35  58  84 114 154 207 240 291 362
#
# _framework density 18.669277999999998
#
# number of rings (size 3 to 8) (size 9 to 14) (size 15 to 20)
#    0.000    1.500    6.667    2.500    4.667    0.667 
#    0.000    4.167    0.000    1.000    0.000    0.000 
#    0.000    0.000    0.000    0.000    0.000    0.000 
#
# Total GULP energy -297398.105620 kJ/mol
# GULP energy per Si atom -12391.587734 kJ/mol
# Density = 1.862679 g / cm^3
# Si number density = 18.669278 Si / 1000 Ang^3
#
#
#
# Elastic Constant Matrix: (Units=GPa)
#
#
# Indices 1 2 3 4 5 6 
#
# 1 52.1758 21.8106 32.7018 0.0000 11.1400 0.0000
# 2 21.8106 116.6235 50.8629 0.0000 6.6609 0.0000
# 3 32.7018 50.8629 140.6663 0.0000 15.0579 0.0000
# 4 0.0000 0.0000 0.0000 21.6154 0.0000 -1.0948
# 5 11.1400 6.6609 15.0579 0.0000 36.5993 0.0000
# 6 0.0000 0.0000 0.0000 -1.0948 0.0000 20.7728
#
#
#
# Elastic Compliance Matrix: (Units=1/GPa)
#
#
# Indices 1 2 3 4 5 6 
#
# 1 0.023842 -0.002360 -0.004141 0.000000 -0.005124 0.000000
# 2 -0.002360 0.010418 -0.003235 0.000000 0.000153 0.000000
# 3 -0.004141 -0.003235 0.009460 0.000000 -0.002043 0.000000
# 4 0.000000 0.000000 0.000000 0.046387 0.000000 0.002445
# 5 -0.005124 0.000153 -0.002043 0.000000 0.029695 0.000000
# 6 0.000000 0.000000 0.000000 0.002445 0.000000 0.048269
#
#
# Mechanical properties :
#
#
# Convention : Reuss Voigt Hill
#
# Bulk Modulus (GPa) = 41.23994 57.80181 49.52087
# Shear Modulus (GPa) = 25.55911 29.40353 27.48132
#
# Velocity S-wave (km/s) = 3.70408 3.97289 3.84084
# Velocity P-wave (km/s) = 6.35856 7.21618 6.80090
#
# Compressibility (1/GPa) = 0.02424834
#
# Stress axis : x y z
#
# Youngs Moduli (GPa) = 41.94307 95.98770 105.70846
#
# Poissons Ratio (x) = 0.22656 0.43771
# Poissons Ratio (y) = 0.09900 0.34193
# Poissons Ratio (z) = 0.17368 0.31049
#
# Static dielectric constant tensor:
#      x y z
#    x 3.884500 0.000000 0.143130 
#    y 0.000000 3.373040 0.000000 
#    z 0.143130 0.000000 4.173710 
# 
# 
# High freq. dielectric constant tensor:
#      x y z
#    x 1.728890 0.000000 0.000760 
#    y 0.000000 1.705660 0.000000 
#    z 0.000760 0.000000 1.717340 
# 
# From -- ./inp_files/74505.got.cif
#   From: 2010.06.25/outbox.cif.g09.slc.cpg/sg12_38_cif.got.tgz:74505.got - 2010.06.28 00:19:55.
