data_PCOD8083198
_publ_section_title
;
Structure prediction by ZEFSAII (Michael W. Deem and Ramdas Pophale) SiO2 
 PCOD8083198
Probable space group: C 2/M
;
_chemical_formula_sum "Si O2"
_cell_formula_units_Z 56
_cell_length_a 22.082745
_cell_length_b 26.056173
_cell_length_c 10.607484
_cell_angle_alpha 90.000000
_cell_angle_beta 28.157567
_cell_angle_gamma 90.000000
_cell_volume 2880.210033
_symmetry_space_group_name_H-M "C 2/M"
_symmetry_group_IT_number 12
_symmetry_cell_setting 'monoclinic'
loop_
_space_group_symop_operation_xyz
x,y,z
-x,y,-z
-x,-y,-z
x,-y,z
1/2+x,1/2+y,z
1/2-x,1/2+y,-z
1/2-x,1/2-y,-z
1/2+x,1/2-y,z
loop_
_atom_site_type_symbol
_atom_site_label
_atom_site_fract_x
_atom_site_fract_y
_atom_site_fract_z
Si Si1 0.928245 0.156373 0.512226
Si Si2 0.149137 0.890488 0.753887
Si Si3 0.046546 0.293103 0.057867
Si Si4 0.148461 0.000000 0.759958
Si Si5 0.129775 0.500000 0.846322
Si Si6 0.339799 0.308862 0.075007
Si Si7 0.208477 0.607026 0.770526
Si Si8 0.899358 0.271834 0.580114
O O1 0.820747 0.115727 0.667086
O O2 0.870344 0.211710 0.657244
O O3 0.000000 0.131221 0.500000
O O4 0.029032 0.166923 0.215656
O O5 0.171301 0.945386 0.787064
O O6 0.211900 0.846823 0.723209
O O7 0.230106 0.889322 0.478999
O O8 0.000000 0.879585 0.000000
O O9 0.149302 0.247462 0.883312
O O10 0.104486 0.348687 0.979412
O O11 0.000000 0.290706 0.000000
O O12 0.940677 0.282305 0.359729
O O13 0.238554 0.000000 0.472648
O O14 0.000000 0.000000 0.000000
O O15 0.136677 0.551835 0.919384
O O16 0.000000 0.500000 0.000000
O O17 0.233800 0.303171 0.158206
O O18 0.000000 0.291993 0.500000
#
# Coordination Sequence:
#
# PCOD8083198 Si02
#       8
#     8   8   8   4   4   8   8   8
#     4  10  22  36  56  81 111 156 196 234 281 340
#     4  10  18  32  54  85 113 143 187 230 292 340
#     4  11  23  34  55  86 121 150 184 237 301 343
#     4   8  18  34  56  80 114 151 187 230 280 353
#     4  10  22  38  61  86 115 152 196 237 291 354
#     4  11  21  34  56  83 118 148 188 239 285 352
#     4  11  21  38  58  84 118 150 187 241 288 346
#     4  10  23  38  55  81 115 162 197 227 282 359
#
# _framework density 19.443026
#
# number of rings (size 3 to 8) (size 9 to 14) (size 15 to 20)
#    0.000    1.714    2.857    1.714    4.000    4.000 
#    0.000    0.357    0.000    0.000    0.000    1.000 
#    0.000    0.000    0.000    0.000    0.000    0.000 
#
# Total GULP energy -346912.064669 kJ/mol
# GULP energy per Si atom -12389.716595 kJ/mol
# Density = 1.939877 g / cm^3
# Si number density = 19.443026 Si / 1000 Ang^3
#
#
#
# Elastic Constant Matrix: (Units=GPa)
#
#
# Indices 1 2 3 4 5 6 
#
# 1 130.2365 52.9269 11.6971 -0.0096 -14.5477 -0.0075
# 2 52.9269 145.3798 13.1274 -0.0044 -14.2780 -0.0015
# 3 11.6971 13.1274 33.3417 -0.0073 -5.4500 -0.0106
# 4 -0.0096 -0.0044 -0.0073 17.7704 0.0062 -12.6109
# 5 -14.5477 -14.2780 -5.4500 0.0062 29.7051 0.0073
# 6 -0.0075 -0.0015 -0.0106 -12.6109 0.0073 22.1685
#
#
#
# Elastic Compliance Matrix: (Units=1/GPa)
#
#
# Indices 1 2 3 4 5 6 
#
# 1 0.009354 -0.002977 -0.001644 0.000006 0.002848 0.000005
# 2 -0.002977 0.008349 -0.001882 -0.000004 0.002210 -0.000005
# 3 -0.001644 -0.001882 0.031990 0.000033 0.004160 0.000032
# 4 0.000006 -0.000004 0.000033 0.094371 -0.000026 0.053685
# 5 0.002848 0.002210 0.004160 -0.000026 0.036885 -0.000024
# 6 0.000005 -0.000005 0.000032 0.053685 -0.000024 0.075649
#
#
# Mechanical properties :
#
#
# Convention : Reuss Voigt Hill
#
# Bulk Modulus (GPa) = 27.25683 51.60675 39.43179
# Shear Modulus (GPa) = 17.74101 29.34255 23.54178
#
# Velocity S-wave (km/s) = 3.02397 3.88900 3.48344
# Velocity P-wave (km/s) = 5.12268 6.83856 6.04184
#
# Compressibility (1/GPa) = 0.03668805
#
# Stress axis : x y z
#
# Youngs Moduli (GPa) = 106.90518 119.76935 31.25974
#
# Poissons Ratio (x) = 0.35658 0.05139
# Poissons Ratio (y) = 0.31828 0.05882
# Poissons Ratio (z) = 0.17573 0.22536
#
# Static dielectric constant tensor:
#      x y z
#    x 3.478070 -0.000010 -0.145750 
#    y -0.000010 4.053700 0.000010 
#    z -0.145750 0.000010 3.465670 
# 
# 
# High freq. dielectric constant tensor:
#      x y z
#    x 1.739790 0.000000 -0.016410 
#    y 0.000000 1.753710 0.000000 
#    z -0.016410 0.000000 1.753330 
# 
# From -- ./inp_files/80447.got.cif
#   From: 2010.06.25/outbox.cif.g09.slc.cpg/sg12_41_cif.got.tgz:80447.got - 2010.06.28 00:19:55.
