data_PCOD8083726
_publ_section_title
;
Structure prediction by ZEFSAII (Michael W. Deem and Ramdas Pophale) SiO2 
 PCOD8083726
Probable space group: C 2/M
;
_chemical_formula_sum "Si O2"
_cell_formula_units_Z 40
_cell_length_a 23.043644
_cell_length_b 13.237658
_cell_length_c 9.450542
_cell_angle_alpha 90.000000
_cell_angle_beta 48.804125
_cell_angle_gamma 90.000000
_cell_volume 2169.220965
_symmetry_space_group_name_H-M "C 2/M"
_symmetry_group_IT_number 12
_symmetry_cell_setting 'monoclinic'
loop_
_space_group_symop_operation_xyz
x,y,z
-x,y,-z
-x,-y,-z
x,-y,z
1/2+x,1/2+y,z
1/2-x,1/2+y,-z
1/2-x,1/2-y,-z
1/2+x,1/2-y,z
loop_
_atom_site_type_symbol
_atom_site_label
_atom_site_fract_x
_atom_site_fract_y
_atom_site_fract_z
Si Si1 0.079896 0.618960 0.522978
Si Si2 0.271279 0.214452 0.620532
Si Si3 0.257525 0.886866 0.128139
Si Si4 0.417638 0.192693 0.795815
Si Si5 0.338309 0.385312 0.995936
O O1 0.081477 0.500000 0.491259
O O2 0.149558 0.650675 0.513715
O O3 0.088229 0.677165 0.362117
O O4 0.998882 0.651188 0.724928
O O5 0.250000 0.250000 0.500000
O O6 0.285154 0.312383 0.695930
O O7 0.202489 0.144358 0.791256
O O8 0.240584 0.000000 0.207294
O O9 0.349003 0.867128 0.983286
O O10 0.226875 0.869541 0.018831
O O11 0.410192 0.312059 0.845117
O O12 0.369045 0.500000 0.953343
#
# Coordination Sequence:
#
# PCOD8083726 Si02
#       5
#     8   8   8   8   8
#     4  11  20  33  56  86 115 142 177 230 286 326
#     4  11  22  36  54  80 115 146 184 228 274 333
#     4  10  18  34  56  79 107 145 190 228 269 326
#     4  10  18  33  56  87 112 138 180 234 278 324
#     4  10  19  36  59  79 109 150 190 228 270 323
#
# _framework density 18.439800000000002
#
# number of rings (size 3 to 8) (size 9 to 14) (size 15 to 20)
#    0.000    1.600    4.000    4.200    0.000    1.600 
#    0.000    7.000    0.000    7.200    0.000    0.000 
#    0.000    0.000    0.000    0.000    0.000    0.000 
#
# Total GULP energy -248020.250483 kJ/mol
# GULP energy per Si atom -12401.012524 kJ/mol
# Density = 1.839783 g / cm^3
# Si number density = 18.439800 Si / 1000 Ang^3
#
#
#
# Elastic Constant Matrix: (Units=GPa)
#
#
# Indices 1 2 3 4 5 6 
#
# 1 72.1627 30.5255 42.8130 0.0000 -3.8348 0.0000
# 2 30.5255 127.4929 46.9883 0.0000 1.3911 0.0000
# 3 42.8130 46.9883 73.9988 0.0000 -5.7294 0.0000
# 4 0.0000 0.0000 0.0000 23.7624 0.0000 -5.4318
# 5 -3.8348 1.3911 -5.7294 0.0000 31.2102 0.0000
# 6 0.0000 0.0000 0.0000 -5.4318 0.0000 22.9384
#
#
#
# Elastic Compliance Matrix: (Units=1/GPa)
#
#
# Indices 1 2 3 4 5 6 
#
# 1 0.021158 -0.000748 -0.011729 0.000000 0.000480 0.000000
# 2 -0.000748 0.010353 -0.006273 0.000000 -0.001705 0.000000
# 3 -0.011729 -0.006273 0.024542 0.000000 0.003344 0.000000
# 4 0.000000 0.000000 0.000000 0.044492 0.000000 0.010536
# 5 0.000480 -0.001705 0.003344 0.000000 0.032790 0.000000
# 6 0.000000 0.000000 0.000000 0.010536 0.000000 0.046090
#
#
# Mechanical properties :
#
#
# Convention : Reuss Voigt Hill
#
# Bulk Modulus (GPa) = 53.90154 57.14534 55.52344
# Shear Modulus (GPa) = 22.41038 25.80402 24.10720
#
# Velocity S-wave (km/s) = 3.48994 3.74487 3.61965
# Velocity P-wave (km/s) = 6.74789 7.05381 6.90255
#
# Compressibility (1/GPa) = 0.01855235
#
# Stress axis : x y z
#
# Youngs Moduli (GPa) = 47.26265 96.58629 40.74614
#
# Poissons Ratio (x) = 0.07228 0.47792
# Poissons Ratio (y) = 0.03537 0.25562
# Poissons Ratio (z) = 0.55435 0.60592
#
# Static dielectric constant tensor:
#      x y z
#    x 3.207360 0.000000 -0.256130 
#    y 0.000000 3.640080 0.000000 
#    z -0.256130 0.000000 3.371750 
# 
# 
# High freq. dielectric constant tensor:
#      x y z
#    x 1.681650 0.000000 -0.014730 
#    y 0.000000 1.731480 0.000000 
#    z -0.014730 0.000000 1.699910 
# 
# From -- ./inp_files/72464.got.cif
#   From: 2010.06.25/outbox.cif.g09.slc.cpg/sg12_37_cif.got.tgz:72464.got - 2010.06.28 00:19:55.
