data_PCOD8083171
_publ_section_title
;
Structure prediction by ZEFSAII (Michael W. Deem and Ramdas Pophale) SiO2 
 PCOD8083171
Probable space group: C 2/M
;
_chemical_formula_sum "Si O2"
_cell_formula_units_Z 64
_cell_length_a 20.385425
_cell_length_b 8.868007
_cell_length_c 24.110828
_cell_angle_alpha 90.000000
_cell_angle_beta 127.145827
_cell_angle_gamma 90.000000
_cell_volume 3474.332589
_symmetry_space_group_name_H-M "C 2/M"
_symmetry_group_IT_number 12
_symmetry_cell_setting 'monoclinic'
loop_
_space_group_symop_operation_xyz
x,y,z
-x,y,-z
-x,-y,-z
x,-y,z
1/2+x,1/2+y,z
1/2-x,1/2+y,-z
1/2-x,1/2-y,-z
1/2+x,1/2-y,z
loop_
_atom_site_type_symbol
_atom_site_label
_atom_site_fract_x
_atom_site_fract_y
_atom_site_fract_z
Si Si1 0.666112 0.821466 0.230631
Si Si2 0.075863 0.830329 0.497096
Si Si3 0.783192 0.176714 0.858069
Si Si4 0.401134 0.174845 0.208170
Si Si5 0.492501 0.678276 0.155669
Si Si6 0.034252 0.326533 0.639532
Si Si7 0.932773 0.822622 0.007491
Si Si8 0.182749 0.323007 0.636473
O O1 0.685285 0.765504 0.178908
O O2 0.579102 0.760120 0.207048
O O3 0.733156 0.763029 0.308421
O O4 0.664871 0.000000 0.230804
O O5 0.149685 0.730039 0.559537
O O6 0.000000 0.822394 0.500000
O O7 0.044730 0.766350 0.422249
O O8 0.107745 0.000000 0.504970
O O9 0.691746 0.226558 0.827019
O O10 0.787044 0.000000 0.845110
O O11 0.841377 0.218456 0.939844
O O12 0.434119 0.279835 0.176646
O O13 0.456381 0.203543 0.290612
O O14 0.404025 0.000000 0.191887
O O15 0.506891 0.500000 0.161458
O O16 0.447731 0.739089 0.077019
O O17 0.016940 0.500000 0.616996
O O18 0.118227 0.277500 0.651646
O O19 0.945744 0.000000 0.015043
O O20 0.000000 0.750506 0.000000
O O21 0.199761 0.500000 0.644085
#
# Coordination Sequence:
#
# PCOD8083171 Si02
#       8
#     8   8   8   8   8   8   8   8
#     4  12  23  35  55  84 114 144 185 238 285 329
#     4   9  17  28  45  77 115 146 179 229 279 318
#     4  10  19  37  61  83 109 149 189 227 280 338
#     4  10  21  37  56  82 116 150 187 232 280 330
#     4  11  23  39  58  81 110 149 191 230 281 343
#     4   9  17  31  52  77 108 150 188 221 271 333
#     4   9  17  33  60  84 107 142 189 233 276 335
#     4  10  18  32  54  80 109 146 188 229 274 332
#
# _framework density 18.420802999999999
#
# number of rings (size 3 to 8) (size 9 to 14) (size 15 to 20)
#    0.000    2.000    2.500    2.250    0.000    3.500 
#    0.000    1.875    0.000    0.750    0.000    0.000 
#    0.000    0.000    0.000    0.000    0.000    0.000 
#
# Total GULP energy -396852.766240 kJ/mol
# GULP energy per Si atom -12401.648945 kJ/mol
# Density = 1.837888 g / cm^3
# Si number density = 18.420803 Si / 1000 Ang^3
#
#
#
# Elastic Constant Matrix: (Units=GPa)
#
#
# Indices 1 2 3 4 5 6 
#
# 1 66.1270 25.6642 28.6888 0.0000 -0.5947 0.0000
# 2 25.6642 76.4001 32.6845 0.0000 5.3077 0.0000
# 3 28.6888 32.6845 108.9554 0.0000 3.2056 0.0000
# 4 0.0000 0.0000 0.0000 19.2582 0.0000 -4.1770
# 5 -0.5947 5.3077 3.2056 0.0000 21.2432 0.0000
# 6 0.0000 0.0000 0.0000 -4.1770 0.0000 26.0632
#
#
#
# Elastic Compliance Matrix: (Units=1/GPa)
#
#
# Indices 1 2 3 4 5 6 
#
# 1 0.018556 -0.004901 -0.003482 0.000000 0.002270 0.000000
# 2 -0.004901 0.016515 -0.003554 0.000000 -0.003727 0.000000
# 3 -0.003482 -0.003554 0.011188 0.000000 -0.000898 0.000000
# 4 0.000000 0.000000 0.000000 0.053796 0.000000 0.008622
# 5 0.002270 -0.003727 -0.000898 0.000000 0.048204 0.000000
# 6 0.000000 0.000000 0.000000 0.008622 0.000000 0.039750
#
#
# Mechanical properties :
#
#
# Convention : Reuss Voigt Hill
#
# Bulk Modulus (GPa) = 44.67651 47.28416 45.98034
# Shear Modulus (GPa) = 22.79524 24.27591 23.53557
#
# Velocity S-wave (km/s) = 3.52159 3.63416 3.57832
# Velocity P-wave (km/s) = 6.39073 6.58287 6.48751
#
# Compressibility (1/GPa) = 0.02238313
#
# Stress axis : x y z
#
# Youngs Moduli (GPa) = 53.89150 60.55215 89.38512
#
# Poissons Ratio (x) = 0.29677 0.31128
# Poissons Ratio (y) = 0.26413 0.31767
# Poissons Ratio (z) = 0.18767 0.21520
#
# Static dielectric constant tensor:
#      x y z
#    x 3.125730 0.000000 0.098050 
#    y 0.000000 3.282600 0.000000 
#    z 0.098050 0.000000 3.680060 
# 
# 
# High freq. dielectric constant tensor:
#      x y z
#    x 1.680940 0.000000 0.008150 
#    y 0.000000 1.704860 0.000000 
#    z 0.008150 0.000000 1.733280 
# 
# From -- ./inp_files/346211.got.cif
#   From: 2010.06.25/outbox.cif.g09.slc.cpg/sg12_174_cif.got.tgz:346211.got - 2010.06.28 00:19:55.
