data_PCOD8083110
_publ_section_title
;
Structure prediction by ZEFSAII (Michael W. Deem and Ramdas Pophale) SiO2 
 PCOD8083110
Probable space group: C 2/M
;
_chemical_formula_sum "Si O2"
_cell_formula_units_Z 48
_cell_length_a 27.207351
_cell_length_b 21.748818
_cell_length_c 12.166014
_cell_angle_alpha 90.000000
_cell_angle_beta 160.132700
_cell_angle_gamma 90.000000
_cell_volume 2446.517738
_symmetry_space_group_name_H-M "C 2/M"
_symmetry_group_IT_number 12
_symmetry_cell_setting 'monoclinic'
loop_
_space_group_symop_operation_xyz
x,y,z
-x,y,-z
-x,-y,-z
x,-y,z
1/2+x,1/2+y,z
1/2-x,1/2+y,-z
1/2-x,1/2-y,-z
1/2+x,1/2-y,z
loop_
_atom_site_type_symbol
_atom_site_label
_atom_site_fract_x
_atom_site_fract_y
_atom_site_fract_z
Si Si1 0.952755 0.571133 0.024083
Si Si2 0.999380 0.140004 0.625602
Si Si3 0.234277 0.847784 0.697668
Si Si4 0.859482 0.739757 0.638045
Si Si5 0.000890 0.713943 0.624976
Si Si6 0.803571 0.638443 0.353765
O O1 0.911209 0.500000 0.938437
O O2 0.086153 0.582432 0.389314
O O3 0.809418 0.606618 0.767372
O O4 0.000000 0.591316 0.000000
O O5 0.991914 0.213273 0.613316
O O6 0.000000 0.116373 0.500000
O O7 0.861278 0.117053 0.408855
O O8 0.144870 0.113679 0.988369
O O9 0.125946 0.800152 0.408408
O O10 0.358835 0.807390 0.014851
O O11 0.750000 0.750000 0.500000
O O12 0.800950 0.679840 0.455431
O O13 0.000000 0.722197 0.000000
O O14 0.000000 0.689982 0.500000
O O15 0.857127 0.682721 0.369101
#
# Coordination Sequence:
#
# PCOD8083110 Si02
#       6
#     8   8   8   8   8   8
#     4  10  23  44  64  80 105 153 207 243 279 336
#     4  11  20  33  55  88 124 152 185 230 288 350
#     4  11  21  35  56  86 117 151 190 239 285 345
#     4  12  21  31  49  80 119 147 179 227 293 345
#     4  10  18  32  53  81 120 158 190 222 274 348
#     4  11  20  35  55  84 119 153 189 231 286 343
#
# _framework density 19.619721999999999
#
# number of rings (size 3 to 8) (size 9 to 14) (size 15 to 20)
#    0.000    1.167    3.333    5.500    0.000    2.667 
#    0.000    0.833    0.000   21.500    0.000    0.000 
#    0.000    0.000    0.000    0.000    0.000    0.000 
#
# Total GULP energy -297437.584832 kJ/mol
# GULP energy per Si atom -12393.232701 kJ/mol
# Density = 1.957507 g / cm^3
# Si number density = 19.619722 Si / 1000 Ang^3
#
#
#
# Elastic Constant Matrix: (Units=GPa)
#
#
# Indices 1 2 3 4 5 6 
#
# 1 126.1022 2.9952 37.8935 0.0000 0.1099 0.0000
# 2 2.9952 35.9690 15.4919 0.0000 -9.5872 0.0000
# 3 37.8935 15.4919 96.1596 0.0000 1.5596 0.0000
# 4 0.0000 0.0000 0.0000 19.7919 0.0000 1.6032
# 5 0.1099 -9.5872 1.5596 0.0000 35.8977 0.0000
# 6 0.0000 0.0000 0.0000 1.6032 0.0000 21.6055
#
#
#
# Elastic Compliance Matrix: (Units=1/GPa)
#
#
# Indices 1 2 3 4 5 6 
#
# 1 0.009024 0.000952 -0.003716 0.000000 0.000388 0.000000
# 2 0.000952 0.032595 -0.005772 0.000000 0.008953 0.000000
# 3 -0.003716 -0.005772 0.012827 0.000000 -0.002087 0.000000
# 4 0.000000 0.000000 0.000000 0.050831 0.000000 -0.003772
# 5 0.000388 0.008953 -0.002087 0.000000 0.030337 0.000000
# 6 0.000000 0.000000 0.000000 -0.003772 0.000000 0.046564
#
#
# Mechanical properties :
#
#
# Convention : Reuss Voigt Hill
#
# Bulk Modulus (GPa) = 26.75541 41.22133 33.98837
# Shear Modulus (GPa) = 23.61754 28.91571 26.26663
#
# Velocity S-wave (km/s) = 3.47330 3.84319 3.66291
# Velocity P-wave (km/s) = 5.45451 6.38351 5.93721
#
# Compressibility (1/GPa) = 0.03737562
#
# Stress axis : x y z
#
# Youngs Moduli (GPa) = 110.81967 30.67992 77.95860
#
# Poissons Ratio (x) = -0.02922 0.28967
# Poissons Ratio (y) = -0.10555 0.44995
# Poissons Ratio (z) = 0.41177 0.17708
#
# Static dielectric constant tensor:
#      x y z
#    x 4.100910 0.000000 -0.047620 
#    y 0.000000 2.962650 0.000000 
#    z -0.047620 0.000000 3.638660 
# 
# 
# High freq. dielectric constant tensor:
#      x y z
#    x 1.792040 0.000000 0.000100 
#    y 0.000000 1.711210 0.000000 
#    z 0.000100 0.000000 1.767690 
# 
# From -- ./inp_files/121829.got.cif
#   From: 2010.06.25/outbox.cif.g09.slc.cpg/sg12_61_cif.got.tgz:121829.got - 2010.06.28 00:19:55.
