data_PCOD8083421
_publ_section_title
;
Structure prediction by ZEFSAII (Michael W. Deem and Ramdas Pophale) SiO2 
 PCOD8083421
Probable space group: C 2/M
;
_chemical_formula_sum "Si O2"
_cell_formula_units_Z 56
_cell_length_a 14.423334
_cell_length_b 23.677065
_cell_length_c 8.163020
_cell_angle_alpha 90.000000
_cell_angle_beta 69.850889
_cell_angle_gamma 90.000000
_cell_volume 2617.080991
_symmetry_space_group_name_H-M "C 2/M"
_symmetry_group_IT_number 12
_symmetry_cell_setting 'monoclinic'
loop_
_space_group_symop_operation_xyz
x,y,z
-x,y,-z
-x,-y,-z
x,-y,z
1/2+x,1/2+y,z
1/2-x,1/2+y,-z
1/2-x,1/2-y,-z
1/2+x,1/2-y,z
loop_
_atom_site_type_symbol
_atom_site_label
_atom_site_fract_x
_atom_site_fract_y
_atom_site_fract_z
Si Si1 0.623261 0.331890 0.091027
Si Si2 0.612761 0.216722 0.606380
Si Si3 0.883490 0.350565 0.075986
Si Si4 0.122732 0.717269 0.239431
Si Si5 0.772442 0.937858 0.832485
Si Si6 0.905101 0.937979 0.456296
Si Si7 0.108760 0.832318 0.742500
O O1 0.664942 0.323207 0.881199
O O2 0.661594 0.281444 0.185425
O O3 0.653283 0.394333 0.127135
O O4 0.506696 0.326749 0.156682
O O5 0.653508 0.180994 0.736093
O O6 0.655788 0.195998 0.402473
O O7 0.495223 0.214144 0.686135
O O8 0.646320 0.282462 0.600238
O O9 0.838371 0.413281 0.103297
O O10 0.840190 0.320588 0.937276
O O11 0.000000 0.355395 0.000000
O O12 0.809564 0.945212 0.626066
O O13 0.771971 0.000000 0.918887
O O14 0.871075 0.894536 0.338515
O O15 0.000000 0.914530 0.500000
O O16 0.932566 0.000000 0.364645
#
# Coordination Sequence:
#
# PCOD8083421 Si02
#       7
#     8   8   8   8   8   8   8
#     4  10  19  33  55  87 124 152 190 235 286 353
#     4   9  17  32  59  89 117 150 189 232 294 352
#     4  10  21  41  62  85 116 151 196 245 296 346
#     4   9  17  33  59  88 119 149 182 239 295 350
#     4  11  24  40  58  83 114 152 202 247 284 340
#     4  10  20  36  55  78 113 157 201 239 281 336
#     4  10  18  32  57  86 120 159 189 230 288 350
#
# _framework density 21.397884999999999
#
# number of rings (size 3 to 8) (size 9 to 14) (size 15 to 20)
#    0.000    2.143    2.857    0.857    2.000    1.429 
#    2.571    2.857    0.000    0.000    0.000    4.000 
#    0.000    0.000    0.000    0.000    0.000    0.000 
#
# Total GULP energy -346971.228154 kJ/mol
# GULP energy per Si atom -12391.829577 kJ/mol
# Density = 2.134918 g / cm^3
# Si number density = 21.397885 Si / 1000 Ang^3
#
#
#
# Elastic Constant Matrix: (Units=GPa)
#
#
# Indices 1 2 3 4 5 6 
#
# 1 40.3121 14.5627 23.6034 0.0000 15.5700 0.0000
# 2 14.5627 124.0831 51.5373 0.0000 7.2104 0.0000
# 3 23.6034 51.5373 133.0152 0.0000 28.0528 0.0000
# 4 0.0000 0.0000 0.0000 30.1994 0.0000 -1.8255
# 5 15.5700 7.2104 28.0528 0.0000 24.3382 0.0000
# 6 0.0000 0.0000 0.0000 -1.8255 0.0000 22.2737
#
#
#
# Elastic Compliance Matrix: (Units=1/GPa)
#
#
# Indices 1 2 3 4 5 6 
#
# 1 0.033914 -0.002467 -0.000846 0.000000 -0.019990 0.000000
# 2 -0.002467 0.009852 -0.004091 0.000000 0.003375 0.000000
# 3 -0.000846 -0.004091 0.011736 0.000000 -0.011774 0.000000
# 4 0.000000 0.000000 0.000000 0.033278 0.000000 0.002727
# 5 -0.019990 0.003375 -0.011774 0.000000 0.066447 0.000000
# 6 0.000000 0.000000 0.000000 0.002727 0.000000 0.045120
#
#
# Mechanical properties :
#
#
# Convention : Reuss Voigt Hill
#
# Bulk Modulus (GPa) = 24.57427 52.97968 38.77698
# Shear Modulus (GPa) = 21.86077 29.20939 25.53508
#
# Velocity S-wave (km/s) = 3.19977 3.69868 3.45823
# Velocity P-wave (km/s) = 5.01604 6.56151 5.84012
#
# Compressibility (1/GPa) = 0.04069296
#
# Stress axis : x y z
#
# Youngs Moduli (GPa) = 29.48640 101.50463 85.20486
#
# Poissons Ratio (x) = 0.25042 0.07211
# Poissons Ratio (y) = 0.07275 0.34859
# Poissons Ratio (z) = 0.02495 0.41527
#
# Static dielectric constant tensor:
#      x y z
#    x 3.663400 0.000000 0.098400 
#    y 0.000000 3.896480 0.000000 
#    z 0.098400 0.000000 4.163070 
# 
# 
# High freq. dielectric constant tensor:
#      x y z
#    x 1.833810 0.000000 -0.006580 
#    y 0.000000 1.818960 0.000000 
#    z -0.006580 0.000000 1.846180 
# 
# From -- ./inp_files/77357.got.cif
#   From: 2010.06.25/outbox.cif.g09.slc.cpg/sg12_39_cif.got.tgz:77357.got - 2010.06.28 00:19:55.
