data_PCOD8083668
_publ_section_title
;
Structure prediction by ZEFSAII (Michael W. Deem and Ramdas Pophale) SiO2 
 PCOD8083668
Probable space group: C 2/M
;
_chemical_formula_sum "Si O2"
_cell_formula_units_Z 56
_cell_length_a 18.627901
_cell_length_b 17.836021
_cell_length_c 9.704785
_cell_angle_alpha 90.000000
_cell_angle_beta 93.539327
_cell_angle_gamma 90.000000
_cell_volume 3218.241839
_symmetry_space_group_name_H-M "C 2/M"
_symmetry_group_IT_number 12
_symmetry_cell_setting 'monoclinic'
loop_
_space_group_symop_operation_xyz
x,y,z
-x,y,-z
-x,-y,-z
x,-y,z
1/2+x,1/2+y,z
1/2-x,1/2+y,-z
1/2-x,1/2-y,-z
1/2+x,1/2-y,z
loop_
_atom_site_type_symbol
_atom_site_label
_atom_site_fract_x
_atom_site_fract_y
_atom_site_fract_z
Si Si1 0.226754 0.714833 0.142130
Si Si2 0.828391 0.723190 0.378527
Si Si3 0.766947 0.086388 0.695532
Si Si4 0.010895 0.705372 0.652225
Si Si5 0.806040 0.583867 0.033697
Si Si6 0.629347 0.289845 0.331682
Si Si7 0.960874 0.583906 0.139078
O O1 0.284728 0.723881 0.269479
O O2 0.153642 0.751810 0.190990
O O3 0.250000 0.750000 0.000000
O O4 0.213949 0.627702 0.107897
O O5 0.796345 0.638160 0.377890
O O6 0.907617 0.731489 0.324295
O O7 0.827351 0.752891 0.535084
O O8 0.756857 0.089337 0.859737
O O9 0.845638 0.122460 0.670096
O O10 0.762544 0.000000 0.641596
O O11 0.994368 0.638789 0.756524
O O12 0.000000 0.670344 0.500000
O O13 0.956441 0.776465 0.666246
O O14 0.819346 0.500000 0.984072
O O15 0.879497 0.614519 0.111850
O O16 0.959547 0.500000 0.202575
O O17 0.000000 0.583633 0.000000
#
# Coordination Sequence:
#
# PCOD8083668 Si02
#       7
#     8   8   8   8   8   8   8
#     4  11  17  31  53  74 101 135 175 217 264 311
#     4  10  20  35  53  79 106 137 178 226 262 314
#     4  10  18  33  56  76 102 138 176 216 262 314
#     4  10  20  34  52  74 107 143 176 218 265 311
#     4  10  19  31  51  78 106 135 173 218 266 319
#     4  10  21  35  52  78 110 137 178 223 259 318
#     4  10  19  32  49  74 109 141 173 213 261 320
#
# _framework density 17.400805999999999
#
# number of rings (size 3 to 8) (size 9 to 14) (size 15 to 20)
#    0.000    1.857    4.286    2.571    0.000    0.286 
#    0.000    5.000    0.000    4.714    0.000    2.000 
#    0.000    0.000    0.000    0.000    0.000    0.000 
#
# Total GULP energy -346944.518794 kJ/mol
# GULP energy per Si atom -12390.875671 kJ/mol
# Density = 1.736120 g / cm^3
# Si number density = 17.400806 Si / 1000 Ang^3
#
#
#
# Elastic Constant Matrix: (Units=GPa)
#
#
# Indices 1 2 3 4 5 6 
#
# 1 98.5801 50.7542 22.9803 0.0000 -0.1037 0.0000
# 2 50.7542 112.0149 38.4236 0.0000 4.7619 0.0000
# 3 22.9803 38.4236 76.1322 0.0000 -6.2364 0.0000
# 4 0.0000 0.0000 0.0000 20.9959 0.0000 1.5123
# 5 -0.1037 4.7619 -6.2364 0.0000 21.8541 0.0000
# 6 0.0000 0.0000 0.0000 1.5123 0.0000 20.9397
#
#
#
# Elastic Compliance Matrix: (Units=1/GPa)
#
#
# Indices 1 2 3 4 5 6 
#
# 1 0.013338 -0.005725 -0.001054 0.000000 0.001010 0.000000
# 2 -0.005725 0.013607 -0.005513 0.000000 -0.004565 0.000000
# 3 -0.001054 -0.005513 0.016725 0.000000 0.005969 0.000000
# 4 0.000000 0.000000 0.000000 0.047877 0.000000 -0.003458
# 5 0.001010 -0.004565 0.005969 0.000000 0.048461 0.000000
# 6 0.000000 0.000000 0.000000 -0.003458 0.000000 0.048006
#
#
# Mechanical properties :
#
#
# Convention : Reuss Voigt Hill
#
# Bulk Modulus (GPa) = 52.39637 56.78258 54.58948
# Shear Modulus (GPa) = 22.83527 24.39589 23.61558
#
# Velocity S-wave (km/s) = 3.62651 3.74839 3.68795
# Velocity P-wave (km/s) = 6.90741 7.17195 7.04092
#
# Compressibility (1/GPa) = 0.01908529
#
# Stress axis : x y z
#
# Youngs Moduli (GPa) = 74.97193 73.49386 59.79229
#
# Poissons Ratio (x) = 0.42075 0.06302
# Poissons Ratio (y) = 0.42921 0.32964
# Poissons Ratio (z) = 0.07902 0.40518
#
# Static dielectric constant tensor:
#      x y z
#    x 3.359730 0.000000 -0.106330 
#    y 0.000000 3.377740 0.000000 
#    z -0.106330 0.000000 3.347600 
# 
# 
# High freq. dielectric constant tensor:
#      x y z
#    x 1.667910 0.000000 -0.016230 
#    y 0.000000 1.653140 0.000000 
#    z -0.016230 0.000000 1.673330 
# 
# From -- ./inp_files/87301.got.cif
#   From: 2010.06.25/outbox.cif.g09.slc.cpg/sg12_44_cif.got.tgz:87301.got - 2010.06.28 00:19:55.
