data_PCOD8083984
_publ_section_title
;
Structure prediction by ZEFSAII (Michael W. Deem and Ramdas Pophale) SiO2 
 PCOD8083984
Probable space group: C 2/M
;
_chemical_formula_sum "Si O2"
_cell_formula_units_Z 44
_cell_length_a 22.733664
_cell_length_b 14.508918
_cell_length_c 13.710987
_cell_angle_alpha 90.000000
_cell_angle_beta 31.357033
_cell_angle_gamma 90.000000
_cell_volume 2353.341360
_symmetry_space_group_name_H-M "C 2/M"
_symmetry_group_IT_number 12
_symmetry_cell_setting 'monoclinic'
loop_
_space_group_symop_operation_xyz
x,y,z
-x,y,-z
-x,-y,-z
x,-y,z
1/2+x,1/2+y,z
1/2-x,1/2+y,-z
1/2-x,1/2-y,-z
1/2+x,1/2-y,z
loop_
_atom_site_type_symbol
_atom_site_label
_atom_site_fract_x
_atom_site_fract_y
_atom_site_fract_z
Si Si1 0.517781 0.000000 0.361476
Si Si2 0.105850 0.000000 0.424450
Si Si3 0.452809 0.815098 0.358522
Si Si4 0.690433 0.318828 0.341999
Si Si5 0.058088 0.392603 0.021446
Si Si6 0.222254 0.000000 0.071714
Si Si7 0.143288 0.803480 0.186250
O O1 0.500000 0.000000 0.500000
O O2 0.454032 0.088845 0.412301
O O3 0.649124 0.000000 0.145917
O O4 0.116644 0.090236 0.477049
O O5 0.000000 0.000000 0.500000
O O6 0.219476 0.000000 0.194204
O O7 0.331806 0.764210 0.548736
O O8 0.479996 0.835321 0.207387
O O9 0.535915 0.741503 0.289240
O O10 0.640038 0.293311 0.307401
O O11 0.822504 0.341159 0.151981
O O12 0.067928 0.500000 0.039916
O O13 0.000000 0.385350 0.000000
O O14 0.154670 0.909240 0.132359
O O15 0.250000 0.750000 0.000000
#
# Coordination Sequence:
#
# PCOD8083984 Si02
#       7
#     4   4   8   8   8   4   8
#     4  12  22  32  50  83 128 161 188 228 295 369
#     4  10  18  34  54  85 122 155 190 236 291 355
#     4  12  23  37  59  92 121 158 201 248 307 368
#     4  11  21  36  61  91 120 155 201 248 302 365
#     4  11  24  45  67  84 112 162 218 262 297 346
#     4  10  20  32  50  76 122 168 202 226 272 358
#     4  11  19  33  57  86 128 163 192 237 306 379
#
# _framework density 18.696821
#
# number of rings (size 3 to 8) (size 9 to 14) (size 15 to 20)
#    0.000    0.909    5.455    4.909    0.000    0.727 
#    0.000    0.000    0.000    0.000    0.000    3.182 
#    0.000    0.000    0.000    0.000    0.000    0.000 
#
# Total GULP energy -272613.004721 kJ/mol
# GULP energy per Si atom -12391.500215 kJ/mol
# Density = 1.865427 g / cm^3
# Si number density = 18.696821 Si / 1000 Ang^3
#
#
#
# Elastic Constant Matrix: (Units=GPa)
#
#
# Indices 1 2 3 4 5 6 
#
# 1 68.0649 30.6569 28.2983 0.0000 14.4911 0.0000
# 2 30.6569 155.7918 52.7288 0.0000 18.4145 0.0000
# 3 28.2983 52.7288 100.8231 0.0000 18.9071 0.0000
# 4 0.0000 0.0000 0.0000 36.0773 0.0000 3.4015
# 5 14.4911 18.4145 18.9071 0.0000 16.5337 0.0000
# 6 0.0000 0.0000 0.0000 3.4015 0.0000 22.5792
#
#
#
# Elastic Compliance Matrix: (Units=1/GPa)
#
#
# Indices 1 2 3 4 5 6 
#
# 1 0.018925 -0.001517 -0.002196 0.000000 -0.012387 0.000000
# 2 -0.001517 0.008277 -0.003085 0.000000 -0.004361 0.000000
# 3 -0.002196 -0.003085 0.014185 0.000000 -0.010860 0.000000
# 4 0.000000 0.000000 0.000000 0.028118 0.000000 -0.004236
# 5 -0.012387 -0.004361 -0.010860 0.000000 0.088616 0.000000
# 6 0.000000 0.000000 0.000000 -0.004236 0.000000 0.044927
#
#
# Mechanical properties :
#
#
# Convention : Reuss Voigt Hill
#
# Bulk Modulus (GPa) = 35.98221 60.89423 48.43822
# Shear Modulus (GPa) = 22.13312 29.23777 25.68544
#
# Velocity S-wave (km/s) = 3.44436 3.95876 3.71048
# Velocity P-wave (km/s) = 5.92495 7.31681 6.65735
#
# Compressibility (1/GPa) = 0.02779152
#
# Stress axis : x y z
#
# Youngs Moduli (GPa) = 52.84004 120.81697 70.49832
#
# Poissons Ratio (x) = 0.18326 0.15479
# Poissons Ratio (y) = 0.08015 0.21750
# Poissons Ratio (z) = 0.11601 0.37274
#
# Static dielectric constant tensor:
#      x y z
#    x 3.084200 0.000000 0.119310 
#    y 0.000000 3.943660 0.000000 
#    z 0.119310 0.000000 3.663180 
# 
# 
# High freq. dielectric constant tensor:
#      x y z
#    x 1.678500 0.000000 -0.000310 
#    y 0.000000 1.748840 0.000000 
#    z -0.000310 0.000000 1.736510 
# 
# From -- ./inp_files/240368.got.cif
#   From: 2010.06.25/outbox.cif.g09.slc.cpg/sg12_121_cif.got.tgz:240368.got - 2010.06.28 00:19:55.
