data_PCOD8083453
_publ_section_title
;
Structure prediction by ZEFSAII (Michael W. Deem and Ramdas Pophale) SiO2 
 PCOD8083453
Probable space group: C 2/M
;
_chemical_formula_sum "Si O2"
_cell_formula_units_Z 64
_cell_length_a 30.905056
_cell_length_b 17.438982
_cell_length_c 8.821082
_cell_angle_alpha 90.000000
_cell_angle_beta 140.399816
_cell_angle_gamma 90.000000
_cell_volume 3030.418536
_symmetry_space_group_name_H-M "C 2/M"
_symmetry_group_IT_number 12
_symmetry_cell_setting 'monoclinic'
loop_
_space_group_symop_operation_xyz
x,y,z
-x,y,-z
-x,-y,-z
x,-y,z
1/2+x,1/2+y,z
1/2-x,1/2+y,-z
1/2-x,1/2-y,-z
1/2+x,1/2-y,z
loop_
_atom_site_type_symbol
_atom_site_label
_atom_site_fract_x
_atom_site_fract_y
_atom_site_fract_z
Si Si1 0.802146 0.412545 0.047603
Si Si2 0.200687 0.640179 0.618727
Si Si3 0.933945 0.410665 0.906389
Si Si4 0.470525 0.411054 0.076188
Si Si5 0.899049 0.913099 0.386717
Si Si6 0.156392 0.912427 0.093114
Si Si7 0.296469 0.295206 0.246494
Si Si8 0.065086 0.408929 0.755494
O O1 0.789791 0.500000 0.969972
O O2 0.788820 0.400089 0.189955
O O3 0.875725 0.383764 0.197895
O O4 0.750644 0.361598 0.808343
O O5 0.137124 0.599623 0.369956
O O6 0.271800 0.632473 0.719664
O O7 0.181097 0.730480 0.573428
O O8 0.948279 0.500000 0.962552
O O9 0.927373 0.373551 0.056060
O O10 0.000000 0.374167 0.000000
O O11 0.457994 0.500000 0.010703
O O12 0.522814 0.399970 0.356339
O O13 0.500000 0.373046 0.000000
O O14 0.395559 0.377785 0.919534
O O15 0.859949 0.841213 0.353132
O O16 0.875960 0.000000 0.378210
O O17 0.888156 0.906979 0.179063
O O18 0.175745 0.000000 0.180685
O O19 0.250000 0.250000 0.000000
O O20 0.059999 0.500000 0.752028
O O21 0.000000 0.372486 0.500000
#
# Coordination Sequence:
#
# PCOD8083453 Si02
#       8
#     8   8   8   8   8   8   8   8
#     4  10  18  33  58  83 112 147 194 244 292 345
#     4  11  21  35  57  85 125 157 193 239 301 361
#     4  10  20  36  60  87 116 154 199 243 290 343
#     4   9  19  35  56  85 117 147 188 246 301 346
#     4  10  18  34  61  86 110 149 203 249 290 349
#     4  10  18  32  58  88 116 152 197 242 289 351
#     4  10  20  34  55  81 118 149 190 235 293 353
#     4   9  18  33  56  86 113 143 190 246 291 336
#
# _framework density 21.119195000000001
#
# number of rings (size 3 to 8) (size 9 to 14) (size 15 to 20)
#    0.000    2.125    2.500    2.625    0.000    3.500 
#    2.250    1.250    8.250    0.000    0.000    0.000 
#    0.000    0.000    0.000    0.000    0.000    1.375 
#
# Total GULP energy -396423.308627 kJ/mol
# GULP energy per Si atom -12388.228395 kJ/mol
# Density = 2.107113 g / cm^3
# Si number density = 21.119195 Si / 1000 Ang^3
#
#
#
# Elastic Constant Matrix: (Units=GPa)
#
#
# Indices 1 2 3 4 5 6 
#
# 1 151.6479 31.1341 37.4702 0.0000 32.3056 0.0000
# 2 31.1341 64.7536 0.8165 0.0000 8.1549 0.0000
# 3 37.4702 0.8165 62.4873 0.0000 13.5272 0.0000
# 4 0.0000 0.0000 0.0000 14.7918 0.0000 0.6609
# 5 32.3056 8.1549 13.5272 0.0000 33.4458 0.0000
# 6 0.0000 0.0000 0.0000 0.6609 0.0000 9.5874
#
#
#
# Elastic Compliance Matrix: (Units=1/GPa)
#
#
# Indices 1 2 3 4 5 6 
#
# 1 0.009944 -0.003860 -0.004424 0.000000 -0.006875 0.000000
# 2 -0.003860 0.017458 0.002412 0.000000 -0.001504 0.000000
# 3 -0.004424 0.002412 0.019538 0.000000 -0.004217 0.000000
# 4 0.000000 0.000000 0.000000 0.067814 0.000000 -0.004675
# 5 -0.006875 -0.001504 -0.004217 0.000000 0.038612 0.000000
# 6 0.000000 0.000000 0.000000 -0.004675 0.000000 0.104626
#
#
# Mechanical properties :
#
#
# Convention : Reuss Voigt Hill
#
# Bulk Modulus (GPa) = 28.41270 46.41450 37.41360
# Shear Modulus (GPa) = 17.76401 25.52952 21.64677
#
# Velocity S-wave (km/s) = 2.90337 3.48060 3.20501
# Velocity P-wave (km/s) = 4.97214 6.17882 5.60803
#
# Compressibility (1/GPa) = 0.03519553
#
# Stress axis : x y z
#
# Youngs Moduli (GPa) = 100.55895 57.28045 51.18331
#
# Poissons Ratio (x) = 0.22109 0.22646
# Poissons Ratio (y) = 0.38813 -0.12345
# Poissons Ratio (z) = 0.44492 -0.13816
#
# Static dielectric constant tensor:
#      x y z
#    x 4.061060 0.000000 0.106890 
#    y 0.000000 3.867140 0.000000 
#    z 0.106890 0.000000 3.740220 
# 
# 
# High freq. dielectric constant tensor:
#      x y z
#    x 1.828690 0.000000 0.019360 
#    y 0.000000 1.794980 0.000000 
#    z 0.019360 0.000000 1.820570 
# 
# From -- ./inp_files/112865.got.cif
#   From: 2010.06.25/outbox.cif.g09.slc.cpg/sg12_57_cif.got.tgz:112865.got - 2010.06.28 00:19:55.
