data_PCOD8083193
_publ_section_title
;
Structure prediction by ZEFSAII (Michael W. Deem and Ramdas Pophale) SiO2 
 PCOD8083193
Probable space group: C 2/M
;
_chemical_formula_sum "Si O2"
_cell_formula_units_Z 64
_cell_length_a 23.935245
_cell_length_b 18.828961
_cell_length_c 19.175792
_cell_angle_alpha 90.000000
_cell_angle_beta 156.956638
_cell_angle_gamma 90.000000
_cell_volume 3382.743427
_symmetry_space_group_name_H-M "C 2/M"
_symmetry_group_IT_number 12
_symmetry_cell_setting 'monoclinic'
loop_
_space_group_symop_operation_xyz
x,y,z
-x,y,-z
-x,-y,-z
x,-y,z
1/2+x,1/2+y,z
1/2-x,1/2+y,-z
1/2-x,1/2-y,-z
1/2+x,1/2-y,z
loop_
_atom_site_type_symbol
_atom_site_label
_atom_site_fract_x
_atom_site_fract_y
_atom_site_fract_z
Si Si1 0.295784 0.206959 0.382018
Si Si2 0.350686 0.416553 0.290915
Si Si3 0.425687 0.421891 0.089944
Si Si4 0.536435 0.219586 0.756251
Si Si5 0.800516 0.864461 0.079965
Si Si6 0.937415 0.777036 0.775309
Si Si7 0.631506 0.191890 0.099594
Si Si8 0.844565 0.079890 0.845297
O O1 0.459768 0.207921 0.593995
O O2 0.204773 0.229276 0.344504
O O3 0.259858 0.264740 0.282652
O O4 0.270998 0.127948 0.325514
O O5 0.500000 0.394446 0.500000
O O6 0.324263 0.500000 0.270179
O O7 0.359765 0.397494 0.219538
O O8 0.210536 0.378104 0.161752
O O9 0.500339 0.500000 0.174096
O O10 0.332496 0.417732 0.053118
O O11 0.542650 0.360149 0.220456
O O12 0.324814 0.415192 0.905855
O O13 0.628139 0.289954 0.854944
O O14 0.422020 0.231294 0.687047
O O15 0.630933 0.150876 0.885461
O O16 0.073343 0.744114 0.972707
O O17 0.500000 0.170839 0.000000
O O18 0.824653 0.000000 0.794640
O O19 0.000000 0.109412 0.000000
#
# Coordination Sequence:
#
# PCOD8083193 Si02
#       8
#     8   8   8   8   8   8   8   8
#     4  11  19  32  56  89 112 145 183 237 278 331
#     4  11  23  40  63  86 109 145 197 246 286 339
#     4  10  19  33  57  82 111 151 187 225 273 331
#     4  10  21  34  56  81 114 145 189 231 279 333
#     4  10  21  39  55  80 111 151 187 230 281 341
#     4  10  18  34  55  84 114 146 185 230 280 338
#     4  10  20  36  59  86 117 147 186 233 291 340
#     4  10  18  32  54  83 116 149 184 224 273 333
#
# _framework density 18.919554999999999
#
# number of rings (size 3 to 8) (size 9 to 14) (size 15 to 20)
#    0.000    1.750    3.750    1.875    0.000    0.250 
#    0.000    1.875    0.000    1.500    0.000    0.000 
#    0.000    0.000    0.000    0.000    0.000    0.000 
#
# Total GULP energy -396634.893289 kJ/mol
# GULP energy per Si atom -12394.840415 kJ/mol
# Density = 1.887649 g / cm^3
# Si number density = 18.919555 Si / 1000 Ang^3
#
#
#
# Elastic Constant Matrix: (Units=GPa)
#
#
# Indices 1 2 3 4 5 6 
#
# 1 87.9288 26.0947 22.2248 -0.0070 -18.7399 -0.0042
# 2 26.0947 73.6312 18.5888 -0.0017 -4.5775 -0.0017
# 3 22.2248 18.5888 77.0878 -0.0021 -24.4238 -0.0029
# 4 -0.0070 -0.0017 -0.0021 19.5014 -0.0060 -6.8970
# 5 -18.7399 -4.5775 -24.4238 -0.0060 26.0329 -0.0047
# 6 -0.0042 -0.0017 -0.0029 -6.8970 -0.0047 24.6424
#
#
#
# Elastic Compliance Matrix: (Units=1/GPa)
#
#
# Indices 1 2 3 4 5 6 
#
# 1 0.014859 -0.004642 -0.000049 0.000010 0.009834 0.000007
# 2 -0.004642 0.015932 -0.003806 -0.000003 -0.004111 -0.000002
# 3 -0.000049 -0.003806 0.019468 0.000010 0.017560 0.000008
# 4 0.000010 -0.000003 0.000010 0.056912 0.000032 0.015929
# 5 0.009834 -0.004111 0.017560 0.000032 0.061244 0.000024
# 6 0.000007 -0.000002 0.000008 0.015929 0.000024 0.045039
#
#
# Mechanical properties :
#
#
# Convention : Reuss Voigt Hill
#
# Bulk Modulus (GPa) = 30.06205 41.38494 35.72350
# Shear Modulus (GPa) = 20.70104 25.48465 23.09284
#
# Velocity S-wave (km/s) = 3.31140 3.67413 3.49747
# Velocity P-wave (km/s) = 5.52670 6.31828 5.93570
#
# Compressibility (1/GPa) = 0.03326453
#
# Stress axis : x y z
#
# Youngs Moduli (GPa) = 67.30039 62.76813 51.36752
#
# Poissons Ratio (x) = 0.29139 0.00250
# Poissons Ratio (y) = 0.31243 0.19550
# Poissons Ratio (z) = 0.00327 0.23888
#
# Static dielectric constant tensor:
#      x y z
#    x 3.676140 0.000000 -0.195720 
#    y 0.000000 3.434700 -0.000010 
#    z -0.195720 -0.000010 3.337880 
# 
# 
# High freq. dielectric constant tensor:
#      x y z
#    x 1.744360 0.000000 -0.019710 
#    y 0.000000 1.731250 0.000000 
#    z -0.019710 0.000000 1.713130 
# 
# From -- ./inp_files/328640.got.cif
#   From: 2010.06.25/outbox.cif.g09.slc.cpg/sg12_165_cif.got.tgz:328640.got - 2010.06.28 00:19:55.
