data_PCOD8083114
_publ_section_title
;
Structure prediction by ZEFSAII (Michael W. Deem and Ramdas Pophale) SiO2 
 PCOD8083114
Probable space group: C 2/M
;
_chemical_formula_sum "Si O2"
_cell_formula_units_Z 60
_cell_length_a 28.563959
_cell_length_b 20.422387
_cell_length_c 10.825479
_cell_angle_alpha 90.000000
_cell_angle_beta 30.790189
_cell_angle_gamma 90.000000
_cell_volume 3232.611911
_symmetry_space_group_name_H-M "C 2/M"
_symmetry_group_IT_number 12
_symmetry_cell_setting 'monoclinic'
loop_
_space_group_symop_operation_xyz
x,y,z
-x,y,-z
-x,-y,-z
x,-y,z
1/2+x,1/2+y,z
1/2-x,1/2+y,-z
1/2-x,1/2-y,-z
1/2+x,1/2-y,z
loop_
_atom_site_type_symbol
_atom_site_label
_atom_site_fract_x
_atom_site_fract_y
_atom_site_fract_z
Si Si1 0.684569 0.572788 0.681524
Si Si2 0.174374 0.076965 0.428119
Si Si3 0.543743 0.784368 0.130819
Si Si4 0.989532 0.143482 0.878475
Si Si5 0.500000 0.139369 0.000000
Si Si6 0.846186 0.426319 0.500939
Si Si7 0.652250 0.809357 0.335140
Si Si8 0.216580 0.306249 0.912403
O O1 0.645425 0.500000 0.756936
O O2 0.702750 0.598149 0.502085
O O3 0.777242 0.576814 0.544541
O O4 0.608041 0.611928 0.928619
O O5 0.239840 0.121383 0.195132
O O6 0.068585 0.096189 0.646276
O O7 0.189755 0.000000 0.363553
O O8 0.512853 0.709657 0.192043
O O9 0.558714 0.814616 0.959638
O O10 0.456805 0.814232 0.398999
O O11 0.637586 0.794286 0.991371
O O12 0.000000 0.155900 0.000000
O O13 0.558972 0.094133 0.776362
O O14 0.853767 0.500000 0.537984
O O15 0.811989 0.377676 0.686774
O O16 0.704040 0.748765 0.285863
O O17 0.670991 0.802945 0.148947
#
# Coordination Sequence:
#
# PCOD8083114 Si02
#       8
#     8   8   8   8   4   8   8   8
#     4   9  18  31  52  82 111 145 179 218 285 346
#     4  10  20  35  56  84 117 150 185 230 282 338
#     4  11  20  36  57  84 113 146 186 233 287 334
#     4  10  18  32  53  84 116 144 178 228 280 340
#     4  10  21  34  54  86 115 140 184 228 281 348
#     4  10  20  36  56  78 111 148 186 233 281 339
#     4  10  23  39  54  82 107 148 201 234 283 327
#     4  11  22  38  59  79 112 152 191 245 275 330
#
# _framework density 18.560843999999999
#
# number of rings (size 3 to 8) (size 9 to 14) (size 15 to 20)
#    0.000    1.867    2.000    2.600    0.000    2.133 
#    0.000    6.667    0.000    4.000    0.000    4.667 
#    0.000    0.000    0.000    0.000    0.000    0.000 
#
# Total GULP energy -371880.348830 kJ/mol
# GULP energy per Si atom -12396.011628 kJ/mol
# Density = 1.851860 g / cm^3
# Si number density = 18.560844 Si / 1000 Ang^3
#
#
#
# Elastic Constant Matrix: (Units=GPa)
#
#
# Indices 1 2 3 4 5 6 
#
# 1 73.8380 34.1365 23.0807 0.0000 -7.9408 0.0000
# 2 34.1365 115.8706 29.8356 0.0000 -4.7661 0.0000
# 3 23.0807 29.8356 64.1204 0.0000 -7.5643 0.0000
# 4 0.0000 0.0000 0.0000 30.2021 0.0000 -1.5368
# 5 -7.9408 -4.7661 -7.5643 0.0000 24.1484 0.0000
# 6 0.0000 0.0000 0.0000 -1.5368 0.0000 25.0576
#
#
#
# Elastic Compliance Matrix: (Units=1/GPa)
#
#
# Indices 1 2 3 4 5 6 
#
# 1 0.016916 -0.003837 -0.003880 0.000000 0.003590 0.000000
# 2 -0.003837 0.010682 -0.003623 0.000000 -0.000288 0.000000
# 3 -0.003880 -0.003623 0.019151 0.000000 0.004008 0.000000
# 4 0.000000 0.000000 0.000000 0.033214 0.000000 0.002037
# 5 0.003590 -0.000288 0.004008 0.000000 0.043790 0.000000
# 6 0.000000 0.000000 0.000000 0.002037 0.000000 0.040033
#
#
# Mechanical properties :
#
#
# Convention : Reuss Voigt Hill
#
# Bulk Modulus (GPa) = 41.54849 47.54829 44.54839
# Shear Modulus (GPa) = 25.70843 27.00003 26.35423
#
# Velocity S-wave (km/s) = 3.72572 3.81816 3.77222
# Velocity P-wave (km/s) = 6.39856 6.71647 6.55944
#
# Compressibility (1/GPa) = 0.02406826
#
# Stress axis : x y z
#
# Youngs Moduli (GPa) = 59.11574 93.61758 52.21626
#
# Poissons Ratio (x) = 0.35919 0.20261
# Poissons Ratio (y) = 0.22682 0.18919
# Poissons Ratio (z) = 0.22939 0.33920
#
# Static dielectric constant tensor:
#      x y z
#    x 3.285060 0.000000 -0.096990 
#    y 0.000000 3.628790 0.000000 
#    z -0.096990 0.000000 3.309300 
# 
# 
# High freq. dielectric constant tensor:
#      x y z
#    x 1.707860 0.000000 -0.011360 
#    y 0.000000 1.728950 0.000000 
#    z -0.011360 0.000000 1.717800 
# 
# From -- ./inp_files/190218.got.cif
#   From: 2010.06.25/outbox.cif.g09.slc.cpg/sg12_96_cif.got.tgz:190218.got - 2010.06.28 00:19:55.
