data_PCOD8083003
_publ_section_title
;
Structure prediction by ZEFSAII (Michael W. Deem and Ramdas Pophale) SiO2 
 PCOD8083003
Probable space group: C 2/M
;
_chemical_formula_sum "Si O2"
_cell_formula_units_Z 56
_cell_length_a 33.411736
_cell_length_b 8.883724
_cell_length_c 12.601850
_cell_angle_alpha 90.000000
_cell_angle_beta 59.198802
_cell_angle_gamma 90.000000
_cell_volume 3212.890165
_symmetry_space_group_name_H-M "C 2/M"
_symmetry_group_IT_number 12
_symmetry_cell_setting 'monoclinic'
loop_
_space_group_symop_operation_xyz
x,y,z
-x,y,-z
-x,-y,-z
x,-y,z
1/2+x,1/2+y,z
1/2-x,1/2+y,-z
1/2-x,1/2-y,-z
1/2+x,1/2-y,z
loop_
_atom_site_type_symbol
_atom_site_label
_atom_site_fract_x
_atom_site_fract_y
_atom_site_fract_z
Si Si1 0.550809 0.822680 0.891083
Si Si2 0.610415 0.174940 0.386462
Si Si3 0.304909 0.674653 0.823572
Si Si4 0.800457 0.674352 0.053374
Si Si5 0.544295 0.177981 0.659560
Si Si6 0.059151 0.325079 0.237488
Si Si7 0.115011 0.177447 0.974128
O O1 0.557140 0.771817 0.760924
O O2 0.557025 0.000000 0.897862
O O3 0.500000 0.771681 0.000000
O O4 0.590355 0.739524 0.903154
O O5 0.657916 0.269810 0.313383
O O6 0.583139 0.239961 0.525809
O O7 0.577328 0.201176 0.330822
O O8 0.623352 0.000000 0.381895
O O9 0.312284 0.500000 0.841389
O O10 0.253553 0.703008 0.845432
O O11 0.312373 0.770499 0.919180
O O12 0.813864 0.500000 0.040103
O O13 0.831692 0.763546 0.096177
O O14 0.493300 0.239122 0.697437
O O15 0.542744 0.000000 0.651041
O O16 0.061150 0.500000 0.201049
O O17 0.090212 0.232055 0.114331
O O18 0.114784 0.000000 0.969819
#
# Coordination Sequence:
#
# PCOD8083003 Si02
#       7
#     8   8   8   8   8   8   8
#     4  10  19  35  57  76 101 140 185 223 255 303
#     4  10  19  31  53  80 109 143 175 212 257 313
#     4  10  20  33  52  79 109 136 168 214 264 315
#     4  10  20  35  54  76 103 139 177 212 259 315
#     4   9  18  33  53  78 104 140 187 219 247 303
#     4  10  18  32  52  76 107 143 179 210 253 310
#     4  12  23  33  51  79 111 137 171 221 271 311
#
# _framework density 17.429790000000001
#
# number of rings (size 3 to 8) (size 9 to 14) (size 15 to 20)
#    0.000    1.857    2.857    2.571    0.000    3.714 
#    0.000    1.429    0.000    2.571    0.000    0.000 
#    0.000    0.000    0.000    0.000    0.000    0.000 
#
# Total GULP energy -347266.628117 kJ/mol
# GULP energy per Si atom -12402.379576 kJ/mol
# Density = 1.739012 g / cm^3
# Si number density = 17.429790 Si / 1000 Ang^3
#
#
#
# Elastic Constant Matrix: (Units=GPa)
#
#
# Indices 1 2 3 4 5 6 
#
# 1 135.6461 53.9870 60.8728 0.0000 -3.6364 0.0000
# 2 53.9870 65.9889 36.2572 0.0000 1.2802 0.0000
# 3 60.8728 36.2572 101.8218 0.0000 0.2476 0.0000
# 4 0.0000 0.0000 0.0000 16.9503 0.0000 -3.2722
# 5 -3.6364 1.2802 0.2476 0.0000 24.9789 0.0000
# 6 0.0000 0.0000 0.0000 -3.2722 0.0000 25.4532
#
#
#
# Elastic Compliance Matrix: (Units=1/GPa)
#
#
# Indices 1 2 3 4 5 6 
#
# 1 0.012695 -0.007780 -0.004825 0.000000 0.002295 0.000000
# 2 -0.007780 0.023628 -0.003757 0.000000 -0.002306 0.000000
# 3 -0.004825 -0.003757 0.014045 0.000000 -0.000649 0.000000
# 4 0.000000 0.000000 0.000000 0.060497 0.000000 0.007777
# 5 0.002295 -0.002306 -0.000649 0.000000 0.040492 0.000000
# 6 0.000000 0.000000 0.000000 0.007777 0.000000 0.040288
#
#
# Mechanical properties :
#
#
# Convention : Reuss Voigt Hill
#
# Bulk Modulus (GPa) = 56.67402 67.29900 61.98651
# Shear Modulus (GPa) = 21.71550 23.63247 22.67399
#
# Velocity S-wave (km/s) = 3.53354 3.68620 3.61068
# Velocity P-wave (km/s) = 7.01670 7.53742 7.28172
#
# Compressibility (1/GPa) = 0.01764477
#
# Stress axis : x y z
#
# Youngs Moduli (GPa) = 78.76961 42.32310 71.19972
#
# Poissons Ratio (x) = 0.32926 0.34354
# Poissons Ratio (y) = 0.61280 0.26749
# Poissons Ratio (z) = 0.38007 0.15900
#
# Static dielectric constant tensor:
#      x y z
#    x 3.456470 0.000000 -0.098720 
#    y 0.000000 3.097520 0.000000 
#    z -0.098720 0.000000 3.243800 
# 
# 
# High freq. dielectric constant tensor:
#      x y z
#    x 1.680630 0.000000 -0.008110 
#    y 0.000000 1.659980 0.000000 
#    z -0.008110 0.000000 1.654620 
# 
# From -- ./inp_files/186465.got.cif
#   From: 2010.06.25/outbox.cif.g09.slc.cpg/sg12_94_cif.got.tgz:186465.got - 2010.06.28 00:19:55.
