data_PCOD8083005
_publ_section_title
;
Structure prediction by ZEFSAII (Michael W. Deem and Ramdas Pophale) SiO2 
 PCOD8083005
Probable space group: C 2/M
;
_chemical_formula_sum "Si O2"
_cell_formula_units_Z 56
_cell_length_a 28.344097
_cell_length_b 9.206825
_cell_length_c 14.217124
_cell_angle_alpha 90.000000
_cell_angle_beta 120.179188
_cell_angle_gamma 90.000000
_cell_volume 3207.213654
_symmetry_space_group_name_H-M "C 2/M"
_symmetry_group_IT_number 12
_symmetry_cell_setting 'monoclinic'
loop_
_space_group_symop_operation_xyz
x,y,z
-x,y,-z
-x,-y,-z
x,-y,z
1/2+x,1/2+y,z
1/2-x,1/2+y,-z
1/2-x,1/2-y,-z
1/2+x,1/2-y,z
loop_
_atom_site_type_symbol
_atom_site_label
_atom_site_fract_x
_atom_site_fract_y
_atom_site_fract_z
Si Si1 0.971186 0.170276 0.699199
Si Si2 0.632123 0.164865 0.071132
Si Si3 0.056267 0.329261 0.506796
Si Si4 0.447916 0.671315 0.888053
Si Si5 0.254418 0.172785 0.904015
Si Si6 0.154709 0.665146 0.740397
Si Si7 0.075557 0.339273 0.823017
O O1 0.934942 0.249258 0.583991
O O2 0.952742 0.219331 0.784471
O O3 0.033732 0.217611 0.746994
O O4 0.966217 0.000000 0.679807
O O5 0.608903 0.261331 0.132616
O O6 0.690416 0.221652 0.093468
O O7 0.637388 0.000000 0.111813
O O8 0.587867 0.179038 0.944422
O O9 0.054821 0.500000 0.487636
O O10 0.107644 0.283853 0.621856
O O11 0.000000 0.278204 0.500000
O O12 0.443733 0.500000 0.894440
O O13 0.500000 0.728958 0.000000
O O14 0.205996 0.226658 0.786580
O O15 0.252082 0.000000 0.916652
O O16 0.250000 0.250000 0.000000
O O17 0.173283 0.500000 0.737187
O O18 0.131963 0.676724 0.823570
O O19 0.050672 0.500000 0.776834
#
# Coordination Sequence:
#
# PCOD8083005 Si02
#       7
#     8   8   8   8   8   8   8
#     4  11  22  34  51  79 112 142 178 220 266 318
#     4  10  21  35  53  78 107 142 181 218 257 314
#     4  10  20  36  56  77 107 145 179 218 266 318
#     4  10  21  36  52  76 110 142 174 219 272 318
#     4  11  22  36  54  80 112 143 179 221 267 316
#     4  10  20  36  55  78 109 144 181 218 263 319
#     4  10  18  32  52  76 110 143 178 216 255 315
#
# _framework density 17.460639
#
# number of rings (size 3 to 8) (size 9 to 14) (size 15 to 20)
#    0.000    1.714    4.286    0.857    0.000    4.000 
#    0.000    0.000    0.000    0.857    0.000    0.000 
#    0.000    0.000    0.000    0.000    0.000    0.000 
#
# Total GULP energy -347209.225752 kJ/mol
# GULP energy per Si atom -12400.329491 kJ/mol
# Density = 1.742090 g / cm^3
# Si number density = 17.460639 Si / 1000 Ang^3
#
#
#
# Elastic Constant Matrix: (Units=GPa)
#
#
# Indices 1 2 3 4 5 6 
#
# 1 104.0566 45.5580 49.9701 0.0000 0.5939 0.0000
# 2 45.5580 53.9065 43.1074 0.0000 -2.2623 0.0000
# 3 49.9701 43.1074 95.7514 0.0000 -2.2572 0.0000
# 4 0.0000 0.0000 0.0000 31.5632 0.0000 0.8176
# 5 0.5939 -2.2623 -2.2572 0.0000 28.9406 0.0000
# 6 0.0000 0.0000 0.0000 0.8176 0.0000 31.8506
#
#
#
# Elastic Compliance Matrix: (Units=1/GPa)
#
#
# Indices 1 2 3 4 5 6 
#
# 1 0.016044 -0.010777 -0.003555 0.000000 -0.001449 0.000000
# 2 -0.010777 0.036270 -0.010652 0.000000 0.002226 0.000000
# 3 -0.003555 -0.010652 0.017108 0.000000 0.000575 0.000000
# 4 0.000000 0.000000 0.000000 0.031704 0.000000 -0.000814
# 5 -0.001449 0.002226 0.000575 0.000000 0.034802 0.000000
# 6 0.000000 0.000000 0.000000 -0.000814 0.000000 0.031417
#
#
# Mechanical properties :
#
#
# Convention : Reuss Voigt Hill
#
# Bulk Modulus (GPa) = 51.40448 58.99841 55.20144
# Shear Modulus (GPa) = 22.34139 26.14281 24.24210
#
# Velocity S-wave (km/s) = 3.58093 3.87362 3.73015
# Velocity P-wave (km/s) = 6.82653 7.33957 7.08770
#
# Compressibility (1/GPa) = 0.01945356
#
# Stress axis : x y z
#
# Youngs Moduli (GPa) = 62.32779 27.57069 58.45112
#
# Poissons Ratio (x) = 0.29713 0.20781
# Poissons Ratio (y) = 0.67172 0.62263
# Poissons Ratio (z) = 0.22159 0.29369
#
# Static dielectric constant tensor:
#      x y z
#    x 3.166150 0.000000 -0.019420 
#    y 0.000000 3.185760 0.000000 
#    z -0.019420 0.000000 3.240250 
# 
# 
# High freq. dielectric constant tensor:
#      x y z
#    x 1.659860 0.000000 -0.001560 
#    y 0.000000 1.672040 0.000000 
#    z -0.001560 0.000000 1.667380 
# 
# From -- ./inp_files/243625.got.cif
#   From: 2010.06.25/outbox.cif.g09.slc.cpg/sg12_122_cif.got.tgz:243625.got - 2010.06.28 00:19:55.
