data_PCOD8083742
_publ_section_title
;
Structure prediction by ZEFSAII (Michael W. Deem and Ramdas Pophale) SiO2 
 PCOD8083742
Probable space group: C 2/M
;
_chemical_formula_sum "Si O2"
_cell_formula_units_Z 64
_cell_length_a 24.540526
_cell_length_b 8.867471
_cell_length_c 20.002101
_cell_angle_alpha 90.000000
_cell_angle_beta 54.731267
_cell_angle_gamma 90.000000
_cell_volume 3553.778448
_symmetry_space_group_name_H-M "C 2/M"
_symmetry_group_IT_number 12
_symmetry_cell_setting 'monoclinic'
loop_
_space_group_symop_operation_xyz
x,y,z
-x,y,-z
-x,-y,-z
x,-y,z
1/2+x,1/2+y,z
1/2-x,1/2+y,-z
1/2-x,1/2-y,-z
1/2+x,1/2-y,z
loop_
_atom_site_type_symbol
_atom_site_label
_atom_site_fract_x
_atom_site_fract_y
_atom_site_fract_z
Si Si1 0.081798 0.324402 0.745895
Si Si2 0.175484 0.820183 0.288800
Si Si3 0.443911 0.678095 0.873512
Si Si4 0.428430 0.678113 0.527583
Si Si5 0.445907 0.173462 0.381113
Si Si6 0.427723 0.822040 0.022675
Si Si7 0.176444 0.677568 0.793616
Si Si8 0.906619 0.321723 0.766416
O O1 0.062421 0.500000 0.771176
O O2 0.095229 0.294362 0.657937
O O3 0.147405 0.278327 0.741188
O O4 0.020911 0.226242 0.815875
O O5 0.128292 0.761797 0.382212
O O6 0.249392 0.755775 0.251170
O O7 0.152041 0.749170 0.235866
O O8 0.173330 0.000000 0.284335
O O9 0.437855 0.500000 0.872060
O O10 0.401512 0.753172 0.844016
O O11 0.412831 0.734689 0.964880
O O12 0.500000 0.744171 0.500000
O O13 0.429922 0.500000 0.526721
O O14 0.412235 0.731982 0.464120
O O15 0.522410 0.224089 0.316164
O O16 0.442237 0.000000 0.404187
O O17 0.372544 0.762094 0.114024
O O18 0.422560 0.000000 0.013492
O O19 0.500000 0.778644 0.000000
O O20 0.180940 0.500000 0.796804
O O21 0.898481 0.500000 0.776883
#
# Coordination Sequence:
#
# PCOD8083742 Si02
#       8
#     8   8   8   8   8   8   8   8
#     4   9  17  34  54  77 105 139 179 214 259 312
#     4  10  20  35  54  78 106 139 177 215 261 313
#     4  11  21  32  52  82 111 136 169 220 268 309
#     4  10  19  31  49  75 107 138 169 212 264 313
#     4   9  18  30  51  77 101 131 175 222 255 299
#     4  10  18  33  57  80 103 136 179 218 255 309
#     4   9  18  34  57  78 103 140 177 214 257 312
#     4  10  20  35  54  77 105 140 177 217 263 312
#
# _framework density 18.009
#
# number of rings (size 3 to 8) (size 9 to 14) (size 15 to 20)
#    0.000    2.250    2.500    2.250    0.000    3.000 
#    0.000    2.500    0.000    0.000    0.000    0.000 
#    0.000    0.000    0.000    0.000    0.000    0.000 
#
# Total GULP energy -396818.522792 kJ/mol
# GULP energy per Si atom -12400.578837 kJ/mol
# Density = 1.796801 g / cm^3
# Si number density = 18.009000 Si / 1000 Ang^3
#
#
#
# Elastic Constant Matrix: (Units=GPa)
#
#
# Indices 1 2 3 4 5 6 
#
# 1 156.4312 32.3669 79.1844 0.0006 9.0851 -0.0004
# 2 32.3669 42.6177 29.0419 0.0029 4.7458 -0.0014
# 3 79.1844 29.0419 118.9758 0.0006 8.0077 -0.0006
# 4 0.0006 0.0029 0.0006 21.1899 -0.0005 9.0192
# 5 9.0851 4.7458 8.0077 -0.0005 32.7245 0.0003
# 6 -0.0004 -0.0014 -0.0006 9.0192 0.0003 22.9296
#
#
#
# Elastic Compliance Matrix: (Units=1/GPa)
#
#
# Indices 1 2 3 4 5 6 
#
# 1 0.010130 -0.003650 -0.005793 0.000001 -0.000866 0.000000
# 2 -0.003650 0.029654 -0.004665 -0.000005 -0.002146 0.000004
# 3 -0.005793 -0.004665 0.013468 0.000000 -0.001011 0.000000
# 4 0.000001 -0.000005 0.000000 0.056682 0.000002 -0.022296
# 5 -0.000866 -0.002146 -0.001011 0.000002 0.031357 -0.000001
# 6 0.000000 0.000004 0.000000 -0.022296 -0.000001 0.052382
#
#
# Mechanical properties :
#
#
# Convention : Reuss Voigt Hill
#
# Bulk Modulus (GPa) = 39.94208 66.57902 53.26055
# Shear Modulus (GPa) = 21.71701 27.19756 24.45728
#
# Velocity S-wave (km/s) = 3.47637 3.89037 3.68918
# Velocity P-wave (km/s) = 6.19198 7.56506 6.91270
#
# Compressibility (1/GPa) = 0.02503625
#
# Stress axis : x y z
#
# Youngs Moduli (GPa) = 98.71196 33.72203 74.25260
#
# Poissons Ratio (x) = 0.12307 0.43016
# Poissons Ratio (y) = 0.36026 0.34640
# Poissons Ratio (z) = 0.57186 0.15732
#
# Static dielectric constant tensor:
#      x y z
#    x 3.462500 0.000000 0.102150 
#    y 0.000000 3.073200 0.000000 
#    z 0.102150 0.000000 3.368920 
# 
# 
# High freq. dielectric constant tensor:
#      x y z
#    x 1.695200 0.000000 0.023060 
#    y 0.000000 1.678100 0.000000 
#    z 0.023060 0.000000 1.687740 
# 
# From -- ./inp_files/324138.got.cif
#   From: 2010.06.25/outbox.cif.g09.slc.cpg/sg12_163_cif.got.tgz:324138.got - 2010.06.28 00:19:55.
