data_PCOD8083107
_publ_section_title
;
Structure prediction by ZEFSAII (Michael W. Deem and Ramdas Pophale) SiO2 
 PCOD8083107
Probable space group: C 2/M
;
_chemical_formula_sum "Si O2"
_cell_formula_units_Z 56
_cell_length_a 19.772058
_cell_length_b 8.778356
_cell_length_c 25.737725
_cell_angle_alpha 90.000000
_cell_angle_beta 40.354863
_cell_angle_gamma 90.000000
_cell_volume 2892.599142
_symmetry_space_group_name_H-M "C 2/M"
_symmetry_group_IT_number 12
_symmetry_cell_setting 'monoclinic'
loop_
_space_group_symop_operation_xyz
x,y,z
-x,y,-z
-x,-y,-z
x,-y,z
1/2+x,1/2+y,z
1/2-x,1/2+y,-z
1/2-x,1/2-y,-z
1/2+x,1/2-y,z
loop_
_atom_site_type_symbol
_atom_site_label
_atom_site_fract_x
_atom_site_fract_y
_atom_site_fract_z
Si Si1 0.312736 0.675519 0.825730
Si Si2 0.392728 0.680091 0.089215
Si Si3 0.566683 0.819099 0.826901
Si Si4 0.644855 0.676085 0.081157
Si Si5 0.670028 0.678830 0.506683
Si Si6 0.004726 0.680487 0.665644
Si Si7 0.156148 0.321896 0.667867
O O1 0.293939 0.500000 0.822835
O O2 0.202349 0.761651 0.890346
O O3 0.364780 0.696350 0.851493
O O4 0.389637 0.749028 0.738094
O O5 0.389318 0.500000 0.095292
O O6 0.379410 0.750438 0.154015
O O7 0.500000 0.736477 0.000000
O O8 0.448039 0.763795 0.892800
O O9 0.631417 0.754585 0.739246
O O10 0.569152 0.000000 0.828972
O O11 0.641248 0.500000 0.066663
O O12 0.750000 0.750000 0.000000
O O13 0.658326 0.500000 0.523559
O O14 0.750000 0.750000 0.500000
O O15 0.557630 0.759457 0.580777
O O16 0.722665 0.711154 0.419182
O O17 0.996182 0.500000 0.668681
O O18 0.075662 0.742998 0.671867
O O19 0.134591 0.500000 0.682232
#
# Coordination Sequence:
#
# PCOD8083107 Si02
#       7
#     8   8   8   8   8   8   8
#     4  11  23  38  58  84 112 147 190 236 281 336
#     4  11  25  43  60  80 110 150 192 235 286 342
#     4  11  21  37  60  84 113 148 187 232 281 336
#     4  11  23  37  56  84 113 143 183 232 286 338
#     4   9  16  28  47  77 114 150 186 224 273 331
#     4  10  18  32  53  81 115 150 186 227 281 334
#     4   8  16  30  51  80 113 148 182 222 276 331
#
# _framework density 19.359752
#
# number of rings (size 3 to 8) (size 9 to 14) (size 15 to 20)
#    0.000    1.857    1.429    4.286    0.000    5.143 
#    0.000    2.143    0.000    0.857    0.000    6.000 
#    0.000    0.000    0.000    0.000    0.000    0.000 
#
# Total GULP energy -347163.787084 kJ/mol
# GULP energy per Si atom -12398.706682 kJ/mol
# Density = 1.931569 g / cm^3
# Si number density = 19.359752 Si / 1000 Ang^3
#
#
#
# Elastic Constant Matrix: (Units=GPa)
#
#
# Indices 1 2 3 4 5 6 
#
# 1 42.1280 16.5313 3.1181 -0.0003 1.7429 0.0002
# 2 16.5313 84.7924 40.9921 -0.0001 0.4193 -0.0004
# 3 3.1181 40.9921 124.2409 0.0000 -0.5701 0.0001
# 4 -0.0003 -0.0001 0.0000 34.1433 0.0000 -3.7317
# 5 1.7429 0.4193 -0.5701 0.0000 26.4929 0.0001
# 6 0.0002 -0.0004 0.0001 -3.7317 0.0001 27.6890
#
#
#
# Elastic Compliance Matrix: (Units=1/GPa)
#
#
# Indices 1 2 3 4 5 6 
#
# 1 0.025922 -0.005625 0.001198 0.000000 -0.001590 0.000000
# 2 -0.005625 0.015255 -0.004892 0.000000 0.000023 0.000000
# 3 0.001198 -0.004892 0.009634 0.000000 0.000206 0.000000
# 4 0.000000 0.000000 0.000000 0.029726 0.000000 0.004006
# 5 -0.001590 0.000023 0.000206 0.000000 0.037855 0.000000
# 6 0.000000 0.000000 0.000000 0.004006 0.000000 0.036655
#
#
# Mechanical properties :
#
#
# Convention : Reuss Voigt Hill
#
# Bulk Modulus (GPa) = 31.08237 41.38269 36.23253
# Shear Modulus (GPa) = 27.11368 30.36636 28.74002
#
# Velocity S-wave (km/s) = 3.74641 3.96476 3.85713
# Velocity P-wave (km/s) = 5.89950 6.51008 6.21230
#
# Compressibility (1/GPa) = 0.03217258
#
# Stress axis : x y z
#
# Youngs Moduli (GPa) = 38.57784 65.55209 103.80099
#
# Poissons Ratio (x) = 0.36873 -0.12436
# Poissons Ratio (y) = 0.21700 0.50779
# Poissons Ratio (z) = -0.04622 0.32068
#
# Static dielectric constant tensor:
#      x y z
#    x 3.273520 0.000000 0.189150 
#    y 0.000000 3.532670 0.000000 
#    z 0.189150 0.000000 4.064790 
# 
# 
# High freq. dielectric constant tensor:
#      x y z
#    x 1.710820 0.000000 0.004770 
#    y 0.000000 1.755680 0.000000 
#    z 0.004770 0.000000 1.775360 
# 
# From -- ./inp_files/362999.got.cif
#   From: 2010.06.25/outbox.cif.g09.slc.cpg/sg12_182_cif.got.tgz:362999.got - 2010.06.28 00:19:55.
