data_PCOD8083585
_publ_section_title
;
Structure prediction by ZEFSAII (Michael W. Deem and Ramdas Pophale) SiO2 
 PCOD8083585
Probable space group: C 2/M
;
_chemical_formula_sum "Si O2"
_cell_formula_units_Z 64
_cell_length_a 14.837270
_cell_length_b 8.942514
_cell_length_c 27.237107
_cell_angle_alpha 90.000000
_cell_angle_beta 106.105216
_cell_angle_gamma 90.000000
_cell_volume 3472.056339
_symmetry_space_group_name_H-M "C 2/M"
_symmetry_group_IT_number 12
_symmetry_cell_setting 'monoclinic'
loop_
_space_group_symop_operation_xyz
x,y,z
-x,y,-z
-x,-y,-z
x,-y,z
1/2+x,1/2+y,z
1/2-x,1/2+y,-z
1/2-x,1/2-y,-z
1/2+x,1/2-y,z
loop_
_atom_site_type_symbol
_atom_site_label
_atom_site_fract_x
_atom_site_fract_y
_atom_site_fract_z
Si Si1 0.706665 0.823677 0.424576
Si Si2 0.236060 0.177227 0.764620
Si Si3 0.398358 0.676116 0.504476
Si Si4 0.764980 0.322271 0.054611
Si Si5 0.346345 0.822954 0.878024
Si Si6 0.149314 0.676779 0.309973
Si Si7 0.043649 0.676814 0.867999
Si Si8 0.951400 0.676751 0.241783
O O1 0.628380 0.750969 0.447923
O O2 0.814176 0.781283 0.454213
O O3 0.688290 0.759845 0.367249
O O4 0.691165 0.000000 0.425308
O O5 0.283662 0.229389 0.822523
O O6 0.293163 0.243336 0.727146
O O7 0.133600 0.244439 0.743853
O O8 0.232483 0.000000 0.762115
O O9 0.500000 0.734553 0.500000
O O10 0.403961 0.500000 0.513845
O O11 0.761479 0.500000 0.049769
O O12 0.683912 0.265583 0.078322
O O13 0.864428 0.263974 0.090383
O O14 0.750000 0.250000 0.000000
O O15 0.452660 0.771182 0.884202
O O16 0.338275 0.000000 0.885787
O O17 0.159914 0.500000 0.310812
O O18 0.041613 0.723406 0.286903
O O19 0.044283 0.500000 0.864428
O O20 0.039722 0.740896 0.812192
O O21 0.935783 0.500000 0.238603
#
# Coordination Sequence:
#
# PCOD8083585 Si02
#       8
#     8   8   8   8   8   8   8   8
#     4   9  18  33  52  76 104 138 179 219 258 307
#     4  10  19  32  53  80 106 135 171 212 258 307
#     4   9  18  33  53  75 103 140 177 217 268 315
#     4  11  23  39  57  80 107 136 171 216 263 306
#     4  10  19  35  58  80 102 135 175 211 251 308
#     4   9  18  33  53  76 107 142 175 212 257 313
#     4   9  18  34  57  77 100 137 174 203 246 312
#     4  10  18  33  54  76 102 137 176 210 250 307
#
# _framework density 18.432880000000001
#
# number of rings (size 3 to 8) (size 9 to 14) (size 15 to 20)
#    0.000    2.375    2.500    0.375    0.000    1.750 
#    0.000    7.500    0.000    0.000    0.000    0.000 
#    0.000    0.000    0.000    0.000    0.000    0.000 
#
# Total GULP energy -396776.250769 kJ/mol
# GULP energy per Si atom -12399.257837 kJ/mol
# Density = 1.839093 g / cm^3
# Si number density = 18.432880 Si / 1000 Ang^3
#
#
#
# Elastic Constant Matrix: (Units=GPa)
#
#
# Indices 1 2 3 4 5 6 
#
# 1 107.1352 8.2593 35.8494 0.0000 -11.0483 0.0000
# 2 8.2593 18.4879 19.1046 0.0000 -3.8652 0.0000
# 3 35.8494 19.1046 122.8699 0.0000 -0.6446 0.0000
# 4 0.0000 0.0000 0.0000 23.4769 0.0000 -3.6772
# 5 -11.0483 -3.8652 -0.6446 0.0000 29.0627 0.0000
# 6 0.0000 0.0000 0.0000 -3.6772 0.0000 29.2777
#
#
#
# Elastic Compliance Matrix: (Units=1/GPa)
#
#
# Indices 1 2 3 4 5 6 
#
# 1 0.010810 -0.000919 -0.002990 0.000000 0.003921 0.000000
# 2 -0.000919 0.066614 -0.010046 0.000000 0.008287 0.000000
# 3 -0.002990 -0.010046 0.010561 0.000000 -0.002239 0.000000
# 4 0.000000 0.000000 0.000000 0.043450 0.000000 0.005457
# 5 0.003921 0.008287 -0.002239 0.000000 0.036951 0.000000
# 6 0.000000 0.000000 0.000000 0.005457 0.000000 0.034841
#
#
# Mechanical properties :
#
#
# Convention : Reuss Voigt Hill
#
# Bulk Modulus (GPa) = 16.64617 41.65774 29.15195
# Shear Modulus (GPa) = 19.90739 28.71544 24.31141
#
# Velocity S-wave (km/s) = 3.28989 3.95123 3.63563
# Velocity P-wave (km/s) = 4.84577 6.59280 5.78561
#
# Compressibility (1/GPa) = 0.06007387
#
# Stress axis : x y z
#
# Youngs Moduli (GPa) = 92.50804 15.01192 94.68391
#
# Poissons Ratio (x) = 0.01380 0.28315
# Poissons Ratio (y) = 0.08504 0.95118
# Poissons Ratio (z) = 0.27664 0.15081
#
# Static dielectric constant tensor:
#      x y z
#    x 3.621090 0.000000 0.026370 
#    y 0.000000 3.042100 0.000000 
#    z 0.026370 0.000000 3.554430 
# 
# 
# High freq. dielectric constant tensor:
#      x y z
#    x 1.727340 0.000000 -0.001500 
#    y 0.000000 1.682180 0.000000 
#    z -0.001500 0.000000 1.718280 
# 
# From -- ./inp_files/338916.got.cif
#   From: 2010.06.25/outbox.cif.g09.slc.cpg/sg12_170_cif.got.tgz:338916.got - 2010.06.28 00:19:55.
