data_PCOD8083835
_publ_section_title
;
Structure prediction by ZEFSAII (Michael W. Deem and Ramdas Pophale) SiO2 
 PCOD8083835
Probable space group: C 2/M
;
_chemical_formula_sum "Si O2"
_cell_formula_units_Z 40
_cell_length_a 12.066432
_cell_length_b 24.477185
_cell_length_c 7.891872
_cell_angle_alpha 90.000000
_cell_angle_beta 54.994400
_cell_angle_gamma 90.000000
_cell_volume 1909.216448
_symmetry_space_group_name_H-M "C 2/M"
_symmetry_group_IT_number 12
_symmetry_cell_setting 'monoclinic'
loop_
_space_group_symop_operation_xyz
x,y,z
-x,y,-z
-x,-y,-z
x,-y,z
1/2+x,1/2+y,z
1/2-x,1/2+y,-z
1/2-x,1/2-y,-z
1/2+x,1/2-y,z
loop_
_atom_site_type_symbol
_atom_site_label
_atom_site_fract_x
_atom_site_fract_y
_atom_site_fract_z
Si Si1 0.300966 0.914436 0.585423
Si Si2 0.987246 0.939422 0.203285
Si Si3 0.500000 0.635921 0.500000
Si Si4 0.000000 0.647835 0.000000
Si Si5 0.737885 0.189500 0.577813
Si Si6 0.417732 0.060699 0.824802
O O1 0.172754 0.945020 0.618149
O O2 0.285473 0.849880 0.562691
O O3 0.432772 0.939273 0.384149
O O4 0.305382 0.924861 0.782693
O O5 0.048855 0.900704 0.295692
O O6 0.053436 0.000000 0.156856
O O7 0.000000 0.914968 0.000000
O O8 0.372779 0.673743 0.563107
O O9 0.102430 0.686530 0.809846
O O10 0.904060 0.607378 0.976459
O O11 0.750000 0.250000 0.500000
O O12 0.389272 0.000000 0.923778
#
# Coordination Sequence:
#
# PCOD8083835 Si02
#       6
#     8   8   4   4   8   8
#     4   9  19  35  56  83 123 158 202 246 300 368
#     4  10  20  35  58  90 126 166 205 244 302 378
#     4  10  23  42  64  86 130 160 207 260 316 370
#     4  10  23  38  62  94 120 154 209 256 304 384
#     4  10  23  45  62  88 119 160 210 264 316 358
#     4  10  18  33  58  89 124 160 190 244 311 373
#
# _framework density 20.951003
#
# number of rings (size 3 to 8) (size 9 to 14) (size 15 to 20)
#    0.000    2.200    0.000    3.000    2.800    3.200 
#    7.200    4.000    0.000    0.000    0.000    0.000 
#    0.000    0.000    0.000    0.000    0.000    0.000 
#
# Total GULP energy -247917.564948 kJ/mol
# GULP energy per Si atom -12395.878247 kJ/mol
# Density = 2.090332 g / cm^3
# Si number density = 20.951003 Si / 1000 Ang^3
#
#
#
# Elastic Constant Matrix: (Units=GPa)
#
#
# Indices 1 2 3 4 5 6 
#
# 1 105.5381 52.7020 21.8706 0.0000 6.4706 0.0000
# 2 52.7020 167.4381 60.1797 0.0000 10.4639 0.0000
# 3 21.8706 60.1797 75.4660 0.0000 17.3644 0.0000
# 4 0.0000 0.0000 0.0000 19.4359 0.0000 0.7003
# 5 6.4706 10.4639 17.3644 0.0000 31.9366 0.0000
# 6 0.0000 0.0000 0.0000 0.7003 0.0000 23.7665
#
#
#
# Elastic Compliance Matrix: (Units=1/GPa)
#
#
# Indices 1 2 3 4 5 6 
#
# 1 0.011290 -0.003361 -0.000364 0.000000 -0.000988 0.000000
# 2 -0.003361 0.009401 -0.006825 0.000000 0.001311 0.000000
# 3 -0.000364 -0.006825 0.020879 0.000000 -0.009043 0.000000
# 4 0.000000 0.000000 0.000000 0.051506 0.000000 -0.001518
# 5 -0.000988 0.001311 -0.009043 0.000000 0.035999 0.000000
# 6 0.000000 0.000000 0.000000 -0.001518 0.000000 0.042121
#
#
# Mechanical properties :
#
#
# Convention : Reuss Voigt Hill
#
# Bulk Modulus (GPa) = 48.85052 68.66077 58.75564
# Shear Modulus (GPa) = 25.11063 29.27379 27.19221
#
# Velocity S-wave (km/s) = 3.46575 3.74204 3.60654
# Velocity P-wave (km/s) = 6.27554 7.17730 6.74152
#
# Compressibility (1/GPa) = 0.02047061
#
# Stress axis : x y z
#
# Youngs Moduli (GPa) = 88.57727 106.37107 47.89392
#
# Poissons Ratio (x) = 0.35748 0.01746
# Poissons Ratio (y) = 0.29768 0.32685
# Poissons Ratio (z) = 0.03229 0.72594
#
# Static dielectric constant tensor:
#      x y z
#    x 4.050040 0.000000 0.205320 
#    y 0.000000 3.575430 0.000000 
#    z 0.205320 0.000000 3.832760 
# 
# 
# High freq. dielectric constant tensor:
#      x y z
#    x 1.833320 0.000000 -0.003870 
#    y 0.000000 1.803590 0.000000 
#    z -0.003870 0.000000 1.813680 
# 
# From -- ./inp_files/50479.got.cif
#   From: 2010.06.25/outbox.cif.g09.slc.cpg/sg12_26_cif.got.tgz:50479.got - 2010.06.28 00:19:55.
