data_PCOD8083099
_publ_section_title
;
Structure prediction by ZEFSAII (Michael W. Deem and Ramdas Pophale) SiO2 
 PCOD8083099
Probable space group: C 2/M
;
_chemical_formula_sum "Si O2"
_cell_formula_units_Z 64
_cell_length_a 11.248455
_cell_length_b 27.139271
_cell_length_c 11.392061
_cell_angle_alpha 90.000000
_cell_angle_beta 73.017653
_cell_angle_gamma 90.000000
_cell_volume 3326.063657
_symmetry_space_group_name_H-M "C 2/M"
_symmetry_group_IT_number 12
_symmetry_cell_setting 'monoclinic'
loop_
_space_group_symop_operation_xyz
x,y,z
-x,y,-z
-x,-y,-z
x,-y,z
1/2+x,1/2+y,z
1/2-x,1/2+y,-z
1/2-x,1/2-y,-z
1/2+x,1/2-y,z
loop_
_atom_site_type_symbol
_atom_site_label
_atom_site_fract_x
_atom_site_fract_y
_atom_site_fract_z
Si Si1 0.707162 0.225148 0.631987
Si Si2 0.887728 0.944523 0.943390
Si Si3 0.529759 0.280031 0.353555
Si Si4 0.531620 0.390326 0.308710
Si Si5 0.199623 0.444179 0.181798
Si Si6 0.220933 0.611250 0.643049
Si Si7 0.947928 0.443972 0.138869
Si Si8 0.222036 0.941596 0.592447
O O1 0.750000 0.250000 0.500000
O O2 0.565942 0.245709 0.695143
O O3 0.820024 0.234152 0.696403
O O4 0.684517 0.167065 0.626888
O O5 0.914341 0.908296 0.830021
O O6 0.860622 0.000000 0.903497
O O7 0.770024 0.921466 0.048381
O O8 0.000000 0.945684 0.000000
O O9 0.500000 0.279892 0.500000
O O10 0.498982 0.332880 0.305843
O O11 0.632251 0.394506 0.382420
O O12 0.418081 0.423752 0.382376
O O13 0.249856 0.500000 0.174606
O O14 0.230635 0.418946 0.297142
O O15 0.053276 0.441685 0.207131
O O16 0.159093 0.591023 0.780640
O O17 0.189284 0.579269 0.536418
O O18 0.898556 0.500000 0.136116
O O19 0.000000 0.423921 0.000000
O O20 0.230480 0.000000 0.585430
#
# Coordination Sequence:
#
# PCOD8083099 Si02
#       8
#     8   8   8   8   8   8   8   8
#     4   9  18  37  56  79 111 141 180 232 283 343
#     4  10  18  32  53  79 111 151 195 228 267 329
#     4   9  18  35  56  79 112 140 181 234 287 343
#     4  11  20  33  55  82 115 144 183 238 282 329
#     4   9  19  35  51  73 111 153 189 230 268 311
#     4  11  23  36  55  86 113 147 189 232 282 338
#     4  10  21  39  58  78 111 155 197 230 271 333
#     4  11  21  33  50  80 122 151 177 227 283 334
#
# _framework density 19.241966000000001
#
# number of rings (size 3 to 8) (size 9 to 14) (size 15 to 20)
#    0.000    2.000    1.250    4.125    0.000    4.000 
#    9.000    1.875    0.000    0.750    0.000    4.375 
#    0.000    0.000    0.000    0.000    0.000    0.000 
#
# Total GULP energy -396484.275336 kJ/mol
# GULP energy per Si atom -12390.133604 kJ/mol
# Density = 1.919817 g / cm^3
# Si number density = 19.241966 Si / 1000 Ang^3
#
#
#
# Elastic Constant Matrix: (Units=GPa)
#
#
# Indices 1 2 3 4 5 6 
#
# 1 90.7358 37.5833 10.8382 0.0000 -2.1096 0.0000
# 2 37.5833 99.7492 43.4387 0.0000 1.3973 0.0000
# 3 10.8382 43.4387 96.5102 0.0000 -0.3581 0.0000
# 4 0.0000 0.0000 0.0000 21.2905 0.0000 -8.5413
# 5 -2.1096 1.3973 -0.3581 0.0000 20.0218 0.0000
# 6 0.0000 0.0000 0.0000 -8.5413 0.0000 53.6064
#
#
#
# Elastic Compliance Matrix: (Units=1/GPa)
#
#
# Indices 1 2 3 4 5 6 
#
# 1 0.013190 -0.005414 0.000962 0.000000 0.001785 0.000000
# 2 -0.005414 0.014710 -0.006019 0.000000 -0.001705 0.000000
# 3 0.000962 -0.006019 0.012966 0.000000 0.000753 0.000000
# 4 0.000000 0.000000 0.000000 0.050177 0.000000 0.007995
# 5 0.001785 -0.001705 0.000753 0.000000 0.050266 0.000000
# 6 0.000000 0.000000 0.000000 0.007995 0.000000 0.019928
#
#
# Mechanical properties :
#
#
# Convention : Reuss Voigt Hill
#
# Bulk Modulus (GPa) = 50.19117 52.30173 51.24645
# Shear Modulus (GPa) = 26.48032 31.99275 29.23654
#
# Velocity S-wave (km/s) = 3.71371 4.08199 3.90220
# Velocity P-wave (km/s) = 6.67306 7.03256 6.85517
#
# Compressibility (1/GPa) = 0.01992382
#
# Stress axis : x y z
#
# Youngs Moduli (GPa) = 75.81531 67.98092 77.12725
#
# Poissons Ratio (x) = 0.36802 -0.07420
# Poissons Ratio (y) = 0.41044 0.46425
# Poissons Ratio (z) = -0.07294 0.40919
#
# Static dielectric constant tensor:
#      x y z
#    x 4.375370 0.000000 0.165420 
#    y 0.000000 3.288760 0.000000 
#    z 0.165420 0.000000 3.651560 
# 
# 
# High freq. dielectric constant tensor:
#      x y z
#    x 1.764910 0.000000 0.000900 
#    y 0.000000 1.718900 0.000000 
#    z 0.000900 0.000000 1.732260 
# 
# From -- ./inp_files/135945.got.cif
#   From: 2010.06.25/outbox.cif.g09.slc.cpg/sg12_68_cif.got.tgz:135945.got - 2010.06.28 00:19:55.
