data_PCOD8083125
_publ_section_title
;
Structure prediction by ZEFSAII (Michael W. Deem and Ramdas Pophale) SiO2 
 PCOD8083125
Probable space group: C 2/M
;
_chemical_formula_sum "Si O2"
_cell_formula_units_Z 60
_cell_length_a 15.897310
_cell_length_b 18.441670
_cell_length_c 21.633656
_cell_angle_alpha 90.000000
_cell_angle_beta 149.247992
_cell_angle_gamma 90.000000
_cell_volume 3243.017643
_symmetry_space_group_name_H-M "C 2/M"
_symmetry_group_IT_number 12
_symmetry_cell_setting 'monoclinic'
loop_
_space_group_symop_operation_xyz
x,y,z
-x,y,-z
-x,-y,-z
x,-y,z
1/2+x,1/2+y,z
1/2-x,1/2+y,-z
1/2-x,1/2-y,-z
1/2+x,1/2-y,z
loop_
_atom_site_type_symbol
_atom_site_label
_atom_site_fract_x
_atom_site_fract_y
_atom_site_fract_z
Si Si1 0.076955 0.333586 0.352380
Si Si2 0.053958 0.414692 0.625927
Si Si3 0.000000 0.147291 0.500000
Si Si4 0.354424 0.085235 0.724382
Si Si5 0.417548 0.585467 0.215169
Si Si6 0.448217 0.681953 0.603326
Si Si7 0.054054 0.585399 0.968683
Si Si8 0.239785 0.914155 0.353198
O O1 0.062894 0.360085 0.272974
O O2 0.263208 0.348053 0.492047
O O3 0.029382 0.250914 0.337456
O O4 0.942746 0.381642 0.303997
O O5 0.046508 0.500000 0.625987
O O6 0.215935 0.390698 0.689279
O O7 0.887441 0.384207 0.488834
O O8 0.158615 0.095679 0.603490
O O9 0.007602 0.196189 0.441638
O O10 0.436607 0.112621 0.839845
O O11 0.391157 0.000000 0.733264
O O12 0.431690 0.500000 0.233879
O O13 0.434022 0.620095 0.293936
O O14 0.562820 0.616695 0.262490
O O15 0.243662 0.606898 0.074837
O O16 0.035076 0.500000 0.961653
O O17 0.000000 0.620638 0.000000
O O18 0.236430 0.000000 0.356004
#
# Coordination Sequence:
#
# PCOD8083125 Si02
#       8
#     8   8   4   8   8   8   8   8
#     4  10  20  33  48  72 109 141 165 213 265 317
#     4   9  15  27  46  72 100 128 169 212 258 309
#     4  10  21  34  52  78 109 142 170 214 261 322
#     4  10  20  35  55  82 108 136 174 214 269 320
#     4  10  18  32  54  75 102 136 176 225 262 306
#     4  10  21  34  47  76 107 137 180 207 262 319
#     4   9  18  32  53  79 105 136 176 222 263 305
#     4   8  15  25  44  74  97 123 166 211 255 300
#
# _framework density 18.501287999999999
#
# number of rings (size 3 to 8) (size 9 to 14) (size 15 to 20)
#    0.000    2.533    1.333    2.200    0.000    4.800 
#    2.400    0.667    0.000    0.800    0.000    4.667 
#    0.000    0.000    0.000    0.000    0.000    0.000 
#
# Total GULP energy -371698.296973 kJ/mol
# GULP energy per Si atom -12389.943232 kJ/mol
# Density = 1.845918 g / cm^3
# Si number density = 18.501288 Si / 1000 Ang^3
#
#
#
# Elastic Constant Matrix: (Units=GPa)
#
#
# Indices 1 2 3 4 5 6 
#
# 1 156.9469 40.2089 58.9587 0.0031 -5.2200 0.0008
# 2 40.2089 44.3291 27.5233 -0.0024 -6.7184 0.0010
# 3 58.9587 27.5233 99.0463 -0.0062 -4.4634 0.0019
# 4 0.0031 -0.0024 -0.0062 13.4862 0.0004 -4.1026
# 5 -5.2200 -6.7184 -4.4634 0.0004 27.0160 0.0013
# 6 0.0008 0.0010 0.0019 -4.1026 0.0013 23.3882
#
#
#
# Elastic Compliance Matrix: (Units=1/GPa)
#
#
# Indices 1 2 3 4 5 6 
#
# 1 0.009404 -0.006162 -0.003902 -0.000005 -0.000360 -0.000001
# 2 -0.006162 0.032158 -0.004999 0.000005 0.005981 0.000000
# 3 -0.003902 -0.004999 0.013821 0.000006 0.000286 0.000000
# 4 -0.000005 0.000005 0.000006 0.078330 -0.000001 0.013740
# 5 -0.000360 0.005981 0.000286 -0.000001 0.038480 -0.000003
# 6 -0.000001 0.000000 0.000000 0.013740 -0.000003 0.045167
#
#
# Mechanical properties :
#
#
# Convention : Reuss Voigt Hill
#
# Bulk Modulus (GPa) = 39.59161 61.52268 50.55714
# Shear Modulus (GPa) = 19.53862 24.35349 21.94606
#
# Velocity S-wave (km/s) = 3.25325 3.63204 3.44785
# Velocity P-wave (km/s) = 5.96300 7.13543 6.57539
#
# Compressibility (1/GPa) = 0.02525788
#
# Stress axis : x y z
#
# Youngs Moduli (GPa) = 106.33762 31.09674 72.35463
#
# Poissons Ratio (x) = 0.19162 0.28231
# Poissons Ratio (y) = 0.65525 0.36167
# Poissons Ratio (z) = 0.41491 0.15544
#
# Static dielectric constant tensor:
#      x y z
#    x 3.886360 0.000000 0.084910 
#    y 0.000000 3.037350 0.000000 
#    z 0.084910 0.000000 3.265850 
# 
# 
# High freq. dielectric constant tensor:
#      x y z
#    x 1.735860 0.000000 0.007020 
#    y 0.000000 1.685130 0.000000 
#    z 0.007020 0.000000 1.681660 
# 
# From -- ./inp_files/312170.got.cif
#   From: 2010.06.25/outbox.cif.g09.slc.cpg/sg12_157_cif.got.tgz:312170.got - 2010.06.28 00:19:55.
