data_PCOD8083417
_publ_section_title
;
Structure prediction by ZEFSAII (Michael W. Deem and Ramdas Pophale) SiO2 
 PCOD8083417
Probable space group: C 2/M
;
_chemical_formula_sum "Si O2"
_cell_formula_units_Z 56
_cell_length_a 15.365973
_cell_length_b 8.687163
_cell_length_c 24.081790
_cell_angle_alpha 90.000000
_cell_angle_beta 62.457695
_cell_angle_gamma 90.000000
_cell_volume 2850.287355
_symmetry_space_group_name_H-M "C 2/M"
_symmetry_group_IT_number 12
_symmetry_cell_setting 'monoclinic'
loop_
_space_group_symop_operation_xyz
x,y,z
-x,y,-z
-x,-y,-z
x,-y,z
1/2+x,1/2+y,z
1/2-x,1/2+y,-z
1/2-x,1/2-y,-z
1/2+x,1/2-y,z
loop_
_atom_site_type_symbol
_atom_site_label
_atom_site_fract_x
_atom_site_fract_y
_atom_site_fract_z
Si Si1 0.019920 0.818726 0.651044
Si Si2 0.492584 0.679276 0.867336
Si Si3 0.340298 0.679077 0.004662
Si Si4 0.314238 0.318043 0.134220
Si Si5 0.905114 0.680507 0.785397
Si Si6 0.271874 0.182206 0.433574
Si Si7 0.423009 0.317478 0.567331
O O1 0.965786 0.777642 0.723456
O O2 0.954224 0.756857 0.618958
O O3 0.125608 0.739591 0.620555
O O4 0.036406 0.000000 0.641871
O O5 0.482300 0.500000 0.853257
O O6 0.439699 0.711932 0.941642
O O7 0.605944 0.729081 0.842881
O O8 0.447440 0.787144 0.833767
O O9 0.319867 0.500000 0.015456
O O10 0.250000 0.750000 0.000000
O O11 0.345173 0.751561 0.065102
O O12 0.312425 0.500000 0.129114
O O13 0.207037 0.259462 0.184298
O O14 0.913784 0.500000 0.769753
O O15 0.250000 0.250000 0.500000
O O16 0.186544 0.237870 0.416204
O O17 0.272690 0.000000 0.438591
O O18 0.500000 0.249413 0.500000
O O19 0.428082 0.500000 0.564757
#
# Coordination Sequence:
#
# PCOD8083417 Si02
#       7
#     8   8   8   8   8   8   8
#     4  11  23  41  62  85 116 154 196 238 285 346
#     4  10  20  36  60  86 113 152 197 238 287 350
#     4  10  18  32  57  86 115 148 190 240 294 344
#     4   9  19  36  58  83 115 153 193 240 290 343
#     4  11  23  40  58  81 117 154 191 240 292 342
#     4  11  21  37  62  92 122 152 188 232 286 340
#     4   9  18  36  61  87 117 151 184 226 284 341
#
# _framework density 19.647141999999999
#
# number of rings (size 3 to 8) (size 9 to 14) (size 15 to 20)
#    0.000    1.857    2.857    1.714    0.000    2.857 
#    0.000    8.571    0.000    1.714    0.000    0.000 
#    0.000    0.000    0.000    0.000    0.000    0.000 
#
# Total GULP energy -347188.130156 kJ/mol
# GULP energy per Si atom -12399.576077 kJ/mol
# Density = 1.960242 g / cm^3
# Si number density = 19.647142 Si / 1000 Ang^3
#
#
#
# Elastic Constant Matrix: (Units=GPa)
#
#
# Indices 1 2 3 4 5 6 
#
# 1 159.4952 29.2213 39.9823 0.0000 -25.2099 0.0000
# 2 29.2213 36.5427 21.9442 0.0000 -3.1950 0.0000
# 3 39.9823 21.9442 80.2038 0.0000 -22.0411 0.0000
# 4 0.0000 0.0000 0.0000 24.2131 0.0000 1.4576
# 5 -25.2099 -3.1950 -22.0411 0.0000 24.4632 0.0000
# 6 0.0000 0.0000 0.0000 1.4576 0.0000 26.8050
#
#
#
# Elastic Compliance Matrix: (Units=1/GPa)
#
#
# Indices 1 2 3 4 5 6 
#
# 1 0.008722 -0.005932 -0.000622 0.000000 0.007653 0.000000
# 2 -0.005932 0.037255 -0.010073 0.000000 -0.010323 0.000000
# 3 -0.000622 -0.010073 0.019932 0.000000 0.016002 0.000000
# 4 0.000000 0.000000 0.000000 0.041436 0.000000 -0.002253
# 5 0.007653 -0.010323 0.016002 0.000000 0.061834 0.000000
# 6 0.000000 0.000000 0.000000 -0.002253 0.000000 0.037429
#
#
# Mechanical properties :
#
#
# Convention : Reuss Voigt Hill
#
# Bulk Modulus (GPa) = 30.62269 50.94858 40.78564
# Shear Modulus (GPa) = 19.94044 27.43584 23.68814
#
# Velocity S-wave (km/s) = 3.18925 3.74094 3.47606
# Velocity P-wave (km/s) = 5.40203 6.68188 6.07575
#
# Compressibility (1/GPa) = 0.03265552
#
# Stress axis : x y z
#
# Youngs Moduli (GPa) = 114.65012 26.84193 50.17120
#
# Poissons Ratio (x) = 0.15923 0.03119
# Poissons Ratio (y) = 0.68012 0.50537
# Poissons Ratio (z) = 0.07128 0.27038
#
# Static dielectric constant tensor:
#      x y z
#    x 4.059830 0.000000 -0.135940 
#    y 0.000000 3.330020 0.000000 
#    z -0.135940 0.000000 3.723510 
# 
# 
# High freq. dielectric constant tensor:
#      x y z
#    x 1.783170 0.000000 -0.003140 
#    y 0.000000 1.737290 0.000000 
#    z -0.003140 0.000000 1.765660 
# 
# From -- ./inp_files/338433.got.cif
#   From: 2010.06.25/outbox.cif.g09.slc.cpg/sg12_170_cif.got.tgz:338433.got - 2010.06.28 00:19:55.
