data_PCOD8083060
_publ_section_title
;
Structure prediction by ZEFSAII (Michael W. Deem and Ramdas Pophale) SiO2 
 PCOD8083060
Probable space group: C 2/M
;
_chemical_formula_sum "Si O2"
_cell_formula_units_Z 64
_cell_length_a 23.737924
_cell_length_b 9.017957
_cell_length_c 19.716696
_cell_angle_alpha 90.000000
_cell_angle_beta 130.264035
_cell_angle_gamma 90.000000
_cell_volume 3220.711255
_symmetry_space_group_name_H-M "C 2/M"
_symmetry_group_IT_number 12
_symmetry_cell_setting 'monoclinic'
loop_
_space_group_symop_operation_xyz
x,y,z
-x,y,-z
-x,-y,-z
x,-y,z
1/2+x,1/2+y,z
1/2-x,1/2+y,-z
1/2-x,1/2-y,-z
1/2+x,1/2-y,z
loop_
_atom_site_type_symbol
_atom_site_label
_atom_site_fract_x
_atom_site_fract_y
_atom_site_fract_z
Si Si1 0.772124 0.323712 0.336564
Si Si2 0.966013 0.676328 0.675357
Si Si3 0.368223 0.331835 0.027827
Si Si4 0.474846 0.330012 0.907185
Si Si5 0.366943 0.176208 0.723319
Si Si6 0.127535 0.324357 0.834922
Si Si7 0.248913 0.174910 0.168754
Si Si8 0.936577 0.676194 0.501605
O O1 0.764123 0.500000 0.338395
O O2 0.715354 0.244481 0.343876
O O3 0.750336 0.261437 0.245487
O O4 0.855745 0.271731 0.415096
O O5 0.967570 0.500000 0.675070
O O6 0.907084 0.730611 0.685569
O O7 0.947205 0.738732 0.586038
O O8 0.046154 0.739430 0.757599
O O9 0.343886 0.500000 0.024193
O O10 0.455630 0.318364 0.088241
O O11 0.342082 0.231610 0.069564
O O12 0.327174 0.278062 0.927289
O O13 0.447165 0.500000 0.894060
O O14 0.409304 0.235500 0.823183
O O15 0.500000 0.267021 0.000000
O O16 0.363555 0.000000 0.724907
O O17 0.127368 0.500000 0.836540
O O18 0.181470 0.262292 0.818872
O O19 0.256933 0.000000 0.180692
O O20 0.941943 0.500000 0.505888
O O21 0.000000 0.739051 0.500000
#
# Coordination Sequence:
#
# PCOD8083060 Si02
#       8
#     8   8   8   8   8   8   8   8
#     4  10  20  36  58  82 107 138 184 231 271 319
#     4   9  18  32  51  78 111 142 176 225 274 318
#     4  10  19  31  48  74 106 136 174 221 268 316
#     4  10  20  35  55  76 105 146 190 234 271 312
#     4  11  22  36  53  77 113 150 181 220 275 335
#     4  10  18  32  53  75 105 142 176 213 266 325
#     4   9  18  32  52  77 104 137 176 222 271 315
#     4   9  17  32  58  88 110 135 180 231 274 323
#
# _framework density 19.871386000000001
#
# number of rings (size 3 to 8) (size 9 to 14) (size 15 to 20)
#    0.000    2.250    1.250    2.250    0.000    5.750 
#    0.000    2.500    0.000    1.875    0.000    0.000 
#    0.000    0.000    0.000    0.000    0.000    0.000 
#
# Total GULP energy -396756.345754 kJ/mol
# GULP energy per Si atom -12398.635805 kJ/mol
# Density = 1.982616 g / cm^3
# Si number density = 19.871386 Si / 1000 Ang^3
#
#
#
# Elastic Constant Matrix: (Units=GPa)
#
#
# Indices 1 2 3 4 5 6 
#
# 1 112.2198 23.4289 44.7488 0.0000 9.0945 0.0000
# 2 23.4289 29.5808 21.0350 0.0000 3.6690 0.0000
# 3 44.7488 21.0350 121.2227 0.0000 2.1549 0.0000
# 4 0.0000 0.0000 0.0000 18.3565 0.0000 0.6251
# 5 9.0945 3.6690 2.1549 0.0000 40.9803 0.0000
# 6 0.0000 0.0000 0.0000 0.6251 0.0000 24.5540
#
#
#
# Elastic Compliance Matrix: (Units=1/GPa)
#
#
# Indices 1 2 3 4 5 6 
#
# 1 0.011729 -0.006853 -0.003108 0.000000 -0.001826 0.000000
# 2 -0.006853 0.042967 -0.004889 0.000000 -0.002069 0.000000
# 3 -0.003108 -0.004889 0.010235 0.000000 0.000589 0.000000
# 4 0.000000 0.000000 0.000000 0.054524 0.000000 -0.001388
# 5 -0.001826 -0.002069 0.000589 0.000000 0.024961 0.000000
# 6 0.000000 0.000000 0.000000 -0.001388 0.000000 0.040762
#
#
# Mechanical properties :
#
#
# Convention : Reuss Voigt Hill
#
# Bulk Modulus (GPa) = 28.38512 49.04984 38.71748
# Shear Modulus (GPa) = 22.06311 28.36552 25.21431
#
# Velocity S-wave (km/s) = 3.33572 3.78227 3.56599
# Velocity P-wave (km/s) = 5.39921 6.61901 6.03998
#
# Compressibility (1/GPa) = 0.03522973
#
# Stress axis : x y z
#
# Youngs Moduli (GPa) = 85.25677 23.27362 97.70828
#
# Poissons Ratio (x) = 0.15950 0.30369
# Poissons Ratio (y) = 0.58429 0.47771
# Poissons Ratio (z) = 0.26499 0.11379
#
# Static dielectric constant tensor:
#      x y z
#    x 3.864430 0.000000 -0.014230 
#    y 0.000000 3.075310 0.000000 
#    z -0.014230 0.000000 3.749290 
# 
# 
# High freq. dielectric constant tensor:
#      x y z
#    x 1.793030 0.000000 0.002250 
#    y 0.000000 1.716730 0.000000 
#    z 0.002250 0.000000 1.780040 
# 
# From -- ./inp_files/324316.got.cif
#   From: 2010.06.25/outbox.cif.g09.slc.cpg/sg12_163_cif.got.tgz:324316.got - 2010.06.28 00:19:55.
