data_PCOD8083135
_publ_section_title
;
Structure prediction by ZEFSAII (Michael W. Deem and Ramdas Pophale) SiO2 
 PCOD8083135
Probable space group: C 2/M
;
_chemical_formula_sum "Si O2"
_cell_formula_units_Z 48
_cell_length_a 19.280657
_cell_length_b 8.420311
_cell_length_c 27.550379
_cell_angle_alpha 90.000000
_cell_angle_beta 33.962864
_cell_angle_gamma 90.000000
_cell_volume 2498.742927
_symmetry_space_group_name_H-M "C 2/M"
_symmetry_group_IT_number 12
_symmetry_cell_setting 'monoclinic'
loop_
_space_group_symop_operation_xyz
x,y,z
-x,y,-z
-x,-y,-z
x,-y,z
1/2+x,1/2+y,z
1/2-x,1/2+y,-z
1/2-x,1/2-y,-z
1/2+x,1/2-y,z
loop_
_atom_site_type_symbol
_atom_site_label
_atom_site_fract_x
_atom_site_fract_y
_atom_site_fract_z
Si Si1 0.570122 0.184374 0.229020
Si Si2 0.040574 0.688428 0.528333
Si Si3 0.375018 0.684954 0.905025
Si Si4 0.866468 0.315316 0.226113
Si Si5 0.685786 0.684772 0.641354
Si Si6 0.835925 0.311866 0.721668
O O1 0.623872 0.285531 0.153367
O O2 0.422770 0.214094 0.320936
O O3 0.640379 0.239120 0.236738
O O4 0.592379 0.000000 0.205176
O O5 0.032909 0.500000 0.529991
O O6 0.950043 0.753419 0.622780
O O7 0.000000 0.761255 0.500000
O O8 0.182410 0.739241 0.457683
O O9 0.387224 0.500000 0.908516
O O10 0.488987 0.773815 0.865152
O O11 0.250000 0.750000 0.000000
O O12 0.852984 0.500000 0.245816
O O13 0.810439 0.214202 0.303003
O O14 0.791758 0.269701 0.220957
O O15 0.659721 0.500000 0.647411
O O16 0.824088 0.500000 0.723608
#
# Coordination Sequence:
#
# PCOD8083135 Si02
#       6
#     8   8   8   8   8   8
#     4  10  21  36  55  81 115 146 181 227 278 329
#     4   9  16  29  52  77 105 145 197 236 268 319
#     4  11  22  40  65  87 110 139 177 219 269 331
#     4  11  21  34  55  83 113 143 183 228 273 324
#     4  10  18  32  54  76 105 149 195 232 273 325
#     4  10  20  36  55  78 111 153 189 227 277 324
#
# _framework density 19.209658999999998
#
# number of rings (size 3 to 8) (size 9 to 14) (size 15 to 20)
#    0.000    1.833    1.667    6.000    0.000    2.000 
#    0.000    3.333    0.000    5.000    0.000    0.000 
#    0.000    0.000    0.000    0.000    0.000    0.000 
#
# Total GULP energy -297638.489635 kJ/mol
# GULP energy per Si atom -12401.603735 kJ/mol
# Density = 1.916594 g / cm^3
# Si number density = 19.209659 Si / 1000 Ang^3
#
#
#
# Elastic Constant Matrix: (Units=GPa)
#
#
# Indices 1 2 3 4 5 6 
#
# 1 134.2404 20.1804 52.8709 0.0000 -13.2008 -0.0001
# 2 20.1804 47.5358 15.1558 0.0002 -0.7503 0.0003
# 3 52.8709 15.1558 124.6193 -0.0002 -16.4801 0.0000
# 4 0.0000 0.0002 -0.0002 25.4947 0.0000 -4.7571
# 5 -13.2008 -0.7503 -16.4801 0.0000 19.4276 0.0000
# 6 -0.0001 0.0003 0.0000 -4.7571 0.0000 28.5338
#
#
#
# Elastic Compliance Matrix: (Units=1/GPa)
#
#
# Indices 1 2 3 4 5 6 
#
# 1 0.009510 -0.002962 -0.003193 0.000000 0.003639 0.000000
# 2 -0.002962 0.022852 -0.001883 0.000000 -0.002728 0.000000
# 3 -0.003193 -0.001883 0.010488 0.000000 0.006655 0.000000
# 4 0.000000 0.000000 0.000000 0.040483 0.000000 0.006749
# 5 0.003639 -0.002728 0.006655 0.000000 0.059485 0.000000
# 6 0.000000 0.000000 0.000000 0.006749 0.000000 0.036171
#
#
# Mechanical properties :
#
#
# Convention : Reuss Voigt Hill
#
# Bulk Modulus (GPa) = 37.35086 53.64552 45.49819
# Shear Modulus (GPa) = 24.51090 29.23712 26.87401
#
# Velocity S-wave (km/s) = 3.57594 3.90552 3.74436
# Velocity P-wave (km/s) = 6.04449 6.95157 6.51384
#
# Compressibility (1/GPa) = 0.02677315
#
# Stress axis : x y z
#
# Youngs Moduli (GPa) = 105.15144 43.76080 95.34433
#
# Poissons Ratio (x) = 0.12961 0.30447
# Poissons Ratio (y) = 0.31143 0.17956
# Poissons Ratio (z) = 0.33578 0.08241
#
# Static dielectric constant tensor:
#      x y z
#    x 3.530100 0.000000 -0.155870 
#    y 0.000000 3.339780 0.000000 
#    z -0.155870 0.000000 3.500550 
# 
# 
# High freq. dielectric constant tensor:
#      x y z
#    x 1.743640 0.000000 -0.015670 
#    y 0.000000 1.739140 0.000000 
#    z -0.015670 0.000000 1.736330 
# 
# From -- ./inp_files/380132.got.cif
#   From: 2010.06.25/outbox.cif.g09.slc.cpg/sg12_191_cif.got.tgz:380132.got - 2010.06.28 00:19:55.
