data_PCOD8083284
_publ_section_title
;
Structure prediction by ZEFSAII (Michael W. Deem and Ramdas Pophale) SiO2 
 PCOD8083284
Probable space group: C 2/M
;
_chemical_formula_sum "Si O2"
_cell_formula_units_Z 40
_cell_length_a 18.015111
_cell_length_b 8.614177
_cell_length_c 26.084814
_cell_angle_alpha 90.000000
_cell_angle_beta 150.168643
_cell_angle_gamma 90.000000
_cell_volume 2013.663348
_symmetry_space_group_name_H-M "C 2/M"
_symmetry_group_IT_number 12
_symmetry_cell_setting 'monoclinic'
loop_
_space_group_symop_operation_xyz
x,y,z
-x,y,-z
-x,-y,-z
x,-y,z
1/2+x,1/2+y,z
1/2-x,1/2+y,-z
1/2-x,1/2-y,-z
1/2+x,1/2-y,z
loop_
_atom_site_type_symbol
_atom_site_label
_atom_site_fract_x
_atom_site_fract_y
_atom_site_fract_z
Si Si1 0.591963 0.821854 0.604475
Si Si2 0.834048 0.816229 0.001322
Si Si3 0.091641 0.318664 0.209153
Si Si4 0.587220 0.179452 0.399546
Si Si5 0.427433 0.317281 0.207980
O O1 0.500000 0.766707 0.500000
O O2 0.735326 0.713726 0.696125
O O3 0.487153 0.798203 0.590159
O O4 0.644037 0.000000 0.629636
O O5 0.002508 0.750828 0.106371
O O6 0.838222 0.000000 0.003479
O O7 0.750000 0.750000 0.000000
O O8 0.739793 0.755558 0.896116
O O9 0.060591 0.500000 0.193981
O O10 0.037852 0.242911 0.229981
O O11 0.750000 0.250000 0.500000
O O12 0.490806 0.272728 0.300857
O O13 0.596010 0.000000 0.388604
O O14 0.414841 0.500000 0.195090
#
# Coordination Sequence:
#
# PCOD8083284 Si02
#       5
#     8   8   8   8   8
#     4  10  22  40  60  83 113 149 187 231 285 340
#     4  10  18  32  55  83 115 149 189 232 279 334
#     4  11  21  35  58  87 117 149 190 235 281 335
#     4  11  23  39  60  86 116 149 188 233 284 341
#     4  11  21  36  58  84 117 153 192 235 280 331
#
# _framework density 19.864294000000001
#
# number of rings (size 3 to 8) (size 9 to 14) (size 15 to 20)
#    0.000    1.400    0.000    9.600    0.000    3.600 
#    0.000    1.000    0.000    6.000    0.000    0.000 
#    0.000    0.000    0.000    0.000    0.000    0.000 
#
# Total GULP energy -248041.890946 kJ/mol
# GULP energy per Si atom -12402.094547 kJ/mol
# Density = 1.981908 g / cm^3
# Si number density = 19.864294 Si / 1000 Ang^3
#
#
#
# Elastic Constant Matrix: (Units=GPa)
#
#
# Indices 1 2 3 4 5 6 
#
# 1 60.5219 33.5170 45.8382 0.0000 -1.7520 0.0000
# 2 33.5170 168.3595 66.8682 0.0001 1.5925 0.0001
# 3 45.8382 66.8682 180.5668 0.0004 -6.8344 0.0002
# 4 0.0000 0.0001 0.0004 37.5608 0.0001 1.4197
# 5 -1.7520 1.5925 -6.8344 0.0001 29.8998 0.0000
# 6 0.0000 0.0001 0.0002 1.4197 0.0000 26.0439
#
#
#
# Elastic Compliance Matrix: (Units=1/GPa)
#
#
# Indices 1 2 3 4 5 6 
#
# 1 0.021289 -0.002463 -0.004479 0.000000 0.000355 0.000000
# 2 -0.002463 0.007277 -0.002108 0.000000 -0.001014 0.000000
# 3 -0.004479 -0.002108 0.007515 0.000000 0.001568 0.000000
# 4 0.000000 0.000000 0.000000 0.026678 0.000000 -0.001454
# 5 0.000355 -0.001014 0.001568 0.000000 0.033878 0.000000
# 6 0.000000 0.000000 0.000000 -0.001454 0.000000 0.038476
#
#
# Mechanical properties :
#
#
# Convention : Reuss Voigt Hill
#
# Bulk Modulus (GPa) = 55.61148 77.98834 66.79991
# Shear Modulus (GPa) = 31.40561 36.24922 33.82741
#
# Velocity S-wave (km/s) = 3.98050 4.27645 4.13113
# Velocity P-wave (km/s) = 7.01301 7.98310 7.51373
#
# Compressibility (1/GPa) = 0.01798190
#
# Stress axis : x y z
#
# Youngs Moduli (GPa) = 46.97171 137.42385 133.06522
#
# Poissons Ratio (x) = 0.33843 0.59601
# Poissons Ratio (y) = 0.11568 0.28050
# Poissons Ratio (z) = 0.21039 0.28968
#
# Static dielectric constant tensor:
#      x y z
#    x 3.298590 0.000000 -0.182210 
#    y 0.000000 3.909410 0.000000 
#    z -0.182210 0.000000 4.318770 
# 
# 
# High freq. dielectric constant tensor:
#      x y z
#    x 1.741770 0.000000 -0.004000 
#    y 0.000000 1.790700 0.000000 
#    z -0.004000 0.000000 1.801930 
# 
# From -- ./inp_files/292327.got.cif
#   From: 2010.06.25/outbox.cif.g09.slc.cpg/sg12_147_cif.got.tgz:292327.got - 2010.06.28 00:19:55.
