data_PCOD8083327
_publ_section_title
;
Structure prediction by ZEFSAII (Michael W. Deem and Ramdas Pophale) SiO2 
 PCOD8083327
Probable space group: C 2/M
;
_chemical_formula_sum "Si O2"
_cell_formula_units_Z 64
_cell_length_a 23.844637
_cell_length_b 9.055305
_cell_length_c 28.072947
_cell_angle_alpha 90.000000
_cell_angle_beta 33.457843
_cell_angle_gamma 90.000000
_cell_volume 3341.859104
_symmetry_space_group_name_H-M "C 2/M"
_symmetry_group_IT_number 12
_symmetry_cell_setting 'monoclinic'
loop_
_space_group_symop_operation_xyz
x,y,z
-x,y,-z
-x,-y,-z
x,-y,z
1/2+x,1/2+y,z
1/2-x,1/2+y,-z
1/2-x,1/2-y,-z
1/2+x,1/2-y,z
loop_
_atom_site_type_symbol
_atom_site_label
_atom_site_fract_x
_atom_site_fract_y
_atom_site_fract_z
Si Si1 0.163176 0.324869 0.337913
Si Si2 0.788318 0.674626 0.591441
Si Si3 0.517777 0.174614 0.091107
Si Si4 0.932413 0.675466 0.759529
Si Si5 0.076130 0.674575 0.742281
Si Si6 0.985079 0.675508 0.398584
Si Si7 0.702401 0.327766 0.922134
Si Si8 0.141734 0.172198 0.857499
O O1 0.159398 0.500000 0.338323
O O2 0.168199 0.269757 0.388618
O O3 0.262411 0.267586 0.240045
O O4 0.063173 0.260282 0.382801
O O5 0.770123 0.500000 0.605168
O O6 0.683118 0.752485 0.653750
O O7 0.870426 0.722693 0.493387
O O8 0.463318 0.226803 0.178282
O O9 0.456886 0.238335 0.089201
O O10 0.523718 0.000000 0.083613
O O11 0.631907 0.239586 0.009267
O O12 0.929777 0.500000 0.758083
O O13 0.817065 0.734057 0.845450
O O14 0.995251 0.730333 0.760560
O O15 0.985621 0.739319 0.674040
O O16 0.089821 0.500000 0.730392
O O17 0.993845 0.500000 0.392293
O O18 0.697860 0.500000 0.938011
O O19 0.661607 0.296437 0.898349
O O20 0.121356 0.000000 0.862276
#
# Coordination Sequence:
#
# PCOD8083327 Si02
#       8
#     8   8   8   8   8   8   8   8
#     4   9  15  27  50  81 110 130 159 210 262 304
#     4  10  19  31  54  84 109 133 167 213 261 305
#     4  11  23  36  51  75 108 142 172 206 258 315
#     4   9  18  35  55  75 102 137 176 216 257 302
#     4  10  22  38  53  71 103 145 180 210 251 306
#     4   9  16  29  53  84 108 130 167 216 263 304
#     4  10  20  35  58  82 101 129 174 220 260 305
#     4  10  18  32  56  82 105 131 168 213 259 309
#
# _framework density 19.151017
#
# number of rings (size 3 to 8) (size 9 to 14) (size 15 to 20)
#    0.000    2.250    2.500    1.125    0.000    5.000 
#    0.000    0.625    0.000    3.000    0.000    0.000 
#    0.000    0.000    0.000    0.000    0.000    0.000 
#
# Total GULP energy -396810.869389 kJ/mol
# GULP energy per Si atom -12400.339668 kJ/mol
# Density = 1.910743 g / cm^3
# Si number density = 19.151017 Si / 1000 Ang^3
#
#
#
# Elastic Constant Matrix: (Units=GPa)
#
#
# Indices 1 2 3 4 5 6 
#
# 1 114.5378 29.5273 60.3489 0.0017 -21.5248 -0.0074
# 2 29.5273 27.6614 32.8662 0.0040 -5.4895 -0.0071
# 3 60.3489 32.8662 156.6176 0.0013 -22.5449 -0.0039
# 4 0.0017 0.0040 0.0013 22.4831 -0.0002 -3.1711
# 5 -21.5248 -5.4895 -22.5449 -0.0002 21.7172 0.0003
# 6 -0.0074 -0.0071 -0.0039 -3.1711 0.0003 17.3247
#
#
#
# Elastic Compliance Matrix: (Units=1/GPa)
#
#
# Indices 1 2 3 4 5 6 
#
# 1 0.014390 -0.011338 -0.001793 0.000001 0.009536 0.000001
# 2 -0.011338 0.057165 -0.008424 -0.000007 -0.005533 0.000015
# 3 -0.001793 -0.008424 0.009736 0.000001 0.006201 -0.000002
# 4 0.000001 -0.000007 0.000001 0.045657 0.000001 0.008357
# 5 0.009536 -0.005533 0.006201 0.000001 0.060536 0.000002
# 6 0.000001 0.000015 -0.000002 0.008357 0.000002 0.059251
#
#
# Mechanical properties :
#
#
# Convention : Reuss Voigt Hill
#
# Bulk Modulus (GPa) = 26.19046 60.47796 43.33421
# Shear Modulus (GPa) = 16.52497 24.04329 20.28413
#
# Velocity S-wave (km/s) = 2.94066 3.54709 3.25802
# Velocity P-wave (km/s) = 5.02349 6.95872 6.06874
#
# Compressibility (1/GPa) = 0.03818184
#
# Stress axis : x y z
#
# Youngs Moduli (GPa) = 69.49064 17.49319 102.70973
#
# Poissons Ratio (x) = 0.19834 0.18416
# Poissons Ratio (y) = 0.78791 0.86518
# Poissons Ratio (z) = 0.12460 0.14736
#
# Static dielectric constant tensor:
#      x y z
#    x 3.580710 0.000000 0.019020 
#    y 0.000000 2.977590 0.000000 
#    z 0.019020 0.000000 3.750520 
# 
# 
# High freq. dielectric constant tensor:
#      x y z
#    x 1.744480 0.000000 -0.001760 
#    y 0.000000 1.690740 0.000000 
#    z -0.001760 0.000000 1.764340 
# 
# From -- ./inp_files/382392.got.cif
#   From: 2010.06.25/outbox.cif.g09.slc.cpg/sg12_192_cif.got.tgz:382392.got - 2010.06.28 00:19:55.
