data_PCOD8083142
_publ_section_title
;
Structure prediction by ZEFSAII (Michael W. Deem and Ramdas Pophale) SiO2 
 PCOD8083142
Probable space group: C 2/M
;
_chemical_formula_sum "Si O2"
_cell_formula_units_Z 60
_cell_length_a 17.880936
_cell_length_b 12.320353
_cell_length_c 16.040375
_cell_angle_alpha 90.000000
_cell_angle_beta 111.852771
_cell_angle_gamma 90.000000
_cell_volume 3279.767022
_symmetry_space_group_name_H-M "C 2/M"
_symmetry_group_IT_number 12
_symmetry_cell_setting 'monoclinic'
loop_
_space_group_symop_operation_xyz
x,y,z
-x,y,-z
-x,-y,-z
x,-y,z
1/2+x,1/2+y,z
1/2-x,1/2+y,-z
1/2-x,1/2-y,-z
1/2+x,1/2-y,z
loop_
_atom_site_type_symbol
_atom_site_label
_atom_site_fract_x
_atom_site_fract_y
_atom_site_fract_z
Si Si1 0.161209 0.875461 0.026618
Si Si2 0.055356 0.623252 0.155531
Si Si3 0.125904 0.876059 0.824003
Si Si4 0.500000 0.720160 0.000000
Si Si5 0.169301 0.624825 0.666605
Si Si6 0.575186 0.880546 0.472719
Si Si7 0.226705 0.273184 0.189428
Si Si8 0.019287 0.304156 0.710279
O O1 0.153677 0.839426 0.927609
O O2 0.075015 0.860506 0.034513
O O3 0.190439 0.000000 0.047330
O O4 0.221005 0.795921 0.101064
O O5 0.052440 0.500000 0.121047
O O6 0.146595 0.665757 0.184342
O O7 0.021767 0.624472 0.234969
O O8 0.996638 0.700220 0.078049
O O9 0.202241 0.860335 0.794963
O O10 0.047330 0.811680 0.758331
O O11 0.098183 0.000000 0.812924
O O12 0.194601 0.500000 0.673773
O O13 0.145098 0.665122 0.563025
O O14 0.247505 0.692993 0.725376
O O15 0.097442 0.636835 0.704399
O O16 0.500000 0.900809 0.500000
O O17 0.550856 0.795219 0.389798
O O18 0.598428 0.000000 0.444867
#
# Coordination Sequence:
#
# PCOD8083142 Si02
#       8
#     8   8   8   4   8   8   8   8
#     4  10  19  33  52  73  99 131 170 209 248 289
#     4  11  21  34  50  72 102 135 168 203 247 297
#     4  10  20  35  52  71 100 135 170 208 247 293
#     4  10  20  34  48  74 102 130 168 206 254 288
#     4   9  17  32  54  80 102 126 164 212 255 289
#     4   8  14  27  51  79 102 123 156 209 260 291
#     4  10  21  33  50  72 105 136 168 197 246 303
#     4  10  18  32  54  77  98 127 170 208 250 296
#
# _framework density 18.293983000000001
#
# number of rings (size 3 to 8) (size 9 to 14) (size 15 to 20)
#    0.000    2.267    1.333    3.600    0.000    0.000 
#    0.000    1.333    0.000   10.800    0.000    0.000 
#    0.000    0.000    0.000    0.000    0.000    0.000 
#
# Total GULP energy -371787.654793 kJ/mol
# GULP energy per Si atom -12392.921826 kJ/mol
# Density = 1.825235 g / cm^3
# Si number density = 18.293983 Si / 1000 Ang^3
#
#
#
# Elastic Constant Matrix: (Units=GPa)
#
#
# Indices 1 2 3 4 5 6 
#
# 1 39.4741 16.1255 8.8200 0.0000 -1.9718 0.0000
# 2 16.1255 68.7071 34.4082 0.0000 9.3377 0.0000
# 3 8.8200 34.4082 108.4943 0.0000 12.6043 0.0000
# 4 0.0000 0.0000 0.0000 23.2340 0.0000 -4.3063
# 5 -1.9718 9.3377 12.6043 0.0000 21.5513 0.0000
# 6 0.0000 0.0000 0.0000 -4.3063 0.0000 7.7570
#
#
#
# Elastic Compliance Matrix: (Units=1/GPa)
#
#
# Indices 1 2 3 4 5 6 
#
# 1 0.028760 -0.007206 -0.000774 0.000000 0.006206 0.000000
# 2 -0.007206 0.019544 -0.004884 0.000000 -0.006271 0.000000
# 3 -0.000774 -0.004884 0.011363 0.000000 -0.004601 0.000000
# 4 0.000000 0.000000 0.000000 0.047977 0.000000 0.026634
# 5 0.006206 -0.006271 -0.004601 0.000000 0.052376 0.000000
# 6 0.000000 0.000000 0.000000 0.026634 0.000000 0.143701
#
#
# Mechanical properties :
#
#
# Convention : Reuss Voigt Hill
#
# Bulk Modulus (GPa) = 29.46380 37.26478 33.36429
# Shear Modulus (GPa) = 14.67302 20.99657 17.83480
#
# Velocity S-wave (km/s) = 2.83515 3.39149 3.12573
# Velocity P-wave (km/s) = 5.18249 5.97917 5.59503
#
# Compressibility (1/GPa) = 0.03393995
#
# Stress axis : x y z
#
# Youngs Moduli (GPa) = 34.77099 51.16705 88.00246
#
# Poissons Ratio (x) = 0.36870 0.06809
# Poissons Ratio (y) = 0.25055 0.42979
# Poissons Ratio (z) = 0.02690 0.24989
#
# Static dielectric constant tensor:
#      x y z
#    x 3.057930 0.000000 0.153250 
#    y 0.000000 3.205400 0.000000 
#    z 0.153250 0.000000 3.778720 
# 
# 
# High freq. dielectric constant tensor:
#      x y z
#    x 1.684740 0.000000 0.005230 
#    y 0.000000 1.697510 0.000000 
#    z 0.005230 0.000000 1.714290 
# 
# From -- ./inp_files/223884.got.cif
#   From: 2010.06.25/outbox.cif.g09.slc.cpg/sg12_112_cif.got.tgz:223884.got - 2010.06.28 00:19:55.
