data_PCOD8083359
_publ_section_title
;
Structure prediction by ZEFSAII (Michael W. Deem and Ramdas Pophale) SiO2 
 PCOD8083359
Probable space group: C 2/M
;
_chemical_formula_sum "Si O2"
_cell_formula_units_Z 56
_cell_length_a 26.806520
_cell_length_b 15.992651
_cell_length_c 10.037260
_cell_angle_alpha 90.000000
_cell_angle_beta 136.726988
_cell_angle_gamma 90.000000
_cell_volume 2949.633063
_symmetry_space_group_name_H-M "C 2/M"
_symmetry_group_IT_number 12
_symmetry_cell_setting 'monoclinic'
loop_
_space_group_symop_operation_xyz
x,y,z
-x,y,-z
-x,-y,-z
x,-y,z
1/2+x,1/2+y,z
1/2-x,1/2+y,-z
1/2-x,1/2-y,-z
1/2+x,1/2-y,z
loop_
_atom_site_type_symbol
_atom_site_label
_atom_site_fract_x
_atom_site_fract_y
_atom_site_fract_z
Si Si1 0.383466 0.500000 0.333135
Si Si2 0.568911 0.672619 0.977182
Si Si3 0.032273 0.000000 0.777446
Si Si4 0.657128 0.773190 0.947479
Si Si5 0.538490 0.093481 0.703714
Si Si6 0.822033 0.823417 0.274262
Si Si7 0.412032 0.269087 0.699536
Si Si8 0.558537 0.909519 0.228603
O O1 0.448829 0.500000 0.566850
O O2 0.414517 0.500000 0.244778
O O3 0.332354 0.419438 0.252040
O O4 0.546863 0.578669 0.899733
O O5 0.633079 0.702285 0.004949
O O6 0.497025 0.730394 0.820146
O O7 0.598174 0.677442 0.185516
O O8 0.608939 0.854236 0.878407
O O9 0.645974 0.737039 0.777497
O O10 0.738519 0.801565 0.135120
O O11 0.500000 0.133785 0.500000
O O12 0.479926 0.092456 0.705123
O O13 0.565991 0.000000 0.724550
O O14 0.862998 0.809218 0.491649
O O15 0.388660 0.171431 0.677621
O O16 0.599844 0.000000 0.293844
O O17 0.500000 0.900892 0.000000
#
# Coordination Sequence:
#
# PCOD8083359 Si02
#       8
#     4   8   4   8   8   8   8   8
#     4  11  22  39  64  97 119 166 207 264 316 365
#     4  11  22  38  63  91 120 161 204 257 313 360
#     4  11  22  38  67  94 125 154 214 269 313 362
#     4  11  23  40  59  86 117 165 199 250 310 375
#     4  10  20  33  55  84 111 142 190 243 292 346
#     4  11  25  39  60  87 123 162 209 248 315 379
#     4  11  21  38  61  92 124 160 201 261 309 367
#     4  10  18  32  56  85 114 148 191 238 290 349
#
# _framework density 18.985413000000001
#
# number of rings (size 3 to 8) (size 9 to 14) (size 15 to 20)
#    0.000    1.286    5.714    0.857    1.000    2.286 
#    0.000    0.000    3.143    0.000    0.000    0.000 
#    0.000    0.000    0.000    0.000    0.000    0.000 
#
# Total GULP energy -347184.559658 kJ/mol
# GULP energy per Si atom -12399.448559 kJ/mol
# Density = 1.894220 g / cm^3
# Si number density = 18.985413 Si / 1000 Ang^3
#
#
#
# Elastic Constant Matrix: (Units=GPa)
#
#
# Indices 1 2 3 4 5 6 
#
# 1 66.3261 20.6630 36.2331 0.0000 -7.8668 0.0000
# 2 20.6630 116.8937 24.3426 0.0000 0.2975 0.0000
# 3 36.2331 24.3426 99.1266 0.0000 -20.9856 0.0000
# 4 0.0000 0.0000 0.0000 27.3052 0.0000 -4.5177
# 5 -7.8668 0.2975 -20.9856 0.0000 26.9914 0.0000
# 6 0.0000 0.0000 0.0000 -4.5177 0.0000 29.8281
#
#
#
# Elastic Compliance Matrix: (Units=1/GPa)
#
#
# Indices 1 2 3 4 5 6 
#
# 1 0.019302 -0.002080 -0.006403 0.000000 0.000671 0.000000
# 2 -0.002080 0.009348 -0.002018 0.000000 -0.002278 0.000000
# 3 -0.006403 -0.002018 0.015003 0.000000 0.009821 0.000000
# 4 0.000000 0.000000 0.000000 0.037564 0.000000 0.005689
# 5 0.000671 -0.002278 0.009821 0.000000 0.044905 0.000000
# 6 0.000000 0.000000 0.000000 0.005689 0.000000 0.034387
#
#
# Mechanical properties :
#
#
# Convention : Reuss Voigt Hill
#
# Bulk Modulus (GPa) = 44.14475 49.42487 46.78481
# Shear Modulus (GPa) = 26.44632 30.23214 28.33923
#
# Velocity S-wave (km/s) = 3.73631 3.99480 3.86772
# Velocity P-wave (km/s) = 6.47424 6.88241 6.68144
#
# Compressibility (1/GPa) = 0.02265275
#
# Stress axis : x y z
#
# Youngs Moduli (GPa) = 51.80715 106.96938 66.65339
#
# Poissons Ratio (x) = 0.22254 0.42675
# Poissons Ratio (y) = 0.10778 0.13448
# Poissons Ratio (z) = 0.33170 0.21581
#
# Static dielectric constant tensor:
#      x y z
#    x 3.405780 0.000000 -0.227180 
#    y 0.000000 3.818140 0.000000 
#    z -0.227180 0.000000 3.329180 
# 
# 
# High freq. dielectric constant tensor:
#      x y z
#    x 1.725000 0.000000 -0.029250 
#    y 0.000000 1.757190 0.000000 
#    z -0.029250 0.000000 1.726600 
# 
# From -- ./inp_files/106062.got.cif
#   From: 2010.06.25/outbox.cif.g09.slc.cpg/sg12_54_cif.got.tgz:106062.got - 2010.06.28 00:19:55.
