data_PCOD8083979
_publ_section_title
;
Structure prediction by ZEFSAII (Michael W. Deem and Ramdas Pophale) SiO2 
 PCOD8083979
Probable space group: C 2/M
;
_chemical_formula_sum "Si O2"
_cell_formula_units_Z 52
_cell_length_a 27.907605
_cell_length_b 9.496717
_cell_length_c 23.295932
_cell_angle_alpha 90.000000
_cell_angle_beta 25.997064
_cell_angle_gamma 90.000000
_cell_volume 2706.278478
_symmetry_space_group_name_H-M "C 2/M"
_symmetry_group_IT_number 12
_symmetry_cell_setting 'monoclinic'
loop_
_space_group_symop_operation_xyz
x,y,z
-x,y,-z
-x,-y,-z
x,-y,z
1/2+x,1/2+y,z
1/2-x,1/2+y,-z
1/2-x,1/2-y,-z
1/2+x,1/2-y,z
loop_
_atom_site_type_symbol
_atom_site_label
_atom_site_fract_x
_atom_site_fract_y
_atom_site_fract_z
Si Si1 0.000000 0.736729 0.000000
Si Si2 0.975616 0.836666 0.807630
Si Si3 0.273877 0.842018 0.200248
Si Si4 0.474929 0.836986 0.696195
Si Si5 0.743885 0.662164 0.892989
Si Si6 0.896237 0.840176 0.222808
Si Si7 0.679955 0.165248 0.398891
O O1 0.106402 0.644001 0.899712
O O2 0.026230 0.831894 0.916453
O O3 0.005953 0.752171 0.718237
O O4 0.047753 0.768338 0.781941
O O5 0.002476 0.000000 0.767821
O O6 0.848102 0.817496 0.959678
O O7 0.283746 0.764112 0.129382
O O8 0.189372 0.753645 0.330241
O O9 0.228322 0.000000 0.240890
O O10 0.358013 0.791252 0.797807
O O11 0.562787 0.804406 0.552221
O O12 0.476710 0.000000 0.711941
O O13 0.747334 0.500000 0.867760
O O14 0.775094 0.780623 0.339989
O O15 0.885438 0.000000 0.252495
O O16 0.696835 0.000000 0.366316
#
# Coordination Sequence:
#
# PCOD8083979 Si02
#       7
#     4   8   8   8   8   8   8
#     4  10  18  34  54  80 117 142 173 218 279 330
#     4  10  20  35  56  84 110 141 185 231 276 321
#     4  11  22  35  56  86 115 140 177 227 282 328
#     4  10  22  39  57  78 109 150 191 227 265 319
#     4  10  21  38  58  81 110 146 187 225 270 327
#     4   9  17  31  56  84 109 142 183 223 268 326
#     4   9  20  38  57  79 110 150 188 220 266 329
#
# _framework density 19.214577999999999
#
# number of rings (size 3 to 8) (size 9 to 14) (size 15 to 20)
#    0.000    2.154    1.538    1.385    0.000    4.308 
#    0.000    3.846    0.000    0.000    0.000    0.000 
#    0.000    0.000    0.000    0.000    0.000    0.000 
#
# Total GULP energy -322354.569403 kJ/mol
# GULP energy per Si atom -12398.252669 kJ/mol
# Density = 1.917084 g / cm^3
# Si number density = 19.214578 Si / 1000 Ang^3
#
#
#
# Elastic Constant Matrix: (Units=GPa)
#
#
# Indices 1 2 3 4 5 6 
#
# 1 63.2139 29.1690 -1.1099 -0.0018 11.3495 0.0012
# 2 29.1690 67.1451 18.7860 0.0104 13.2464 -0.0035
# 3 -1.1099 18.7860 51.5225 0.0003 4.5313 -0.0014
# 4 -0.0018 0.0104 0.0003 19.3070 -0.0014 6.0339
# 5 11.3495 13.2464 4.5313 -0.0014 27.6494 0.0002
# 6 0.0012 -0.0035 -0.0014 6.0339 0.0002 25.2523
#
#
#
# Elastic Compliance Matrix: (Units=1/GPa)
#
#
# Indices 1 2 3 4 5 6 
#
# 1 0.021115 -0.009422 0.004318 0.000008 -0.004861 -0.000004
# 2 -0.009422 0.022267 -0.007837 -0.000015 -0.005516 0.000007
# 3 0.004318 -0.007837 0.022510 0.000005 -0.001707 -0.000001
# 4 0.000008 -0.000015 0.000005 0.055974 0.000006 -0.013375
# 5 -0.004861 -0.005516 -0.001707 0.000006 0.041085 -0.000002
# 6 -0.000004 0.000007 -0.000001 -0.013375 -0.000002 0.042796
#
#
# Mechanical properties :
#
#
# Convention : Reuss Voigt Hill
#
# Bulk Modulus (GPa) = 24.99366 30.61907 27.80637
# Shear Modulus (GPa) = 20.41098 23.44418 21.92758
#
# Velocity S-wave (km/s) = 3.26278 3.49682 3.38182
# Velocity P-wave (km/s) = 5.21825 5.68098 5.45453
#
# Compressibility (1/GPa) = 0.04001014
#
# Stress axis : x y z
#
# Youngs Moduli (GPa) = 47.35858 44.90952 44.42557
#
# Poissons Ratio (x) = 0.42314 -0.19182
# Poissons Ratio (y) = 0.44621 0.34815
# Poissons Ratio (z) = -0.20449 0.35195
#
# Static dielectric constant tensor:
#      x y z
#    x 3.594730 0.000000 -0.173520 
#    y 0.000000 3.253230 0.000000 
#    z -0.173520 0.000000 3.490460 
# 
# 
# High freq. dielectric constant tensor:
#      x y z
#    x 1.749610 0.000000 -0.005250 
#    y 0.000000 1.724920 0.000000 
#    z -0.005250 0.000000 1.747140 
# 
# From -- ./inp_files/351229.got.cif
#   From: 2010.06.25/outbox.cif.g09.slc.cpg/sg12_176_cif.got.tgz:351229.got - 2010.06.28 00:19:55.
