data_PCOD8083832
_publ_section_title
;
Structure prediction by ZEFSAII (Michael W. Deem and Ramdas Pophale) SiO2 
 PCOD8083832
Probable space group: C 2/M
;
_chemical_formula_sum "Si O2"
_cell_formula_units_Z 64
_cell_length_a 32.513927
_cell_length_b 16.943424
_cell_length_c 13.033175
_cell_angle_alpha 90.000000
_cell_angle_beta 153.377440
_cell_angle_gamma 90.000000
_cell_volume 3217.411102
_symmetry_space_group_name_H-M "C 2/M"
_symmetry_group_IT_number 12
_symmetry_cell_setting 'monoclinic'
loop_
_space_group_symop_operation_xyz
x,y,z
-x,y,-z
-x,-y,-z
x,-y,z
1/2+x,1/2+y,z
1/2-x,1/2+y,-z
1/2-x,1/2-y,-z
1/2+x,1/2-y,z
loop_
_atom_site_type_symbol
_atom_site_label
_atom_site_fract_x
_atom_site_fract_y
_atom_site_fract_z
Si Si1 0.281146 0.410289 0.575758
Si Si2 0.981642 0.908215 0.316081
Si Si3 0.805941 0.091921 0.021959
Si Si4 0.109501 0.189321 0.048975
Si Si5 0.737364 0.312796 0.654747
Si Si6 0.183914 0.092984 0.731056
Si Si7 0.674559 0.089423 0.551561
Si Si8 0.449036 0.221877 0.779397
O O1 0.312679 0.500000 0.624242
O O2 0.365908 0.350919 0.786897
O O3 0.231724 0.375510 0.364255
O O4 0.218351 0.404722 0.536267
O O5 0.915716 0.881214 0.265418
O O6 0.081478 0.870556 0.518860
O O7 0.001672 0.000000 0.365440
O O8 0.912666 0.886220 0.070249
O O9 0.765975 0.107389 0.046920
O O10 0.809696 0.000000 0.004018
O O11 0.739873 0.128127 0.786209
O O12 0.191424 0.241117 0.183133
O O13 0.020553 0.243096 0.858525
O O14 0.736775 0.357651 0.762525
O O15 0.637649 0.279630 0.403300
O O16 0.184238 0.000000 0.702332
O O17 0.581238 0.138977 0.338046
O O18 0.648154 0.000000 0.520256
O O19 0.500000 0.207194 0.000000
#
# Coordination Sequence:
#
# PCOD8083832 Si02
#       8
#     8   8   8   8   8   8   8   8
#     4  11  21  37  61  86 113 151 198 243 290 347
#     4  10  18  33  58  88 115 146 197 247 288 343
#     4   9  17  34  62  88 113 151 197 248 294 333
#     4  12  22  37  59  85 119 159 189 237 297 351
#     4  12  23  39  56  86 125 160 188 233 298 359
#     4  10  21  36  58  88 120 155 195 240 294 352
#     4  10  21  39  63  87 112 151 206 250 281 335
#     4  12  23  38  59  86 120 158 193 234 300 353
#
# _framework density 19.891769
#
# number of rings (size 3 to 8) (size 9 to 14) (size 15 to 20)
#    0.000    1.250    5.000    2.250    0.000    1.750 
#    0.000    4.375    0.000    0.000    0.000    2.625 
#    0.000    0.000    0.000    0.000    0.000    0.000 
#
# Total GULP energy -396429.898822 kJ/mol
# GULP energy per Si atom -12388.434338 kJ/mol
# Density = 1.984649 g / cm^3
# Si number density = 19.891769 Si / 1000 Ang^3
#
#
#
# Elastic Constant Matrix: (Units=GPa)
#
#
# Indices 1 2 3 4 5 6 
#
# 1 53.8564 12.9283 11.0741 0.0000 -10.5946 0.0000
# 2 12.9283 65.2136 11.5455 0.0000 0.7591 0.0000
# 3 11.0741 11.5455 50.7542 0.0000 7.5708 0.0000
# 4 0.0000 0.0000 0.0000 33.5162 0.0000 2.6554
# 5 -10.5946 0.7591 7.5708 0.0000 26.8779 0.0000
# 6 0.0000 0.0000 0.0000 2.6554 0.0000 19.0652
#
#
#
# Elastic Compliance Matrix: (Units=1/GPa)
#
#
# Indices 1 2 3 4 5 6 
#
# 1 0.022711 -0.003613 -0.005724 0.000000 0.010666 0.000000
# 2 -0.003613 0.016562 -0.002815 0.000000 -0.001099 0.000000
# 3 -0.005724 -0.002815 0.022878 0.000000 -0.008621 0.000000
# 4 0.000000 0.000000 0.000000 0.030169 0.000000 -0.004202
# 5 0.010666 -0.001099 -0.008621 0.000000 0.043869 0.000000
# 6 0.000000 0.000000 0.000000 -0.004202 0.000000 0.053037
#
#
# Mechanical properties :
#
#
# Convention : Reuss Voigt Hill
#
# Bulk Modulus (GPa) = 26.42339 26.76889 26.59614
# Shear Modulus (GPa) = 22.10963 24.84359 23.47661
#
# Velocity S-wave (km/s) = 3.33753 3.53787 3.43916
# Velocity P-wave (km/s) = 5.30703 5.49319 5.40091
#
# Compressibility (1/GPa) = 0.03784526
#
# Stress axis : x y z
#
# Youngs Moduli (GPa) = 44.03245 60.38030 43.70980
#
# Poissons Ratio (x) = 0.21815 0.25021
# Poissons Ratio (y) = 0.15909 0.12305
# Poissons Ratio (z) = 0.25206 0.16998
#
# Static dielectric constant tensor:
#      x y z
#    x 3.587710 0.000000 -0.085390 
#    y 0.000000 3.604840 0.000000 
#    z -0.085390 0.000000 3.610540 
# 
# 
# High freq. dielectric constant tensor:
#      x y z
#    x 1.769870 0.000000 -0.015570 
#    y 0.000000 1.763590 0.000000 
#    z -0.015570 0.000000 1.766640 
# 
# From -- ./inp_files/190075.got.cif
#   From: 2010.06.25/outbox.cif.g09.slc.cpg/sg12_96_cif.got.tgz:190075.got - 2010.06.28 00:19:55.
