data_PCOD8083715
_publ_section_title
;
Structure prediction by ZEFSAII (Michael W. Deem and Ramdas Pophale) SiO2 
 PCOD8083715
Probable space group: C 2/M
;
_chemical_formula_sum "Si O2"
_cell_formula_units_Z 64
_cell_length_a 29.810167
_cell_length_b 8.799104
_cell_length_c 19.708597
_cell_angle_alpha 90.000000
_cell_angle_beta 37.533750
_cell_angle_gamma 90.000000
_cell_volume 3149.480222
_symmetry_space_group_name_H-M "C 2/M"
_symmetry_group_IT_number 12
_symmetry_cell_setting 'monoclinic'
loop_
_space_group_symop_operation_xyz
x,y,z
-x,y,-z
-x,-y,-z
x,-y,z
1/2+x,1/2+y,z
1/2-x,1/2+y,-z
1/2-x,1/2-y,-z
1/2+x,1/2-y,z
loop_
_atom_site_type_symbol
_atom_site_label
_atom_site_fract_x
_atom_site_fract_y
_atom_site_fract_z
Si Si1 0.645214 0.175626 0.902988
Si Si2 0.514418 0.819540 0.146916
Si Si3 0.260703 0.320011 0.560657
Si Si4 0.390413 0.824974 0.200540
Si Si5 0.811369 0.320388 0.877289
Si Si6 0.023564 0.679710 0.287756
Si Si7 0.703788 0.821962 0.259315
Si Si8 0.615527 0.319952 0.484236
O O1 0.593683 0.196265 0.898230
O O2 0.715466 0.281749 0.810963
O O3 0.671020 0.000000 0.878822
O O4 0.595743 0.232170 0.025257
O O5 0.452029 0.743781 0.173575
O O6 0.500890 0.766521 0.239589
O O7 0.513327 0.000000 0.141628
O O8 0.264293 0.500000 0.549267
O O9 0.250000 0.250000 0.500000
O O10 0.190866 0.261380 0.687245
O O11 0.332786 0.261585 0.515315
O O12 0.391297 0.000000 0.220507
O O13 0.803683 0.500000 0.892872
O O14 0.892976 0.266032 0.800335
O O15 0.800822 0.264488 0.812757
O O16 0.750000 0.250000 0.000000
O O17 0.016551 0.500000 0.305991
O O18 0.967500 0.760339 0.406359
O O19 0.643315 0.740438 0.378439
O O20 0.689210 0.000000 0.281731
O O21 0.615912 0.500000 0.480691
#
# Coordination Sequence:
#
# PCOD8083715 Si02
#       8
#     8   8   8   8   8   8   8   8
#     4  10  18  33  56  83 115 150 192 242 286 343
#     4   9  17  29  54  85 112 148 191 235 290 348
#     4  10  20  34  53  79 113 153 197 244 289 341
#     4   9  16  29  49  79 113 144 185 236 285 337
#     4  10  23  42  65  93 122 154 195 242 295 354
#     4  10  21  39  60  85 117 153 194 241 296 355
#     4  11  23  39  60  86 118 157 196 242 299 354
#     4  11  23  40  60  86 117 154 200 246 293 348
#
# _framework density 20.320813999999999
#
# number of rings (size 3 to 8) (size 9 to 14) (size 15 to 20)
#    0.000    2.000    1.250    2.625    0.000    6.500 
#    0.000    3.125    0.000    2.250    0.000    0.000 
#    0.000    0.000    0.000    0.000    0.000    0.000 
#
# Total GULP energy -396729.713291 kJ/mol
# GULP energy per Si atom -12397.803540 kJ/mol
# Density = 2.027456 g / cm^3
# Si number density = 20.320814 Si / 1000 Ang^3
#
#
#
# Elastic Constant Matrix: (Units=GPa)
#
#
# Indices 1 2 3 4 5 6 
#
# 1 115.0385 31.0820 65.1392 -0.0024 -2.6246 0.0005
# 2 31.0820 40.8366 39.1045 -0.0244 1.4430 0.0064
# 3 65.1392 39.1045 166.2274 -0.0096 -1.8384 0.0023
# 4 -0.0024 -0.0244 -0.0096 30.8302 0.0038 0.2473
# 5 -2.6246 1.4430 -1.8384 0.0038 36.1971 0.0011
# 6 0.0005 0.0064 0.0023 0.2473 0.0011 22.8871
#
#
#
# Elastic Compliance Matrix: (Units=1/GPa)
#
#
# Indices 1 2 3 4 5 6 
#
# 1 0.012279 -0.006173 -0.003349 -0.000005 0.000966 0.000002
# 2 -0.006173 0.034809 -0.005793 0.000026 -0.002130 -0.000009
# 3 -0.003349 -0.005793 0.008696 -0.000002 0.000430 0.000001
# 4 -0.000005 0.000026 -0.000002 0.032439 -0.000005 -0.000351
# 5 0.000966 -0.002130 0.000430 -0.000005 0.027803 -0.000001
# 6 0.000002 -0.000009 0.000001 -0.000351 -0.000001 0.043697
#
#
# Mechanical properties :
#
#
# Convention : Reuss Voigt Hill
#
# Bulk Modulus (GPa) = 39.75615 65.86156 52.80885
# Shear Modulus (GPa) = 25.15882 30.43465 27.79673
#
# Velocity S-wave (km/s) = 3.52246 3.87422 3.70252
# Velocity P-wave (km/s) = 6.01251 7.24528 6.65749
#
# Compressibility (1/GPa) = 0.02515334
#
# Stress axis : x y z
#
# Youngs Moduli (GPa) = 81.44012 28.72800 114.99904
#
# Poissons Ratio (x) = 0.17735 0.38511
# Poissons Ratio (y) = 0.50275 0.66621
# Poissons Ratio (z) = 0.27273 0.16643
#
# Static dielectric constant tensor:
#      x y z
#    x 3.941000 -0.000010 -0.036300 
#    y -0.000010 3.283700 0.000040 
#    z -0.036300 0.000040 3.910260 
# 
# 
# High freq. dielectric constant tensor:
#      x y z
#    x 1.800780 0.000000 0.001660 
#    y 0.000000 1.752100 0.000000 
#    z 0.001660 0.000000 1.810070 
# 
# From -- ./inp_files/295607.got.cif
#   From: 2010.06.25/outbox.cif.g09.slc.cpg/sg12_148_cif.got.tgz:295607.got - 2010.06.28 00:19:55.
