data_PCOD8083145
_publ_section_title
;
Structure prediction by ZEFSAII (Michael W. Deem and Ramdas Pophale) SiO2 
 PCOD8083145
Probable space group: C 2/M
;
_chemical_formula_sum "Si O2"
_cell_formula_units_Z 64
_cell_length_a 19.992656
_cell_length_b 20.496375
_cell_length_c 19.809854
_cell_angle_alpha 90.000000
_cell_angle_beta 26.724201
_cell_angle_gamma 90.000000
_cell_volume 3650.464654
_symmetry_space_group_name_H-M "C 2/M"
_symmetry_group_IT_number 12
_symmetry_cell_setting 'monoclinic'
loop_
_space_group_symop_operation_xyz
x,y,z
-x,y,-z
-x,-y,-z
x,-y,z
1/2+x,1/2+y,z
1/2-x,1/2+y,-z
1/2-x,1/2-y,-z
1/2+x,1/2-y,z
loop_
_atom_site_type_symbol
_atom_site_label
_atom_site_fract_x
_atom_site_fract_y
_atom_site_fract_z
Si Si1 0.045538 0.925015 0.383055
Si Si2 0.965041 0.431801 0.609519
Si Si3 0.768834 0.427099 0.385100
Si Si4 0.771574 0.785474 0.409253
Si Si5 0.079910 0.311480 0.823250
Si Si6 0.227993 0.685070 0.833010
Si Si7 0.248176 0.429008 0.447370
Si Si8 0.538436 0.791496 0.387272
O O1 0.191594 0.884504 0.232280
O O2 0.000000 0.907888 0.500000
O O3 0.904761 0.905384 0.463263
O O4 0.090229 0.000000 0.333449
O O5 0.877812 0.500000 0.707574
O O6 0.883602 0.362853 0.696125
O O7 0.000000 0.434363 0.500000
O O8 0.119090 0.431394 0.509800
O O9 0.784020 0.500000 0.340862
O O10 0.875020 0.381404 0.246377
O O11 0.820658 0.424557 0.415668
O O12 0.750000 0.750000 0.500000
O O13 0.887307 0.745968 0.259132
O O14 0.836288 0.860324 0.356689
O O15 0.611420 0.785454 0.519428
O O16 0.169246 0.299815 0.811337
O O17 0.904074 0.312851 0.994063
O O18 0.346194 0.740099 0.745812
O O19 0.336987 0.500000 0.361826
O O20 0.500000 0.778764 0.500000
#
# Coordination Sequence:
#
# PCOD8083145 Si02
#       8
#     8   8   8   8   8   8   8   8
#     4  10  19  32  52  77 102 140 186 222 254 303
#     4   8  15  28  49  78 102 120 160 217 266 311
#     4  10  19  33  54  77 104 138 181 220 259 309
#     4  11  20  33  57  80 105 133 180 224 263 316
#     4  11  22  35  50  79 107 144 175 218 269 311
#     4  11  22  34  52  74 112 142 178 216 264 321
#     4   9  18  31  52  79 103 132 171 218 264 309
#     4  10  18  32  54  78 101 137 173 214 265 308
#
# _framework density 17.532014
#
# number of rings (size 3 to 8) (size 9 to 14) (size 15 to 20)
#    0.000    2.000    3.750    1.125    0.000    0.500 
#    0.000    1.875    0.000    0.750    0.000    1.750 
#    0.000    0.000    0.000    0.000    0.000    0.000 
#
# Total GULP energy -396423.917553 kJ/mol
# GULP energy per Si atom -12388.247424 kJ/mol
# Density = 1.749211 g / cm^3
# Si number density = 17.532014 Si / 1000 Ang^3
#
#
#
# Elastic Constant Matrix: (Units=GPa)
#
#
# Indices 1 2 3 4 5 6 
#
# 1 85.6956 25.1096 27.0780 -0.0066 8.6886 -0.0022
# 2 25.1096 166.7616 71.7056 -0.0014 0.8477 -0.0060
# 3 27.0780 71.7056 101.8721 -0.0163 1.3196 -0.0031
# 4 -0.0066 -0.0014 -0.0163 8.7365 0.0033 0.5106
# 5 8.6886 0.8477 1.3196 0.0033 16.9796 0.0033
# 6 -0.0022 -0.0060 -0.0031 0.5106 0.0033 24.9090
#
#
#
# Elastic Compliance Matrix: (Units=1/GPa)
#
#
# Indices 1 2 3 4 5 6 
#
# 1 0.013499 -0.000707 -0.003004 0.000007 -0.006639 0.000001
# 2 -0.000707 0.008636 -0.005896 -0.000010 0.000389 0.000001
# 3 -0.003004 -0.005896 0.014756 0.000024 0.000685 0.000000
# 4 0.000007 -0.000010 0.000024 0.114600 -0.000027 -0.002349
# 5 -0.006639 0.000389 0.000685 -0.000027 0.062219 -0.000008
# 6 0.000001 0.000001 0.000000 -0.002349 -0.000008 0.040194
#
#
# Mechanical properties :
#
#
# Convention : Reuss Voigt Hill
#
# Bulk Modulus (GPa) = 56.57289 66.90173 61.73731
# Shear Modulus (GPa) = 17.92046 25.48742 21.70394
#
# Velocity S-wave (km/s) = 3.20059 3.81696 3.52228
# Velocity P-wave (km/s) = 6.78209 7.59396 7.19948
#
# Compressibility (1/GPa) = 0.01767631
#
# Stress axis : x y z
#
# Youngs Moduli (GPa) = 74.08081 115.79072 67.76883
#
# Poissons Ratio (x) = 0.08185 0.20361
# Poissons Ratio (y) = 0.05237 0.39957
# Poissons Ratio (z) = 0.22257 0.68271
#
# Static dielectric constant tensor:
#      x y z
#    x 3.583830 -0.000160 0.017380 
#    y -0.000160 4.133000 0.000100 
#    z 0.017380 0.000100 2.789560 
# 
# 
# High freq. dielectric constant tensor:
#      x y z
#    x 1.692610 0.000000 0.003880 
#    y 0.000000 1.711570 0.000010 
#    z 0.003880 0.000010 1.610490 
# 
# From -- ./inp_files/279076.got.cif
#   From: 2010.06.25/outbox.cif.g09.slc.cpg/sg12_140_cif.got.tgz:279076.got - 2010.06.28 00:19:55.
