data_PCOD8083086
_publ_section_title
;
Structure prediction by ZEFSAII (Michael W. Deem and Ramdas Pophale) SiO2 
 PCOD8083086
Probable space group: C 2/M
;
_chemical_formula_sum "Si O2"
_cell_formula_units_Z 56
_cell_length_a 18.474027
_cell_length_b 14.058486
_cell_length_c 24.582088
_cell_angle_alpha 90.000000
_cell_angle_beta 150.449267
_cell_angle_gamma 90.000000
_cell_volume 3148.739316
_symmetry_space_group_name_H-M "C 2/M"
_symmetry_group_IT_number 12
_symmetry_cell_setting 'monoclinic'
loop_
_space_group_symop_operation_xyz
x,y,z
-x,y,-z
-x,-y,-z
x,-y,z
1/2+x,1/2+y,z
1/2-x,1/2+y,-z
1/2-x,1/2-y,-z
1/2+x,1/2-y,z
loop_
_atom_site_type_symbol
_atom_site_label
_atom_site_fract_x
_atom_site_fract_y
_atom_site_fract_z
Si Si1 0.859184 0.106064 0.446197
Si Si2 0.553710 0.109898 0.976626
Si Si3 0.366118 0.606260 0.723451
Si Si4 0.556310 0.892346 0.477792
Si Si5 0.543318 0.716282 0.646022
Si Si6 0.177550 0.710511 0.243358
Si Si7 0.393651 0.390791 0.206319
O O1 0.723530 0.160882 0.330005
O O2 0.000000 0.105350 0.500000
O O3 0.905776 0.158617 0.531685
O O4 0.806479 0.000000 0.425709
O O5 0.474104 0.167222 0.876808
O O6 0.509708 0.000000 0.941755
O O7 0.500000 0.148224 0.000000
O O8 0.725514 0.127451 0.081604
O O9 0.368950 0.500000 0.750409
O O10 0.232131 0.614333 0.592967
O O11 0.347118 0.677685 0.761565
O O12 0.515010 0.627999 0.788494
O O13 0.500000 0.853737 0.500000
O O14 0.489976 0.828113 0.385934
O O15 0.500359 0.000000 0.431868
O O16 0.698313 0.689990 0.720204
O O17 0.553420 0.686842 0.715261
O O18 0.415421 0.500000 0.241738
#
# Coordination Sequence:
#
# PCOD8083086 Si02
#       7
#     8   8   8   8   8   8   8
#     4   9  17  27  44  76 109 135 165 215 270 312
#     4  10  20  35  56  81 107 139 179 222 267 321
#     4  10  21  37  55  79 110 144 182 221 265 316
#     4  10  18  32  53  78 106 139 183 223 259 312
#     4  11  18  31  54  80 105 139 179 224 264 314
#     4  11  19  32  55  80 105 138 184 223 261 312
#     4  10  22  37  54  80 112 144 177 218 270 324
#
# _framework density 17.784894999999999
#
# number of rings (size 3 to 8) (size 9 to 14) (size 15 to 20)
#    0.000    1.857    4.286    1.286    0.000    2.286 
#    0.000    0.000    0.000    2.143    0.000    0.000 
#    0.000    0.000    0.000    0.000    0.000    0.000 
#
# Total GULP energy -347214.551667 kJ/mol
# GULP energy per Si atom -12400.519702 kJ/mol
# Density = 1.774442 g / cm^3
# Si number density = 17.784895 Si / 1000 Ang^3
#
#
#
# Elastic Constant Matrix: (Units=GPa)
#
#
# Indices 1 2 3 4 5 6 
#
# 1 46.4522 17.1967 24.1976 0.0015 11.7181 0.0004
# 2 17.1967 108.4422 44.5032 0.0036 -9.8677 0.0022
# 3 24.1976 44.5032 100.8118 0.0079 0.8367 0.0051
# 4 0.0015 0.0036 0.0079 26.7841 0.0031 -2.3185
# 5 11.7181 -9.8677 0.8367 0.0031 23.6331 0.0015
# 6 0.0004 0.0022 0.0051 -2.3185 0.0015 21.0028
#
#
#
# Elastic Compliance Matrix: (Units=1/GPa)
#
#
# Indices 1 2 3 4 5 6 
#
# 1 0.029886 -0.004076 -0.005239 0.000003 -0.016335 0.000003
# 2 -0.004076 0.012410 -0.004561 -0.000001 0.007364 -0.000001
# 3 -0.005239 -0.004561 0.013188 -0.000003 0.000226 -0.000003
# 4 0.000003 -0.000001 -0.000003 0.037696 -0.000007 0.004161
# 5 -0.016335 0.007364 0.000226 -0.000007 0.053480 -0.000005
# 6 0.000003 -0.000001 -0.000003 0.004161 -0.000005 0.048072
#
#
# Mechanical properties :
#
#
# Convention : Reuss Voigt Hill
#
# Bulk Modulus (GPa) = 36.05800 47.50016 41.77908
# Shear Modulus (GPa) = 21.57713 25.60459 23.59086
#
# Velocity S-wave (km/s) = 3.48692 3.79843 3.64600
# Velocity P-wave (km/s) = 6.04401 6.78259 6.42392
#
# Compressibility (1/GPa) = 0.02773309
#
# Stress axis : x y z
#
# Youngs Moduli (GPa) = 33.46063 80.58193 75.82381
#
# Poissons Ratio (x) = 0.32844 0.39721
# Poissons Ratio (y) = 0.13638 0.34584
# Poissons Ratio (z) = 0.17529 0.36754
#
# Static dielectric constant tensor:
#      x y z
#    x 2.995320 0.000000 0.176700 
#    y 0.000000 3.405730 0.000000 
#    z 0.176700 0.000000 3.193600 
# 
# 
# High freq. dielectric constant tensor:
#      x y z
#    x 1.657680 0.000000 0.018270 
#    y 0.000000 1.692490 0.000000 
#    z 0.018270 0.000000 1.675280 
# 
# From -- ./inp_files/316788.got.cif
#   From: 2010.06.25/outbox.cif.g09.slc.cpg/sg12_159_cif.got.tgz:316788.got - 2010.06.28 00:19:55.
