data_PCOD8083370
_publ_section_title
;
Structure prediction by ZEFSAII (Michael W. Deem and Ramdas Pophale) SiO2 
 PCOD8083370
Probable space group: C 2/M
;
_chemical_formula_sum "Si O2"
_cell_formula_units_Z 56
_cell_length_a 13.387545
_cell_length_b 17.769672
_cell_length_c 13.894522
_cell_angle_alpha 90.000000
_cell_angle_beta 54.041119
_cell_angle_gamma 90.000000
_cell_volume 2675.518055
_symmetry_space_group_name_H-M "C 2/M"
_symmetry_group_IT_number 12
_symmetry_cell_setting 'monoclinic'
loop_
_space_group_symop_operation_xyz
x,y,z
-x,y,-z
-x,-y,-z
x,-y,z
1/2+x,1/2+y,z
1/2-x,1/2+y,-z
1/2-x,1/2-y,-z
1/2+x,1/2-y,z
loop_
_atom_site_type_symbol
_atom_site_label
_atom_site_fract_x
_atom_site_fract_y
_atom_site_fract_z
Si Si1 0.936851 0.412870 0.270778
Si Si2 0.794026 0.410341 0.166306
Si Si3 0.835278 0.346612 0.936527
Si Si4 0.117134 0.086094 0.717091
Si Si5 0.065636 0.191526 0.062092
Si Si6 0.465439 0.585649 0.620466
Si Si7 0.382046 0.910274 0.510353
O O1 0.906296 0.500000 0.289937
O O2 0.870700 0.378234 0.213932
O O3 0.885801 0.377124 0.399183
O O4 0.083717 0.399742 0.178355
O O5 0.804433 0.500000 0.148553
O O6 0.654890 0.379712 0.260112
O O7 0.844916 0.373565 0.040978
O O8 0.897296 0.263974 0.895649
O O9 0.696286 0.351642 0.972876
O O10 0.258917 0.114209 0.637834
O O11 0.030724 0.138748 0.828760
O O12 0.080839 0.091039 0.625669
O O13 0.103254 0.000000 0.762136
O O14 0.000000 0.214202 0.000000
O O15 0.500000 0.626560 0.500000
O O16 0.428731 0.500000 0.616559
O O17 0.500000 0.877603 0.500000
O O18 0.388240 0.000000 0.501582
#
# Coordination Sequence:
#
# PCOD8083370 Si02
#       7
#     8   8   8   8   8   8   8
#     4  10  20  34  59  89 116 151 193 238 290 343
#     4  10  18  32  56  88 118 148 192 240 290 342
#     4  11  23  40  59  83 117 153 193 240 288 349
#     4  10  20  37  59  86 119 151 193 238 282 343
#     4  11  25  41  59  83 113 157 195 235 292 345
#     4   9  16  28  51  83 118 149 181 231 286 336
#     4   9  19  35  56  85 119 155 191 235 287 338
#
# _framework density 20.930526
#
# number of rings (size 3 to 8) (size 9 to 14) (size 15 to 20)
#    0.000    2.000    1.429    2.571    2.000    5.429 
#    0.000    0.714    0.000    0.857    0.000    0.000 
#    0.000    0.000    0.000    0.000    0.000    0.000 
#
# Total GULP energy -347102.113840 kJ/mol
# GULP energy per Si atom -12396.504066 kJ/mol
# Density = 2.088289 g / cm^3
# Si number density = 20.930526 Si / 1000 Ang^3
#
#
#
# Elastic Constant Matrix: (Units=GPa)
#
#
# Indices 1 2 3 4 5 6 
#
# 1 119.0338 18.7207 36.6232 -0.0001 -21.7595 0.0000
# 2 18.7207 33.7748 31.8501 0.0000 -4.6142 0.0000
# 3 36.6232 31.8501 116.1545 0.0000 -23.1113 0.0000
# 4 -0.0001 0.0000 0.0000 5.6271 0.0001 -4.0657
# 5 -21.7595 -4.6142 -23.1113 0.0001 36.0753 0.0000
# 6 0.0000 0.0000 0.0000 -4.0657 0.0000 22.8472
#
#
#
# Elastic Compliance Matrix: (Units=1/GPa)
#
#
# Indices 1 2 3 4 5 6 
#
# 1 0.010284 -0.003904 -0.001189 0.000000 0.004942 0.000000
# 2 -0.003904 0.041567 -0.010977 0.000000 -0.004070 0.000000
# 3 -0.001189 -0.010977 0.013262 0.000000 0.006375 0.000000
# 4 0.000000 0.000000 0.000000 0.203934 0.000000 0.036290
# 5 0.004942 -0.004070 0.006375 0.000000 0.034264 0.000000
# 6 0.000000 0.000000 0.000000 0.036290 0.000000 0.050227
#
#
# Mechanical properties :
#
#
# Convention : Reuss Voigt Hill
#
# Bulk Modulus (GPa) = 30.32661 49.26122 39.79392
# Shear Modulus (GPa) = 12.60496 25.02787 18.81641
#
# Velocity S-wave (km/s) = 2.45670 3.46173 3.00158
# Velocity P-wave (km/s) = 4.75056 6.29005 5.57371
#
# Compressibility (1/GPa) = 0.03297434
#
# Stress axis : x y z
#
# Youngs Moduli (GPa) = 97.23708 24.05756 75.40098
#
# Poissons Ratio (x) = 0.09392 0.08963
# Poissons Ratio (y) = 0.37963 0.82766
# Poissons Ratio (z) = 0.11558 0.26407
#
# Static dielectric constant tensor:
#      x y z
#    x 4.027000 0.000000 -0.107300 
#    y 0.000000 3.346580 0.000000 
#    z -0.107300 0.000000 3.887760 
# 
# 
# High freq. dielectric constant tensor:
#      x y z
#    x 1.830790 0.000000 -0.010240 
#    y 0.000000 1.767760 0.000000 
#    z -0.010240 0.000000 1.828760 
# 
# From -- ./inp_files/216304.got.cif
#   From: 2010.06.25/outbox.cif.g09.slc.cpg/sg12_109_cif.got.tgz:216304.got - 2010.06.28 00:19:55.
