data_PCOD8083957
_publ_section_title
;
Structure prediction by ZEFSAII (Michael W. Deem and Ramdas Pophale) SiO2 
 PCOD8083957
Probable space group: C 2/M
;
_chemical_formula_sum "Si O2"
_cell_formula_units_Z 40
_cell_length_a 21.319613
_cell_length_b 21.607882
_cell_length_c 14.593605
_cell_angle_alpha 90.000000
_cell_angle_beta 18.830486
_cell_angle_gamma 90.000000
_cell_volume 2169.933292
_symmetry_space_group_name_H-M "C 2/M"
_symmetry_group_IT_number 12
_symmetry_cell_setting 'monoclinic'
loop_
_space_group_symop_operation_xyz
x,y,z
-x,y,-z
-x,-y,-z
x,-y,z
1/2+x,1/2+y,z
1/2-x,1/2+y,-z
1/2-x,1/2-y,-z
1/2+x,1/2-y,z
loop_
_atom_site_type_symbol
_atom_site_label
_atom_site_fract_x
_atom_site_fract_y
_atom_site_fract_z
Si Si1 0.724951 0.500000 0.309318
Si Si2 0.005948 0.294479 0.888130
Si Si3 0.443861 0.321078 0.294647
Si Si4 0.880051 0.135043 0.577651
Si Si5 0.962876 0.068170 0.153357
Si Si6 0.365651 0.000000 0.322662
O O1 0.596822 0.561372 0.470129
O O2 0.802702 0.500000 0.303973
O O3 0.902568 0.500000 0.990488
O O4 0.218160 0.322290 0.575989
O O5 0.956613 0.240834 0.882589
O O6 0.847843 0.348965 0.095388
O O7 0.000000 0.267179 0.000000
O O8 0.467941 0.326333 0.370680
O O9 0.548446 0.380557 0.103840
O O10 0.000000 0.156199 0.500000
O O11 0.730375 0.060196 0.495204
O O12 0.063213 0.000000 0.029953
O O13 0.000000 0.092298 0.000000
#
# Coordination Sequence:
#
# PCOD8083957 Si02
#       6
#     4   8   8   8   8   4
#     4  11  19  32  54  77 110 138 173 223 266 310
#     4   9  20  34  53  78 101 136 175 225 264 307
#     4  10  18  34  53  74 106 133 179 219 262 310
#     4  11  22  34  51  78 110 141 176 213 268 323
#     4   9  16  27  47  79 105 128 163 216 270 314
#     4   9  17  28  52  81  99 133 169 223 266 306
#
# _framework density 18.433745999999999
#
# number of rings (size 3 to 8) (size 9 to 14) (size 15 to 20)
#    0.600    1.600    2.000    2.100    5.600    0.800 
#    0.000    0.000    0.000    0.000    0.000    1.400 
#    0.000    0.000    0.000    0.000    0.000    0.000 
#
# Total GULP energy -247819.749303 kJ/mol
# GULP energy per Si atom -12390.987465 kJ/mol
# Density = 1.839179 g / cm^3
# Si number density = 18.433746 Si / 1000 Ang^3
#
#
#
# Elastic Constant Matrix: (Units=GPa)
#
#
# Indices 1 2 3 4 5 6 
#
# 1 110.6408 42.2466 23.9689 -0.0217 10.7125 0.0207
# 2 42.2466 98.7249 4.6256 -0.0345 8.9815 0.0105
# 3 23.9689 4.6256 38.0262 -0.1554 14.6916 0.0494
# 4 -0.0217 -0.0345 -0.1554 21.0713 0.0789 8.6980
# 5 10.7125 8.9815 14.6916 0.0789 25.3405 -0.0532
# 6 0.0207 0.0105 0.0494 8.6980 -0.0532 -40.7676
#
#
#
# Elastic Compliance Matrix: (Units=1/GPa)
#
#
# Indices 1 2 3 4 5 6 
#
# 1 0.012552 -0.005098 -0.007655 -0.000049 0.000939 -0.000016
# 2 -0.005098 0.012539 0.003315 0.000047 -0.004211 0.000020
# 3 -0.007655 0.003315 0.038562 0.000302 -0.020297 0.000135
# 4 -0.000049 0.000047 0.000302 0.043619 -0.000288 0.009307
# 5 0.000939 -0.004211 -0.020297 -0.000288 0.052326 -0.000155
# 6 -0.000016 0.000020 0.000135 0.009307 -0.000155 -0.022543
#
#
# Mechanical properties :
#
#
# Convention : Reuss Voigt Hill
#
# Bulk Modulus (GPa) = 22.33229 43.23047 32.78138
# Shear Modulus (GPa) = 29.26428 12.89889 21.08158
#
# Velocity S-wave (km/s) = 3.98872 2.64814 3.38544
# Velocity P-wave (km/s) = 5.77532 5.73174 5.75357
#
# Compressibility (1/GPa) = 0.04477821
#
# Stress axis : x y z
#
# Youngs Moduli (GPa) = 79.66642 79.75395 25.93211
#
# Poissons Ratio (x) = 0.40660 0.19850
# Poissons Ratio (y) = 0.40615 -0.08598
# Poissons Ratio (z) = 0.60983 -0.26442
#
# Static dielectric constant tensor:
#      x y z
#    x 3.207050 -0.000110 0.404270 
#    y -0.000110 3.434820 0.000180 
#    z 0.404270 0.000180 3.232330 
# 
# 
# High freq. dielectric constant tensor:
#      x y z
#    x 1.691480 -0.000010 0.043870 
#    y -0.000010 1.723170 0.000020 
#    z 0.043870 0.000020 1.680520 
# 
# From -- ./inp_files/48640.got.cif
#   From: 2010.06.25/outbox.cif.g09.slc.cpg/sg12_25_cif.got.tgz:48640.got - 2010.06.28 00:19:55.
