data_PCOD8083868
_publ_section_title
;
Structure prediction by ZEFSAII (Michael W. Deem and Ramdas Pophale) SiO2 
 PCOD8083868
Probable space group: C 2/M
;
_chemical_formula_sum "Si O2"
_cell_formula_units_Z 44
_cell_length_a 11.639465
_cell_length_b 22.498234
_cell_length_c 10.063298
_cell_angle_alpha 90.000000
_cell_angle_beta 66.990185
_cell_angle_gamma 90.000000
_cell_volume 2425.583767
_symmetry_space_group_name_H-M "C 2/M"
_symmetry_group_IT_number 12
_symmetry_cell_setting 'monoclinic'
loop_
_space_group_symop_operation_xyz
x,y,z
-x,y,-z
-x,-y,-z
x,-y,z
1/2+x,1/2+y,z
1/2-x,1/2+y,-z
1/2-x,1/2-y,-z
1/2+x,1/2-y,z
loop_
_atom_site_type_symbol
_atom_site_label
_atom_site_fract_x
_atom_site_fract_y
_atom_site_fract_z
Si Si1 0.194279 0.139819 0.918849
Si Si2 0.811059 0.570092 0.343139
Si Si3 0.019660 0.645920 0.135866
Si Si4 0.000000 0.758959 0.000000
Si Si5 0.122506 0.067396 0.202277
Si Si6 0.657922 0.567276 0.671194
O O1 0.339304 0.144040 0.880879
O O2 0.176932 0.111052 0.783959
O O3 0.126852 0.203508 0.951487
O O4 0.127735 0.101879 0.062091
O O5 0.841806 0.500000 0.316748
O O6 0.717176 0.592180 0.270139
O O7 0.751252 0.585030 0.511703
O O8 0.935834 0.609787 0.278611
O O9 0.984055 0.715944 0.136972
O O10 0.000000 0.614490 0.000000
O O11 0.982432 0.072787 0.322239
O O12 0.158277 0.000000 0.153748
O O13 0.683863 0.500000 0.707596
#
# Coordination Sequence:
#
# PCOD8083868 Si02
#       6
#     8   8   8   4   8   8
#     4  12  20  37  63  85 111 150 188 241 285 324
#     4  10  21  38  58  84 122 155 179 228 290 342
#     4  10  23  38  58  84 111 145 198 231 276 344
#     4  10  22  40  60  84 110 146 194 246 278 320
#     4  10  18  33  59  88 116 151 192 227 274 342
#     4  10  21  35  57  91 121 147 185 230 285 340
#
# _framework density 18.139963000000002
#
# number of rings (size 3 to 8) (size 9 to 14) (size 15 to 20)
#    0.545    1.091    3.636    1.636    0.000    6.182 
#    0.000    2.727    0.000    0.000    0.000    0.000 
#    0.000    0.000    0.000    0.000    0.000    0.000 
#
# Total GULP energy -272735.928912 kJ/mol
# GULP energy per Si atom -12397.087678 kJ/mol
# Density = 1.809868 g / cm^3
# Si number density = 18.139963 Si / 1000 Ang^3
#
#
#
# Elastic Constant Matrix: (Units=GPa)
#
#
# Indices 1 2 3 4 5 6 
#
# 1 113.5284 40.5172 39.4676 0.0000 -18.7402 0.0000
# 2 40.5172 89.6897 56.5853 0.0000 -11.4217 0.0000
# 3 39.4676 56.5853 108.6753 0.0000 -13.2266 0.0000
# 4 0.0000 0.0000 0.0000 15.9047 0.0000 -11.3017
# 5 -18.7402 -11.4217 -13.2266 0.0000 31.7233 0.0000
# 6 0.0000 0.0000 0.0000 -11.3017 0.0000 24.7105
#
#
#
# Elastic Compliance Matrix: (Units=1/GPa)
#
#
# Indices 1 2 3 4 5 6 
#
# 1 0.011444 -0.003434 -0.001786 0.000000 0.004779 0.000000
# 2 -0.003434 0.017825 -0.007901 0.000000 0.001095 0.000000
# 3 -0.001786 -0.007901 0.014211 0.000000 0.002025 0.000000
# 4 0.000000 0.000000 0.000000 0.093147 0.000000 0.042602
# 5 0.004779 0.001095 0.002025 0.000000 0.035584 0.000000
# 6 0.000000 0.000000 0.000000 0.042602 0.000000 0.059953
#
#
# Mechanical properties :
#
#
# Convention : Reuss Voigt Hill
#
# Bulk Modulus (GPa) = 58.01417 65.00374 61.50896
# Shear Modulus (GPa) = 18.92846 26.15591 22.54219
#
# Velocity S-wave (km/s) = 3.23378 3.80135 3.52899
# Velocity P-wave (km/s) = 6.78188 7.42828 7.11243
#
# Compressibility (1/GPa) = 0.01723717
#
# Stress axis : x y z
#
# Youngs Moduli (GPa) = 87.38292 56.10133 70.36971
#
# Poissons Ratio (x) = 0.19266 0.12570
# Poissons Ratio (y) = 0.30009 0.55597
# Poissons Ratio (z) = 0.15609 0.44324
#
# Static dielectric constant tensor:
#      x y z
#    x 3.412830 0.000000 -0.030550 
#    y 0.000000 3.277520 0.000000 
#    z -0.030550 0.000000 3.275810 
# 
# 
# High freq. dielectric constant tensor:
#      x y z
#    x 1.714720 0.000000 -0.004990 
#    y 0.000000 1.691550 0.000000 
#    z -0.004990 0.000000 1.692630 
# 
# From -- ./inp_files/51186.got.cif
#   From: 2010.06.25/outbox.cif.g09.slc.cpg/sg12_26_cif.got.tgz:51186.got - 2010.06.28 00:19:55.
