data_PCOD8083124
_publ_section_title
;
Structure prediction by ZEFSAII (Michael W. Deem and Ramdas Pophale) SiO2 
 PCOD8083124
Probable space group: C 2/M
;
_chemical_formula_sum "Si O2"
_cell_formula_units_Z 56
_cell_length_a 19.272700
_cell_length_b 8.898949
_cell_length_c 24.269330
_cell_angle_alpha 90.000000
_cell_angle_beta 47.788610
_cell_angle_gamma 90.000000
_cell_volume 3082.935475
_symmetry_space_group_name_H-M "C 2/M"
_symmetry_group_IT_number 12
_symmetry_cell_setting 'monoclinic'
loop_
_space_group_symop_operation_xyz
x,y,z
-x,y,-z
-x,-y,-z
x,-y,z
1/2+x,1/2+y,z
1/2-x,1/2+y,-z
1/2-x,1/2-y,-z
1/2+x,1/2-y,z
loop_
_atom_site_type_symbol
_atom_site_label
_atom_site_fract_x
_atom_site_fract_y
_atom_site_fract_z
Si Si1 0.889890 0.823788 0.405970
Si Si2 0.047234 0.328378 0.807698
Si Si3 0.700017 0.176289 0.445987
Si Si4 0.735853 0.673233 0.316629
Si Si5 0.570950 0.179219 0.915174
Si Si6 0.236802 0.326006 0.202103
Si Si7 0.042904 0.324950 0.252672
O O1 0.803931 0.782533 0.411658
O O2 0.876655 0.743081 0.471612
O O3 0.985927 0.765287 0.328921
O O4 0.896451 0.000000 0.412974
O O5 0.018129 0.500000 0.828817
O O6 0.153858 0.307596 0.732220
O O7 0.033341 0.257390 0.876179
O O8 0.981723 0.257048 0.794984
O O9 0.682559 0.249941 0.395816
O O10 0.684612 0.000000 0.449295
O O11 0.706400 0.500000 0.328563
O O12 0.705971 0.753114 0.276202
O O13 0.672922 0.247016 0.872838
O O14 0.581932 0.000000 0.907843
O O15 0.500000 0.233783 0.000000
O O16 0.259010 0.500000 0.200468
O O17 0.152915 0.302777 0.203618
O O18 0.013465 0.500000 0.272020
#
# Coordination Sequence:
#
# PCOD8083124 Si02
#       7
#     8   8   8   8   8   8   8
#     4  10  20  31  48  75 105 137 174 220 264 304
#     4   8  15  29  52  76  97 131 173 209 248 302
#     4  10  19  31  49  75 105 136 175 221 266 308
#     4  10  18  32  54  75 100 136 178 221 259 306
#     4   9  18  35  58  81 104 134 173 214 254 303
#     4  10  21  34  52  77 107 138 169 212 264 313
#     4  10  19  34  52  73 104 140 175 213 261 313
#
# _framework density 18.164505999999999
#
# number of rings (size 3 to 8) (size 9 to 14) (size 15 to 20)
#    0.000    2.429    1.429    2.571    0.000    2.571 
#    0.000    1.429    0.000    4.286    0.000    0.000 
#    0.000    0.000    0.000    0.000    0.000    0.000 
#
# Total GULP energy -347173.835387 kJ/mol
# GULP energy per Si atom -12399.065550 kJ/mol
# Density = 1.812316 g / cm^3
# Si number density = 18.164506 Si / 1000 Ang^3
#
#
#
# Elastic Constant Matrix: (Units=GPa)
#
#
# Indices 1 2 3 4 5 6 
#
# 1 91.8605 30.0710 44.7348 -0.0001 6.3683 -0.0004
# 2 30.0710 63.3938 38.5990 -0.0003 5.2568 -0.0011
# 3 44.7348 38.5990 127.0135 0.0000 13.3538 0.0000
# 4 -0.0001 -0.0003 0.0000 26.8627 0.0001 -0.6385
# 5 6.3683 5.2568 13.3538 0.0001 20.4188 0.0000
# 6 -0.0004 -0.0011 0.0000 -0.6385 0.0000 22.3119
#
#
#
# Elastic Compliance Matrix: (Units=1/GPa)
#
#
# Indices 1 2 3 4 5 6 
#
# 1 0.014132 -0.004485 -0.003514 0.000000 -0.000955 0.000000
# 2 -0.004485 0.020807 -0.004647 0.000000 -0.000919 0.000001
# 3 -0.003514 -0.004647 0.011041 0.000000 -0.004929 0.000000
# 4 0.000000 0.000000 0.000000 0.037252 0.000000 0.001066
# 5 -0.000955 -0.000919 -0.004929 0.000000 0.052732 0.000000
# 6 0.000000 0.000001 0.000000 0.001066 0.000000 0.044850
#
#
# Mechanical properties :
#
#
# Convention : Reuss Voigt Hill
#
# Bulk Modulus (GPa) = 48.33547 56.56414 52.44980
# Shear Modulus (GPa) = 23.47403 25.17623 24.32513
#
# Velocity S-wave (km/s) = 3.59876 3.72696 3.66342
# Velocity P-wave (km/s) = 6.62840 7.05179 6.84337
#
# Compressibility (1/GPa) = 0.02068874
#
# Stress axis : x y z
#
# Youngs Moduli (GPa) = 70.76347 48.05966 90.56934
#
# Poissons Ratio (x) = 0.21553 0.31826
# Poissons Ratio (y) = 0.31735 0.42089
# Poissons Ratio (z) = 0.24866 0.22334
#
# Static dielectric constant tensor:
#      x y z
#    x 3.338710 0.000000 0.242220 
#    y 0.000000 3.256320 0.000000 
#    z 0.242220 0.000000 3.290330 
# 
# 
# High freq. dielectric constant tensor:
#      x y z
#    x 1.692350 0.000000 0.016530 
#    y 0.000000 1.697130 0.000000 
#    z 0.016530 0.000000 1.692880 
# 
# From -- ./inp_files/280216.got.cif
#   From: 2010.06.25/outbox.cif.g09.slc.cpg/sg12_141_cif.got.tgz:280216.got - 2010.06.28 00:19:55.
