data_PCOD8083308
_publ_section_title
;
Structure prediction by ZEFSAII (Michael W. Deem and Ramdas Pophale) SiO2 
 PCOD8083308
Probable space group: C 2/M
;
_chemical_formula_sum "Si O2"
_cell_formula_units_Z 64
_cell_length_a 18.928630
_cell_length_b 13.698012
_cell_length_c 14.715111
_cell_angle_alpha 90.000000
_cell_angle_beta 67.248015
_cell_angle_gamma 90.000000
_cell_volume 3518.516020
_symmetry_space_group_name_H-M "C 2/M"
_symmetry_group_IT_number 12
_symmetry_cell_setting 'monoclinic'
loop_
_space_group_symop_operation_xyz
x,y,z
-x,y,-z
-x,-y,-z
x,-y,z
1/2+x,1/2+y,z
1/2-x,1/2+y,-z
1/2-x,1/2-y,-z
1/2+x,1/2-y,z
loop_
_atom_site_type_symbol
_atom_site_label
_atom_site_fract_x
_atom_site_fract_y
_atom_site_fract_z
Si Si1 0.445086 0.386090 0.149449
Si Si2 0.176820 0.885506 0.444352
Si Si3 0.648437 0.110015 0.900176
Si Si4 0.100711 0.200546 0.005459
Si Si5 0.412909 0.701616 0.354900
Si Si6 0.567679 0.613505 0.335810
Si Si7 0.315714 0.388482 0.881597
Si Si8 0.150317 0.389022 0.688057
O O1 0.464765 0.500000 0.140546
O O2 0.389011 0.360326 0.093429
O O3 0.406384 0.356381 0.263208
O O4 0.523353 0.326732 0.096288
O O5 0.157984 0.831740 0.547702
O O6 0.116820 0.851490 0.397338
O O7 0.261829 0.857465 0.370468
O O8 0.169514 0.000000 0.463362
O O9 0.597396 0.184096 0.984581
O O10 0.737073 0.137658 0.870938
O O11 0.629589 0.121765 0.803920
O O12 0.630453 0.000000 0.942181
O O13 0.172593 0.177256 0.034597
O O14 0.491759 0.679081 0.367903
O O15 0.405173 0.817580 0.340972
O O16 0.543883 0.500000 0.356796
O O17 0.615565 0.631549 0.221499
O O18 0.316198 0.500000 0.913465
O O19 0.136221 0.500000 0.661978
#
# Coordination Sequence:
#
# PCOD8083308 Si02
#       8
#     8   8   8   8   8   8   8   8
#     4  11  22  34  51  78 114 141 170 216 281 346
#     4  10  20  36  60  86 114 142 179 230 280 330
#     4  10  20  36  55  76 104 145 194 233 263 315
#     4  11  20  34  51  77 106 147 179 217 274 330
#     4  12  21  34  56  88 114 142 180 226 280 327
#     4  10  19  33  56  86 115 141 176 227 284 333
#     4  10  18  32  56  78 105 144 183 224 277 332
#     4  10  21  39  57  79 111 151 190 224 268 326
#
# _framework density 18.189485999999999
#
# number of rings (size 3 to 8) (size 9 to 14) (size 15 to 20)
#    0.000    1.500    3.750    3.750    0.000    1.000 
#    0.000    1.875    0.000    1.500    0.000    0.000 
#    0.000    0.000    0.000    0.000    0.000    0.000 
#
# Total GULP energy -396844.162446 kJ/mol
# GULP energy per Si atom -12401.380076 kJ/mol
# Density = 1.814809 g / cm^3
# Si number density = 18.189486 Si / 1000 Ang^3
#
#
#
# Elastic Constant Matrix: (Units=GPa)
#
#
# Indices 1 2 3 4 5 6 
#
# 1 63.2911 47.0639 17.5605 0.0000 7.1392 0.0000
# 2 47.0639 116.6941 45.1871 0.0000 -4.7453 0.0000
# 3 17.5605 45.1871 87.0087 0.0000 6.8623 0.0000
# 4 0.0000 0.0000 0.0000 27.4335 0.0000 1.8622
# 5 7.1392 -4.7453 6.8623 0.0000 19.6907 0.0000
# 6 0.0000 0.0000 0.0000 1.8622 0.0000 28.6919
#
#
#
# Elastic Compliance Matrix: (Units=1/GPa)
#
#
# Indices 1 2 3 4 5 6 
#
# 1 0.025145 -0.011347 0.001802 0.000000 -0.012479 0.000000
# 2 -0.011347 0.016278 -0.006990 0.000000 0.010473 0.000000
# 3 0.001802 -0.006990 0.015366 0.000000 -0.007693 0.000000
# 4 0.000000 0.000000 0.000000 0.036613 0.000000 -0.002376
# 5 -0.012479 0.010473 -0.007693 0.000000 0.060515 0.000000
# 6 0.000000 0.000000 0.000000 -0.002376 0.000000 0.035007
#
#
# Mechanical properties :
#
#
# Convention : Reuss Voigt Hill
#
# Bulk Modulus (GPa) = 42.15715 54.06855 48.11285
# Shear Modulus (GPa) = 21.74855 25.64203 23.69529
#
# Velocity S-wave (km/s) = 3.46159 3.75869 3.61320
# Velocity P-wave (km/s) = 6.26129 6.97329 6.62686
#
# Compressibility (1/GPa) = 0.02372077
#
# Stress axis : x y z
#
# Youngs Moduli (GPa) = 39.76920 61.43216 65.07762
#
# Poissons Ratio (x) = 0.69704 -0.11727
# Poissons Ratio (y) = 0.45124 0.45488
# Poissons Ratio (z) = -0.07167 0.42940
#
# Static dielectric constant tensor:
#      x y z
#    x 3.313020 0.000000 0.125000 
#    y 0.000000 3.351670 0.000000 
#    z 0.125000 0.000000 3.435320 
# 
# 
# High freq. dielectric constant tensor:
#      x y z
#    x 1.695090 0.000000 0.007760 
#    y 0.000000 1.691990 0.000000 
#    z 0.007760 0.000000 1.709140 
# 
# From -- ./inp_files/232471.got.cif
#   From: 2010.06.25/outbox.cif.g09.slc.cpg/sg12_117_cif.got.tgz:232471.got - 2010.06.28 00:19:55.
