data_PCOD8083136
_publ_section_title
;
Structure prediction by ZEFSAII (Michael W. Deem and Ramdas Pophale) SiO2 
 PCOD8083136
Probable space group: C 2/M
;
_chemical_formula_sum "Si O2"
_cell_formula_units_Z 64
_cell_length_a 24.961282
_cell_length_b 9.126577
_cell_length_c 23.720796
_cell_angle_alpha 90.000000
_cell_angle_beta 134.421986
_cell_angle_gamma 90.000000
_cell_volume 3859.459029
_symmetry_space_group_name_H-M "C 2/M"
_symmetry_group_IT_number 12
_symmetry_cell_setting 'monoclinic'
loop_
_space_group_symop_operation_xyz
x,y,z
-x,y,-z
-x,-y,-z
x,-y,z
1/2+x,1/2+y,z
1/2-x,1/2+y,-z
1/2-x,1/2-y,-z
1/2+x,1/2-y,z
loop_
_atom_site_type_symbol
_atom_site_label
_atom_site_fract_x
_atom_site_fract_y
_atom_site_fract_z
Si Si1 0.837457 0.831278 0.348509
Si Si2 0.041373 0.830920 0.653138
Si Si3 0.681832 0.171736 0.179272
Si Si4 0.227092 0.328509 0.090395
Si Si5 0.030291 0.172458 0.084080
Si Si6 0.917937 0.672783 0.085452
Si Si7 0.936742 0.334576 0.500731
Si Si8 0.110206 0.828004 0.822374
O O1 0.885626 0.784022 0.329208
O O2 0.750716 0.800239 0.272137
O O3 0.861616 0.741453 0.421780
O O4 0.851972 0.000000 0.372948
O O5 0.057626 0.797381 0.730126
O O6 0.967523 0.742132 0.579909
O O7 0.023376 0.000000 0.629825
O O8 0.702478 0.235721 0.132742
O O9 0.613198 0.263945 0.153018
O O10 0.660587 0.000000 0.160347
O O11 0.238498 0.500000 0.107813
O O12 0.306574 0.263931 0.128618
O O13 0.165016 0.289485 0.998303
O O14 0.978438 0.250965 0.090944
O O15 0.030688 0.000000 0.095859
O O16 0.000000 0.211415 0.000000
O O17 0.932895 0.500000 0.096891
O O18 0.926038 0.737693 0.153618
O O19 0.916542 0.500000 0.501153
O O20 0.000000 0.321148 0.500000
O O21 0.113057 0.000000 0.839630
#
# Coordination Sequence:
#
# PCOD8083136 Si02
#       8
#     8   8   8   8   8   8   8   8
#     4   9  16  28  48  72  97 128 167 202 239 295
#     4   9  16  28  47  69  96 133 168 198 238 292
#     4  10  18  32  54  76  98 130 169 208 249 296
#     4   9  17  31  51  73  99 131 167 204 248 296
#     4  11  23  37  52  72  97 128 168 214 259 297
#     4  11  22  35  52  72  97 133 173 211 250 297
#     4   9  17  27  41  65 100 134 161 198 244 289
#     4  10  19  33  51  73 103 134 167 208 249 294
#
# _framework density 16.582636000000001
#
# number of rings (size 3 to 8) (size 9 to 14) (size 15 to 20)
#    0.000    2.250    2.500    1.500    0.000    3.000 
#    0.000    1.250    0.000    0.000    0.000    0.875 
#    0.000    0.000    0.000    0.000    0.000    0.000 
#
# Total GULP energy -396838.973662 kJ/mol
# GULP energy per Si atom -12401.217927 kJ/mol
# Density = 1.654489 g / cm^3
# Si number density = 16.582636 Si / 1000 Ang^3
#
#
#
# Elastic Constant Matrix: (Units=GPa)
#
#
# Indices 1 2 3 4 5 6 
#
# 1 92.3106 48.6739 50.0030 0.0000 -6.6264 0.0000
# 2 48.6739 82.4410 66.6817 0.0000 -0.5362 -0.0001
# 3 50.0030 66.6817 118.7487 0.0000 -2.5510 0.0000
# 4 0.0000 0.0000 0.0000 24.4964 0.0000 1.2146
# 5 -6.6264 -0.5362 -2.5510 0.0000 15.7741 0.0000
# 6 0.0000 -0.0001 0.0000 1.2146 0.0000 15.5002
#
#
#
# Elastic Compliance Matrix: (Units=1/GPa)
#
#
# Indices 1 2 3 4 5 6 
#
# 1 0.016789 -0.007811 -0.002546 0.000000 0.006375 0.000000
# 2 -0.007811 0.025883 -0.011336 0.000000 -0.004235 0.000000
# 3 -0.002546 -0.011336 0.015883 0.000000 0.001114 0.000000
# 4 0.000000 0.000000 0.000000 0.040982 0.000000 -0.003211
# 5 0.006375 -0.004235 0.001114 0.000000 0.066109 0.000000
# 6 0.000000 0.000000 0.000000 -0.003211 0.000000 0.064767
#
#
# Mechanical properties :
#
#
# Convention : Reuss Voigt Hill
#
# Bulk Modulus (GPa) = 65.92989 69.35751 67.64370
# Shear Modulus (GPa) = 17.93040 19.69691 18.81365
#
# Velocity S-wave (km/s) = 3.29184 3.45019 3.37195
# Velocity P-wave (km/s) = 7.36838 7.60184 7.48602
#
# Compressibility (1/GPa) = 0.01516763
#
# Stress axis : x y z
#
# Youngs Moduli (GPa) = 59.56436 38.63471 62.96062
#
# Poissons Ratio (x) = 0.30179 0.16030
# Poissons Ratio (y) = 0.46527 0.71374
# Poissons Ratio (z) = 0.15166 0.43797
#
# Static dielectric constant tensor:
#      x y z
#    x 2.873940 0.000000 0.032160 
#    y 0.000000 3.030180 0.000000 
#    z 0.032160 0.000000 3.179670 
# 
# 
# High freq. dielectric constant tensor:
#      x y z
#    x 1.604650 0.000000 0.001820 
#    y 0.000000 1.631400 0.000000 
#    z 0.001820 0.000000 1.644040 
# 
# From -- ./inp_files/323772.got.cif
#   From: 2010.06.25/outbox.cif.g09.slc.cpg/sg12_162_cif.got.tgz:323772.got - 2010.06.28 00:19:55.
