data_PCOD8083413
_publ_section_title
;
Structure prediction by ZEFSAII (Michael W. Deem and Ramdas Pophale) SiO2 
 PCOD8083413
Probable space group: C 2/M
;
_chemical_formula_sum "Si O2"
_cell_formula_units_Z 64
_cell_length_a 30.432006
_cell_length_b 9.357319
_cell_length_c 11.816749
_cell_angle_alpha 90.000000
_cell_angle_beta 88.690351
_cell_angle_gamma 90.000000
_cell_volume 3364.081923
_symmetry_space_group_name_H-M "C 2/M"
_symmetry_group_IT_number 12
_symmetry_cell_setting 'monoclinic'
loop_
_space_group_symop_operation_xyz
x,y,z
-x,y,-z
-x,-y,-z
x,-y,z
1/2+x,1/2+y,z
1/2-x,1/2+y,-z
1/2-x,1/2-y,-z
1/2+x,1/2-y,z
loop_
_atom_site_type_symbol
_atom_site_label
_atom_site_fract_x
_atom_site_fract_y
_atom_site_fract_z
Si Si1 0.458892 0.666766 0.706406
Si Si2 0.174491 0.666176 0.492401
Si Si3 0.879055 0.667690 0.093187
Si Si4 0.927228 0.336291 0.503330
Si Si5 0.041576 0.334796 0.747709
Si Si6 0.206138 0.165715 0.282218
Si Si7 0.304740 0.166148 0.261544
Si Si8 0.125306 0.834084 0.137134
O O1 0.467952 0.500000 0.691308
O O2 0.456416 0.737435 0.582597
O O3 0.498958 0.737766 0.772682
O O4 0.414330 0.698288 0.775740
O O5 0.187188 0.500000 0.484843
O O6 0.123616 0.692033 0.468653
O O7 0.203162 0.749083 0.399026
O O8 0.186133 0.731496 0.614806
O O9 0.873476 0.500000 0.071473
O O10 0.923419 0.702152 0.157987
O O11 0.837444 0.731441 0.165602
O O12 0.882068 0.744801 0.974256
O O13 0.940016 0.500000 0.527758
O O14 0.936823 0.296145 0.373627
O O15 0.027580 0.500000 0.753796
O O16 0.254460 0.192874 0.226962
O O17 0.170373 0.218292 0.193434
O O18 0.198511 0.000000 0.311687
O O19 0.316690 0.000000 0.270306
O O20 0.127705 0.000000 0.104694
#
# Coordination Sequence:
#
# PCOD8083413 Si02
#       8
#     8   8   8   8   8   8   8   8
#     4  11  23  38  56  81 115 149 183 221 270 332
#     4  10  18  32  57  86 114 143 180 225 273 325
#     4  10  21  39  61  82 105 141 190 236 274 321
#     4  10  19  34  58  84 113 145 178 224 277 326
#     4  10  21  38  59  84 112 141 180 229 281 327
#     4  10  20  36  57  81 115 152 182 218 272 332
#     4   9  18  35  59  85 112 144 181 226 278 325
#     4  10  23  40  54  76 112 150 184 226 277 323
#
# _framework density 19.024507
#
# number of rings (size 3 to 8) (size 9 to 14) (size 15 to 20)
#    0.000    2.000    2.500    1.125    0.000    5.000 
#    0.000    3.750    0.000    0.000    0.000    0.000 
#    0.000    0.000    0.000    0.000    0.000    0.000 
#
# Total GULP energy -396901.223359 kJ/mol
# GULP energy per Si atom -12403.163230 kJ/mol
# Density = 1.898121 g / cm^3
# Si number density = 19.024507 Si / 1000 Ang^3
#
#
#
# Elastic Constant Matrix: (Units=GPa)
#
#
# Indices 1 2 3 4 5 6 
#
# 1 96.1670 43.7711 33.5159 0.0000 15.3386 0.0000
# 2 43.7711 60.5886 49.0509 0.0000 5.8511 0.0000
# 3 33.5159 49.0509 108.9098 0.0000 20.1070 0.0000
# 4 0.0000 0.0000 0.0000 24.9116 0.0000 -0.8010
# 5 15.3386 5.8511 20.1070 0.0000 17.1283 0.0000
# 6 0.0000 0.0000 0.0000 -0.8010 0.0000 25.0015
#
#
#
# Elastic Compliance Matrix: (Units=1/GPa)
#
#
# Indices 1 2 3 4 5 6 
#
# 1 0.018393 -0.015045 0.004095 0.000000 -0.016139 0.000000
# 2 -0.015045 0.038809 -0.016455 0.000000 0.019532 0.000000
# 3 0.004095 -0.016455 0.019115 0.000000 -0.020485 0.000000
# 4 0.000000 0.000000 0.000000 0.040183 0.000000 0.001287
# 5 -0.016139 0.019532 -0.020485 0.000000 0.090211 0.000000
# 6 0.000000 0.000000 0.000000 0.001287 0.000000 0.040039
#
#
# Mechanical properties :
#
#
# Convention : Reuss Voigt Hill
#
# Bulk Modulus (GPa) = 46.49465 57.59349 52.04407
# Shear Modulus (GPa) = 16.19548 22.69676 19.44612
#
# Velocity S-wave (km/s) = 2.92086 3.45777 3.20059
# Velocity P-wave (km/s) = 5.98896 6.80298 6.40891
#
# Compressibility (1/GPa) = 0.02150785
#
# Stress axis : x y z
#
# Youngs Moduli (GPa) = 54.36780 25.76741 52.31601
#
# Poissons Ratio (x) = 0.38766 -0.21424
# Poissons Ratio (y) = 0.81794 0.86085
# Poissons Ratio (z) = -0.22264 0.42400
#
# Static dielectric constant tensor:
#      x y z
#    x 3.665320 0.000000 0.028210 
#    y 0.000000 3.275110 0.000000 
#    z 0.028210 0.000000 3.366660 
# 
# 
# High freq. dielectric constant tensor:
#      x y z
#    x 1.756430 0.000000 0.003350 
#    y 0.000000 1.717120 0.000000 
#    z 0.003350 0.000000 1.734890 
# 
# From -- ./inp_files/187434.got.cif
#   From: 2010.06.25/outbox.cif.g09.slc.cpg/sg12_94_cif.got.tgz:187434.got - 2010.06.28 00:19:55.
