data_PCOD8083411
_publ_section_title
;
Structure prediction by ZEFSAII (Michael W. Deem and Ramdas Pophale) SiO2 
 PCOD8083411
Probable space group: C 2/M
;
_chemical_formula_sum "Si O2"
_cell_formula_units_Z 64
_cell_length_a 15.483676
_cell_length_b 8.709138
_cell_length_c 33.050583
_cell_angle_alpha 90.000000
_cell_angle_beta 134.161107
_cell_angle_gamma 90.000000
_cell_volume 3197.274087
_symmetry_space_group_name_H-M "C 2/M"
_symmetry_group_IT_number 12
_symmetry_cell_setting 'monoclinic'
loop_
_space_group_symop_operation_xyz
x,y,z
-x,y,-z
-x,-y,-z
x,-y,z
1/2+x,1/2+y,z
1/2-x,1/2+y,-z
1/2-x,1/2-y,-z
1/2+x,1/2-y,z
loop_
_atom_site_type_symbol
_atom_site_label
_atom_site_fract_x
_atom_site_fract_y
_atom_site_fract_z
Si Si1 0.720761 0.318221 0.374856
Si Si2 0.030913 0.680609 0.690234
Si Si3 0.663678 0.181660 0.504815
Si Si4 0.426123 0.182039 0.385350
Si Si5 0.779928 0.821280 0.189616
Si Si6 0.495158 0.179991 0.886621
Si Si7 0.401950 0.679718 0.001034
Si Si8 0.171959 0.820689 0.886799
O O1 0.706959 0.500000 0.371868
O O2 0.589079 0.247209 0.328871
O O3 0.794144 0.257329 0.437815
O O4 0.796623 0.264417 0.360263
O O5 0.017049 0.500000 0.683301
O O6 0.050911 0.751422 0.651810
O O7 0.144585 0.722525 0.754361
O O8 0.750000 0.250000 0.500000
O O9 0.528656 0.237656 0.450320
O O10 0.671558 0.000000 0.505877
O O11 0.428973 0.000000 0.383406
O O12 0.641675 0.770805 0.149378
O O13 0.825501 0.780901 0.159676
O O14 0.797765 0.000000 0.205032
O O15 0.576039 0.224726 0.951303
O O16 0.542571 0.271339 0.862612
O O17 0.506306 0.000000 0.882181
O O18 0.410144 0.500000 0.013656
O O19 0.500000 0.730207 0.000000
O O20 0.270874 0.720226 0.942010
O O21 0.197381 0.000000 0.902323
#
# Coordination Sequence:
#
# PCOD8083411 Si02
#       8
#     8   8   8   8   8   8   8   8
#     4  10  20  36  60  85 113 154 195 233 284 350
#     4  11  23  39  60  84 115 150 191 248 294 338
#     4  10  18  32  57  85 116 150 188 233 285 346
#     4   9  19  36  57  84 116 151 191 232 284 347
#     4  10  24  44  63  83 115 157 200 243 290 352
#     4  11  23  41  64  91 123 158 197 243 296 352
#     4  11  22  37  62  94 126 159 197 242 291 351
#     4  11  23  41  64  90 121 158 198 243 296 352
#
# _framework density 20.017050000000001
#
# number of rings (size 3 to 8) (size 9 to 14) (size 15 to 20)
#    0.000    1.625    2.500    2.250    0.000    5.000 
#    0.000    5.625    0.000    1.500    0.000    0.000 
#    0.000    0.000    0.000    0.000    0.000    0.000 
#
# Total GULP energy -396891.439345 kJ/mol
# GULP energy per Si atom -12402.857480 kJ/mol
# Density = 1.997149 g / cm^3
# Si number density = 20.017050 Si / 1000 Ang^3
#
#
#
# Elastic Constant Matrix: (Units=GPa)
#
#
# Indices 1 2 3 4 5 6 
#
# 1 135.2177 24.8184 27.0673 0.0000 -5.1824 0.0000
# 2 24.8184 32.8797 15.0685 0.0000 0.6135 0.0000
# 3 27.0673 15.0685 81.0048 0.0000 0.9519 0.0000
# 4 0.0000 0.0000 0.0000 28.4878 0.0000 0.5359
# 5 -5.1824 0.6135 0.9519 0.0000 18.6236 0.0000
# 6 0.0000 0.0000 0.0000 0.5359 0.0000 31.2974
#
#
#
# Elastic Compliance Matrix: (Units=1/GPa)
#
#
# Indices 1 2 3 4 5 6 
#
# 1 0.008980 -0.005947 -0.001927 0.000000 0.002793 0.000000
# 2 -0.005947 0.037198 -0.004902 0.000000 -0.002630 0.000000
# 3 -0.001927 -0.004902 0.013913 0.000000 -0.001086 0.000000
# 4 0.000000 0.000000 0.000000 0.035114 0.000000 -0.000601
# 5 0.002793 -0.002630 -0.001086 0.000000 0.054615 0.000000
# 6 0.000000 0.000000 0.000000 -0.000601 0.000000 0.031962
#
#
# Mechanical properties :
#
#
# Convention : Reuss Voigt Hill
#
# Bulk Modulus (GPa) = 28.95191 42.55675 35.75433
# Shear Modulus (GPa) = 22.84700 27.82496 25.33598
#
# Velocity S-wave (km/s) = 3.38209 3.73240 3.56156
# Velocity P-wave (km/s) = 5.45403 6.31513 5.90031
#
# Compressibility (1/GPa) = 0.03454003
#
# Stress axis : x y z
#
# Youngs Moduli (GPa) = 111.36025 26.88293 71.87301
#
# Poissons Ratio (x) = 0.15988 0.13851
# Poissons Ratio (y) = 0.66228 0.35229
# Poissons Ratio (z) = 0.21460 0.13177
#
# Static dielectric constant tensor:
#      x y z
#    x 3.946630 0.000000 -0.065200 
#    y 0.000000 3.420540 0.000000 
#    z -0.065200 0.000000 3.652670 
# 
# 
# High freq. dielectric constant tensor:
#      x y z
#    x 1.800330 0.000000 -0.000800 
#    y 0.000000 1.764510 0.000000 
#    z -0.000800 0.000000 1.776970 
# 
# From -- ./inp_files/375540.got.cif
#   From: 2010.06.25/outbox.cif.g09.slc.cpg/sg12_188_cif.got.tgz:375540.got - 2010.06.28 00:19:55.
