data_PCOD8083749
_publ_section_title
;
Structure prediction by ZEFSAII (Michael W. Deem and Ramdas Pophale) SiO2 
 PCOD8083749
Probable space group: C 2/M
;
_chemical_formula_sum "Si O2"
_cell_formula_units_Z 56
_cell_length_a 23.617964
_cell_length_b 9.264395
_cell_length_c 15.782231
_cell_angle_alpha 90.000000
_cell_angle_beta 56.669883
_cell_angle_gamma 90.000000
_cell_volume 2885.254105
_symmetry_space_group_name_H-M "C 2/M"
_symmetry_group_IT_number 12
_symmetry_cell_setting 'monoclinic'
loop_
_space_group_symop_operation_xyz
x,y,z
-x,y,-z
-x,-y,-z
x,-y,z
1/2+x,1/2+y,z
1/2-x,1/2+y,-z
1/2-x,1/2-y,-z
1/2+x,1/2-y,z
loop_
_atom_site_type_symbol
_atom_site_label
_atom_site_fract_x
_atom_site_fract_y
_atom_site_fract_z
Si Si1 0.576700 0.836120 0.465989
Si Si2 0.435938 0.333304 0.356099
Si Si3 0.934994 0.329444 0.822027
Si Si4 0.663970 0.170481 0.239464
Si Si5 0.801970 0.169897 0.199427
Si Si6 0.571949 0.830440 0.978265
Si Si7 0.793712 0.835883 0.396837
O O1 0.500000 0.834406 0.500000
O O2 0.588371 0.733235 0.535640
O O3 0.621049 0.768458 0.353611
O O4 0.598905 0.000000 0.471029
O O5 0.455913 0.500000 0.352588
O O6 0.499153 0.248252 0.267105
O O7 0.373996 0.314708 0.342457
O O8 0.947659 0.500000 0.802988
O O9 0.869231 0.278158 0.821920
O O10 0.922466 0.283110 0.928663
O O11 0.742354 0.219168 0.183434
O O12 0.659224 0.000000 0.249029
O O13 0.870140 0.252331 0.121713
O O14 0.777399 0.212332 0.314156
O O15 0.816734 0.000000 0.181409
O O16 0.582146 0.000000 0.958678
O O17 0.500000 0.780537 0.000000
O O18 0.750000 0.750000 0.500000
O O19 0.772378 0.000000 0.428585
#
# Coordination Sequence:
#
# PCOD8083749 Si02
#       7
#     8   8   8   8   8   8   8
#     4  10  18  33  57  80 108 152 195 220 260 328
#     4  11  22  34  52  83 117 143 179 233 288 328
#     4  10  20  37  58  79 107 145 188 228 270 332
#     4   9  18  34  56  82 108 142 189 229 264 322
#     4  10  21  38  59  81 111 146 182 228 278 328
#     4  10  22  39  59  83 109 140 183 233 280 329
#     4  10  22  38  56  81 112 148 186 228 276 332
#
# _framework density 19.409034999999999
#
# number of rings (size 3 to 8) (size 9 to 14) (size 15 to 20)
#    0.000    2.000    1.429    2.143    0.000    4.571 
#    0.000    1.429    0.000    0.000    0.000    0.000 
#    0.000    0.000    0.000    0.000    0.000    0.000 
#
# Total GULP energy -347217.547567 kJ/mol
# GULP energy per Si atom -12400.626699 kJ/mol
# Density = 1.936486 g / cm^3
# Si number density = 19.409035 Si / 1000 Ang^3
#
#
#
# Elastic Constant Matrix: (Units=GPa)
#
#
# Indices 1 2 3 4 5 6 
#
# 1 136.2517 38.8004 70.5854 0.0000 4.9616 0.0000
# 2 38.8004 47.6531 44.6003 0.0000 4.0315 0.0000
# 3 70.5854 44.6003 122.2697 0.0000 2.2794 0.0000
# 4 0.0000 0.0000 0.0000 28.8557 0.0000 -1.4147
# 5 4.9616 4.0315 2.2794 0.0000 35.3302 0.0000
# 6 0.0000 0.0000 0.0000 -1.4147 0.0000 11.5529
#
#
#
# Elastic Compliance Matrix: (Units=1/GPa)
#
#
# Indices 1 2 3 4 5 6 
#
# 1 0.011121 -0.004550 -0.004746 0.000000 -0.000736 0.000000
# 2 -0.004550 0.034022 -0.009735 0.000000 -0.002615 0.000000
# 3 -0.004746 -0.009735 0.014454 0.000000 0.000845 0.000000
# 4 0.000000 0.000000 0.000000 0.034864 0.000000 0.004269
# 5 -0.000736 -0.002615 0.000845 0.000000 0.028652 0.000000
# 6 0.000000 0.000000 0.000000 0.004269 0.000000 0.087081
#
#
# Mechanical properties :
#
#
# Convention : Reuss Voigt Hill
#
# Bulk Modulus (GPa) = 46.43781 68.23853 57.33817
# Shear Modulus (GPa) = 19.57446 25.29367 22.43407
#
# Velocity S-wave (km/s) = 3.17917 3.61389 3.40348
# Velocity P-wave (km/s) = 6.11997 7.25590 6.71201
#
# Compressibility (1/GPa) = 0.02153418
#
# Stress axis : x y z
#
# Youngs Moduli (GPa) = 89.92122 29.39261 69.18528
#
# Poissons Ratio (x) = 0.13374 0.32839
# Poissons Ratio (y) = 0.40916 0.67350
# Poissons Ratio (z) = 0.42681 0.28613
#
# Static dielectric constant tensor:
#      x y z
#    x 3.915010 0.000000 0.228490 
#    y 0.000000 3.352930 0.000000 
#    z 0.228490 0.000000 3.547780 
# 
# 
# High freq. dielectric constant tensor:
#      x y z
#    x 1.774850 0.000000 0.004930 
#    y 0.000000 1.731040 0.000000 
#    z 0.004930 0.000000 1.755310 
# 
# From -- ./inp_files/238270.got.cif
#   From: 2010.06.25/outbox.cif.g09.slc.cpg/sg12_120_cif.got.tgz:238270.got - 2010.06.28 00:19:55.
