data_PCOD8083806
_publ_section_title
;
Structure prediction by ZEFSAII (Michael W. Deem and Ramdas Pophale) SiO2 
 PCOD8083806
Probable space group: C 2/M
;
_chemical_formula_sum "Si O2"
_cell_formula_units_Z 48
_cell_length_a 23.127325
_cell_length_b 9.240892
_cell_length_c 22.158908
_cell_angle_alpha 90.000000
_cell_angle_beta 31.132793
_cell_angle_gamma 90.000000
_cell_volume 2448.486923
_symmetry_space_group_name_H-M "C 2/M"
_symmetry_group_IT_number 12
_symmetry_cell_setting 'monoclinic'
loop_
_space_group_symop_operation_xyz
x,y,z
-x,y,-z
-x,-y,-z
x,-y,z
1/2+x,1/2+y,z
1/2-x,1/2+y,-z
1/2-x,1/2-y,-z
1/2+x,1/2-y,z
loop_
_atom_site_type_symbol
_atom_site_label
_atom_site_fract_x
_atom_site_fract_y
_atom_site_fract_z
Si Si1 0.216151 0.828440 0.683684
Si Si2 0.826822 0.666393 0.032097
Si Si3 0.631754 0.337476 0.886822
Si Si4 0.533793 0.828548 0.536690
Si Si5 0.490531 0.329664 0.207925
Si Si6 0.426759 0.664388 0.738718
O O1 0.180178 0.772441 0.781574
O O2 0.341326 0.772822 0.558302
O O3 0.127984 0.771713 0.712345
O O4 0.213840 0.000000 0.686363
O O5 0.864897 0.500000 0.998706
O O6 0.830778 0.727841 0.095723
O O7 0.699250 0.683827 0.124250
O O8 0.906873 0.753088 0.916416
O O9 0.678388 0.500000 0.857898
O O10 0.500000 0.344357 0.000000
O O11 0.500000 0.774817 0.500000
O O12 0.449183 0.764945 0.661326
O O13 0.524896 0.000000 0.548082
O O14 0.505198 0.500000 0.182709
O O15 0.492869 0.293678 0.277011
O O16 0.448196 0.500000 0.699008
#
# Coordination Sequence:
#
# PCOD8083806 Si02
#       6
#     8   8   8   8   8   8
#     4   9  18  34  57  84 109 139 186 233 270 322
#     4  11  22  35  53  83 118 146 181 232 282 325
#     4  10  18  33  58  83 107 145 187 221 270 331
#     4  10  21  38  60  83 109 142 183 232 278 328
#     4  10  20  38  59  79 109 149 189 228 274 332
#     4  10  23  39  56  80 112 150 187 227 277 330
#
# _framework density 19.603945
#
# number of rings (size 3 to 8) (size 9 to 14) (size 15 to 20)
#    0.000    2.000    1.667    2.000    0.000    4.667 
#    0.000    1.667    0.000    0.000    0.000    0.000 
#    0.000    0.000    0.000    0.000    0.000    0.000 
#
# Total GULP energy -297607.504900 kJ/mol
# GULP energy per Si atom -12400.312704 kJ/mol
# Density = 1.955933 g / cm^3
# Si number density = 19.603945 Si / 1000 Ang^3
#
#
#
# Elastic Constant Matrix: (Units=GPa)
#
#
# Indices 1 2 3 4 5 6 
#
# 1 129.5881 43.3734 44.8984 -0.0001 0.4766 0.0001
# 2 43.3734 50.4584 28.1418 0.0010 1.1269 -0.0004
# 3 44.8984 28.1418 89.9619 -0.0005 -3.5991 0.0002
# 4 -0.0001 0.0010 -0.0005 26.2712 0.0002 -0.0424
# 5 0.4766 1.1269 -3.5991 0.0002 26.8201 -0.0001
# 6 0.0001 -0.0004 0.0002 -0.0424 -0.0001 22.1871
#
#
#
# Elastic Compliance Matrix: (Units=1/GPa)
#
#
# Indices 1 2 3 4 5 6 
#
# 1 0.011559 -0.008122 -0.003240 0.000000 -0.000299 0.000000
# 2 -0.008122 0.029824 -0.005349 -0.000001 -0.001827 0.000001
# 3 -0.003240 -0.005349 0.014495 0.000000 0.002228 0.000000
# 4 0.000000 -0.000001 0.000000 0.038065 0.000000 0.000073
# 5 -0.000299 -0.001827 0.002228 0.000000 0.037666 0.000000
# 6 0.000000 0.000001 0.000000 0.000073 0.000000 0.045071
#
#
# Mechanical properties :
#
#
# Convention : Reuss Voigt Hill
#
# Bulk Modulus (GPa) = 44.53186 55.87064 50.20125
# Shear Modulus (GPa) = 22.97916 25.29533 24.13725
#
# Velocity S-wave (km/s) = 3.42741 3.59600 3.51272
# Velocity P-wave (km/s) = 6.19903 6.76780 6.48965
#
# Compressibility (1/GPa) = 0.02245583
#
# Stress axis : x y z
#
# Youngs Moduli (GPa) = 86.51302 33.52998 68.98818
#
# Poissons Ratio (x) = 0.27234 0.22353
# Poissons Ratio (y) = 0.70268 0.36901
# Poissons Ratio (z) = 0.28031 0.17935
#
# Static dielectric constant tensor:
#      x y z
#    x 8.846730 0.000020 -1.512070 
#    y 0.000020 3.347890 -0.000010 
#    z -1.512070 -0.000010 3.946600 
# 
# 
# High freq. dielectric constant tensor:
#      x y z
#    x 1.776420 0.000000 -0.006810 
#    y 0.000000 1.736410 0.000000 
#    z -0.006810 0.000000 1.764250 
# 
# From -- ./inp_files/172910.got.cif
#   From: 2010.06.25/outbox.cif.g09.slc.cpg/sg12_87_cif.got.tgz:172910.got - 2010.06.28 00:19:55.
