data_PCOD8083964
_publ_section_title
;
Structure prediction by ZEFSAII (Michael W. Deem and Ramdas Pophale) SiO2 
 PCOD8083964
Probable space group: C 2/M
;
_chemical_formula_sum "Si O2"
_cell_formula_units_Z 56
_cell_length_a 21.202302
_cell_length_b 19.036485
_cell_length_c 9.137406
_cell_angle_alpha 90.000000
_cell_angle_beta 51.777021
_cell_angle_gamma 90.000000
_cell_volume 2897.337219
_symmetry_space_group_name_H-M "C 2/M"
_symmetry_group_IT_number 12
_symmetry_cell_setting 'monoclinic'
loop_
_space_group_symop_operation_xyz
x,y,z
-x,y,-z
-x,-y,-z
x,-y,z
1/2+x,1/2+y,z
1/2-x,1/2+y,-z
1/2-x,1/2-y,-z
1/2+x,1/2-y,z
loop_
_atom_site_type_symbol
_atom_site_label
_atom_site_fract_x
_atom_site_fract_y
_atom_site_fract_z
Si Si1 0.346935 0.579867 0.934332
Si Si2 0.727611 0.853683 0.548110
Si Si3 0.234004 0.162858 0.183250
Si Si4 0.360052 0.793152 0.762903
Si Si5 0.317743 0.922291 0.659599
Si Si6 0.547446 0.708412 0.149240
Si Si7 0.120941 0.223987 0.737749
O O1 0.377970 0.500000 0.889176
O O2 0.321457 0.602711 0.807609
O O3 0.419898 0.629254 0.880014
O O4 0.270517 0.590231 0.148275
O O5 0.733873 0.869396 0.711313
O O6 0.690098 0.916914 0.505911
O O7 0.816158 0.839889 0.354875
O O8 0.666818 0.790208 0.606165
O O9 0.184237 0.235526 0.276630
O O10 0.306937 0.181999 0.974675
O O11 0.377989 0.862578 0.639045
O O12 0.437269 0.756976 0.729080
O O13 0.350793 0.000000 0.651278
O O14 0.452425 0.704454 0.263668
O O15 0.591134 0.741050 0.944356
#
# Coordination Sequence:
#
# PCOD8083964 Si02
#       7
#     8   8   8   8   8   8   8
#     4   9  18  34  53  78 111 147 177 207 252 322
#     4  11  19  34  50  81 107 137 168 228 269 307
#     4   9  17  28  54  76 100 139 181 214 259 300
#     4   9  16  32  51  75 100 136 180 223 253 306
#     4  10  20  33  53  79 110 143 177 213 266 324
#     4  10  18  34  53  81 104 139 180 220 257 317
#     4  10  20  30  54  79 107 133 175 220 271 308
#
# _framework density 19.328091000000001
#
# number of rings (size 3 to 8) (size 9 to 14) (size 15 to 20)
#    0.000    2.286    2.857    2.571    0.000    0.571 
#    0.000    8.571    0.000    2.571    0.000    2.000 
#    0.000    0.000    0.000    0.000    0.000    0.000 
#
# Total GULP energy -346989.717417 kJ/mol
# GULP energy per Si atom -12392.489908 kJ/mol
# Density = 1.928410 g / cm^3
# Si number density = 19.328091 Si / 1000 Ang^3
#
#
#
# Elastic Constant Matrix: (Units=GPa)
#
#
# Indices 1 2 3 4 5 6 
#
# 1 104.8550 57.9960 25.6109 0.0000 14.5860 0.0000
# 2 57.9960 114.0612 18.0706 0.0000 11.2897 0.0000
# 3 25.6109 18.0706 39.1210 0.0000 11.3986 0.0000
# 4 0.0000 0.0000 0.0000 12.7110 0.0000 7.7658
# 5 14.5860 11.2897 11.3986 0.0000 36.9045 0.0000
# 6 0.0000 0.0000 0.0000 7.7658 0.0000 21.2812
#
#
#
# Elastic Compliance Matrix: (Units=1/GPa)
#
#
# Indices 1 2 3 4 5 6 
#
# 1 0.014854 -0.006373 -0.006196 0.000000 -0.002008 0.000000
# 2 -0.006373 0.012291 -0.001257 0.000000 -0.000853 0.000000
# 3 -0.006196 -0.001257 0.032278 0.000000 -0.007136 0.000000
# 4 0.000000 0.000000 0.000000 0.101244 0.000000 -0.036946
# 5 -0.002008 -0.000853 -0.007136 0.000000 0.030356 0.000000
# 6 0.000000 0.000000 0.000000 -0.036946 0.000000 0.060472
#
#
# Mechanical properties :
#
#
# Convention : Reuss Voigt Hill
#
# Bulk Modulus (GPa) = 31.47402 51.26580 41.36991
# Shear Modulus (GPa) = 17.25706 24.60331 20.93018
#
# Velocity S-wave (km/s) = 2.99130 3.57169 3.29430
# Velocity P-wave (km/s) = 5.31507 6.60233 5.99336
#
# Compressibility (1/GPa) = 0.03177224
#
# Stress axis : x y z
#
# Youngs Moduli (GPa) = 67.32036 81.36018 30.98099
#
# Poissons Ratio (x) = 0.51847 0.19196
# Poissons Ratio (y) = 0.42900 0.03894
# Poissons Ratio (z) = 0.41711 0.10227
#
# Static dielectric constant tensor:
#      x y z
#    x 3.561790 0.000000 0.205230 
#    y 0.000000 3.392940 0.000000 
#    z 0.205230 0.000000 3.310880 
# 
# 
# High freq. dielectric constant tensor:
#      x y z
#    x 1.750960 0.000000 0.023920 
#    y 0.000000 1.727400 0.000000 
#    z 0.023920 0.000000 1.734800 
# 
# From -- ./inp_files/89515.got.cif
#   From: 2010.06.25/outbox.cif.g09.slc.cpg/sg12_45_cif.got.tgz:89515.got - 2010.06.28 00:19:55.
