data_PCOD8083892
_publ_section_title
;
Structure prediction by ZEFSAII (Michael W. Deem and Ramdas Pophale) SiO2 
 PCOD8083892
Probable space group: C 2/M
;
_chemical_formula_sum "Si O2"
_cell_formula_units_Z 56
_cell_length_a 17.901566
_cell_length_b 18.070611
_cell_length_c 9.064354
_cell_angle_alpha 90.000000
_cell_angle_beta 107.234701
_cell_angle_gamma 90.000000
_cell_volume 2800.587536
_symmetry_space_group_name_H-M "C 2/M"
_symmetry_group_IT_number 12
_symmetry_cell_setting 'monoclinic'
loop_
_space_group_symop_operation_xyz
x,y,z
-x,y,-z
-x,-y,-z
x,-y,z
1/2+x,1/2+y,z
1/2-x,1/2+y,-z
1/2-x,1/2-y,-z
1/2+x,1/2-y,z
loop_
_atom_site_type_symbol
_atom_site_label
_atom_site_fract_x
_atom_site_fract_y
_atom_site_fract_z
Si Si1 0.057229 0.912061 0.403336
Si Si2 0.032161 0.179804 0.865472
Si Si3 0.616380 0.911746 0.227425
Si Si4 0.646498 0.914072 0.909767
Si Si5 0.714128 0.582815 0.617049
Si Si6 0.678660 0.582978 0.936820
Si Si7 0.980422 0.327275 0.317058
O O1 0.145255 0.878723 0.480455
O O2 0.000000 0.884637 0.500000
O O3 0.025530 0.883766 0.228795
O O4 0.060654 0.000000 0.402710
O O5 0.116617 0.144495 0.948690
O O6 0.033816 0.244612 0.747142
O O7 0.000000 0.211515 0.000000
O O8 0.699503 0.880982 0.341004
O O9 0.548866 0.868088 0.269251
O O10 0.607368 0.000000 0.245552
O O11 0.613251 0.893008 0.051812
O O12 0.600257 0.870743 0.756130
O O13 0.633801 0.000000 0.873829
O O14 0.737668 0.893347 0.947573
O O15 0.724934 0.500000 0.564671
O O16 0.682802 0.581327 0.764131
O O17 0.655630 0.500000 0.978337
O O18 0.000000 0.325850 0.500000
#
# Coordination Sequence:
#
# PCOD8083892 Si02
#       7
#     8   8   8   8   8   8   8
#     4  10  18  33  60  88 119 156 194 237 289 346
#     4  12  25  39  57  82 121 160 202 241 286 342
#     4   9  18  37  65  91 116 148 191 241 290 349
#     4   9  19  39  68  93 114 148 192 239 293 352
#     4   8  15  31  60  92 116 146 187 234 287 343
#     4   9  18  36  64  93 117 148 194 240 288 347
#     4  12  26  41  57  83 119 160 199 240 294 349
#
# _framework density 19.995805000000001
#
# number of rings (size 3 to 8) (size 9 to 14) (size 15 to 20)
#    0.000    2.143    1.429    4.286    0.000    4.000 
#    2.571    0.714    0.000    0.000    0.000    0.000 
#    0.000    0.000    0.000    0.000    0.000    0.000 
#
# Total GULP energy -347070.252059 kJ/mol
# GULP energy per Si atom -12395.366145 kJ/mol
# Density = 1.995029 g / cm^3
# Si number density = 19.995805 Si / 1000 Ang^3
#
#
#
# Elastic Constant Matrix: (Units=GPa)
#
#
# Indices 1 2 3 4 5 6 
#
# 1 108.4330 57.2076 57.9508 0.0000 29.8698 0.0000
# 2 57.2076 72.1241 46.5740 0.0000 9.0442 0.0000
# 3 57.9508 46.5740 121.2623 0.0000 22.8806 0.0000
# 4 0.0000 0.0000 0.0000 16.1080 0.0000 32.0687
# 5 29.8698 9.0442 22.8806 0.0000 31.0752 0.0000
# 6 0.0000 0.0000 0.0000 32.0687 0.0000 -88.8522
#
#
#
# Elastic Compliance Matrix: (Units=1/GPa)
#
#
# Indices 1 2 3 4 5 6 
#
# 1 0.022198 -0.014231 -0.002204 0.000000 -0.015572 0.000000
# 2 -0.014231 0.027562 -0.005635 0.000000 0.009807 0.000000
# 3 -0.002204 -0.005635 0.012490 0.000000 -0.005438 0.000000
# 4 0.000000 0.000000 0.000000 0.036124 0.000000 0.013038
# 5 -0.015572 0.009807 -0.005438 0.000000 0.048298 0.000000
# 6 0.000000 0.000000 0.000000 0.013038 0.000000 -0.006549
#
#
# Mechanical properties :
#
#
# Convention : Reuss Voigt Hill
#
# Bulk Modulus (GPa) = 55.22045 69.47602 62.34823
# Shear Modulus (GPa) = 26.27415 1.00535 13.63975
#
# Velocity S-wave (km/s) = 3.62882 0.70984 2.61460
# Velocity P-wave (km/s) = 6.72561 5.95756 6.35320
#
# Compressibility (1/GPa) = 0.01810923
#
# Stress axis : x y z
#
# Youngs Moduli (GPa) = 45.04914 36.28179 80.06101
#
# Poissons Ratio (x) = 0.51632 0.17648
# Poissons Ratio (y) = 0.64109 0.45118
# Poissons Ratio (z) = 0.09930 0.20446
#
# Static dielectric constant tensor:
#      x y z
#    x 3.822010 0.000000 0.420600 
#    y 0.000000 3.387620 0.000000 
#    z 0.420600 0.000000 3.693690 
# 
# 
# High freq. dielectric constant tensor:
#      x y z
#    x 1.783660 0.000000 0.028150 
#    y 0.000000 1.756430 0.000000 
#    z 0.028150 0.000000 1.771840 
# 
# From -- ./inp_files/75966.got.cif
#   From: 2010.06.25/outbox.cif.g09.slc.cpg/sg12_38_cif.got.tgz:75966.got - 2010.06.28 00:19:55.
