data_PCOD8083349
_publ_section_title
;
Structure prediction by ZEFSAII (Michael W. Deem and Ramdas Pophale) SiO2 
 PCOD8083349
Probable space group: C 2/M
;
_chemical_formula_sum "Si O2"
_cell_formula_units_Z 56
_cell_length_a 24.842736
_cell_length_b 19.051690
_cell_length_c 8.456457
_cell_angle_alpha 90.000000
_cell_angle_beta 43.591831
_cell_angle_gamma 90.000000
_cell_volume 2759.725615
_symmetry_space_group_name_H-M "C 2/M"
_symmetry_group_IT_number 12
_symmetry_cell_setting 'monoclinic'
loop_
_space_group_symop_operation_xyz
x,y,z
-x,y,-z
-x,-y,-z
x,-y,z
1/2+x,1/2+y,z
1/2-x,1/2+y,-z
1/2-x,1/2-y,-z
1/2+x,1/2-y,z
loop_
_atom_site_type_symbol
_atom_site_label
_atom_site_fract_x
_atom_site_fract_y
_atom_site_fract_z
Si Si1 0.153973 0.420699 0.478440
Si Si2 0.318096 0.676761 0.548189
Si Si3 0.498875 0.869764 0.325327
Si Si4 0.248118 0.300241 0.158631
Si Si5 0.845183 0.359331 0.181502
Si Si6 0.969474 0.204350 0.396080
Si Si7 0.382084 0.700035 0.092282
O O1 0.181776 0.500000 0.390880
O O2 0.200435 0.373014 0.249117
O O3 0.170807 0.401163 0.624065
O O4 0.061708 0.414017 0.648482
O O5 0.293690 0.758750 0.608377
O O6 0.236142 0.635004 0.748305
O O7 0.385089 0.668122 0.540799
O O8 0.352068 0.655081 0.305018
O O9 0.500000 0.898689 0.500000
O O10 0.469442 0.788899 0.389556
O O11 0.583919 0.888189 0.074293
O O12 0.336152 0.316612 0.026877
O O13 0.250000 0.250000 0.000000
O O14 0.870890 0.280369 0.166984
O O15 0.000000 0.177582 0.500000
O O16 0.028362 0.179938 0.132267
#
# Coordination Sequence:
#
# PCOD8083349 Si02
#       7
#     8   8   8   8   8   8   8
#     4  12  24  40  60  84 120 170 216 248 299 374
#     4  11  18  33  57  85 117 150 199 250 325 362
#     4  10  22  37  55  80 124 168 212 248 300 360
#     4  11  21  35  59  87 116 157 200 259 317 362
#     4  10  20  36  56  84 115 165 206 257 298 361
#     4  10  19  31  51  90 122 155 194 255 317 374
#     4  10  18  32  56  83 116 153 196 252 320 366
#
# _framework density 20.291874
#
# number of rings (size 3 to 8) (size 9 to 14) (size 15 to 20)
#    0.000    1.429    4.286    2.571    6.000    3.714 
#    0.000    0.000    0.000    0.000    0.000    2.000 
#    0.000    2.286    0.000    0.000    0.000    0.857 
#
# Total GULP energy -346886.990787 kJ/mol
# GULP energy per Si atom -12388.821100 kJ/mol
# Density = 2.024569 g / cm^3
# Si number density = 20.291874 Si / 1000 Ang^3
#
#
#
# Elastic Constant Matrix: (Units=GPa)
#
#
# Indices 1 2 3 4 5 6 
#
# 1 144.1169 30.6550 42.7402 0.0000 -15.3550 0.0000
# 2 30.6550 66.9129 43.3131 0.0000 -5.2441 0.0000
# 3 42.7402 43.3131 102.8368 0.0000 -3.9325 0.0000
# 4 0.0000 0.0000 0.0000 16.3868 0.0000 1.4208
# 5 -15.3550 -5.2441 -3.9325 0.0000 37.2096 0.0000
# 6 0.0000 0.0000 0.0000 1.4208 0.0000 8.7078
#
#
#
# Elastic Compliance Matrix: (Units=1/GPa)
#
#
# Indices 1 2 3 4 5 6 
#
# 1 0.008430 -0.001976 -0.002560 0.000000 0.002930 0.000000
# 2 -0.001976 0.021157 -0.008040 0.000000 0.001317 0.000000
# 3 -0.002560 -0.008040 0.014147 0.000000 -0.000694 0.000000
# 4 0.000000 0.000000 0.000000 0.061901 0.000000 -0.010100
# 5 0.002930 0.001317 -0.000694 0.000000 0.028196 0.000000
# 6 0.000000 0.000000 0.000000 -0.010100 0.000000 0.116487
#
#
# Mechanical properties :
#
#
# Convention : Reuss Voigt Hill
#
# Bulk Modulus (GPa) = 53.80592 60.80923 57.30758
# Shear Modulus (GPa) = 17.75167 25.60473 21.67820
#
# Velocity S-wave (km/s) = 2.96094 3.55607 3.27206
# Velocity P-wave (km/s) = 6.18572 6.84786 6.52519
#
# Compressibility (1/GPa) = 0.01858532
#
# Stress axis : x y z
#
# Youngs Moduli (GPa) = 118.61950 47.26519 70.68389
#
# Poissons Ratio (x) = 0.09339 0.18092
# Poissons Ratio (y) = 0.23436 0.56827
# Poissons Ratio (z) = 0.30361 0.37999
#
# Static dielectric constant tensor:
#      x y z
#    x 3.817080 0.000000 -0.179140 
#    y 0.000000 3.016610 0.000000 
#    z -0.179140 0.000000 3.878110 
# 
# 
# High freq. dielectric constant tensor:
#      x y z
#    x 1.807380 0.000000 -0.007430 
#    y 0.000000 1.700920 0.000000 
#    z -0.007430 0.000000 1.807640 
# 
# From -- ./inp_files/98071.got.cif
#   From: 2010.06.25/outbox.cif.g09.slc.cpg/sg12_50_cif.got.tgz:98071.got - 2010.06.28 00:19:55.
