data_PCOD8083799
_publ_section_title
;
Structure prediction by ZEFSAII (Michael W. Deem and Ramdas Pophale) SiO2 
 PCOD8083799
Probable space group: C 2/M
;
_chemical_formula_sum "Si O2"
_cell_formula_units_Z 64
_cell_length_a 19.613064
_cell_length_b 9.136369
_cell_length_c 24.298752
_cell_angle_alpha 90.000000
_cell_angle_beta 129.468693
_cell_angle_gamma 90.000000
_cell_volume 3361.279367
_symmetry_space_group_name_H-M "C 2/M"
_symmetry_group_IT_number 12
_symmetry_cell_setting 'monoclinic'
loop_
_space_group_symop_operation_xyz
x,y,z
-x,y,-z
-x,-y,-z
x,-y,z
1/2+x,1/2+y,z
1/2-x,1/2+y,-z
1/2-x,1/2-y,-z
1/2+x,1/2-y,z
loop_
_atom_site_type_symbol
_atom_site_label
_atom_site_fract_x
_atom_site_fract_y
_atom_site_fract_z
Si Si1 0.157513 0.826476 0.238886
Si Si2 0.956449 0.826908 0.129158
Si Si3 0.568234 0.668985 0.366054
Si Si4 0.073752 0.828886 0.494402
Si Si5 0.758122 0.828925 0.605593
Si Si6 0.424416 0.172890 0.221229
Si Si7 0.413560 0.674016 0.986332
Si Si8 0.738497 0.326571 0.169594
O O1 0.199716 0.766285 0.316596
O O2 0.211234 0.761559 0.214766
O O3 0.057469 0.774086 0.181703
O O4 0.161151 0.000000 0.240998
O O5 0.908193 0.741834 0.153158
O O6 0.948021 0.000000 0.134176
O O7 0.912408 0.775968 0.049299
O O8 0.549293 0.500000 0.341800
O O9 0.542955 0.704625 0.416165
O O10 0.671896 0.703447 0.407675
O O11 0.510149 0.766073 0.295695
O O12 0.166501 0.751426 0.550080
O O13 0.000000 0.770452 0.500000
O O14 0.089003 0.000000 0.511306
O O15 0.737103 0.000000 0.598784
O O16 0.338832 0.220689 0.211787
O O17 0.433899 0.000000 0.220526
O O18 0.417443 0.500000 0.985771
O O19 0.326186 0.735668 0.911248
O O20 0.500000 0.737518 0.000000
O O21 0.728124 0.500000 0.164660
#
# Coordination Sequence:
#
# PCOD8083799 Si02
#       8
#     8   8   8   8   8   8   8   8
#     4   9  16  30  53  80 108 136 178 234 274 303
#     4  10  18  33  58  82 107 141 185 231 271 319
#     4  10  21  40  61  79 107 145 186 225 263 318
#     4  10  23  40  57  83 118 148 172 214 274 330
#     4  10  20  35  59  84 106 142 187 230 265 306
#     4  11  23  35  52  80 115 147 175 221 280 329
#     4   9  15  27  53  83 105 137 187 235 272 312
#     4   9  18  31  48  79 114 139 178 234 278 314
#
# _framework density 19.040368999999998
#
# number of rings (size 3 to 8) (size 9 to 14) (size 15 to 20)
#    0.000    2.250    2.500    0.750    1.750    1.750 
#    0.000    0.000    0.000    2.625    0.000    0.000 
#    0.000    0.000    0.000    0.000    0.000    0.000 
#
# Total GULP energy -396746.197056 kJ/mol
# GULP energy per Si atom -12398.318658 kJ/mol
# Density = 1.899703 g / cm^3
# Si number density = 19.040369 Si / 1000 Ang^3
#
#
#
# Elastic Constant Matrix: (Units=GPa)
#
#
# Indices 1 2 3 4 5 6 
#
# 1 116.1927 29.6847 40.2854 0.0000 -16.9470 0.0000
# 2 29.6847 33.0113 24.7742 0.0000 -2.1210 0.0000
# 3 40.2854 24.7742 90.5117 0.0000 -11.6207 0.0000
# 4 0.0000 0.0000 0.0000 19.4756 0.0000 1.6577
# 5 -16.9470 -2.1210 -11.6207 0.0000 37.7876 0.0000
# 6 0.0000 0.0000 0.0000 1.6577 0.0000 17.0180
#
#
#
# Elastic Compliance Matrix: (Units=1/GPa)
#
#
# Indices 1 2 3 4 5 6 
#
# 1 0.012398 -0.008992 -0.002507 0.000000 0.004284 0.000000
# 2 -0.008992 0.044690 -0.008772 0.000000 -0.004222 0.000000
# 3 -0.002507 -0.008772 0.014948 0.000000 0.002980 0.000000
# 4 0.000000 0.000000 0.000000 0.051776 0.000000 -0.005043
# 5 0.004284 -0.004222 0.002980 0.000000 0.029065 0.000000
# 6 0.000000 0.000000 0.000000 -0.005043 0.000000 0.059253
#
#
# Mechanical properties :
#
#
# Convention : Reuss Voigt Hill
#
# Bulk Modulus (GPa) = 31.75185 47.68936 39.72061
# Shear Modulus (GPa) = 18.99924 24.52100 21.76012
#
# Velocity S-wave (km/s) = 3.16229 3.59255 3.38426
# Velocity P-wave (km/s) = 5.48139 6.50456 6.01477
#
# Compressibility (1/GPa) = 0.03149423
#
# Stress axis : x y z
#
# Youngs Moduli (GPa) = 80.66070 22.37614 66.89986
#
# Poissons Ratio (x) = 0.20120 0.16770
# Poissons Ratio (y) = 0.72528 0.58686
# Poissons Ratio (z) = 0.20220 0.19629
#
# Static dielectric constant tensor:
#      x y z
#    x 3.749020 0.000000 -0.209240 
#    y 0.000000 3.016740 0.000000 
#    z -0.209240 0.000000 3.650720 
# 
# 
# High freq. dielectric constant tensor:
#      x y z
#    x 1.751590 0.000000 -0.008930 
#    y 0.000000 1.691560 0.000000 
#    z -0.008930 0.000000 1.750800 
# 
# From -- ./inp_files/346125.got.cif
#   From: 2010.06.25/outbox.cif.g09.slc.cpg/sg12_174_cif.got.tgz:346125.got - 2010.06.28 00:19:55.
