data_PCOD8083904
_publ_section_title
;
Structure prediction by ZEFSAII (Michael W. Deem and Ramdas Pophale) SiO2 
 PCOD8083904
Probable space group: C 2/M
;
_chemical_formula_sum "Si O2"
_cell_formula_units_Z 52
_cell_length_a 14.945193
_cell_length_b 18.269380
_cell_length_c 11.534326
_cell_angle_alpha 90.000000
_cell_angle_beta 129.854859
_cell_angle_gamma 90.000000
_cell_volume 2417.643657
_symmetry_space_group_name_H-M "C 2/M"
_symmetry_group_IT_number 12
_symmetry_cell_setting 'monoclinic'
loop_
_space_group_symop_operation_xyz
x,y,z
-x,y,-z
-x,-y,-z
x,-y,z
1/2+x,1/2+y,z
1/2-x,1/2+y,-z
1/2-x,1/2-y,-z
1/2+x,1/2-y,z
loop_
_atom_site_type_symbol
_atom_site_label
_atom_site_fract_x
_atom_site_fract_y
_atom_site_fract_z
Si Si1 0.642936 0.585014 0.817829
Si Si2 0.500000 0.357185 0.500000
Si Si3 0.646283 0.914770 0.862109
Si Si4 0.213358 0.798998 0.576587
Si Si5 0.118472 0.586900 0.376781
Si Si6 0.453961 0.417043 0.833314
Si Si7 0.283298 0.845833 0.320452
O O1 0.640186 0.500000 0.837609
O O2 0.604771 0.600261 0.653642
O O3 0.549478 0.619838 0.828824
O O4 0.773718 0.611704 0.961888
O O5 0.573924 0.315572 0.462394
O O6 0.511896 0.898599 0.779397
O O7 0.690588 0.873566 0.785129
O O8 0.664711 0.000000 0.850408
O O9 0.250000 0.750000 0.500000
O O10 0.293132 0.872305 0.639930
O O11 0.225840 0.743086 0.696256
O O12 0.147343 0.500000 0.403419
O O13 0.121892 0.622335 0.508798
O O14 0.425561 0.500000 0.772570
O O15 0.336613 0.372301 0.721960
O O16 0.500000 0.412803 0.000000
#
# Coordination Sequence:
#
# PCOD8083904 Si02
#       7
#     8   4   8   8   8   8   8
#     4  10  21  38  63  96 128 164 215 271 326 385
#     4  12  25  44  66  88 121 178 220 266 326 388
#     4  10  20  36  63  98 131 162 210 273 326 381
#     4  10  25  42  64  91 130 172 219 269 318 389
#     4  10  21  38  62  92 129 172 218 262 318 391
#     4  10  18  33  60  95 134 166 207 270 326 379
#     4  11  20  35  61  93 128 172 211 265 332 388
#
# _framework density 21.508545999999999
#
# number of rings (size 3 to 8) (size 9 to 14) (size 15 to 20)
#    0.000    1.692    1.538    3.923    4.308    3.692 
#    0.000    3.077    0.000    2.769    0.000    0.000 
#    0.000    0.000    0.000    0.000    0.000    0.000 
#
# Total GULP energy -322091.856661 kJ/mol
# GULP energy per Si atom -12388.148333 kJ/mol
# Density = 2.145959 g / cm^3
# Si number density = 21.508546 Si / 1000 Ang^3
#
#
#
# Elastic Constant Matrix: (Units=GPa)
#
#
# Indices 1 2 3 4 5 6 
#
# 1 119.7053 34.9283 44.6610 0.0000 19.0952 0.0000
# 2 34.9283 86.7608 41.0809 0.0000 9.8405 0.0000
# 3 44.6610 41.0809 144.1083 0.0000 19.4915 0.0000
# 4 0.0000 0.0000 0.0000 -9.5765 0.0000 -4.9727
# 5 19.0952 9.8405 19.4915 0.0000 32.0178 0.0000
# 6 0.0000 0.0000 0.0000 -4.9727 0.0000 28.7589
#
#
#
# Elastic Compliance Matrix: (Units=1/GPa)
#
#
# Indices 1 2 3 4 5 6 
#
# 1 0.010579 -0.002884 -0.001877 0.000000 -0.004280 0.000000
# 2 -0.002884 0.014223 -0.003053 0.000000 -0.000792 0.000000
# 3 -0.001877 -0.003053 0.008841 0.000000 -0.003324 0.000000
# 4 0.000000 0.000000 0.000000 -0.095819 0.000000 -0.016568
# 5 -0.004280 -0.000792 -0.003324 0.000000 0.036052 0.000000
# 6 0.000000 0.000000 0.000000 -0.016568 0.000000 0.031907
#
#
# Mechanical properties :
#
#
# Convention : Reuss Voigt Hill
#
# Bulk Modulus (GPa) = 55.51827 65.76834 60.64331
# Shear Modulus (GPa) = 182.37149 25.56698 103.96924
#
# Velocity S-wave (km/s) = 9.21815 3.45148 6.96014
# Velocity P-wave (km/s) = 11.79692 6.82113 9.63574
#
# Compressibility (1/GPa) = 0.01801209
#
# Stress axis : x y z
#
# Youngs Moduli (GPa) = 94.53067 70.30965 113.10837
#
# Poissons Ratio (x) = 0.20280 0.21234
# Poissons Ratio (y) = 0.27267 0.34537
# Poissons Ratio (z) = 0.17747 0.21468
#
# Static dielectric constant tensor:
#      x y z
#    x 4.099840 0.000000 0.302200 
#    y 0.000000 4.176690 0.000000 
#    z 0.302200 0.000000 4.224960 
# 
# 
# High freq. dielectric constant tensor:
#      x y z
#    x 1.849270 0.000000 0.014910 
#    y 0.000000 1.830880 0.000000 
#    z 0.014910 0.000000 1.836850 
# 
# From -- ./inp_files/147744.got.cif
#   From: 2010.06.25/outbox.cif.g09.slc.cpg/sg12_74_cif.got.tgz:147744.got - 2010.06.28 00:19:55.
