data_PCOD8083478
_publ_section_title
;
Structure prediction by ZEFSAII (Michael W. Deem and Ramdas Pophale) SiO2 
 PCOD8083478
Probable space group: C 2/M
;
_chemical_formula_sum "Si O2"
_cell_formula_units_Z 48
_cell_length_a 28.396120
_cell_length_b 13.924447
_cell_length_c 9.836501
_cell_angle_alpha 90.000000
_cell_angle_beta 141.051264
_cell_angle_gamma 90.000000
_cell_volume 2444.945118
_symmetry_space_group_name_H-M "C 2/M"
_symmetry_group_IT_number 12
_symmetry_cell_setting 'monoclinic'
loop_
_space_group_symop_operation_xyz
x,y,z
-x,y,-z
-x,-y,-z
x,-y,z
1/2+x,1/2+y,z
1/2-x,1/2+y,-z
1/2-x,1/2-y,-z
1/2+x,1/2-y,z
loop_
_atom_site_type_symbol
_atom_site_label
_atom_site_fract_x
_atom_site_fract_y
_atom_site_fract_z
Si Si1 0.839215 0.397466 0.330261
Si Si2 0.426469 0.108452 0.260634
Si Si3 0.175392 0.893556 0.874372
Si Si4 0.413659 0.387402 0.836508
Si Si5 0.314776 0.291903 0.390556
Si Si6 0.645961 0.732979 0.045470
O O1 0.872365 0.500000 0.459676
O O2 0.860020 0.383658 0.219964
O O3 0.862111 0.307769 0.476991
O O4 0.750145 0.403069 0.130631
O O5 0.500000 0.148403 0.500000
O O6 0.439465 0.000000 0.237797
O O7 0.405009 0.171414 0.081085
O O8 0.191666 0.844219 0.767953
O O9 0.139558 0.000000 0.772888
O O10 0.126324 0.825993 0.862649
O O11 0.405202 0.500000 0.848745
O O12 0.361082 0.361033 0.591941
O O13 0.382828 0.328252 0.893665
O O14 0.500000 0.361155 0.000000
O O15 0.231987 0.266925 0.260637
#
# Coordination Sequence:
#
# PCOD8083478 Si02
#       6
#     8   8   8   8   8   8
#     4   9  17  32  55  87 120 143 176 234 295 348
#     4  10  20  33  55  89 122 150 183 234 299 354
#     4  10  18  32  60  93 119 142 189 247 293 349
#     4  11  27  45  59  80 120 165 204 249 301 348
#     4  11  20  38  61  91 113 154 199 244 295 350
#     4  11  21  39  62  90 116 156 202 242 295 352
#
# _framework density 19.632342999999999
#
# number of rings (size 3 to 8) (size 9 to 14) (size 15 to 20)
#    0.000    1.667    3.333    2.500    2.333    1.333 
#    0.000    0.833    0.000    5.000    0.000    0.000 
#    0.000    0.000    0.000    0.000    0.000    0.000 
#
# Total GULP energy -297426.118790 kJ/mol
# GULP energy per Si atom -12392.754950 kJ/mol
# Density = 1.958766 g / cm^3
# Si number density = 19.632343 Si / 1000 Ang^3
#
#
#
# Elastic Constant Matrix: (Units=GPa)
#
#
# Indices 1 2 3 4 5 6 
#
# 1 77.0943 28.3553 39.1362 0.0000 -5.9411 0.0000
# 2 28.3553 100.5982 39.1547 0.0000 5.9795 0.0000
# 3 39.1362 39.1547 76.8321 0.0000 4.0546 0.0000
# 4 0.0000 0.0000 0.0000 18.4644 0.0000 -13.5285
# 5 -5.9411 5.9795 4.0546 0.0000 19.8497 0.0000
# 6 0.0000 0.0000 0.0000 -13.5285 0.0000 24.5331
#
#
#
# Elastic Compliance Matrix: (Units=1/GPa)
#
#
# Indices 1 2 3 4 5 6 
#
# 1 0.018997 -0.002380 -0.008897 0.000000 0.008220 0.000000
# 2 -0.002380 0.012819 -0.005135 0.000000 -0.003525 0.000000
# 3 -0.008897 -0.005135 0.020443 0.000000 -0.005292 0.000000
# 4 0.000000 0.000000 0.000000 0.090874 0.000000 0.050112
# 5 0.008220 -0.003525 -0.005292 0.000000 0.054982 0.000000
# 6 0.000000 0.000000 0.000000 0.050112 0.000000 0.068395
#
#
# Mechanical properties :
#
#
# Convention : Reuss Voigt Hill
#
# Bulk Modulus (GPa) = 51.45210 51.97966 51.71588
# Shear Modulus (GPa) = 16.34989 22.42800 19.38895
#
# Velocity S-wave (km/s) = 2.88896 3.38361 3.14602
# Velocity P-wave (km/s) = 6.11497 6.46522 6.29253
#
# Compressibility (1/GPa) = 0.01943555
#
# Stress axis : x y z
#
# Youngs Moduli (GPa) = 52.64101 78.00674 48.91577
#
# Poissons Ratio (x) = 0.18567 0.43521
# Poissons Ratio (y) = 0.12529 0.25116
# Poissons Ratio (z) = 0.46836 0.40053
#
# Static dielectric constant tensor:
#      x y z
#    x 3.497860 0.000000 0.057640 
#    y 0.000000 4.230680 0.000000 
#    z 0.057640 0.000000 3.265760 
# 
# 
# High freq. dielectric constant tensor:
#      x y z
#    x 1.753290 0.000000 0.006600 
#    y 0.000000 1.791760 0.000000 
#    z 0.006600 0.000000 1.729290 
# 
# From -- ./inp_files/104980.got.cif
#   From: 2010.06.25/outbox.cif.g09.slc.cpg/sg12_53_cif.got.tgz:104980.got - 2010.06.28 00:19:55.
