data_PCOD8083876
_publ_section_title
;
Structure prediction by ZEFSAII (Michael W. Deem and Ramdas Pophale) SiO2 
 PCOD8083876
Probable space group: C 2/M
;
_chemical_formula_sum "Si O2"
_cell_formula_units_Z 48
_cell_length_a 24.281159
_cell_length_b 8.723449
_cell_length_c 11.655224
_cell_angle_alpha 90.000000
_cell_angle_beta 110.985486
_cell_angle_gamma 90.000000
_cell_volume 2305.006827
_symmetry_space_group_name_H-M "C 2/M"
_symmetry_group_IT_number 12
_symmetry_cell_setting 'monoclinic'
loop_
_space_group_symop_operation_xyz
x,y,z
-x,y,-z
-x,-y,-z
x,-y,z
1/2+x,1/2+y,z
1/2-x,1/2+y,-z
1/2-x,1/2-y,-z
1/2+x,1/2-y,z
loop_
_atom_site_type_symbol
_atom_site_label
_atom_site_fract_x
_atom_site_fract_y
_atom_site_fract_z
Si Si1 0.262682 0.179749 0.133349
Si Si2 0.937418 0.172117 0.012468
Si Si3 0.838564 0.320822 0.793719
Si Si4 0.980008 0.820308 0.283783
Si Si5 0.387983 0.680343 0.606745
Si Si6 0.369184 0.677713 0.336212
O O1 0.218236 0.239844 0.196287
O O2 0.328130 0.220945 0.224312
O O3 0.256228 0.000000 0.116137
O O4 0.250000 0.250000 0.000000
O O5 0.946092 0.241295 0.145827
O O6 0.909784 0.000000 0.994118
O O7 0.895305 0.285545 0.912901
O O8 0.000000 0.166000 0.000000
O O9 0.826388 0.500000 0.782700
O O10 0.848366 0.263438 0.671671
O O11 0.045447 0.749372 0.344729
O O12 0.938040 0.783505 0.360753
O O13 0.989567 0.000000 0.275660
O O14 0.389018 0.500000 0.634542
O O15 0.358318 0.714155 0.461642
O O16 0.356405 0.500000 0.299287
#
# Coordination Sequence:
#
# PCOD8083876 Si02
#       6
#     8   8   8   8   8   8
#     4  12  26  46  69  91 121 159 204 255 311 373
#     4  10  18  33  59  89 123 161 203 249 307 371
#     4  12  25  40  61  91 127 164 208 259 314 366
#     4   9  17  33  60  92 125 161 204 250 299 363
#     4  10  20  38  62  91 126 166 211 253 303 368
#     4  10  21  38  64  94 124 163 210 257 306 366
#
# _framework density 20.824234000000001
#
# number of rings (size 3 to 8) (size 9 to 14) (size 15 to 20)
#    0.000    1.500    1.667    4.500    0.000    5.000 
#    0.000    0.833    0.000    2.000    0.000    0.000 
#    0.000    0.000    0.000    0.000    0.000    0.000 
#
# Total GULP energy -297631.309872 kJ/mol
# GULP energy per Si atom -12401.304578 kJ/mol
# Density = 2.077684 g / cm^3
# Si number density = 20.824234 Si / 1000 Ang^3
#
#
#
# Elastic Constant Matrix: (Units=GPa)
#
#
# Indices 1 2 3 4 5 6 
#
# 1 107.4560 41.9360 44.6308 0.0000 -13.5118 0.0000
# 2 41.9360 109.1809 48.3070 0.0000 -6.9084 0.0000
# 3 44.6308 48.3070 109.6594 0.0000 -13.6490 0.0000
# 4 0.0000 0.0000 0.0000 37.7851 0.0000 13.9394
# 5 -13.5118 -6.9084 -13.6490 0.0000 35.1370 0.0000
# 6 0.0000 0.0000 0.0000 13.9394 0.0000 49.1535
#
#
#
# Elastic Compliance Matrix: (Units=1/GPa)
#
#
# Indices 1 2 3 4 5 6 
#
# 1 0.012216 -0.003067 -0.003269 0.000000 0.002825 0.000000
# 2 -0.003067 0.012150 -0.004154 0.000000 -0.000404 0.000000
# 3 -0.003269 -0.004154 0.012632 0.000000 0.002833 0.000000
# 4 0.000000 0.000000 0.000000 0.029558 0.000000 -0.008382
# 5 0.002825 -0.000404 0.002833 0.000000 0.030567 0.000000
# 6 0.000000 0.000000 0.000000 -0.008382 0.000000 0.022722
#
#
# Mechanical properties :
#
#
# Convention : Reuss Voigt Hill
#
# Bulk Modulus (GPa) = 62.43293 66.22710 64.33001
# Shear Modulus (GPa) = 34.20805 37.17662 35.69234
#
# Velocity S-wave (km/s) = 4.05743 4.22981 4.14452
# Velocity P-wave (km/s) = 7.21084 7.46506 7.33905
#
# Compressibility (1/GPa) = 0.01601719
#
# Stress axis : x y z
#
# Youngs Moduli (GPa) = 81.85931 82.30762 79.16199
#
# Poissons Ratio (x) = 0.25243 0.25880
# Poissons Ratio (y) = 0.25106 0.32885
# Poissons Ratio (z) = 0.26762 0.34192
#
# Static dielectric constant tensor:
#      x y z
#    x 4.043440 0.000000 0.196620 
#    y 0.000000 3.540930 0.000000 
#    z 0.196620 0.000000 4.448490 
# 
# 
# High freq. dielectric constant tensor:
#      x y z
#    x 1.824110 0.000000 -0.009310 
#    y 0.000000 1.781190 0.000000 
#    z -0.009310 0.000000 1.827310 
# 
# From -- ./inp_files/173074.got.cif
#   From: 2010.06.25/outbox.cif.g09.slc.cpg/sg12_87_cif.got.tgz:173074.got - 2010.06.28 00:19:55.
