data_PCOD8083766
_publ_section_title
;
Structure prediction by ZEFSAII (Michael W. Deem and Ramdas Pophale) SiO2 
 PCOD8083766
Probable space group: C 2/M
;
_chemical_formula_sum "Si O2"
_cell_formula_units_Z 48
_cell_length_a 25.220529
_cell_length_b 8.998053
_cell_length_c 24.161397
_cell_angle_alpha 90.000000
_cell_angle_beta 150.860166
_cell_angle_gamma 90.000000
_cell_volume 2669.947210
_symmetry_space_group_name_H-M "C 2/M"
_symmetry_group_IT_number 12
_symmetry_cell_setting 'monoclinic'
loop_
_space_group_symop_operation_xyz
x,y,z
-x,y,-z
-x,-y,-z
x,-y,z
1/2+x,1/2+y,z
1/2-x,1/2+y,-z
1/2-x,1/2-y,-z
1/2+x,1/2-y,z
loop_
_atom_site_type_symbol
_atom_site_label
_atom_site_fract_x
_atom_site_fract_y
_atom_site_fract_z
Si Si1 0.753612 0.676486 0.373301
Si Si2 0.434671 0.176356 0.622836
Si Si3 0.305781 0.174488 0.998581
Si Si4 0.162034 0.675952 0.780003
Si Si5 0.879300 0.324090 0.381251
Si Si6 0.555427 0.173822 0.243755
O O1 0.745596 0.500000 0.367202
O O2 0.834202 0.736047 0.494888
O O3 0.798815 0.734692 0.355650
O O4 0.634501 0.743655 0.273290
O O5 0.547665 0.234002 0.700132
O O6 0.423020 0.235824 0.674670
O O7 0.437465 0.000000 0.624206
O O8 0.259178 0.240135 0.899341
O O9 0.283711 0.000000 0.982285
O O10 0.250000 0.250000 0.000000
O O11 0.433194 0.211001 0.114659
O O12 0.175335 0.500000 0.800661
O O13 0.168613 0.722359 0.721767
O O14 0.889277 0.500000 0.394775
O O15 0.000000 0.255780 0.500000
O O16 0.579647 0.000000 0.263192
#
# Coordination Sequence:
#
# PCOD8083766 Si02
#       6
#     8   8   8   8   8   8
#     4  10  19  32  54  83 108 137 180 221 260 316
#     4   9  16  30  53  79 108 137 170 215 268 319
#     4  11  22  37  57  79 106 141 182 223 266 318
#     4  10  18  33  57  83 109 138 175 223 269 314
#     4   9  16  30  56  83 107 139 179 220 266 315
#     4  10  21  36  51  73 109 147 174 210 272 328
#
# _framework density 17.977884
#
# number of rings (size 3 to 8) (size 9 to 14) (size 15 to 20)
#    0.000    2.167    3.333    1.000    0.000    1.333 
#    0.000    2.500    0.000    6.000    0.000    0.000 
#    0.000    0.000    0.000    0.000    0.000    0.000 
#
# Total GULP energy -297618.286486 kJ/mol
# GULP energy per Si atom -12400.761937 kJ/mol
# Density = 1.793697 g / cm^3
# Si number density = 17.977884 Si / 1000 Ang^3
#
#
#
# Elastic Constant Matrix: (Units=GPa)
#
#
# Indices 1 2 3 4 5 6 
#
# 1 166.8504 40.2016 86.0841 0.0000 3.7947 0.0000
# 2 40.2016 37.8655 47.6233 0.0000 2.3371 0.0000
# 3 86.0841 47.6233 138.1530 0.0000 -3.6845 0.0000
# 4 0.0000 0.0000 0.0000 28.0870 0.0000 1.6054
# 5 3.7947 2.3371 -3.6845 0.0000 31.0896 0.0000
# 6 0.0000 0.0000 0.0000 1.6054 0.0000 24.3232
#
#
#
# Elastic Compliance Matrix: (Units=1/GPa)
#
#
# Indices 1 2 3 4 5 6 
#
# 1 0.009308 -0.004346 -0.004337 0.000000 -0.001323 0.000000
# 2 -0.004346 0.049582 -0.014515 0.000000 -0.004917 0.000000
# 3 -0.004337 -0.014515 0.015035 0.000000 0.003402 0.000000
# 4 0.000000 0.000000 0.000000 0.035738 0.000000 -0.002359
# 5 -0.001323 -0.004917 0.003402 0.000000 0.033099 0.000000
# 6 0.000000 0.000000 0.000000 -0.002359 0.000000 0.041269
#
#
# Mechanical properties :
#
#
# Convention : Reuss Voigt Hill
#
# Bulk Modulus (GPa) = 36.32468 76.74299 56.53384
# Shear Modulus (GPa) = 20.86771 27.96396 24.41583
#
# Velocity S-wave (km/s) = 3.41066 3.94822 3.68924
# Velocity P-wave (km/s) = 5.97990 7.97274 7.04712
#
# Compressibility (1/GPa) = 0.02752949
#
# Stress axis : x y z
#
# Youngs Moduli (GPa) = 107.42972 20.16861 66.51094
#
# Poissons Ratio (x) = 0.08765 0.28848
# Poissons Ratio (y) = 0.46689 0.96539
# Poissons Ratio (z) = 0.46596 0.29274
#
# Static dielectric constant tensor:
#      x y z
#    x 3.489370 0.000000 -0.100470 
#    y 0.000000 2.940020 0.000000 
#    z -0.100470 0.000000 3.428080 
# 
# 
# High freq. dielectric constant tensor:
#      x y z
#    x 1.701500 0.000000 -0.002710 
#    y 0.000000 1.657990 0.000000 
#    z -0.002710 0.000000 1.699880 
# 
# From -- ./inp_files/172057.got.cif
#   From: 2010.06.25/outbox.cif.g09.slc.cpg/sg12_87_cif.got.tgz:172057.got - 2010.06.28 00:19:55.
