data_PCOD8083348
_publ_section_title
;
Structure prediction by ZEFSAII (Michael W. Deem and Ramdas Pophale) SiO2 
 PCOD8083348
Probable space group: C 2/M
;
_chemical_formula_sum "Si O2"
_cell_formula_units_Z 56
_cell_length_a 19.034207
_cell_length_b 8.581223
_cell_length_c 21.021913
_cell_angle_alpha 90.000000
_cell_angle_beta 121.492767
_cell_angle_gamma 90.000000
_cell_volume 2927.895616
_symmetry_space_group_name_H-M "C 2/M"
_symmetry_group_IT_number 12
_symmetry_cell_setting 'monoclinic'
loop_
_space_group_symop_operation_xyz
x,y,z
-x,y,-z
-x,-y,-z
x,-y,z
1/2+x,1/2+y,z
1/2-x,1/2+y,-z
1/2-x,1/2-y,-z
1/2+x,1/2-y,z
loop_
_atom_site_type_symbol
_atom_site_label
_atom_site_fract_x
_atom_site_fract_y
_atom_site_fract_z
Si Si1 0.466521 0.320323 0.415689
Si Si2 0.750119 0.681539 0.857419
Si Si3 0.119417 0.678889 0.438034
Si Si4 0.799399 0.677988 0.294782
Si Si5 0.415377 0.315440 0.993383
Si Si6 0.332896 0.815243 0.069558
Si Si7 0.236967 0.178645 0.400884
O O1 0.500000 0.266724 0.500000
O O2 0.439317 0.500000 0.401916
O O3 0.539796 0.289147 0.400704
O O4 0.391626 0.212896 0.359709
O O5 0.757629 0.500000 0.876114
O O6 0.731212 0.708013 0.774729
O O7 0.837297 0.760349 0.915330
O O8 0.672017 0.751926 0.860321
O O9 0.091934 0.500000 0.428462
O O10 0.165707 0.710443 0.393693
O O11 0.176922 0.725429 0.525109
O O12 0.794099 0.500000 0.268606
O O13 0.740549 0.705879 0.327345
O O14 0.414417 0.500000 0.997293
O O15 0.500000 0.256841 0.000000
O O16 0.409202 0.247712 0.062881
O O17 0.335233 0.000000 0.070879
O O18 0.250000 0.750000 0.000000
O O19 0.216731 0.000000 0.408570
#
# Coordination Sequence:
#
# PCOD8083348 Si02
#       7
#     8   8   8   8   8   8   8
#     4  11  22  35  54  80 109 141 183 233 280 331
#     4  11  22  37  57  83 116 150 187 228 278 336
#     4  10  19  33  54  78 104 137 181 230 279 333
#     4  11  22  38  58  80 111 147 187 232 284 336
#     4  10  20  36  60  89 118 149 187 229 273 323
#     4  10  18  32  56  83 113 148 187 226 267 321
#     4   9  19  34  53  77 105 140 179 227 281 334
#
# _framework density 19.126365
#
# number of rings (size 3 to 8) (size 9 to 14) (size 15 to 20)
#    0.000    1.714    1.429    6.000    0.000    3.429 
#    0.000    1.429    0.000    5.143    0.000    0.000 
#    0.000    0.000    0.000    0.000    0.000    0.000 
#
# Total GULP energy -347197.152864 kJ/mol
# GULP energy per Si atom -12399.898317 kJ/mol
# Density = 1.908283 g / cm^3
# Si number density = 19.126365 Si / 1000 Ang^3
#
#
#
# Elastic Constant Matrix: (Units=GPa)
#
#
# Indices 1 2 3 4 5 6 
#
# 1 119.3268 36.9269 33.2974 0.0000 -13.4327 0.0000
# 2 36.9269 81.6981 16.9222 0.0000 -9.6547 0.0000
# 3 33.2974 16.9222 71.2353 0.0000 -16.2352 0.0000
# 4 0.0000 0.0000 0.0000 28.6922 0.0000 -3.7879
# 5 -13.4327 -9.6547 -16.2352 0.0000 24.9391 0.0000
# 6 0.0000 0.0000 0.0000 -3.7879 0.0000 29.9512
#
#
#
# Elastic Compliance Matrix: (Units=1/GPa)
#
#
# Indices 1 2 3 4 5 6 
#
# 1 0.010837 -0.003905 -0.003701 0.000000 0.001916 0.000000
# 2 -0.003905 0.014549 -0.000970 0.000000 0.002897 0.000000
# 3 -0.003701 -0.000970 0.018152 0.000000 0.009447 0.000000
# 4 0.000000 0.000000 0.000000 0.035444 0.000000 0.004483
# 5 0.001916 0.002897 0.009447 0.000000 0.048401 0.000000
# 6 0.000000 0.000000 0.000000 0.004483 0.000000 0.033955
#
#
# Mechanical properties :
#
#
# Convention : Reuss Voigt Hill
#
# Bulk Modulus (GPa) = 37.90207 49.61702 43.75954
# Shear Modulus (GPa) = 26.69699 29.05741 27.87720
#
# Velocity S-wave (km/s) = 3.74012 3.90196 3.82190
# Velocity P-wave (km/s) = 6.20573 6.80429 6.51189
#
# Compressibility (1/GPa) = 0.02638378
#
# Stress axis : x y z
#
# Youngs Moduli (GPa) = 92.27309 68.73454 55.09104
#
# Poissons Ratio (x) = 0.26843 0.20391
# Poissons Ratio (y) = 0.36036 0.05346
# Poissons Ratio (z) = 0.34153 0.06670
#
# Static dielectric constant tensor:
#      x y z
#    x 3.838030 0.000000 -0.374340 
#    y 0.000000 3.485350 0.000000 
#    z -0.374340 0.000000 3.365180 
# 
# 
# High freq. dielectric constant tensor:
#      x y z
#    x 1.750290 0.000000 -0.021290 
#    y 0.000000 1.755710 0.000000 
#    z -0.021290 0.000000 1.711760 
# 
# From -- ./inp_files/314422.got.cif
#   From: 2010.06.25/outbox.cif.g09.slc.cpg/sg12_158_cif.got.tgz:314422.got - 2010.06.28 00:19:55.
