data_PCOD8083663
_publ_section_title
;
Structure prediction by ZEFSAII (Michael W. Deem and Ramdas Pophale) SiO2 
 PCOD8083663
Probable space group: C 2/M
;
_chemical_formula_sum "Si O2"
_cell_formula_units_Z 48
_cell_length_a 17.006141
_cell_length_b 16.930324
_cell_length_c 32.170742
_cell_angle_alpha 90.000000
_cell_angle_beta 164.613264
_cell_angle_gamma 90.000000
_cell_volume 2457.668268
_symmetry_space_group_name_H-M "C 2/M"
_symmetry_group_IT_number 12
_symmetry_cell_setting 'monoclinic'
loop_
_space_group_symop_operation_xyz
x,y,z
-x,y,-z
-x,-y,-z
x,-y,z
1/2+x,1/2+y,z
1/2-x,1/2+y,-z
1/2-x,1/2-y,-z
1/2+x,1/2-y,z
loop_
_atom_site_type_symbol
_atom_site_label
_atom_site_fract_x
_atom_site_fract_y
_atom_site_fract_z
Si Si1 0.095543 0.091346 0.189608
Si Si2 0.978760 0.091635 0.535773
Si Si3 0.055396 0.590374 0.160935
Si Si4 0.751624 0.162354 0.181481
Si Si5 0.456475 0.804903 0.632975
Si Si6 0.861216 0.908589 0.156536
O O1 0.349259 0.144271 0.299675
O O2 0.109009 0.101002 0.246958
O O3 0.144131 0.000000 0.201642
O O4 0.778227 0.124677 0.011027
O O5 0.302245 0.104499 0.721388
O O6 0.000000 0.124605 0.500000
O O7 0.726128 0.137258 0.431124
O O8 0.888866 0.000000 0.490408
O O9 0.023479 0.500000 0.132191
O O10 0.287398 0.625777 0.245748
O O11 0.966477 0.121197 0.256012
O O12 0.837670 0.254087 0.230655
O O13 0.413523 0.147721 0.995644
O O14 0.250000 0.750000 0.500000
O O15 0.759442 0.000000 0.106977
#
# Coordination Sequence:
#
# PCOD8083663 Si02
#       6
#     8   8   8   8   8   8
#     4   9  20  39  61  84 113 149 193 242 282 337
#     4  10  22  42  61  77 106 154 202 240 277 336
#     4   9  17  35  62  83 106 150 198 233 277 335
#     4  10  18  33  55  87 120 148 179 230 287 342
#     4  12  24  38  54  86 122 152 186 230 297 351
#     4   9  18  36  62  91 114 145 194 238 281 340
#
# _framework density 19.530707
#
# number of rings (size 3 to 8) (size 9 to 14) (size 15 to 20)
#    0.000    2.167    1.667    3.500    0.000    4.000 
#    6.000    0.000    0.000    6.000    0.000    0.000 
#    0.000    0.000    0.000    0.000    0.000    0.000 
#
# Total GULP energy -297399.345543 kJ/mol
# GULP energy per Si atom -12391.639398 kJ/mol
# Density = 1.948625 g / cm^3
# Si number density = 19.530707 Si / 1000 Ang^3
#
#
#
# Elastic Constant Matrix: (Units=GPa)
#
#
# Indices 1 2 3 4 5 6 
#
# 1 170.0715 66.0090 61.9883 0.2420 11.3528 0.6045
# 2 66.0090 88.0145 51.3074 -0.0263 12.8250 -0.0240
# 3 61.9883 51.3074 70.1736 -0.2725 13.3659 1.4021
# 4 0.2420 -0.0263 -0.2725 20.8558 -0.1947 -24.6400
# 5 11.3528 12.8250 13.3659 -0.1947 31.7434 -0.4558
# 6 0.6045 -0.0240 1.4021 -24.6400 -0.4558 -38.6602
#
#
#
# Elastic Compliance Matrix: (Units=1/GPa)
#
#
# Indices 1 2 3 4 5 6 
#
# 1 0.009369 -0.003870 -0.005553 -0.000143 0.000550 0.000032
# 2 -0.003870 0.021523 -0.011874 -0.000381 -0.002318 -0.000234
# 3 -0.005553 -0.011874 0.028851 0.000909 -0.005353 0.000451
# 4 -0.000143 -0.000381 0.000909 0.027381 -0.000260 -0.017417
# 5 0.000550 -0.002318 -0.005353 -0.000260 0.034488 -0.000425
# 6 0.000032 -0.000234 0.000451 -0.017417 -0.000425 -0.014743
#
#
# Mechanical properties :
#
#
# Convention : Reuss Voigt Hill
#
# Bulk Modulus (GPa) = 58.30634 76.31878 67.31256
# Shear Modulus (GPa) = 32.22082 12.71813 22.46947
#
# Velocity S-wave (km/s) = 4.06612 2.55460 3.39554
# Velocity P-wave (km/s) = 7.20853 6.91827 7.06489
#
# Compressibility (1/GPa) = 0.01715079
#
# Stress axis : x y z
#
# Youngs Moduli (GPa) = 106.73303 46.46121 34.66092
#
# Poissons Ratio (x) = 0.17980 0.19247
# Poissons Ratio (y) = 0.41305 0.41155
# Poissons Ratio (z) = 0.59267 0.55166
#
# Static dielectric constant tensor:
#      x y z
#    x 4.047190 0.000370 -0.172670 
#    y 0.000370 3.547100 -0.000360 
#    z -0.172670 -0.000360 3.387860 
# 
# 
# High freq. dielectric constant tensor:
#      x y z
#    x 1.774710 0.000020 -0.003000 
#    y 0.000020 1.755070 -0.000050 
#    z -0.003000 -0.000050 1.732980 
# 
# From -- ./inp_files/278606.got.cif
#   From: 2010.06.25/outbox.cif.g09.slc.cpg/sg12_140_cif.got.tgz:278606.got - 2010.06.28 00:19:55.
