data_PCOD8083879
_publ_section_title
;
Structure prediction by ZEFSAII (Michael W. Deem and Ramdas Pophale) SiO2 
 PCOD8083879
Probable space group: C 2/M
;
_chemical_formula_sum "Si O2"
_cell_formula_units_Z 44
_cell_length_a 17.077724
_cell_length_b 17.672589
_cell_length_c 9.932853
_cell_angle_alpha 90.000000
_cell_angle_beta 49.009728
_cell_angle_gamma 90.000000
_cell_volume 2262.810194
_symmetry_space_group_name_H-M "C 2/M"
_symmetry_group_IT_number 12
_symmetry_cell_setting 'monoclinic'
loop_
_space_group_symop_operation_xyz
x,y,z
-x,y,-z
-x,-y,-z
x,-y,z
1/2+x,1/2+y,z
1/2-x,1/2+y,-z
1/2-x,1/2-y,-z
1/2+x,1/2-y,z
loop_
_atom_site_type_symbol
_atom_site_label
_atom_site_fract_x
_atom_site_fract_y
_atom_site_fract_z
Si Si1 0.653106 0.084756 0.631188
Si Si2 0.552955 0.170056 0.180272
Si Si3 0.275362 0.913913 0.146997
Si Si4 0.000000 0.232820 0.000000
Si Si5 0.317285 0.261091 0.791864
Si Si6 0.788074 0.808313 0.343855
O O1 0.561961 0.138114 0.679526
O O2 0.667897 0.094045 0.773523
O O3 0.755916 0.108763 0.433473
O O4 0.624234 0.000000 0.625257
O O5 0.566891 0.218059 0.028161
O O6 0.571643 0.224372 0.290123
O O7 0.639027 0.103466 0.065668
O O8 0.181750 0.851582 0.244522
O O9 0.232764 0.000000 0.175669
O O10 0.087299 0.186459 0.818165
O O11 0.270899 0.211268 0.725765
O O12 0.250000 0.250000 0.000000
O O13 0.750000 0.750000 0.500000
#
# Coordination Sequence:
#
# PCOD8083879 Si02
#       6
#     8   8   8   4   8   8
#     4  11  22  37  61  93 124 159 204 258 313 364
#     4  11  18  35  58  94 123 156 204 255 312 369
#     4  10  18  33  59  91 126 160 204 259 311 360
#     4  12  20  36  64  90 120 158 216 246 300 360
#     4  10  20  35  58  89 127 161 206 249 307 372
#     4  12  21  40  60  89 125 165 209 251 302 374
#
# _framework density 19.444848
#
# number of rings (size 3 to 8) (size 9 to 14) (size 15 to 20)
#    0.000    1.091    9.091    0.545    0.000    2.182 
#    0.000    5.909    0.000    1.091    0.000    3.818 
#    0.000    0.000    0.000    0.000    0.000    0.000 
#
# Total GULP energy -272603.675890 kJ/mol
# GULP energy per Si atom -12391.076177 kJ/mol
# Density = 1.940059 g / cm^3
# Si number density = 19.444848 Si / 1000 Ang^3
#
#
#
# Elastic Constant Matrix: (Units=GPa)
#
#
# Indices 1 2 3 4 5 6 
#
# 1 92.6983 57.3183 27.9116 0.0000 8.4964 0.0000
# 2 57.3183 125.7206 27.0520 0.0000 -7.5565 0.0000
# 3 27.9116 27.0520 84.9990 0.0000 -12.1920 0.0000
# 4 0.0000 0.0000 0.0000 24.0705 0.0000 0.5988
# 5 8.4964 -7.5565 -12.1920 0.0000 33.5881 0.0000
# 6 0.0000 0.0000 0.0000 0.5988 0.0000 33.2977
#
#
#
# Elastic Compliance Matrix: (Units=1/GPa)
#
#
# Indices 1 2 3 4 5 6 
#
# 1 0.017451 -0.007459 -0.004463 0.000000 -0.007712 0.000000
# 2 -0.007459 0.011759 -0.000678 0.000000 0.004286 0.000000
# 3 -0.004463 -0.000678 0.014332 0.000000 0.006179 0.000000
# 4 0.000000 0.000000 0.000000 0.041563 0.000000 -0.000747
# 5 -0.007712 0.004286 0.006179 0.000000 0.034930 0.000000
# 6 0.000000 0.000000 0.000000 -0.000747 0.000000 0.030046
#
#
# Mechanical properties :
#
#
# Convention : Reuss Voigt Hill
#
# Bulk Modulus (GPa) = 54.52108 58.66464 56.59286
# Shear Modulus (GPa) = 27.56425 30.93366 29.24895
#
# Velocity S-wave (km/s) = 3.76914 3.99286 3.88261
# Velocity P-wave (km/s) = 6.85868 7.17583 7.01905
#
# Compressibility (1/GPa) = 0.01834153
#
# Stress axis : x y z
#
# Youngs Moduli (GPa) = 57.30461 85.04469 69.77248
#
# Poissons Ratio (x) = 0.63438 0.31136
# Poissons Ratio (y) = 0.42746 0.04731
# Poissons Ratio (z) = 0.25573 0.05766
#
# Static dielectric constant tensor:
#      x y z
#    x 4.129060 0.000000 0.322200 
#    y 0.000000 3.843200 0.000000 
#    z 0.322200 0.000000 3.750880 
# 
# 
# High freq. dielectric constant tensor:
#      x y z
#    x 1.748650 0.000000 0.010760 
#    y 0.000000 1.740400 0.000000 
#    z 0.010760 0.000000 1.750570 
# 
# From -- ./inp_files/61629.got.cif
#   From: 2010.06.25/outbox.cif.g09.slc.cpg/sg12_31_cif.got.tgz:61629.got - 2010.06.28 00:19:55.
