data_PCOD8083740
_publ_section_title
;
Structure prediction by ZEFSAII (Michael W. Deem and Ramdas Pophale) SiO2 
 PCOD8083740
Probable space group: C 2/M
;
_chemical_formula_sum "Si O2"
_cell_formula_units_Z 56
_cell_length_a 20.604635
_cell_length_b 8.239641
_cell_length_c 16.320382
_cell_angle_alpha 90.000000
_cell_angle_beta 74.485934
_cell_angle_gamma 90.000000
_cell_volume 2669.835293
_symmetry_space_group_name_H-M "C 2/M"
_symmetry_group_IT_number 12
_symmetry_cell_setting 'monoclinic'
loop_
_space_group_symop_operation_xyz
x,y,z
-x,y,-z
-x,-y,-z
x,-y,z
1/2+x,1/2+y,z
1/2-x,1/2+y,-z
1/2-x,1/2-y,-z
1/2+x,1/2-y,z
loop_
_atom_site_type_symbol
_atom_site_label
_atom_site_fract_x
_atom_site_fract_y
_atom_site_fract_z
Si Si1 0.356945 0.693081 0.583666
Si Si2 0.408597 0.313304 0.801484
Si Si3 0.517508 0.814486 0.374806
Si Si4 0.715292 0.188542 0.233683
Si Si5 0.507556 0.691087 0.907019
Si Si6 0.125860 0.185455 0.597692
Si Si7 0.860284 0.193499 0.228223
O O1 0.353573 0.500000 0.596107
O O2 0.433944 0.752940 0.569140
O O3 0.308074 0.776735 0.665356
O O4 0.336507 0.750013 0.497753
O O5 0.425109 0.500000 0.775154
O O6 0.441663 0.196542 0.723793
O O7 0.327891 0.284148 0.821035
O O8 0.439204 0.268081 0.879850
O O9 0.453580 0.699534 0.389915
O O10 0.495867 0.000000 0.397521
O O11 0.793397 0.243138 0.200440
O O12 0.707619 0.000000 0.217858
O O13 0.518056 0.500000 0.911722
O O14 0.573609 0.764755 0.839535
O O15 0.500000 0.768881 0.000000
O O16 0.145120 0.270861 0.677670
O O17 0.145651 0.000000 0.599686
O O18 0.866706 0.000000 0.233238
#
# Coordination Sequence:
#
# PCOD8083740 Si02
#       7
#     8   8   8   8   8   8   8
#     4  10  20  32  49  72 102 141 183 223 258 303
#     4  10  18  33  57  79 106 139 175 218 259 309
#     4  11  20  30  48  75 107 139 177 219 265 312
#     4  10  20  34  53  75 108 146 178 213 259 315
#     4   9  17  32  59  88 105 127 173 222 259 309
#     4  10  19  33  51  72 101 140 183 221 263 307
#     4   9  18  34  54  77 106 140 175 216 265 314
#
# _framework density 20.975078
#
# number of rings (size 3 to 8) (size 9 to 14) (size 15 to 20)
#    0.000    2.143    1.429    4.714    0.000    3.429 
#    0.000    2.143    0.000    1.714    0.000    0.000 
#    0.000    0.000    0.000    0.000    0.000    0.000 
#
# Total GULP energy -346984.572054 kJ/mol
# GULP energy per Si atom -12392.306145 kJ/mol
# Density = 2.092734 g / cm^3
# Si number density = 20.975078 Si / 1000 Ang^3
#
#
#
# Elastic Constant Matrix: (Units=GPa)
#
#
# Indices 1 2 3 4 5 6 
#
# 1 132.9600 8.8237 65.9972 0.0000 16.0794 0.0000
# 2 8.8237 32.2384 4.8132 0.0000 5.4833 0.0000
# 3 65.9972 4.8132 120.5166 0.0000 31.6144 0.0000
# 4 0.0000 0.0000 0.0000 10.9382 0.0000 0.5349
# 5 16.0794 5.4833 31.6144 0.0000 24.2610 0.0000
# 6 0.0000 0.0000 0.0000 0.5349 0.0000 21.9324
#
#
#
# Elastic Compliance Matrix: (Units=1/GPa)
#
#
# Indices 1 2 3 4 5 6 
#
# 1 0.010488 -0.002209 -0.006021 0.000000 0.001394 0.000000
# 2 -0.002209 0.032796 0.002218 0.000000 -0.008839 0.000000
# 3 -0.006021 0.002218 0.016091 0.000000 -0.017480 0.000000
# 4 0.000000 0.000000 0.000000 0.091532 0.000000 -0.002232
# 5 0.001394 -0.008839 -0.017480 0.000000 0.065070 0.000000
# 6 0.000000 0.000000 0.000000 -0.002232 0.000000 0.045649
#
#
# Mechanical properties :
#
#
# Convention : Reuss Voigt Hill
#
# Bulk Modulus (GPa) = 21.11801 49.44256 35.28029
# Shear Modulus (GPa) = 17.27524 25.16504 21.22014
#
# Velocity S-wave (km/s) = 2.87297 3.46751 3.18415
# Velocity P-wave (km/s) = 4.59296 6.29720 5.51135
#
# Compressibility (1/GPa) = 0.04735295
#
# Stress axis : x y z
#
# Youngs Moduli (GPa) = 95.35155 30.49186 62.14530
#
# Poissons Ratio (x) = 0.06735 0.37415
# Poissons Ratio (y) = 0.21060 -0.13787
# Poissons Ratio (z) = 0.57407 -0.06764
#
# Static dielectric constant tensor:
#      x y z
#    x 3.943010 0.000000 0.160070 
#    y 0.000000 3.367100 0.000000 
#    z 0.160070 0.000000 3.912180 
# 
# 
# High freq. dielectric constant tensor:
#      x y z
#    x 1.821030 0.000000 0.014970 
#    y 0.000000 1.786900 0.000000 
#    z 0.014970 0.000000 1.803430 
# 
# From -- ./inp_files/280232.got.cif
#   From: 2010.06.25/outbox.cif.g09.slc.cpg/sg12_141_cif.got.tgz:280232.got - 2010.06.28 00:19:55.
