data_PCOD8083260
_publ_section_title
;
Structure prediction by ZEFSAII (Michael W. Deem and Ramdas Pophale) SiO2 
 PCOD8083260
Probable space group: C 2/M
;
_chemical_formula_sum "Si O2"
_cell_formula_units_Z 56
_cell_length_a 19.112569
_cell_length_b 18.204233
_cell_length_c 14.248017
_cell_angle_alpha 90.000000
_cell_angle_beta 147.211674
_cell_angle_gamma 90.000000
_cell_volume 2684.565212
_symmetry_space_group_name_H-M "C 2/M"
_symmetry_group_IT_number 12
_symmetry_cell_setting 'monoclinic'
loop_
_space_group_symop_operation_xyz
x,y,z
-x,y,-z
-x,-y,-z
x,-y,z
1/2+x,1/2+y,z
1/2-x,1/2+y,-z
1/2-x,1/2-y,-z
1/2+x,1/2-y,z
loop_
_atom_site_type_symbol
_atom_site_label
_atom_site_fract_x
_atom_site_fract_y
_atom_site_fract_z
Si Si1 0.702261 0.354503 0.514247
Si Si2 0.326154 0.688646 0.865244
Si Si3 0.549829 0.417750 0.856076
Si Si4 0.140672 0.641100 0.127102
Si Si5 0.392259 0.210956 0.243642
Si Si6 0.831198 0.313715 0.486057
Si Si7 0.272024 0.357018 0.092181
O O1 0.580503 0.403423 0.348602
O O2 0.761000 0.379472 0.679164
O O3 0.812410 0.363170 0.557612
O O4 0.660478 0.270429 0.472436
O O5 0.373220 0.772714 0.914567
O O6 0.196022 0.675387 0.776519
O O7 0.289692 0.666163 0.717878
O O8 0.435350 0.638081 0.038073
O O9 0.547772 0.500000 0.894690
O O10 0.668317 0.413751 0.915041
O O11 0.204882 0.603440 0.106747
O O12 0.000000 0.610851 0.000000
O O13 0.533016 0.174285 0.413594
O O14 0.387277 0.299896 0.251496
O O15 0.341118 0.191969 0.082052
#
# Coordination Sequence:
#
# PCOD8083260 Si02
#       7
#     8   8   8   8   8   8   8
#     4  10  22  32  53  85 113 154 195 230 296 342
#     4   9  21  32  55  87 115 152 189 231 300 346
#     4  11  23  41  58  79 122 161 199 231 269 361
#     4  10  20  34  59  90 121 140 182 257 302 344
#     4   9  15  30  55  84 113 142 185 249 292 338
#     4  10  18  32  55  81 118 147 183 256 294 331
#     4   9  18  32  55  84 115 149 194 232 295 341
#
# _framework density 20.859988999999999
#
# number of rings (size 3 to 8) (size 9 to 14) (size 15 to 20)
#    0.000    2.286    1.429    2.143    6.000    0.571 
#    0.000    2.857    0.000   15.429    0.000    0.000 
#    0.000    0.000    0.000    0.000    0.000    0.000 
#
# Total GULP energy -346947.031709 kJ/mol
# GULP energy per Si atom -12390.965418 kJ/mol
# Density = 2.081251 g / cm^3
# Si number density = 20.859989 Si / 1000 Ang^3
#
#
#
# Elastic Constant Matrix: (Units=GPa)
#
#
# Indices 1 2 3 4 5 6 
#
# 1 89.7348 -4.7574 17.2552 0.0000 5.9278 0.0000
# 2 -4.7574 49.2091 25.0024 0.0000 -4.6778 0.0000
# 3 17.2552 25.0024 84.9791 0.0000 1.5978 0.0000
# 4 0.0000 0.0000 0.0000 13.2580 0.0000 -1.9747
# 5 5.9278 -4.6778 1.5978 0.0000 38.4393 0.0000
# 6 0.0000 0.0000 0.0000 -1.9747 0.0000 11.0805
#
#
#
# Elastic Compliance Matrix: (Units=1/GPa)
#
#
# Indices 1 2 3 4 5 6 
#
# 1 0.011989 0.002646 -0.003187 0.000000 -0.001394 0.000000
# 2 0.002646 0.024877 -0.007912 0.000000 0.002948 0.000000
# 3 -0.003187 -0.007912 0.014763 0.000000 -0.001085 0.000000
# 4 0.000000 0.000000 0.000000 0.077483 0.000000 0.013809
# 5 -0.001394 0.002948 -0.001085 0.000000 0.026634 0.000000
# 6 0.000000 0.000000 0.000000 0.013809 0.000000 0.092710
#
#
# Mechanical properties :
#
#
# Convention : Reuss Voigt Hill
#
# Bulk Modulus (GPa) = 28.79904 33.21372 31.00638
# Shear Modulus (GPa) = 18.05466 24.98374 21.51920
#
# Velocity S-wave (km/s) = 2.94516 3.46452 3.21534
# Velocity P-wave (km/s) = 5.03995 5.65337 5.35545
#
# Compressibility (1/GPa) = 0.03472338
#
# Stress axis : x y z
#
# Youngs Moduli (GPa) = 83.40933 40.19698 67.73729
#
# Poissons Ratio (x) = -0.10634 0.21585
# Poissons Ratio (y) = -0.22066 0.53594
# Poissons Ratio (z) = 0.26579 0.31804
#
# Static dielectric constant tensor:
#      x y z
#    x 4.099620 0.000000 -0.094710 
#    y 0.000000 3.082660 0.000000 
#    z -0.094710 0.000000 3.731530 
# 
# 
# High freq. dielectric constant tensor:
#      x y z
#    x 1.838100 0.000000 -0.004520 
#    y 0.000000 1.736230 0.000000 
#    z -0.004520 0.000000 1.816590 
# 
# From -- ./inp_files/234729.got.cif
#   From: 2010.06.25/outbox.cif.g09.slc.cpg/sg12_118_cif.got.tgz:234729.got - 2010.06.28 00:19:55.
