data_PCOD8083598
_publ_section_title
;
Structure prediction by ZEFSAII (Michael W. Deem and Ramdas Pophale) SiO2 
 PCOD8083598
Probable space group: C 2/M
;
_chemical_formula_sum "Si O2"
_cell_formula_units_Z 56
_cell_length_a 14.982300
_cell_length_b 18.959577
_cell_length_c 10.995497
_cell_angle_alpha 90.000000
_cell_angle_beta 103.753444
_cell_angle_gamma 90.000000
_cell_volume 3033.806010
_symmetry_space_group_name_H-M "C 2/M"
_symmetry_group_IT_number 12
_symmetry_cell_setting 'monoclinic'
loop_
_space_group_symop_operation_xyz
x,y,z
-x,y,-z
-x,-y,-z
x,-y,z
1/2+x,1/2+y,z
1/2-x,1/2+y,-z
1/2-x,1/2-y,-z
1/2+x,1/2-y,z
loop_
_atom_site_type_symbol
_atom_site_label
_atom_site_fract_x
_atom_site_fract_y
_atom_site_fract_z
Si Si1 0.462413 0.579285 0.609046
Si Si2 0.760927 0.420368 0.219301
Si Si3 0.488897 0.771097 0.867764
Si Si4 0.805062 0.275920 0.134484
Si Si5 0.273897 0.361149 0.551162
Si Si6 0.553098 0.384593 0.133063
Si Si7 0.687923 0.782207 0.315442
O O1 0.500000 0.619891 0.500000
O O2 0.498563 0.500000 0.617154
O O3 0.352811 0.581476 0.558437
O O4 0.497549 0.608448 0.751693
O O5 0.798405 0.500000 0.205087
O O6 0.798670 0.361632 0.138008
O O7 0.791614 0.393243 0.364035
O O8 0.650713 0.422502 0.174344
O O9 0.586466 0.758157 0.834747
O O10 0.435959 0.698438 0.886953
O O11 0.412703 0.809571 0.760520
O O12 0.500000 0.812508 0.000000
O O13 0.762108 0.234064 0.234375
O O14 0.750000 0.250000 0.000000
O O15 0.323894 0.288667 0.609448
O O16 0.220258 0.347434 0.409138
O O17 0.500000 0.418818 0.000000
#
# Coordination Sequence:
#
# PCOD8083598 Si02
#       7
#     8   8   8   8   8   8   8
#     4  10  20  32  46  73 111 148 180 220 286 352
#     4  10  20  38  58  79 114 155 194 235 290 350
#     4  11  19  33  55  83 118 143 183 241 290 335
#     4  11  20  35  58  88 118 151 187 241 290 345
#     4   9  18  33  52  73 108 144 188 230 278 339
#     4  10  18  33  54  79 110 146 186 232 284 345
#     4  10  19  33  52  84 108 140 191 232 284 333
#
# _framework density 18.458660999999999
#
# number of rings (size 3 to 8) (size 9 to 14) (size 15 to 20)
#    0.000    1.857    5.714    2.571    2.000    1.143 
#    0.000    5.714    0.000    3.857    0.000    0.000 
#    0.000    0.000    0.000    0.000    0.000    0.000 
#
# Total GULP energy -346868.314381 kJ/mol
# GULP energy per Si atom -12388.154085 kJ/mol
# Density = 1.841665 g / cm^3
# Si number density = 18.458661 Si / 1000 Ang^3
#
#
#
# Elastic Constant Matrix: (Units=GPa)
#
#
# Indices 1 2 3 4 5 6 
#
# 1 83.9962 3.4772 47.1578 0.0000 5.3227 0.0000
# 2 3.4772 72.5847 27.9930 0.0000 -0.4455 0.0000
# 3 47.1578 27.9930 162.7849 0.0000 5.6119 0.0000
# 4 0.0000 0.0000 0.0000 17.3241 0.0000 -2.5661
# 5 5.3227 -0.4455 5.6119 0.0000 29.4851 0.0000
# 6 0.0000 0.0000 0.0000 -2.5661 0.0000 20.0761
#
#
#
# Elastic Compliance Matrix: (Units=1/GPa)
#
#
# Indices 1 2 3 4 5 6 
#
# 1 0.014373 0.000946 -0.004265 0.000000 -0.001768 0.000000
# 2 0.000946 0.014833 -0.002845 0.000000 0.000595 0.000000
# 3 -0.004265 -0.002845 0.007895 0.000000 -0.000776 0.000000
# 4 0.000000 0.000000 0.000000 0.058837 0.000000 0.007520
# 5 -0.001768 0.000595 -0.000776 0.000000 0.034391 0.000000
# 6 0.000000 0.000000 0.000000 0.007520 0.000000 0.050772
#
#
# Mechanical properties :
#
#
# Convention : Reuss Voigt Hill
#
# Bulk Modulus (GPa) = 40.37067 52.95797 46.66432
# Shear Modulus (GPa) = 24.79091 29.42625 27.10858
#
# Velocity S-wave (km/s) = 3.66874 3.99704 3.83640
# Velocity P-wave (km/s) = 6.31384 7.07489 6.70517
#
# Compressibility (1/GPa) = 0.02477046
#
# Stress axis : x y z
#
# Youngs Moduli (GPa) = 69.57526 67.41906 126.66695
#
# Poissons Ratio (x) = -0.06375 0.54028
# Poissons Ratio (y) = -0.06579 0.36038
# Poissons Ratio (z) = 0.29677 0.19181
#
# Static dielectric constant tensor:
#      x y z
#    x 3.216430 0.000000 -0.072560 
#    y 0.000000 3.119550 0.000000 
#    z -0.072560 0.000000 3.947040 
# 
# 
# High freq. dielectric constant tensor:
#      x y z
#    x 1.686840 0.000000 -0.007190 
#    y 0.000000 1.680590 0.000000 
#    z -0.007190 0.000000 1.733620 
# 
# From -- ./inp_files/147174.got.cif
#   From: 2010.06.25/outbox.cif.g09.slc.cpg/sg12_74_cif.got.tgz:147174.got - 2010.06.28 00:19:55.
