data_PCOD8083563
_publ_section_title
;
Structure prediction by ZEFSAII (Michael W. Deem and Ramdas Pophale) SiO2 
 PCOD8083563
Probable space group: C 2/M
;
_chemical_formula_sum "Si O2"
_cell_formula_units_Z 64
_cell_length_a 22.028319
_cell_length_b 18.145269
_cell_length_c 8.906138
_cell_angle_alpha 90.000000
_cell_angle_beta 73.192702
_cell_angle_gamma 90.000000
_cell_volume 3407.802264
_symmetry_space_group_name_H-M "C 2/M"
_symmetry_group_IT_number 12
_symmetry_cell_setting 'monoclinic'
loop_
_space_group_symop_operation_xyz
x,y,z
-x,y,-z
-x,-y,-z
x,-y,z
1/2+x,1/2+y,z
1/2-x,1/2+y,-z
1/2-x,1/2-y,-z
1/2+x,1/2-y,z
loop_
_atom_site_type_symbol
_atom_site_label
_atom_site_fract_x
_atom_site_fract_y
_atom_site_fract_z
Si Si1 0.748321 0.836996 0.725372
Si Si2 0.079773 0.673677 0.678291
Si Si3 0.458447 0.917664 0.775636
Si Si4 0.154185 0.788777 0.790273
Si Si5 0.771185 0.913707 0.396296
Si Si6 0.366998 0.916552 0.107768
Si Si7 0.820963 0.764504 0.900207
Si Si8 0.855664 0.639141 0.661437
O O1 0.717558 0.758157 0.698941
O O2 0.759163 0.889220 0.575891
O O3 0.696798 0.870531 0.880754
O O4 0.814290 0.825162 0.769556
O O5 0.091564 0.749849 0.762507
O O6 0.111903 0.604616 0.739630
O O7 0.115456 0.685309 0.496355
O O8 0.006853 0.649593 0.708799
O O9 0.406771 0.921751 0.678321
O O10 0.489708 0.000000 0.761602
O O11 0.424987 0.898513 0.956947
O O12 0.167742 0.870002 0.714158
O O13 0.141146 0.792734 0.979823
O O14 0.710389 0.898924 0.334378
O O15 0.787457 0.000000 0.382637
O O16 0.346161 0.000000 0.114019
O O17 0.851804 0.691801 0.808961
O O18 0.750000 0.750000 0.000000
#
# Coordination Sequence:
#
# PCOD8083563 Si02
#       8
#     8   8   8   8   8   8   8   8
#     4  10  18  33  53  77 108 148 188 233 276 334
#     4  11  22  35  56  70 105 151 197 235 270 316
#     4  11  24  37  50  77 118 159 195 229 267 324
#     4  10  20  37  56  78 103 147 193 240 281 332
#     4  12  22  33  54  84 118 151 183 229 291 346
#     4  10  20  33  51  75 108 149 190 228 275 325
#     4  10  19  33  58  76 103 145 189 238 282 325
#     4  12  21  35  53  79 113 151 191 228 275 327
#
# _framework density 18.780432000000001
#
# number of rings (size 3 to 8) (size 9 to 14) (size 15 to 20)
#    0.000    1.250    5.000    5.250    0.000    3.000 
#    0.000    0.625    0.000    0.000    0.000    0.000 
#    0.000   27.000    0.000    0.000    0.000    0.500 
#
# Total GULP energy -396548.102269 kJ/mol
# GULP energy per Si atom -12392.128196 kJ/mol
# Density = 1.873769 g / cm^3
# Si number density = 18.780432 Si / 1000 Ang^3
#
#
#
# Elastic Constant Matrix: (Units=GPa)
#
#
# Indices 1 2 3 4 5 6 
#
# 1 62.4461 36.8506 18.7328 0.0000 8.5200 0.0000
# 2 36.8506 103.3214 33.5469 0.0000 0.1027 0.0000
# 3 18.7328 33.5469 94.8457 0.0000 6.7449 0.0000
# 4 0.0000 0.0000 0.0000 26.5484 0.0000 -3.0709
# 5 8.5200 0.1027 6.7449 0.0000 20.0823 0.0000
# 6 0.0000 0.0000 0.0000 -3.0709 0.0000 23.6072
#
#
#
# Elastic Compliance Matrix: (Units=1/GPa)
#
#
# Indices 1 2 3 4 5 6 
#
# 1 0.021964 -0.007481 -0.001057 0.000000 -0.008925 0.000000
# 2 -0.007481 0.013514 -0.003609 0.000000 0.004317 0.000000
# 3 -0.001057 -0.003609 0.012289 0.000000 -0.003661 0.000000
# 4 0.000000 0.000000 0.000000 0.038243 0.000000 0.004975
# 5 -0.008925 0.004317 -0.003661 0.000000 0.054789 0.000000
# 6 0.000000 0.000000 0.000000 0.004975 0.000000 0.043007
#
#
# Mechanical properties :
#
#
# Convention : Reuss Voigt Hill
#
# Bulk Modulus (GPa) = 42.60529 48.76375 45.68452
# Shear Modulus (GPa) = 23.15614 25.47976 24.31795
#
# Velocity S-wave (km/s) = 3.51521 3.68736 3.60231
# Velocity P-wave (km/s) = 6.26186 6.64458 6.45605
#
# Compressibility (1/GPa) = 0.02347127
#
# Stress axis : x y z
#
# Youngs Moduli (GPa) = 45.53005 73.99463 81.37221
#
# Poissons Ratio (x) = 0.55358 0.08602
# Poissons Ratio (y) = 0.34063 0.29371
# Poissons Ratio (z) = 0.04813 0.26708
#
# Static dielectric constant tensor:
#      x y z
#    x 3.417160 0.000000 0.305900 
#    y 0.000000 3.371420 0.000000 
#    z 0.305900 0.000000 3.908120 
# 
# 
# High freq. dielectric constant tensor:
#      x y z
#    x 1.691940 0.000000 0.017250 
#    y 0.000000 1.702610 0.000000 
#    z 0.017250 0.000000 1.749140 
# 
# From -- ./inp_files/97722.got.cif
#   From: 2010.06.25/outbox.cif.g09.slc.cpg/sg12_49_cif.got.tgz:97722.got - 2010.06.28 00:19:55.
