data_PCOD8083042
_publ_section_title
;
Structure prediction by ZEFSAII (Michael W. Deem and Ramdas Pophale) SiO2 
 PCOD8083042
Probable space group: C 2/M
;
_chemical_formula_sum "Si O2"
_cell_formula_units_Z 56
_cell_length_a 26.632021
_cell_length_b 8.946126
_cell_length_c 14.007081
_cell_angle_alpha 90.000000
_cell_angle_beta 119.582820
_cell_angle_gamma 90.000000
_cell_volume 2902.202953
_symmetry_space_group_name_H-M "C 2/M"
_symmetry_group_IT_number 12
_symmetry_cell_setting 'monoclinic'
loop_
_space_group_symop_operation_xyz
x,y,z
-x,y,-z
-x,-y,-z
x,-y,z
1/2+x,1/2+y,z
1/2-x,1/2+y,-z
1/2-x,1/2-y,-z
1/2+x,1/2-y,z
loop_
_atom_site_type_symbol
_atom_site_label
_atom_site_fract_x
_atom_site_fract_y
_atom_site_fract_z
Si Si1 0.028706 0.178128 0.622941
Si Si2 0.339703 0.322883 0.234205
Si Si3 0.737290 0.325511 0.209851
Si Si4 0.937266 0.332747 0.032681
Si Si5 0.321890 0.829198 0.023100
Si Si6 0.972505 0.172594 0.761722
Si Si7 0.123457 0.828273 0.194952
O O1 0.094964 0.234057 0.689593
O O2 0.000000 0.243410 0.500000
O O3 0.991174 0.242752 0.677137
O O4 0.027017 0.000000 0.619638
O O5 0.337657 0.500000 0.225173
O O6 0.297876 0.264329 0.280911
O O7 0.310361 0.250354 0.113018
O O8 0.751551 0.500000 0.215431
O O9 0.692402 0.291862 0.255435
O O10 0.706926 0.269468 0.085291
O O11 0.958748 0.500000 0.034034
O O12 0.890544 0.327919 0.073192
O O13 0.991820 0.237714 0.116535
O O14 0.910931 0.273779 0.910319
O O15 0.298112 0.000000 0.999683
O O16 0.904468 0.197903 0.725205
O O17 0.988252 0.000000 0.770717
O O18 0.114515 0.000000 0.155012
#
# Coordination Sequence:
#
# PCOD8083042 Si02
#       7
#     8   8   8   8   8   8   8
#     4   9  19  35  56  80 100 123 165 219 266 303
#     4  11  20  32  52  74  98 130 167 209 257 300
#     4  10  20  33  48  70 103 138 171 203 240 294
#     4  10  19  29  45  72 106 138 167 201 247 300
#     4  10  19  31  47  71 104 138 171 203 243 298
#     4  10  18  32  53  73  97 130 169 212 252 296
#     4   9  19  32  48  71 100 137 174 202 238 293
#
# _framework density 19.295688999999999
#
# number of rings (size 3 to 8) (size 9 to 14) (size 15 to 20)
#    0.000    2.143    1.429    2.571    0.000    4.000 
#    0.000    0.000    0.000    4.714    0.000    0.000 
#    0.000    0.000    0.000    0.000    0.000    0.571 
#
# Total GULP energy -346976.584153 kJ/mol
# GULP energy per Si atom -12392.020863 kJ/mol
# Density = 1.925177 g / cm^3
# Si number density = 19.295689 Si / 1000 Ang^3
#
#
#
# Elastic Constant Matrix: (Units=GPa)
#
#
# Indices 1 2 3 4 5 6 
#
# 1 179.0179 33.6975 40.3091 0.0000 -4.0944 0.0000
# 2 33.6975 52.0111 11.8026 0.0000 -3.0921 0.0000
# 3 40.3091 11.8026 44.0224 0.0000 -1.7054 0.0000
# 4 0.0000 0.0000 0.0000 6.5793 0.0000 3.1075
# 5 -4.0944 -3.0921 -1.7054 0.0000 14.8789 0.0000
# 6 0.0000 0.0000 0.0000 3.1075 0.0000 25.6296
#
#
#
# Elastic Compliance Matrix: (Units=1/GPa)
#
#
# Indices 1 2 3 4 5 6 
#
# 1 0.007618 -0.003534 -0.006002 0.000000 0.000674 0.000000
# 2 -0.003534 0.022310 -0.002615 0.000000 0.003364 0.000000
# 3 -0.006002 -0.002615 0.028956 0.000000 0.001124 0.000000
# 4 0.000000 0.000000 0.000000 0.161224 0.000000 -0.019548
# 5 0.000674 0.003364 0.001124 0.000000 0.068223 0.000000
# 6 0.000000 0.000000 0.000000 -0.019548 0.000000 0.041387
#
#
# Mechanical properties :
#
#
# Convention : Reuss Voigt Hill
#
# Bulk Modulus (GPa) = 28.91697 49.62997 39.27347
# Shear Modulus (GPa) = 13.67814 22.03373 17.85594
#
# Velocity S-wave (km/s) = 2.66535 3.38287 3.04531
# Velocity P-wave (km/s) = 4.94883 6.40585 5.72389
#
# Compressibility (1/GPa) = 0.03458178
#
# Stress axis : x y z
#
# Youngs Moduli (GPa) = 131.26721 44.82389 34.53497
#
# Poissons Ratio (x) = 0.15839 0.20728
# Poissons Ratio (y) = 0.46384 0.09032
# Poissons Ratio (z) = 0.78786 0.11723
#
# Static dielectric constant tensor:
#      x y z
#    x 4.409330 0.000000 -0.028260 
#    y 0.000000 3.395890 0.000000 
#    z -0.028260 0.000000 3.049320 
# 
# 
# High freq. dielectric constant tensor:
#      x y z
#    x 1.788700 0.000000 0.000790 
#    y 0.000000 1.739870 0.000000 
#    z 0.000790 0.000000 1.680650 
# 
# From -- ./inp_files/244339.got.cif
#   From: 2010.06.25/outbox.cif.g09.slc.cpg/sg12_123_cif.got.tgz:244339.got - 2010.06.28 00:19:55.
