data_PCOD8083873
_publ_section_title
;
Structure prediction by ZEFSAII (Michael W. Deem and Ramdas Pophale) SiO2 
 PCOD8083873
Probable space group: C 2/M
;
_chemical_formula_sum "Si O2"
_cell_formula_units_Z 40
_cell_length_a 14.406378
_cell_length_b 18.073600
_cell_length_c 11.744112
_cell_angle_alpha 90.000000
_cell_angle_beta 40.385807
_cell_angle_gamma 90.000000
_cell_volume 1981.292404
_symmetry_space_group_name_H-M "C 2/M"
_symmetry_group_IT_number 12
_symmetry_cell_setting 'monoclinic'
loop_
_space_group_symop_operation_xyz
x,y,z
-x,y,-z
-x,-y,-z
x,-y,z
1/2+x,1/2+y,z
1/2-x,1/2+y,-z
1/2-x,1/2-y,-z
1/2+x,1/2-y,z
loop_
_atom_site_type_symbol
_atom_site_label
_atom_site_fract_x
_atom_site_fract_y
_atom_site_fract_z
Si Si1 0.160297 0.417807 0.367306
Si Si2 0.844056 0.582897 0.366682
Si Si3 0.364761 0.314198 0.547316
Si Si4 0.523192 0.775888 0.215573
Si Si5 0.214759 0.786416 0.860655
O O1 0.159890 0.500000 0.313947
O O2 0.202271 0.419465 0.459128
O O3 0.279949 0.370427 0.189792
O O4 0.000000 0.382390 0.500000
O O5 0.890637 0.500000 0.283519
O O6 0.705749 0.608306 0.423518
O O7 0.973171 0.641230 0.229471
O O8 0.500000 0.332048 0.500000
O O9 0.401672 0.267534 0.399296
O O10 0.244851 0.268184 0.727218
O O11 0.663701 0.779270 0.158968
O O12 0.561804 0.732288 0.061839
#
# Coordination Sequence:
#
# PCOD8083873 Si02
#       5
#     8   8   8   8   8
#     4  10  18  33  59  89 120 150 186 242 302 345
#     4  11  22  37  60  88 118 154 197 242 292 345
#     4  10  21  40  58  80 117 158 200 243 287 341
#     4  10  20  35  59  89 114 150 200 239 283 348
#     4  10  19  35  59  87 117 153 192 237 291 345
#
# _framework density 20.188842000000001
#
# number of rings (size 3 to 8) (size 9 to 14) (size 15 to 20)
#    0.000    1.800    4.000    1.200    0.000    1.200 
#    0.000    3.000    0.000    9.600    0.000    0.000 
#    0.000    0.000    0.000    0.000    0.000    0.000 
#
# Total GULP energy -247962.596972 kJ/mol
# GULP energy per Si atom -12398.129849 kJ/mol
# Density = 2.014289 g / cm^3
# Si number density = 20.188842 Si / 1000 Ang^3
#
#
#
# Elastic Constant Matrix: (Units=GPa)
#
#
# Indices 1 2 3 4 5 6 
#
# 1 38.3382 35.4122 40.2539 -0.0020 11.4663 0.0012
# 2 35.4122 153.7423 70.3146 -0.0019 8.1962 0.0017
# 3 40.2539 70.3146 131.0616 -0.0040 13.7104 0.0040
# 4 -0.0020 -0.0019 -0.0040 23.6098 0.0026 0.2515
# 5 11.4663 8.1962 13.7104 0.0026 16.7613 -0.0022
# 6 0.0012 0.0017 0.0040 0.2515 -0.0022 33.2711
#
#
#
# Elastic Compliance Matrix: (Units=1/GPa)
#
#
# Indices 1 2 3 4 5 6 
#
# 1 0.047647 -0.005513 -0.009349 0.000004 -0.022252 -0.000002
# 2 -0.005513 0.009261 -0.003495 -0.000001 0.002102 0.000000
# 3 -0.009349 -0.003495 0.012607 0.000001 -0.002208 -0.000001
# 4 0.000004 -0.000001 0.000001 0.042359 -0.000010 -0.000320
# 5 -0.022252 0.002102 -0.002208 -0.000010 0.075662 0.000006
# 6 -0.000002 0.000000 -0.000001 -0.000320 0.000006 0.030058
#
#
# Mechanical properties :
#
#
# Convention : Reuss Voigt Hill
#
# Bulk Modulus (GPa) = 30.48617 68.34484 49.41551
# Shear Modulus (GPa) = 18.85080 26.53920 22.69500
#
# Velocity S-wave (km/s) = 3.05900 3.62960 3.35645
# Velocity P-wave (km/s) = 5.25452 7.17577 6.28894
#
# Compressibility (1/GPa) = 0.03280176
#
# Stress axis : x y z
#
# Youngs Moduli (GPa) = 20.98783 107.98466 79.31843
#
# Poissons Ratio (x) = 0.59529 0.74152
# Poissons Ratio (y) = 0.11570 0.27722
# Poissons Ratio (z) = 0.19621 0.37741
#
# Static dielectric constant tensor:
#      x y z
#    x 3.668050 0.000000 0.225420 
#    y 0.000000 3.776800 0.000000 
#    z 0.225420 0.000000 3.839260 
# 
# 
# High freq. dielectric constant tensor:
#      x y z
#    x 1.799990 0.000000 0.010280 
#    y 0.000000 1.778500 0.000000 
#    z 0.010280 0.000000 1.766230 
# 
# From -- ./inp_files/145258.got.cif
#   From: 2010.06.25/outbox.cif.g09.slc.cpg/sg12_73_cif.got.tgz:145258.got - 2010.06.28 00:19:55.
