data_PCOD8083707
_publ_section_title
;
Structure prediction by ZEFSAII (Michael W. Deem and Ramdas Pophale) SiO2 
 PCOD8083707
Probable space group: C 2/M
;
_chemical_formula_sum "Si O2"
_cell_formula_units_Z 48
_cell_length_a 27.554613
_cell_length_b 9.024641
_cell_length_c 11.518709
_cell_angle_alpha 90.000000
_cell_angle_beta 56.841724
_cell_angle_gamma 90.000000
_cell_volume 2397.938272
_symmetry_space_group_name_H-M "C 2/M"
_symmetry_group_IT_number 12
_symmetry_cell_setting 'monoclinic'
loop_
_space_group_symop_operation_xyz
x,y,z
-x,y,-z
-x,-y,-z
x,-y,z
1/2+x,1/2+y,z
1/2-x,1/2+y,-z
1/2-x,1/2-y,-z
1/2+x,1/2-y,z
loop_
_atom_site_type_symbol
_atom_site_label
_atom_site_fract_x
_atom_site_fract_y
_atom_site_fract_z
Si Si1 0.394247 0.675823 0.809263
Si Si2 0.628591 0.829456 0.389022
Si Si3 0.555596 0.667054 0.847133
Si Si4 0.515674 0.170780 0.677295
Si Si5 0.345655 0.325162 0.114310
Si Si6 0.235609 0.325920 0.397844
O O1 0.395400 0.500000 0.804477
O O2 0.360309 0.735536 0.741491
O O3 0.460103 0.731307 0.722643
O O4 0.360474 0.737788 0.967005
O O5 0.562244 0.807650 0.514075
O O6 0.672687 0.776000 0.432513
O O7 0.641914 0.000000 0.342397
O O8 0.568702 0.500000 0.784170
O O9 0.546430 0.778635 0.754340
O O10 0.608609 0.735103 0.851237
O O11 0.500000 0.662789 0.000000
O O12 0.496822 0.000000 0.712543
O O13 0.353178 0.500000 0.098877
O O14 0.281800 0.277110 0.238672
O O15 0.238843 0.500000 0.416226
O O16 0.250000 0.250000 0.500000
#
# Coordination Sequence:
#
# PCOD8083707 Si02
#       6
#     8   8   8   8   8   8
#     4  11  22  38  59  84 112 147 194 235 277 337
#     4  10  23  40  56  81 117 152 185 231 286 333
#     4  10  18  33  56  82 114 146 184 231 278 329
#     4  11  22  36  55  82 118 152 186 232 285 337
#     4   9  19  36  58  84 114 148 184 233 284 325
#     4  10  21  40  63  84 113 148 185 230 281 334
#
# _framework density 20.017195000000001
#
# number of rings (size 3 to 8) (size 9 to 14) (size 15 to 20)
#    0.000    1.833    1.667    2.500    0.000    5.000 
#    0.000    1.667    0.000    0.000    0.000    0.000 
#    0.000    0.000    0.000    0.000    0.000    0.000 
#
# Total GULP energy -297635.182539 kJ/mol
# GULP energy per Si atom -12401.465939 kJ/mol
# Density = 1.997164 g / cm^3
# Si number density = 20.017195 Si / 1000 Ang^3
#
#
#
# Elastic Constant Matrix: (Units=GPa)
#
#
# Indices 1 2 3 4 5 6 
#
# 1 111.8607 37.3591 56.8769 0.0000 10.1348 0.0000
# 2 37.3591 59.4742 41.7709 0.0000 9.5162 0.0000
# 3 56.8769 41.7709 107.0947 0.0000 11.9957 0.0000
# 4 0.0000 0.0000 0.0000 36.0518 0.0000 4.9166
# 5 10.1348 9.5162 11.9957 0.0000 39.8618 0.0000
# 6 0.0000 0.0000 0.0000 4.9166 0.0000 34.9340
#
#
#
# Elastic Compliance Matrix: (Units=1/GPa)
#
#
# Indices 1 2 3 4 5 6 
#
# 1 0.013122 -0.004531 -0.005122 0.000000 -0.000713 0.000000
# 2 -0.004531 0.025053 -0.007062 0.000000 -0.002704 0.000000
# 3 -0.005122 -0.007062 0.014982 0.000000 -0.001521 0.000000
# 4 0.000000 0.000000 0.000000 0.028281 0.000000 -0.003980
# 5 -0.000713 -0.002704 -0.001521 0.000000 0.026371 0.000000
# 6 0.000000 0.000000 0.000000 -0.003980 0.000000 0.029186
#
#
# Mechanical properties :
#
#
# Convention : Reuss Voigt Hill
#
# Bulk Modulus (GPa) = 50.69213 61.16037 55.92625
# Shear Modulus (GPa) = 28.24850 31.66437 29.95643
#
# Velocity S-wave (km/s) = 3.76069 3.98157 3.87270
# Velocity P-wave (km/s) = 6.65104 7.19427 6.92798
#
# Compressibility (1/GPa) = 0.01972693
#
# Stress axis : x y z
#
# Youngs Moduli (GPa) = 76.20891 39.91524 66.74500
#
# Poissons Ratio (x) = 0.18087 0.34184
# Poissons Ratio (y) = 0.34533 0.47137
# Poissons Ratio (z) = 0.39031 0.28189
#
# Static dielectric constant tensor:
#      x y z
#    x 3.857280 0.000000 0.323390 
#    y 0.000000 3.453340 0.000000 
#    z 0.323390 0.000000 4.792990 
# 
# 
# High freq. dielectric constant tensor:
#      x y z
#    x 1.789400 0.000000 0.003670 
#    y 0.000000 1.758980 0.000000 
#    z 0.003670 0.000000 1.787810 
# 
# From -- ./inp_files/179754.got.cif
#   From: 2010.06.25/outbox.cif.g09.slc.cpg/sg12_90_cif.got.tgz:179754.got - 2010.06.28 00:19:55.
