data_PCOD8083329
_publ_section_title
;
Structure prediction by ZEFSAII (Michael W. Deem and Ramdas Pophale) SiO2 
 PCOD8083329
Probable space group: C 2/M
;
_chemical_formula_sum "Si O2"
_cell_formula_units_Z 44
_cell_length_a 23.176927
_cell_length_b 9.563094
_cell_length_c 28.538300
_cell_angle_alpha 90.000000
_cell_angle_beta 21.011502
_cell_angle_gamma 90.000000
_cell_volume 2267.976715
_symmetry_space_group_name_H-M "C 2/M"
_symmetry_group_IT_number 12
_symmetry_cell_setting 'monoclinic'
loop_
_space_group_symop_operation_xyz
x,y,z
-x,y,-z
-x,-y,-z
x,-y,z
1/2+x,1/2+y,z
1/2-x,1/2+y,-z
1/2-x,1/2-y,-z
1/2+x,1/2-y,z
loop_
_atom_site_type_symbol
_atom_site_label
_atom_site_fract_x
_atom_site_fract_y
_atom_site_fract_z
Si Si1 0.000000 0.248250 0.500000
Si Si2 0.196910 0.157315 0.678195
Si Si3 0.266838 0.345411 0.754832
Si Si4 0.196336 0.841737 0.167910
Si Si5 0.854104 0.836967 0.385422
Si Si6 0.497497 0.667508 0.087339
O O1 0.876058 0.341062 0.564035
O O2 0.901746 0.156920 0.612009
O O3 0.183549 0.229195 0.637469
O O4 0.068303 0.220673 0.812297
O O5 0.143931 0.000000 0.709550
O O6 0.188057 0.500000 0.812963
O O7 0.348567 0.318855 0.743383
O O8 0.126672 0.230028 0.856564
O O9 0.040810 0.813261 0.254613
O O10 0.259892 0.000000 0.111624
O O11 0.326862 0.729432 0.052623
O O12 0.750000 0.750000 0.500000
O O13 0.805875 0.000000 0.426059
O O14 0.499052 0.500000 0.081000
#
# Coordination Sequence:
#
# PCOD8083329 Si02
#       6
#     4   8   8   8   8   8
#     4  10  18  32  56  82 105 138 181 216 259 316
#     4   9  19  35  54  78 110 141 173 219 268 310
#     4  10  20  34  53  79 110 140 174 219 267 313
#     4  10  21  36  54  77 108 143 175 215 268 315
#     4  10  21  38  57  79 108 141 176 216 263 315
#     4  10  21  36  55  80 106 138 181 221 260 312
#
# _framework density 19.400552000000001
#
# number of rings (size 3 to 8) (size 9 to 14) (size 15 to 20)
#    0.000    2.182    0.000    2.727    0.000    5.091 
#    0.000    4.545    0.000    0.000    0.000    0.000 
#    0.000    0.000    0.000    0.000    0.000    0.000 
#
# Total GULP energy -272712.450962 kJ/mol
# GULP energy per Si atom -12396.020498 kJ/mol
# Density = 1.935639 g / cm^3
# Si number density = 19.400552 Si / 1000 Ang^3
#
#
#
# Elastic Constant Matrix: (Units=GPa)
#
#
# Indices 1 2 3 4 5 6 
#
# 1 155.5630 38.3921 57.0136 0.0094 0.2722 -0.0090
# 2 38.3921 84.7593 46.8582 -0.0162 1.0169 -0.0148
# 3 57.0136 46.8582 110.0332 -0.0200 0.3813 -0.0025
# 4 0.0094 -0.0162 -0.0200 31.7123 0.0038 0.7265
# 5 0.2722 1.0169 0.3813 0.0038 23.4933 0.0063
# 6 -0.0090 -0.0148 -0.0025 0.7265 0.0063 23.7707
#
#
#
# Elastic Compliance Matrix: (Units=1/GPa)
#
#
# Indices 1 2 3 4 5 6 
#
# 1 0.008134 -0.001772 -0.003460 -0.000006 0.000039 0.000002
# 2 -0.001772 0.015824 -0.005819 0.000005 -0.000570 0.000009
# 3 -0.003460 -0.005819 0.013359 0.000007 0.000075 -0.000004
# 4 -0.000006 0.000005 0.000007 0.031556 -0.000005 -0.000964
# 5 0.000039 -0.000570 0.000075 -0.000005 0.042588 -0.000011
# 6 0.000002 0.000009 -0.000004 -0.000964 -0.000011 0.042098
#
#
# Mechanical properties :
#
#
# Convention : Reuss Voigt Hill
#
# Bulk Modulus (GPa) = 65.72319 70.54258 68.13289
# Shear Modulus (GPa) = 27.66530 29.66803 28.66667
#
# Velocity S-wave (km/s) = 3.78035 3.91479 3.84815
# Velocity P-wave (km/s) = 7.28047 7.54149 7.41213
#
# Compressibility (1/GPa) = 0.01521533
#
# Stress axis : x y z
#
# Youngs Moduli (GPa) = 122.94769 63.19363 74.85757
#
# Poissons Ratio (x) = 0.11196 0.25901
# Poissons Ratio (y) = 0.21783 0.43559
# Poissons Ratio (z) = 0.42540 0.36772
#
# Static dielectric constant tensor:
#      x y z
#    x 3.927520 0.000010 0.090450 
#    y 0.000010 3.425410 0.000000 
#    z 0.090450 0.000000 3.462050 
# 
# 
# High freq. dielectric constant tensor:
#      x y z
#    x 1.767530 0.000000 0.008320 
#    y 0.000000 1.741350 0.000010 
#    z 0.008320 0.000010 1.752600 
# 
# From -- ./inp_files/172781.got.cif
#   From: 2010.06.25/outbox.cif.g09.slc.cpg/sg12_87_cif.got.tgz:172781.got - 2010.06.28 00:19:55.
