data_PCOD8083199
_publ_section_title
;
Structure prediction by ZEFSAII (Michael W. Deem and Ramdas Pophale) SiO2 
 PCOD8083199
Probable space group: C 2/M
;
_chemical_formula_sum "Si O2"
_cell_formula_units_Z 64
_cell_length_a 22.564826
_cell_length_b 16.375610
_cell_length_c 26.053387
_cell_angle_alpha 90.000000
_cell_angle_beta 19.888060
_cell_angle_gamma 90.000000
_cell_volume 3274.967778
_symmetry_space_group_name_H-M "C 2/M"
_symmetry_group_IT_number 12
_symmetry_cell_setting 'monoclinic'
loop_
_space_group_symop_operation_xyz
x,y,z
-x,y,-z
-x,-y,-z
x,-y,z
1/2+x,1/2+y,z
1/2-x,1/2+y,-z
1/2-x,1/2-y,-z
1/2+x,1/2-y,z
loop_
_atom_site_type_symbol
_atom_site_label
_atom_site_fract_x
_atom_site_fract_y
_atom_site_fract_z
Si Si1 0.676307 0.832014 0.224736
Si Si2 0.183038 0.409292 0.323891
Si Si3 0.805542 0.669060 0.163959
Si Si4 0.817501 0.246298 0.523718
Si Si5 0.044056 0.178088 0.208099
Si Si6 0.989346 0.093520 0.662206
Si Si7 0.323051 0.250699 0.252436
Si Si8 0.326868 0.307940 0.001547
O O1 0.667158 0.902067 0.275038
O O2 0.798246 0.756616 0.142356
O O3 0.483542 0.798429 0.370929
O O4 0.766814 0.865150 0.098459
O O5 0.250479 0.500000 0.282045
O O6 0.317757 0.343435 0.235258
O O7 0.000000 0.391985 0.500000
O O8 0.665949 0.608043 0.252381
O O9 0.765187 0.683743 0.257387
O O10 0.000000 0.632461 0.000000
O O11 0.654316 0.289845 0.630287
O O12 0.806902 0.242400 0.593961
O O13 0.845958 0.152485 0.482783
O O14 0.075225 0.111258 0.226957
O O15 0.156743 0.258209 0.125011
O O16 0.100271 0.140069 0.106673
O O17 0.050334 0.000000 0.608301
O O18 0.524151 0.240949 0.105197
#
# Coordination Sequence:
#
# PCOD8083199 Si02
#       8
#     8   8   8   8   8   8   8   8
#     4  10  18  32  54  86 110 138 189 234 265 337
#     4  10  20  33  52  81 120 152 177 227 288 335
#     4  10  18  33  58  82 112 151 186 226 275 342
#     4  10  20  36  61  83 105 146 194 229 276 328
#     4  10  20  37  61  83 106 148 193 236 272 334
#     4  11  23  37  55  85 118 146 186 238 286 331
#     4  10  19  35  58  86 110 146 192 233 268 342
#     4  10  19  34  60  85 106 136 195 238 272 317
#
# _framework density 19.542176000000001
#
# number of rings (size 3 to 8) (size 9 to 14) (size 15 to 20)
#    0.000    1.875    5.000    0.375    0.000    0.250 
#    0.000    6.250    0.000   10.500    0.000    0.000 
#    0.000    0.000    0.000    0.000    0.000    0.000 
#
# Total GULP energy -396596.132918 kJ/mol
# GULP energy per Si atom -12393.629154 kJ/mol
# Density = 1.949770 g / cm^3
# Si number density = 19.542176 Si / 1000 Ang^3
#
#
#
# Elastic Constant Matrix: (Units=GPa)
#
#
# Indices 1 2 3 4 5 6 
#
# 1 115.8282 24.4223 45.9771 0.0383 19.9540 -0.0049
# 2 24.4223 65.7681 14.4796 0.1103 7.8279 -0.0360
# 3 45.9771 14.4796 97.8828 0.1839 15.0826 -0.0649
# 4 0.0383 0.1103 0.1839 6.5625 -0.0353 2.4563
# 5 19.9540 7.8279 15.0826 -0.0353 43.5393 -0.0070
# 6 -0.0049 -0.0360 -0.0649 2.4563 -0.0070 15.0883
#
#
#
# Elastic Compliance Matrix: (Units=1/GPa)
#
#
# Indices 1 2 3 4 5 6 
#
# 1 0.011600 -0.002929 -0.004519 0.000106 -0.003224 -0.000041
# 2 -0.002929 0.016647 -0.000879 -0.000275 -0.001346 0.000079
# 3 -0.004519 -0.000879 0.012810 -0.000371 -0.002209 0.000111
# 4 0.000106 -0.000275 -0.000371 0.162285 0.000257 -0.026421
# 5 -0.003224 -0.001346 -0.002209 0.000257 0.025453 -0.000044
# 6 -0.000041 0.000079 0.000111 -0.026421 -0.000044 0.070578
#
#
# Mechanical properties :
#
#
# Convention : Reuss Voigt Hill
#
# Bulk Modulus (GPa) = 40.97748 49.91523 45.44636
# Shear Modulus (GPa) = 15.42440 26.01137 20.71788
#
# Velocity S-wave (km/s) = 2.81247 3.65230 3.25955
# Velocity P-wave (km/s) = 5.61791 6.58661 6.12145
#
# Compressibility (1/GPa) = 0.02440365
#
# Stress axis : x y z
#
# Youngs Moduli (GPa) = 86.20492 60.07139 78.06390
#
# Poissons Ratio (x) = 0.17596 0.35276
# Poissons Ratio (y) = 0.25251 0.06859
# Poissons Ratio (z) = 0.38955 0.05278
#
# Static dielectric constant tensor:
#      x y z
#    x 4.038270 -0.000020 0.292200 
#    y -0.000020 3.002840 0.000130 
#    z 0.292200 0.000130 3.699370 
# 
# 
# High freq. dielectric constant tensor:
#      x y z
#    x 1.784030 0.000000 0.010070 
#    y 0.000000 1.692710 0.000020 
#    z 0.010070 0.000020 1.773500 
# 
# From -- ./inp_files/368251.got.cif
#   From: 2010.06.25/outbox.cif.g09.slc.cpg/sg12_185_cif.got.tgz:368251.got - 2010.06.28 00:19:55.
