data_PCOD8083404
_publ_section_title
;
Structure prediction by ZEFSAII (Michael W. Deem and Ramdas Pophale) SiO2 
 PCOD8083404
Probable space group: C 2/M
;
_chemical_formula_sum "Si O2"
_cell_formula_units_Z 56
_cell_length_a 18.158462
_cell_length_b 13.988759
_cell_length_c 11.667272
_cell_angle_alpha 90.000000
_cell_angle_beta 70.587913
_cell_angle_gamma 90.000000
_cell_volume 2795.178342
_symmetry_space_group_name_H-M "C 2/M"
_symmetry_group_IT_number 12
_symmetry_cell_setting 'monoclinic'
loop_
_space_group_symop_operation_xyz
x,y,z
-x,y,-z
-x,-y,-z
x,-y,z
1/2+x,1/2+y,z
1/2-x,1/2+y,-z
1/2-x,1/2-y,-z
1/2+x,1/2-y,z
loop_
_atom_site_type_symbol
_atom_site_label
_atom_site_fract_x
_atom_site_fract_y
_atom_site_fract_z
Si Si1 0.559396 0.106991 0.881482
Si Si2 0.198443 0.107671 0.706737
Si Si3 0.882609 0.275193 0.333987
Si Si4 0.208331 0.609983 0.954894
Si Si5 0.410558 0.289874 0.558318
Si Si6 0.237981 0.104068 0.431569
Si Si7 0.688719 0.777503 0.187492
O O1 0.553124 0.163912 0.765889
O O2 0.646111 0.110247 0.885648
O O3 0.530597 0.000000 0.870332
O O4 0.500000 0.156778 0.000000
O O5 0.119344 0.167367 0.716834
O O6 0.247118 0.103898 0.563903
O O7 0.245614 0.162327 0.780201
O O8 0.176785 0.000000 0.758683
O O9 0.901070 0.284961 0.458645
O O10 0.795629 0.316224 0.352611
O O11 0.235217 0.500000 0.965531
O O12 0.280825 0.674342 0.873553
O O13 0.167930 0.656691 0.088673
O O14 0.500000 0.327043 0.500000
O O15 0.350127 0.375881 0.565527
O O16 0.387799 0.240431 0.691894
O O17 0.262123 0.000000 0.370774
#
# Coordination Sequence:
#
# PCOD8083404 Si02
#       7
#     8   8   8   8   8   8   8
#     4  10  21  36  56  83 112 149 195 241 291 351
#     4  10  18  32  57  85 109 141 191 240 286 340
#     4  11  19  38  60  86 114 155 200 244 293 352
#     4  10  22  38  60  85 113 153 202 246 289 346
#     4  11  23  36  56  90 128 158 189 240 308 364
#     4  10  19  35  61  86 115 153 198 243 285 352
#     4  11  20  38  59  85 118 156 194 243 298 349
#
# _framework density 20.034500000000001
#
# number of rings (size 3 to 8) (size 9 to 14) (size 15 to 20)
#    0.000    1.571    4.286    1.714    2.000    2.000 
#    0.000    0.000    0.000    3.857    0.000    0.000 
#    0.000    0.000    0.000    0.000    0.000    0.000 
#
# Total GULP energy -346952.458433 kJ/mol
# GULP energy per Si atom -12391.159230 kJ/mol
# Density = 1.998890 g / cm^3
# Si number density = 20.034500 Si / 1000 Ang^3
#
#
#
# Elastic Constant Matrix: (Units=GPa)
#
#
# Indices 1 2 3 4 5 6 
#
# 1 44.1807 10.4279 8.2154 0.0000 -5.9115 0.0000
# 2 10.4279 119.6353 42.8128 0.0000 -1.5039 0.0000
# 3 8.2154 42.8128 114.8550 0.0000 -4.8751 0.0000
# 4 0.0000 0.0000 0.0000 30.1218 0.0000 1.7027
# 5 -5.9115 -1.5039 -4.8751 0.0000 26.9282 0.0000
# 6 0.0000 0.0000 0.0000 1.7027 0.0000 15.7694
#
#
#
# Elastic Compliance Matrix: (Units=1/GPa)
#
#
# Indices 1 2 3 4 5 6 
#
# 1 0.023865 -0.001711 -0.000858 0.000000 0.004988 0.000000
# 2 -0.001711 0.009768 -0.003539 0.000000 -0.000471 0.000000
# 3 -0.000858 -0.003539 0.010149 0.000000 0.001451 0.000000
# 4 0.000000 0.000000 0.000000 0.033402 0.000000 -0.003607
# 5 0.004988 -0.000471 0.001451 0.000000 0.038467 0.000000
# 6 0.000000 0.000000 0.000000 -0.003607 0.000000 0.063803
#
#
# Mechanical properties :
#
#
# Convention : Reuss Voigt Hill
#
# Bulk Modulus (GPa) = 31.67770 44.62035 38.14903
# Shear Modulus (GPa) = 24.72902 29.04490 26.88696
#
# Velocity S-wave (km/s) = 3.51710 3.81168 3.66735
# Velocity P-wave (km/s) = 5.68676 6.45693 6.08405
#
# Compressibility (1/GPa) = 0.03156795
#
# Stress axis : x y z
#
# Youngs Moduli (GPa) = 41.90236 102.37179 98.53488
#
# Poissons Ratio (x) = 0.17511 0.08451
# Poissons Ratio (y) = 0.07168 0.34870
# Poissons Ratio (z) = 0.03594 0.36227
#
# Static dielectric constant tensor:
#      x y z
#    x 3.243230 0.000000 0.109440 
#    y 0.000000 3.834630 0.000000 
#    z 0.109440 0.000000 3.850880 
# 
# 
# High freq. dielectric constant tensor:
#      x y z
#    x 1.740520 0.000000 0.012700 
#    y 0.000000 1.780270 0.000000 
#    z 0.012700 0.000000 1.795380 
# 
# From -- ./inp_files/155959.got.cif
#   From: 2010.06.25/outbox.cif.g09.slc.cpg/sg12_78_cif.got.tgz:155959.got - 2010.06.28 00:19:55.
