data_PCOD8083441
_publ_section_title
;
Structure prediction by ZEFSAII (Michael W. Deem and Ramdas Pophale) SiO2 
 PCOD8083441
Probable space group: C 2/M
;
_chemical_formula_sum "Si O2"
_cell_formula_units_Z 56
_cell_length_a 17.076287
_cell_length_b 30.984053
_cell_length_c 5.628754
_cell_angle_alpha 90.000000
_cell_angle_beta 110.793404
_cell_angle_gamma 90.000000
_cell_volume 2784.155976
_symmetry_space_group_name_H-M "C 2/M"
_symmetry_group_IT_number 12
_symmetry_cell_setting 'monoclinic'
loop_
_space_group_symop_operation_xyz
x,y,z
-x,y,-z
-x,-y,-z
x,-y,z
1/2+x,1/2+y,z
1/2-x,1/2+y,-z
1/2-x,1/2-y,-z
1/2+x,1/2-y,z
loop_
_atom_site_type_symbol
_atom_site_label
_atom_site_fract_x
_atom_site_fract_y
_atom_site_fract_z
Si Si1 0.817741 0.737785 0.383974
Si Si2 0.713538 0.318382 0.934475
Si Si3 0.739587 0.547534 0.852611
Si Si4 0.801540 0.375903 0.668274
Si Si5 0.836924 0.896470 0.848203
Si Si6 0.549010 0.176692 0.306119
Si Si7 0.568468 0.548531 0.383900
O O1 0.750000 0.750000 0.500000
O O2 0.838894 0.778574 0.235171
O O3 0.901876 0.721947 0.605440
O O4 0.776748 0.697918 0.202914
O O5 0.779743 0.337498 0.822328
O O6 0.648132 0.355860 0.954732
O O7 0.778405 0.500000 0.923283
O O8 0.810190 0.578336 0.814347
O O9 0.658550 0.546802 0.599671
O O10 0.711907 0.564402 0.079380
O O11 0.723248 0.376666 0.410731
O O12 0.889250 0.364563 0.640641
O O13 0.922329 0.917482 0.827465
O O14 0.500000 0.168611 0.500000
O O15 0.500000 0.179917 0.000000
O O16 0.500000 0.565852 0.500000
O O17 0.542962 0.500000 0.269797
#
# Coordination Sequence:
#
# PCOD8083441 Si02
#       7
#     8   8   8   8   8   8   8
#     4  11  21  37  65  90 119 161 205 257 318 385
#     4  10  19  34  63  90 115 155 220 252 309 375
#     4   9  19  33  58  89 118 157 213 260 306 375
#     4  10  20  38  59  91 119 161 203 261 309 377
#     4  10  18  32  58  84 117 162 217 248 315 371
#     4  12  26  41  65 100 131 161 214 271 331 379
#     4   9  18  32  51  84 124 161 208 263 316 370
#
# _framework density 20.113814999999999
#
# number of rings (size 3 to 8) (size 9 to 14) (size 15 to 20)
#    0.000    1.857    2.857    1.286    4.000    1.143 
#    0.000    2.143    0.000   21.429    0.000    0.000 
#    0.000    0.000    0.000    0.000    0.000    0.000 
#
# Total GULP energy -346916.905911 kJ/mol
# GULP energy per Si atom -12389.889497 kJ/mol
# Density = 2.006804 g / cm^3
# Si number density = 20.113815 Si / 1000 Ang^3
#
#
#
# Elastic Constant Matrix: (Units=GPa)
#
#
# Indices 1 2 3 4 5 6 
#
# 1 120.4780 61.7833 34.7761 0.0000 -27.9859 0.0000
# 2 61.7833 145.7873 31.4776 0.0000 -18.0159 0.0000
# 3 34.7761 31.4776 76.5614 0.0000 -16.7262 0.0000
# 4 0.0000 0.0000 0.0000 24.2036 0.0000 -13.8298
# 5 -27.9859 -18.0159 -16.7262 0.0000 32.9817 0.0000
# 6 0.0000 0.0000 0.0000 -13.8298 0.0000 30.4387
#
#
#
# Elastic Compliance Matrix: (Units=1/GPa)
#
#
# Indices 1 2 3 4 5 6 
#
# 1 0.012783 -0.003950 -0.002569 0.000000 0.007387 0.000000
# 2 -0.003950 0.008996 -0.001758 0.000000 0.000671 0.000000
# 3 -0.002569 -0.001758 0.016042 0.000000 0.004996 0.000000
# 4 0.000000 0.000000 0.000000 0.055804 0.000000 0.025354
# 5 0.007387 0.000671 0.004996 0.000000 0.039487 0.000000
# 6 0.000000 0.000000 0.000000 0.025354 0.000000 0.044373
#
#
# Mechanical properties :
#
#
# Convention : Reuss Voigt Hill
#
# Bulk Modulus (GPa) = 47.01855 66.54453 56.78154
# Shear Modulus (GPa) = 24.85989 31.84412 28.35201
#
# Velocity S-wave (km/s) = 3.51944 3.98326 3.75851
# Velocity P-wave (km/s) = 6.31999 7.36959 6.86488
#
# Compressibility (1/GPa) = 0.02126820
#
# Stress axis : x y z
#
# Youngs Moduli (GPa) = 78.22791 111.16443 62.33515
#
# Poissons Ratio (x) = 0.43910 0.16012
# Poissons Ratio (y) = 0.30900 0.10957
# Poissons Ratio (z) = 0.20094 0.19541
#
# Static dielectric constant tensor:
#      x y z
#    x 3.404900 0.000000 -0.189790 
#    y 0.000000 4.173750 0.000000 
#    z -0.189790 0.000000 3.639640 
# 
# 
# High freq. dielectric constant tensor:
#      x y z
#    x 1.750970 0.000000 -0.031340 
#    y 0.000000 1.794230 0.000000 
#    z -0.031340 0.000000 1.793820 
# 
# From -- ./inp_files/18166.got.cif
#   From: 2010.06.25/outbox.cif.g09.slc.cpg/sg12_10_cif.got.tgz:18166.got - 2010.06.28 00:19:55.
