data_PCOD8083269
_publ_section_title
;
Structure prediction by ZEFSAII (Michael W. Deem and Ramdas Pophale) SiO2 
 PCOD8083269
Probable space group: C 2/M
;
_chemical_formula_sum "Si O2"
_cell_formula_units_Z 64
_cell_length_a 24.158756
_cell_length_b 8.648084
_cell_length_c 15.012302
_cell_angle_alpha 90.000000
_cell_angle_beta 93.342405
_cell_angle_gamma 90.000000
_cell_volume 3131.139155
_symmetry_space_group_name_H-M "C 2/M"
_symmetry_group_IT_number 12
_symmetry_cell_setting 'monoclinic'
loop_
_space_group_symop_operation_xyz
x,y,z
-x,y,-z
-x,-y,-z
x,-y,z
1/2+x,1/2+y,z
1/2-x,1/2+y,-z
1/2-x,1/2-y,-z
1/2+x,1/2-y,z
loop_
_atom_site_type_symbol
_atom_site_label
_atom_site_fract_x
_atom_site_fract_y
_atom_site_fract_z
Si Si1 0.398048 0.679062 0.981688
Si Si2 0.063207 0.182860 0.498392
Si Si3 0.424029 0.316582 0.175207
Si Si4 0.779475 0.817052 0.916555
Si Si5 0.740042 0.182386 0.275448
Si Si6 0.859540 0.183308 0.337169
Si Si7 0.122852 0.679470 0.335680
Si Si8 0.547437 0.678946 0.188948
O O1 0.389428 0.500000 0.001354
O O2 0.342665 0.742017 0.929544
O O3 0.448181 0.705583 0.917212
O O4 0.409804 0.760634 0.078016
O O5 0.103113 0.252987 0.579383
O O6 0.091835 0.224494 0.408444
O O7 0.000000 0.249474 0.500000
O O8 0.060105 0.000000 0.506474
O O9 0.419903 0.500000 0.167221
O O10 0.382582 0.250689 0.245739
O O11 0.485918 0.272554 0.211717
O O12 0.754653 0.755331 0.821868
O O13 0.773657 0.000000 0.915773
O O14 0.750000 0.750000 0.000000
O O15 0.794702 0.230982 0.337662
O O16 0.686159 0.238244 0.326185
O O17 0.737384 0.000000 0.260747
O O18 0.865707 0.000000 0.339257
O O19 0.121819 0.500000 0.361090
O O20 0.090317 0.709050 0.241477
O O21 0.560816 0.500000 0.214102
#
# Coordination Sequence:
#
# PCOD8083269 Si02
#       8
#     8   8   8   8   8   8   8   8
#     4   9  17  29  49  80 111 140 181 231 279 323
#     4  10  21  39  64  90 111 139 184 236 285 336
#     4   9  16  28  52  83 110 137 178 235 286 323
#     4  11  21  34  54  80 112 152 194 236 280 326
#     4  10  21  38  57  79 113 152 189 227 275 334
#     4   9  18  34  56  82 111 143 182 231 281 327
#     4  11  23  37  56  82 115 154 187 226 283 338
#     4  10  18  32  55  82 110 142 186 234 275 328
#
# _framework density 20.439847
#
# number of rings (size 3 to 8) (size 9 to 14) (size 15 to 20)
#    0.000    2.125    1.250    2.625    0.000    6.750 
#    0.000    0.625    0.000    6.750    0.000    0.000 
#    0.000    0.000    0.000    0.000    0.000    0.000 
#
# Total GULP energy -396668.125203 kJ/mol
# GULP energy per Si atom -12395.878913 kJ/mol
# Density = 2.039332 g / cm^3
# Si number density = 20.439847 Si / 1000 Ang^3
#
#
#
# Elastic Constant Matrix: (Units=GPa)
#
#
# Indices 1 2 3 4 5 6 
#
# 1 152.8560 20.3277 69.0136 0.0000 -2.4431 0.0000
# 2 20.3277 19.4464 10.2435 0.0000 1.5595 0.0000
# 3 69.0136 10.2435 117.9078 0.0000 5.1921 0.0000
# 4 0.0000 0.0000 0.0000 21.8995 0.0000 0.0875
# 5 -2.4431 1.5595 5.1921 0.0000 37.2228 0.0000
# 6 0.0000 0.0000 0.0000 0.0875 0.0000 19.1395
#
#
#
# Elastic Compliance Matrix: (Units=1/GPa)
#
#
# Indices 1 2 3 4 5 6 
#
# 1 0.009970 -0.007802 -0.005233 0.000000 0.001711 0.000000
# 2 -0.007802 0.060092 -0.000524 0.000000 -0.002957 0.000000
# 3 -0.005233 -0.000524 0.011676 0.000000 -0.001950 0.000000
# 4 0.000000 0.000000 0.000000 0.045664 0.000000 -0.000209
# 5 0.001711 -0.002957 -0.001950 0.000000 0.027373 0.000000
# 6 0.000000 0.000000 0.000000 -0.000209 0.000000 0.052249
#
#
# Mechanical properties :
#
#
# Convention : Reuss Voigt Hill
#
# Bulk Modulus (GPa) = 18.30845 54.37555 36.34200
# Shear Modulus (GPa) = 19.81392 28.36072 24.08732
#
# Velocity S-wave (km/s) = 3.11686 3.72899 3.43658
# Velocity P-wave (km/s) = 4.68292 6.72316 5.79356
#
# Compressibility (1/GPa) = 0.05461959
#
# Stress axis : x y z
#
# Youngs Moduli (GPa) = 100.30403 16.64113 85.64935
#
# Poissons Ratio (x) = 0.12984 0.44820
# Poissons Ratio (y) = 0.78259 0.04485
# Poissons Ratio (z) = 0.52489 0.00871
#
# Static dielectric constant tensor:
#      x y z
#    x 4.092280 0.000000 0.073090 
#    y 0.000000 3.194460 0.000000 
#    z 0.073090 0.000000 3.768020 
# 
# 
# High freq. dielectric constant tensor:
#      x y z
#    x 1.816690 0.000000 -0.001390 
#    y 0.000000 1.743860 0.000000 
#    z -0.001390 0.000000 1.804650 
# 
# From -- ./inp_files/238757.got.cif
#   From: 2010.06.25/outbox.cif.g09.slc.cpg/sg12_120_cif.got.tgz:238757.got - 2010.06.28 00:19:55.
