data_PCOD8083748
_publ_section_title
;
Structure prediction by ZEFSAII (Michael W. Deem and Ramdas Pophale) SiO2 
 PCOD8083748
Probable space group: C 2/M
;
_chemical_formula_sum "Si O2"
_cell_formula_units_Z 56
_cell_length_a 16.193344
_cell_length_b 8.964077
_cell_length_c 23.010668
_cell_angle_alpha 90.000000
_cell_angle_beta 121.930143
_cell_angle_gamma 90.000000
_cell_volume 2834.798891
_symmetry_space_group_name_H-M "C 2/M"
_symmetry_group_IT_number 12
_symmetry_cell_setting 'monoclinic'
loop_
_space_group_symop_operation_xyz
x,y,z
-x,y,-z
-x,-y,-z
x,-y,z
1/2+x,1/2+y,z
1/2-x,1/2+y,-z
1/2-x,1/2-y,-z
1/2+x,1/2-y,z
loop_
_atom_site_type_symbol
_atom_site_label
_atom_site_fract_x
_atom_site_fract_y
_atom_site_fract_z
Si Si1 0.728860 0.675533 0.931255
Si Si2 0.913695 0.323218 0.929110
Si Si3 0.511704 0.671825 0.648966
Si Si4 0.621393 0.176571 0.210749
Si Si5 0.198176 0.823218 0.652824
Si Si6 0.697480 0.821973 0.426158
Si Si7 0.454770 0.670448 0.209117
O O1 0.726643 0.500000 0.939961
O O2 0.813291 0.724999 0.919731
O O3 0.631088 0.733409 0.863857
O O4 0.750000 0.750000 0.000000
O O5 0.926402 0.500000 0.930948
O O6 0.912686 0.255542 0.863757
O O7 0.000000 0.252531 0.000000
O O8 0.482216 0.500000 0.625515
O O9 0.588147 0.731459 0.627922
O O10 0.414463 0.769490 0.615188
O O11 0.569776 0.683459 0.731753
O O12 0.729235 0.230645 0.268818
O O13 0.549542 0.231271 0.233907
O O14 0.618190 0.000000 0.207077
O O15 0.240914 0.765005 0.607187
O O16 0.195904 0.000000 0.650186
O O17 0.750000 0.750000 0.500000
O O18 0.698625 0.000000 0.430503
O O19 0.476390 0.500000 0.200301
#
# Coordination Sequence:
#
# PCOD8083748 Si02
#       7
#     8   8   8   8   8   8   8
#     4  10  20  34  50  74 106 142 185 233 285 339
#     4   9  17  29  48  74 101 135 183 232 274 324
#     4  10  20  38  62  87 116 154 193 236 290 344
#     4  10  18  33  57  80 106 144 190 234 275 332
#     4   9  19  36  60  86 113 150 196 236 277 340
#     4  11  23  41  62  89 121 153 192 239 288 344
#     4  10  20  33  53  81 113 143 179 233 294 340
#
# _framework density 19.754487000000001
#
# number of rings (size 3 to 8) (size 9 to 14) (size 15 to 20)
#    0.000    2.143    1.429    2.143    0.000    5.714 
#    0.000    5.714    0.000    4.286    0.000    0.000 
#    0.000    0.000    0.000    0.000    0.000    0.000 
#
# Total GULP energy -347042.541514 kJ/mol
# GULP energy per Si atom -12394.376483 kJ/mol
# Density = 1.970952 g / cm^3
# Si number density = 19.754487 Si / 1000 Ang^3
#
#
#
# Elastic Constant Matrix: (Units=GPa)
#
#
# Indices 1 2 3 4 5 6 
#
# 1 150.9779 28.9623 61.6611 0.0000 -2.7258 0.0000
# 2 28.9623 32.1093 30.0909 0.0000 0.3282 0.0000
# 3 61.6611 30.0909 130.0874 0.0000 -3.0011 0.0000
# 4 0.0000 0.0000 0.0000 26.1531 0.0000 2.1162
# 5 -2.7258 0.3282 -3.0011 0.0000 31.6250 0.0000
# 6 0.0000 0.0000 0.0000 2.1162 0.0000 24.6617
#
#
#
# Elastic Compliance Matrix: (Units=1/GPa)
#
#
# Indices 1 2 3 4 5 6 
#
# 1 0.008846 -0.005192 -0.002980 0.000000 0.000534 0.000000
# 2 -0.005192 0.042863 -0.007491 0.000000 -0.001603 0.000000
# 3 -0.002980 -0.007491 0.010852 0.000000 0.000851 0.000000
# 4 0.000000 0.000000 0.000000 0.038504 0.000000 -0.003304
# 5 0.000534 -0.001603 0.000851 0.000000 0.031764 0.000000
# 6 0.000000 0.000000 0.000000 -0.003304 0.000000 0.040832
#
#
# Mechanical properties :
#
#
# Convention : Reuss Voigt Hill
#
# Bulk Modulus (GPa) = 32.01438 61.62255 46.81846
# Shear Modulus (GPa) = 23.21283 29.31865 26.26574
#
# Velocity S-wave (km/s) = 3.43164 3.85665 3.65034
# Velocity P-wave (km/s) = 5.65180 7.14798 6.44346
#
# Compressibility (1/GPa) = 0.03123597
#
# Stress axis : x y z
#
# Youngs Moduli (GPa) = 113.04447 23.33003 92.15030
#
# Poissons Ratio (x) = 0.12113 0.27458
# Poissons Ratio (y) = 0.58694 0.69027
# Poissons Ratio (z) = 0.33684 0.17476
#
# Static dielectric constant tensor:
#      x y z
#    x 3.811810 0.000000 -0.049880 
#    y 0.000000 3.249410 0.000000 
#    z -0.049880 0.000000 3.873180 
# 
# 
# High freq. dielectric constant tensor:
#      x y z
#    x 1.781580 0.000000 -0.000740 
#    y 0.000000 1.726230 0.000000 
#    z -0.000740 0.000000 1.783050 
# 
# From -- ./inp_files/308899.got.cif
#   From: 2010.06.25/outbox.cif.g09.slc.cpg/sg12_155_cif.got.tgz:308899.got - 2010.06.28 00:19:55.
