data_PCOD8083087
_publ_section_title
;
Structure prediction by ZEFSAII (Michael W. Deem and Ramdas Pophale) SiO2 
 PCOD8083087
Probable space group: C 2/M
;
_chemical_formula_sum "Si O2"
_cell_formula_units_Z 56
_cell_length_a 9.681425
_cell_length_b 17.683884
_cell_length_c 29.206328
_cell_angle_alpha 90.000000
_cell_angle_beta 37.555302
_cell_angle_gamma 90.000000
_cell_volume 3047.802156
_symmetry_space_group_name_H-M "C 2/M"
_symmetry_group_IT_number 12
_symmetry_cell_setting 'monoclinic'
loop_
_space_group_symop_operation_xyz
x,y,z
-x,y,-z
-x,-y,-z
x,-y,z
1/2+x,1/2+y,z
1/2-x,1/2+y,-z
1/2-x,1/2-y,-z
1/2+x,1/2-y,z
loop_
_atom_site_type_symbol
_atom_site_label
_atom_site_fract_x
_atom_site_fract_y
_atom_site_fract_z
Si Si1 0.266866 0.836862 0.188225
Si Si2 0.265726 0.685792 0.303346
Si Si3 0.330754 0.665918 0.183436
Si Si4 0.403353 0.415273 0.589334
Si Si5 0.279847 0.087465 0.087818
Si Si6 0.355685 0.909945 0.430173
Si Si7 0.867988 0.357722 0.260655
O O1 0.371546 0.752920 0.159223
O O2 0.329926 0.877757 0.124575
O O3 0.363260 0.878225 0.208099
O O4 0.998834 0.836078 0.266314
O O5 0.252784 0.653117 0.255765
O O6 0.258491 0.776534 0.302389
O O7 0.071017 0.644259 0.383982
O O8 0.570911 0.624013 0.114767
O O9 0.131934 0.631995 0.204221
O O10 0.428871 0.500000 0.565500
O O11 0.663628 0.385681 0.518039
O O12 0.235707 0.380295 0.595313
O O13 0.294658 0.413143 0.668263
O O14 0.225003 0.000000 0.109104
O O15 0.500000 0.102066 0.000000
O O16 0.422165 0.000000 0.414361
#
# Coordination Sequence:
#
# PCOD8083087 Si02
#       7
#     8   8   8   8   8   8   8
#     4   9  20  35  54  82 112 138 174 226 274 316
#     4   9  17  31  52  76 103 140 180 220 262 318
#     4   9  18  35  57  81 107 144 183 214 261 330
#     4   9  18  30  47  72 102 136 179 227 265 312
#     4  10  22  40  60  84 113 144 179 216 259 323
#     4   9  17  31  49  71  99 137 185 225 262 315
#     4  10  18  32  53  78 107 135 176 226 269 309
#
# _framework density 18.373896999999999
#
# number of rings (size 3 to 8) (size 9 to 14) (size 15 to 20)
#    0.000    2.714    1.429    1.714    0.000    4.571 
#    0.000    1.429    0.000    3.429    0.000    0.000 
#    0.000    0.000    0.000    0.000    0.000    0.000 
#
# Total GULP energy -346936.606103 kJ/mol
# GULP energy per Si atom -12390.593075 kJ/mol
# Density = 1.833208 g / cm^3
# Si number density = 18.373897 Si / 1000 Ang^3
#
#
#
# Elastic Constant Matrix: (Units=GPa)
#
#
# Indices 1 2 3 4 5 6 
#
# 1 117.5786 35.3233 50.8023 0.0015 -1.9732 -0.0069
# 2 35.3233 62.0333 49.2373 0.0062 -11.5484 -0.0113
# 3 50.8023 49.2373 103.0124 0.0109 -8.4026 -0.0642
# 4 0.0015 0.0062 0.0109 28.0526 0.0055 -5.9282
# 5 -1.9732 -11.5484 -8.4026 0.0055 26.9933 0.0019
# 6 -0.0069 -0.0113 -0.0642 -5.9282 0.0019 19.2964
#
#
#
# Elastic Compliance Matrix: (Units=1/GPa)
#
#
# Indices 1 2 3 4 5 6 
#
# 1 0.011286 -0.003622 -0.003995 0.000000 -0.001968 -0.000011
# 2 -0.003622 0.028678 -0.011227 -0.000009 0.008510 -0.000025
# 3 -0.003995 -0.011227 0.017062 0.000007 0.000216 0.000051
# 4 0.000000 -0.000009 0.000007 0.038122 -0.000010 0.011712
# 5 -0.001968 0.008510 0.000216 -0.000010 0.040610 -0.000002
# 6 -0.000011 -0.000025 0.000051 0.011712 -0.000002 0.055421
#
#
# Mechanical properties :
#
#
# Convention : Reuss Voigt Hill
#
# Bulk Modulus (GPa) = 51.71290 61.48334 56.59812
# Shear Modulus (GPa) = 21.24812 24.68591 22.96702
#
# Velocity S-wave (km/s) = 3.40432 3.66940 3.53934
# Velocity P-wave (km/s) = 6.60745 7.17549 6.89732
#
# Compressibility (1/GPa) = 0.01933753
#
# Stress axis : x y z
#
# Youngs Moduli (GPa) = 88.60294 34.86968 58.61012
#
# Poissons Ratio (x) = 0.12629 0.23417
# Poissons Ratio (y) = 0.32091 0.65803
# Poissons Ratio (z) = 0.35401 0.39149
#
# Static dielectric constant tensor:
#      x y z
#    x 3.460070 -0.000020 -0.132320 
#    y -0.000020 3.229640 -0.000030 
#    z -0.132320 -0.000030 3.200790 
# 
# 
# High freq. dielectric constant tensor:
#      x y z
#    x 1.708670 0.000000 -0.010460 
#    y 0.000000 1.696290 0.000000 
#    z -0.010460 0.000000 1.701150 
# 
# From -- ./inp_files/257028.got.cif
#   From: 2010.06.25/outbox.cif.g09.slc.cpg/sg12_129_cif.got.tgz:257028.got - 2010.06.28 00:19:55.
