data_PCOD8083267
_publ_section_title
;
Structure prediction by ZEFSAII (Michael W. Deem and Ramdas Pophale) SiO2 
 PCOD8083267
Probable space group: C 2/M
;
_chemical_formula_sum "Si O2"
_cell_formula_units_Z 64
_cell_length_a 31.142711
_cell_length_b 8.860625
_cell_length_c 26.235373
_cell_angle_alpha 90.000000
_cell_angle_beta 27.290813
_cell_angle_gamma 90.000000
_cell_volume 3319.357637
_symmetry_space_group_name_H-M "C 2/M"
_symmetry_group_IT_number 12
_symmetry_cell_setting 'monoclinic'
loop_
_space_group_symop_operation_xyz
x,y,z
-x,y,-z
-x,-y,-z
x,-y,z
1/2+x,1/2+y,z
1/2-x,1/2+y,-z
1/2-x,1/2-y,-z
1/2+x,1/2-y,z
loop_
_atom_site_type_symbol
_atom_site_label
_atom_site_fract_x
_atom_site_fract_y
_atom_site_fract_z
Si Si1 0.372382 0.677870 0.772893
Si Si2 0.677049 0.677496 0.995942
Si Si3 0.659571 0.678712 0.620174
Si Si4 0.869449 0.325312 0.241743
Si Si5 0.527871 0.677924 0.233376
Si Si6 0.904573 0.819802 0.625271
Si Si7 0.281588 0.178137 0.231794
Si Si8 0.585186 0.173531 0.998198
O O1 0.358625 0.500000 0.784631
O O2 0.277063 0.745369 0.894798
O O3 0.454974 0.721592 0.725553
O O4 0.397958 0.741859 0.690150
O O5 0.691420 0.500000 0.984224
O O6 0.612959 0.741415 0.109427
O O7 0.626077 0.717318 0.997467
O O8 0.666424 0.500000 0.609026
O O9 0.750000 0.750000 0.500000
O O10 0.650742 0.724224 0.688181
O O11 0.570626 0.744223 0.682545
O O12 0.849377 0.500000 0.276394
O O13 0.801974 0.264781 0.267628
O O14 0.974594 0.304690 0.110582
O O15 0.524628 0.500000 0.229288
O O16 0.816521 0.755454 0.685970
O O17 0.000000 0.756539 0.500000
O O18 0.904581 0.000000 0.625185
O O19 0.273597 0.000000 0.242111
O O20 0.367608 0.224229 0.104596
O O21 0.611489 0.000000 0.983487
#
# Coordination Sequence:
#
# PCOD8083267 Si02
#       8
#     8   8   8   8   8   8   8   8
#     4  10  19  35  57  81 107 141 183 225 275 329
#     4  11  20  33  53  81 114 145 176 220 279 334
#     4  11  23  41  59  80 112 148 190 234 276 325
#     4  10  20  34  57  84 110 142 182 228 282 329
#     4   9  20  36  56  80 109 142 179 228 277 326
#     4   9  17  29  50  79 105 133 175 225 267 313
#     4   9  17  31  52  82 113 139 177 230 274 317
#     4  10  18  32  55  82 109 143 183 225 274 330
#
# _framework density 19.280840000000001
#
# number of rings (size 3 to 8) (size 9 to 14) (size 15 to 20)
#    0.000    2.125    2.500    1.500    0.000    2.500 
#    0.000    6.250    0.000    1.875    0.000    0.000 
#    0.000    0.000    0.000    0.000    0.000    0.000 
#
# Total GULP energy -396761.552050 kJ/mol
# GULP energy per Si atom -12398.798502 kJ/mol
# Density = 1.923696 g / cm^3
# Si number density = 19.280840 Si / 1000 Ang^3
#
#
#
# Elastic Constant Matrix: (Units=GPa)
#
#
# Indices 1 2 3 4 5 6 
#
# 1 178.1918 27.9468 81.0763 0.0121 -0.9862 -0.0007
# 2 27.9468 28.1058 24.6570 -0.0277 0.3205 0.0101
# 3 81.0763 24.6570 152.4232 0.0298 -9.5297 -0.0080
# 4 0.0121 -0.0277 0.0298 22.4144 -0.0123 2.6651
# 5 -0.9862 0.3205 -9.5297 -0.0123 17.2317 -0.0011
# 6 -0.0007 0.0101 -0.0080 2.6651 -0.0011 23.3603
#
#
#
# Elastic Compliance Matrix: (Units=1/GPa)
#
#
# Indices 1 2 3 4 5 6 
#
# 1 0.007973 -0.004794 -0.003554 -0.000006 -0.001420 0.000002
# 2 -0.004794 0.044708 -0.004922 0.000066 -0.003828 -0.000029
# 3 -0.003554 -0.004922 0.009571 -0.000015 0.005181 0.000007
# 4 -0.000006 0.000066 -0.000015 0.045228 0.000022 -0.005160
# 5 -0.001420 -0.003828 0.005181 0.000022 0.060888 0.000004
# 6 0.000002 -0.000029 0.000007 -0.005160 0.000004 0.043396
#
#
# Mechanical properties :
#
#
# Convention : Reuss Voigt Hill
#
# Bulk Modulus (GPa) = 28.00110 69.56454 48.78282
# Shear Modulus (GPa) = 19.98336 27.60399 23.79368
#
# Velocity S-wave (km/s) = 3.22287 3.78786 3.51673
# Velocity P-wave (km/s) = 5.32949 7.43562 6.46884
#
# Compressibility (1/GPa) = 0.03571288
#
# Stress axis : x y z
#
# Youngs Moduli (GPa) = 125.42188 22.36746 104.47756
#
# Poissons Ratio (x) = 0.10722 0.37135
# Poissons Ratio (y) = 0.60122 0.51422
# Poissons Ratio (z) = 0.44579 0.11009
#
# Static dielectric constant tensor:
#      x y z
#    x 4.304080 -0.000270 0.056420 
#    y -0.000270 3.109280 0.000100 
#    z 0.056420 0.000100 3.729090 
# 
# 
# High freq. dielectric constant tensor:
#      x y z
#    x 1.767030 0.000000 -0.000260 
#    y 0.000000 1.703610 0.000010 
#    z -0.000260 0.000010 1.752900 
# 
# From -- ./inp_files/353392.got.cif
#   From: 2010.06.25/outbox.cif.g09.slc.cpg/sg12_177_cif.got.tgz:353392.got - 2010.06.28 00:19:55.
