data_PCOD8083049
_publ_section_title
;
Structure prediction by ZEFSAII (Michael W. Deem and Ramdas Pophale) SiO2 
 PCOD8083049
Probable space group: C 2/M
;
_chemical_formula_sum "Si O2"
_cell_formula_units_Z 56
_cell_length_a 20.596452
_cell_length_b 9.552225
_cell_length_c 22.325598
_cell_angle_alpha 90.000000
_cell_angle_beta 132.141373
_cell_angle_gamma 90.000000
_cell_volume 3256.913738
_symmetry_space_group_name_H-M "C 2/M"
_symmetry_group_IT_number 12
_symmetry_cell_setting 'monoclinic'
loop_
_space_group_symop_operation_xyz
x,y,z
-x,y,-z
-x,-y,-z
x,-y,z
1/2+x,1/2+y,z
1/2-x,1/2+y,-z
1/2-x,1/2-y,-z
1/2+x,1/2-y,z
loop_
_atom_site_type_symbol
_atom_site_label
_atom_site_fract_x
_atom_site_fract_y
_atom_site_fract_z
Si Si1 0.560988 0.836154 0.737903
Si Si2 0.985985 0.664195 0.159783
Si Si3 0.191475 0.337893 0.008457
Si Si4 0.174271 0.666122 0.243258
Si Si5 0.261972 0.337624 0.417845
Si Si6 0.770208 0.164525 0.184067
Si Si7 0.622474 0.159790 0.432025
O O1 0.540738 0.776162 0.791688
O O2 0.639959 0.748939 0.759152
O O3 0.478391 0.808893 0.644033
O O4 0.585875 0.000000 0.755692
O O5 0.000248 0.500000 0.176839
O O6 0.077033 0.731065 0.192752
O O7 0.910397 0.699326 0.065022
O O8 0.209495 0.500000 0.005408
O O9 0.214306 0.299772 0.090533
O O10 0.250000 0.250000 0.000000
O O11 0.166841 0.500000 0.238612
O O12 0.238016 0.714502 0.336436
O O13 0.213069 0.719065 0.204580
O O14 0.286816 0.500000 0.434126
O O15 0.346728 0.254181 0.493339
O O16 0.177996 0.305249 0.407066
O O17 0.791315 0.000000 0.201809
O O18 0.636821 0.000000 0.459945
#
# Coordination Sequence:
#
# PCOD8083049 Si02
#       7
#     8   8   8   8   8   8   8
#     4  10  18  32  53  74  97 133 170 198 239 299
#     4   9  16  29  52  74  95 129 169 201 236 291
#     4  10  19  31  50  76 101 128 164 205 246 286
#     4   9  17  32  51  73 102 132 164 202 247 297
#     4   9  16  29  50  73  97 127 160 201 250 291
#     4  10  21  33  49  76 105 129 160 208 253 287
#     4   9  17  29  49  76  98 122 164 208 242 284
#
# _framework density 17.194192999999999
#
# number of rings (size 3 to 8) (size 9 to 14) (size 15 to 20)
#    0.000    2.571    2.857    0.000    0.000    1.143 
#    0.000    4.286    0.000    6.857    0.000    2.000 
#    0.000    0.000    0.000    0.000    0.000    0.000 
#
# Total GULP energy -347184.502607 kJ/mol
# GULP energy per Si atom -12399.446522 kJ/mol
# Density = 1.715506 g / cm^3
# Si number density = 17.194193 Si / 1000 Ang^3
#
#
#
# Elastic Constant Matrix: (Units=GPa)
#
#
# Indices 1 2 3 4 5 6 
#
# 1 125.2031 37.0766 71.4684 0.0000 -1.7913 0.0000
# 2 37.0766 39.3281 46.1380 0.0000 2.3655 0.0000
# 3 71.4684 46.1380 141.4257 0.0000 -2.3855 0.0000
# 4 0.0000 0.0000 0.0000 24.0023 0.0000 3.0158
# 5 -1.7913 2.3655 -2.3855 0.0000 27.8440 0.0000
# 6 0.0000 0.0000 0.0000 3.0158 0.0000 22.5751
#
#
#
# Elastic Compliance Matrix: (Units=1/GPa)
#
#
# Indices 1 2 3 4 5 6 
#
# 1 0.012333 -0.007129 -0.003889 0.000000 0.001066 0.000000
# 2 -0.007129 0.045926 -0.011470 0.000000 -0.005343 0.000000
# 3 -0.003889 -0.011470 0.012809 0.000000 0.001822 0.000000
# 4 0.000000 0.000000 0.000000 0.042374 0.000000 -0.005661
# 5 0.001066 -0.005343 0.001822 0.000000 0.036593 0.000000
# 6 0.000000 0.000000 0.000000 -0.005661 0.000000 0.045053
#
#
# Mechanical properties :
#
#
# Convention : Reuss Voigt Hill
#
# Bulk Modulus (GPa) = 38.32643 68.36920 53.34782
# Shear Modulus (GPa) = 20.09970 24.96921 22.53445
#
# Velocity S-wave (km/s) = 3.42275 3.81489 3.62413
# Velocity P-wave (km/s) = 6.16109 7.69765 6.97183
#
# Compressibility (1/GPa) = 0.02609166
#
# Stress axis : x y z
#
# Youngs Moduli (GPa) = 81.08202 21.77438 78.07242
#
# Poissons Ratio (x) = 0.15523 0.30360
# Poissons Ratio (y) = 0.57804 0.89549
# Poissons Ratio (z) = 0.31531 0.24975
#
# Static dielectric constant tensor:
#      x y z
#    x 3.247210 0.000000 0.023000 
#    y 0.000000 2.939490 0.000000 
#    z 0.023000 0.000000 3.400710 
# 
# 
# High freq. dielectric constant tensor:
#      x y z
#    x 1.651360 0.000000 0.005580 
#    y 0.000000 1.629020 0.000000 
#    z 0.005580 0.000000 1.678090 
# 
# From -- ./inp_files/315248.got.cif
#   From: 2010.06.25/outbox.cif.g09.slc.cpg/sg12_158_cif.got.tgz:315248.got - 2010.06.28 00:19:55.
