data_PCOD8083396
_publ_section_title
;
Structure prediction by ZEFSAII (Michael W. Deem and Ramdas Pophale) SiO2 
 PCOD8083396
Probable space group: C 2/M
;
_chemical_formula_sum "Si O2"
_cell_formula_units_Z 60
_cell_length_a 25.469005
_cell_length_b 18.424142
_cell_length_c 15.078060
_cell_angle_alpha 90.000000
_cell_angle_beta 152.129357
_cell_angle_gamma 90.000000
_cell_volume 3307.538465
_symmetry_space_group_name_H-M "C 2/M"
_symmetry_group_IT_number 12
_symmetry_cell_setting 'monoclinic'
loop_
_space_group_symop_operation_xyz
x,y,z
-x,y,-z
-x,-y,-z
x,-y,z
1/2+x,1/2+y,z
1/2-x,1/2+y,-z
1/2-x,1/2-y,-z
1/2+x,1/2-y,z
loop_
_atom_site_type_symbol
_atom_site_label
_atom_site_fract_x
_atom_site_fract_y
_atom_site_fract_z
Si Si1 0.752629 0.417705 0.451852
Si Si2 0.665061 0.580790 0.516112
Si Si3 0.000000 0.748422 0.500000
Si Si4 0.944954 0.686039 0.735487
Si Si5 0.978239 0.192810 0.274570
Si Si6 0.184526 0.677538 0.156159
Si Si7 0.742582 0.773195 0.888598
Si Si8 0.126819 0.219755 0.218337
O O1 0.740585 0.500000 0.396674
O O2 0.735380 0.416467 0.531044
O O3 0.875346 0.386493 0.609267
O O4 0.661878 0.364345 0.272554
O O5 0.623610 0.500000 0.475489
O O6 0.554326 0.629947 0.347816
O O7 0.749840 0.605106 0.719849
O O8 0.010133 0.801179 0.601324
O O9 0.884682 0.698655 0.326318
O O10 0.982748 0.728579 0.703855
O O11 0.864538 0.739028 0.674006
O O12 0.053194 0.659626 0.951897
O O13 0.852289 0.173893 0.046624
O O14 0.238188 0.703936 0.144844
O O15 0.203939 0.738769 0.261272
O O16 0.750000 0.750000 0.000000
O O17 0.000000 0.220305 0.000000
#
# Coordination Sequence:
#
# PCOD8083396 Si02
#       8
#     8   8   4   8   8   8   8   8
#     4  11  22  33  48  76 114 147 176 214 258 313
#     4  11  21  33  51  77 114 149 172 208 266 327
#     4  10  18  32  57  84 103 124 174 236 270 312
#     4  10  19  33  53  77 105 139 178 221 266 306
#     4  10  19  34  54  80 109 137 178 223 267 319
#     4  10  19  33  54  78 103 137 179 221 263 317
#     4   9  19  32  54  81 107 128 167 231 275 311
#     4  10  19  32  53  75  99 138 180 219 260 308
#
# _framework density 18.140378999999999
#
# number of rings (size 3 to 8) (size 9 to 14) (size 15 to 20)
#    0.000    1.867    4.000    1.200    0.000    0.800 
#    0.000    1.667    0.000    0.000    0.000    0.933 
#    0.000    0.000    0.000    0.000    0.000    0.000 
#
# Total GULP energy -371692.916213 kJ/mol
# GULP energy per Si atom -12389.763874 kJ/mol
# Density = 1.809909 g / cm^3
# Si number density = 18.140379 Si / 1000 Ang^3
#
#
#
# Elastic Constant Matrix: (Units=GPa)
#
#
# Indices 1 2 3 4 5 6 
#
# 1 73.8217 17.3092 20.2046 0.0000 1.7626 0.0000
# 2 17.3092 85.9015 21.1551 0.0000 9.1893 0.0000
# 3 20.2046 21.1551 93.9240 0.0000 25.8750 0.0000
# 4 0.0000 0.0000 0.0000 15.4333 0.0000 -4.5703
# 5 1.7626 9.1893 25.8750 0.0000 37.2241 0.0000
# 6 0.0000 0.0000 0.0000 -4.5703 0.0000 8.6656
#
#
#
# Elastic Compliance Matrix: (Units=1/GPa)
#
#
# Indices 1 2 3 4 5 6 
#
# 1 0.014961 -0.002442 -0.003264 0.000000 0.002163 0.000000
# 2 -0.002442 0.012781 -0.001875 0.000000 -0.001736 0.000000
# 3 -0.003264 -0.001875 0.014349 0.000000 -0.009357 0.000000
# 4 0.000000 0.000000 0.000000 0.076788 0.000000 0.040498
# 5 0.002163 -0.001736 -0.009357 0.000000 0.033695 0.000000
# 6 0.000000 0.000000 0.000000 0.040498 0.000000 0.136758
#
#
# Mechanical properties :
#
#
# Convention : Reuss Voigt Hill
#
# Bulk Modulus (GPa) = 37.13659 41.22056 39.17858
# Shear Modulus (GPa) = 15.95053 25.26315 20.60684
#
# Velocity S-wave (km/s) = 2.96849 3.73587 3.37406
# Velocity P-wave (km/s) = 5.68027 6.43284 6.06823
#
# Compressibility (1/GPa) = 0.02692762
#
# Stress axis : x y z
#
# Youngs Moduli (GPa) = 66.84266 78.24220 69.69055
#
# Poissons Ratio (x) = 0.19108 0.22748
# Poissons Ratio (y) = 0.16324 0.13068
# Poissons Ratio (z) = 0.21819 0.14671
#
# Static dielectric constant tensor:
#      x y z
#    x 3.601810 0.000000 0.247830 
#    y 0.000000 3.073460 0.000000 
#    z 0.247830 0.000000 3.783050 
# 
# 
# High freq. dielectric constant tensor:
#      x y z
#    x 1.709360 0.000000 0.010400 
#    y 0.000000 1.648330 0.000000 
#    z 0.010400 0.000000 1.723060 
# 
# From -- ./inp_files/246739.got.cif
#   From: 2010.06.25/outbox.cif.g09.slc.cpg/sg12_124_cif.got.tgz:246739.got - 2010.06.28 00:19:55.
