data_PCOD8083929
_publ_section_title
;
Structure prediction by ZEFSAII (Michael W. Deem and Ramdas Pophale) SiO2 
 PCOD8083929
Probable space group: C 2/M
;
_chemical_formula_sum "Si O2"
_cell_formula_units_Z 64
_cell_length_a 15.361614
_cell_length_b 26.155213
_cell_length_c 16.982358
_cell_angle_alpha 90.000000
_cell_angle_beta 145.553920
_cell_angle_gamma 90.000000
_cell_volume 3859.453888
_symmetry_space_group_name_H-M "C 2/M"
_symmetry_group_IT_number 12
_symmetry_cell_setting 'monoclinic'
loop_
_space_group_symop_operation_xyz
x,y,z
-x,y,-z
-x,-y,-z
x,-y,z
1/2+x,1/2+y,z
1/2-x,1/2+y,-z
1/2-x,1/2-y,-z
1/2+x,1/2-y,z
loop_
_atom_site_type_symbol
_atom_site_label
_atom_site_fract_x
_atom_site_fract_y
_atom_site_fract_z
Si Si1 0.503993 0.390534 0.115595
Si Si2 0.335528 0.642675 0.617038
Si Si3 0.426206 0.317894 0.521880
Si Si4 0.500467 0.880984 0.409494
Si Si5 0.624728 0.242985 0.302790
Si Si6 0.773875 0.059680 0.842030
Si Si7 0.417370 0.275487 0.015270
Si Si8 0.921204 0.724812 0.291267
O O1 0.547839 0.390285 0.240937
O O2 0.647982 0.409552 0.171501
O O3 0.358566 0.427341 0.988185
O O4 0.458406 0.334342 0.054986
O O5 0.402416 0.643382 0.577737
O O6 0.317213 0.699507 0.638599
O O7 0.168816 0.616692 0.496507
O O8 0.500000 0.346266 0.500000
O O9 0.265067 0.291552 0.377968
O O10 0.552077 0.274707 0.636297
O O11 0.500000 0.897335 0.500000
O O12 0.402662 0.922188 0.286523
O O13 0.417439 0.825617 0.342098
O O14 0.564317 0.218601 0.338557
O O15 0.484366 0.242158 0.136789
O O16 0.785246 0.000000 0.833711
O O17 0.235148 0.267600 0.874134
O O18 0.500000 0.253421 0.000000
#
# Coordination Sequence:
#
# PCOD8083929 Si02
#       8
#     8   8   8   8   8   8   8   8
#     4  10  18  34  49  68  99 135 167 198 239 304
#     4  10  20  33  49  73  96 135 182 202 244 305
#     4  11  20  33  49  70 104 137 172 223 257 280
#     4  12  20  32  52  71 100 136 167 201 248 309
#     4  10  20  31  45  68  99 134 174 224 243 284
#     4  11  22  35  51  76 104 132 162 205 259 309
#     4  11  19  28  46  68  93 134 184 200 238 289
#     4  11  19  32  46  68  97 138 181 209 244 287
#
# _framework density 16.582657000000001
#
# number of rings (size 3 to 8) (size 9 to 14) (size 15 to 20)
#    0.000    1.250    6.250    3.000    1.750    0.250 
#    0.000    0.000    0.000    0.000    0.000    0.000 
#    0.000    5.500    0.000    0.000    0.000    0.000 
#
# Total GULP energy -396753.832019 kJ/mol
# GULP energy per Si atom -12398.557251 kJ/mol
# Density = 1.654491 g / cm^3
# Si number density = 16.582657 Si / 1000 Ang^3
#
#
#
# Elastic Constant Matrix: (Units=GPa)
#
#
# Indices 1 2 3 4 5 6 
#
# 1 90.0043 16.7413 40.0437 0.0000 -2.6071 0.0000
# 2 16.7413 46.7532 29.3192 0.0000 2.3322 0.0000
# 3 40.0437 29.3192 122.1448 0.0000 9.2055 0.0000
# 4 0.0000 0.0000 0.0000 14.8197 0.0000 -1.4079
# 5 -2.6071 2.3322 9.2055 0.0000 24.5983 0.0000
# 6 0.0000 0.0000 0.0000 -1.4079 0.0000 -0.2483
#
#
#
# Elastic Compliance Matrix: (Units=1/GPa)
#
#
# Indices 1 2 3 4 5 6 
#
# 1 0.013466 -0.002427 -0.004072 0.000000 0.003181 0.000000
# 2 -0.002427 0.025617 -0.005300 0.000000 -0.000702 0.000000
# 3 -0.004072 -0.005300 0.011102 0.000000 -0.004084 0.000000
# 4 0.000000 0.000000 0.000000 0.043857 0.000000 -0.248639
# 5 0.003181 -0.000702 -0.004084 0.000000 0.042585 0.000000
# 6 0.000000 0.000000 0.000000 -0.248639 0.000000 -2.617244
#
#
# Mechanical properties :
#
#
# Convention : Reuss Voigt Hill
#
# Bulk Modulus (GPa) = 37.61343 47.90118 42.75731
# Shear Modulus (GPa) = -2.04235 19.35380 8.65572
#
# Velocity S-wave (km/s) = -1.11099 3.42001 2.28715
# Velocity P-wave (km/s) = 4.59194 6.67415 5.72845
#
# Compressibility (1/GPa) = 0.02658625
#
# Stress axis : x y z
#
# Youngs Moduli (GPa) = 74.26257 39.03669 90.07442
#
# Poissons Ratio (x) = 0.09474 0.36676
# Poissons Ratio (y) = 0.18024 0.47743
# Poissons Ratio (z) = 0.30238 0.20691
#
# Static dielectric constant tensor:
#      x y z
#    x 2.994190 0.000000 -0.020000 
#    y 0.000000 2.717940 0.000000 
#    z -0.020000 0.000000 3.507690 
# 
# 
# High freq. dielectric constant tensor:
#      x y z
#    x 1.620430 0.000000 0.007590 
#    y 0.000000 1.581910 0.000000 
#    z 0.007590 0.000000 1.666210 
# 
# From -- ./inp_files/218951.got.cif
#   From: 2010.06.25/outbox.cif.g09.slc.cpg/sg12_110_cif.got.tgz:218951.got - 2010.06.28 00:19:55.
