data_PCOD8083751
_publ_section_title
;
Structure prediction by ZEFSAII (Michael W. Deem and Ramdas Pophale) SiO2 
 PCOD8083751
Probable space group: C 2/M
;
_chemical_formula_sum "Si O2"
_cell_formula_units_Z 64
_cell_length_a 20.011509
_cell_length_b 8.973822
_cell_length_c 24.452083
_cell_angle_alpha 90.000000
_cell_angle_beta 125.251578
_cell_angle_gamma 90.000000
_cell_volume 3585.883473
_symmetry_space_group_name_H-M "C 2/M"
_symmetry_group_IT_number 12
_symmetry_cell_setting 'monoclinic'
loop_
_space_group_symop_operation_xyz
x,y,z
-x,y,-z
-x,-y,-z
x,-y,z
1/2+x,1/2+y,z
1/2-x,1/2+y,-z
1/2-x,1/2-y,-z
1/2+x,1/2-y,z
loop_
_atom_site_type_symbol
_atom_site_label
_atom_site_fract_x
_atom_site_fract_y
_atom_site_fract_z
Si Si1 0.750029 0.171981 0.168129
Si Si2 0.464697 0.826858 0.174426
Si Si3 0.033128 0.324955 0.321990
Si Si4 0.704509 0.675067 0.928693
Si Si5 0.133847 0.328837 0.207125
Si Si6 0.785642 0.322368 0.570694
Si Si7 0.259254 0.824177 0.342972
Si Si8 0.625513 0.173741 0.697007
O O1 0.744081 0.217434 0.101730
O O2 0.665864 0.209223 0.160937
O O3 0.826054 0.255964 0.230060
O O4 0.771846 0.000000 0.183608
O O5 0.498141 0.763881 0.248067
O O6 0.387940 0.732367 0.118657
O O7 0.536589 0.802992 0.163531
O O8 0.439302 0.000000 0.166791
O O9 0.043837 0.500000 0.320421
O O10 0.121955 0.259294 0.378181
O O11 0.970193 0.283338 0.341426
O O12 0.702276 0.500000 0.937519
O O13 0.750000 0.750000 0.000000
O O14 0.154607 0.500000 0.232736
O O15 0.178036 0.223956 0.272091
O O16 0.781292 0.500000 0.564507
O O17 0.750000 0.250000 0.500000
O O18 0.732417 0.264900 0.596648
O O19 0.339209 0.776786 0.345146
O O20 0.256192 0.000000 0.352995
O O21 0.638680 0.000000 0.710564
#
# Coordination Sequence:
#
# PCOD8083751 Si02
#       8
#     8   8   8   8   8   8   8   8
#     4   9  18  32  51  77 106 135 173 216 262 310
#     4  10  18  33  57  81 104 136 176 218 262 312
#     4   9  17  32  55  80 104 135 177 216 258 310
#     4  11  23  37  53  77 108 144 178 218 266 319
#     4   9  17  32  54  79 106 137 172 216 264 310
#     4  11  22  38  56  77 107 144 180 219 265 317
#     4  10  19  31  51  80 109 138 172 213 261 312
#     4   9  17  31  53  79 105 134 172 215 259 309
#
# _framework density 17.847764000000002
#
# number of rings (size 3 to 8) (size 9 to 14) (size 15 to 20)
#    0.000    2.250    2.500    1.125    0.000    1.500 
#    0.000    2.500    0.000    7.500    0.000    0.000 
#    0.000    0.000    0.000    0.000    0.000    0.000 
#
# Total GULP energy -396700.999742 kJ/mol
# GULP energy per Si atom -12396.906242 kJ/mol
# Density = 1.780714 g / cm^3
# Si number density = 17.847764 Si / 1000 Ang^3
#
#
#
# Elastic Constant Matrix: (Units=GPa)
#
#
# Indices 1 2 3 4 5 6 
#
# 1 133.8147 41.0469 74.7980 0.0000 -12.3125 0.0000
# 2 41.0469 57.4820 44.2494 0.0000 -8.2021 0.0000
# 3 74.7980 44.2494 126.4204 0.0000 -9.2619 0.0000
# 4 0.0000 0.0000 0.0000 29.6582 0.0000 -1.4138
# 5 -12.3125 -8.2021 -9.2619 0.0000 26.5225 0.0000
# 6 0.0000 0.0000 0.0000 -1.4138 0.0000 24.9320
#
#
#
# Elastic Compliance Matrix: (Units=1/GPa)
#
#
# Indices 1 2 3 4 5 6 
#
# 1 0.012008 -0.003966 -0.005540 0.000000 0.002414 0.000000
# 2 -0.003966 0.025675 -0.006356 0.000000 0.003879 0.000000
# 3 -0.005540 -0.006356 0.013424 0.000000 0.000150 0.000000
# 4 0.000000 0.000000 0.000000 0.033809 0.000000 0.001917
# 5 0.002414 0.003879 0.000150 0.000000 0.040076 0.000000
# 6 0.000000 0.000000 0.000000 0.001917 0.000000 0.040218
#
#
# Mechanical properties :
#
#
# Convention : Reuss Voigt Hill
#
# Bulk Modulus (GPa) = 51.59086 70.87842 61.23464
# Shear Modulus (GPa) = 24.58275 26.73074 25.65675
#
# Velocity S-wave (km/s) = 3.71530 3.87422 3.79559
# Velocity P-wave (km/s) = 6.88284 7.73381 7.32070
#
# Compressibility (1/GPa) = 0.01938328
#
# Stress axis : x y z
#
# Youngs Moduli (GPa) = 83.27648 38.94820 74.49591
#
# Poissons Ratio (x) = 0.15447 0.41269
# Poissons Ratio (y) = 0.33027 0.47350
# Poissons Ratio (z) = 0.46134 0.24756
#
# Static dielectric constant tensor:
#      x y z
#    x 3.935050 0.000000 -0.083240 
#    y 0.000000 3.239040 0.000000 
#    z -0.083240 0.000000 3.101770 
# 
# 
# High freq. dielectric constant tensor:
#      x y z
#    x 1.710960 0.000000 -0.009650 
#    y 0.000000 1.682200 0.000000 
#    z -0.009650 0.000000 1.658960 
# 
# From -- ./inp_files/320104.got.cif
#   From: 2010.06.25/outbox.cif.g09.slc.cpg/sg12_161_cif.got.tgz:320104.got - 2010.06.28 00:19:55.
