data_PCOD8083300
_publ_section_title
;
Structure prediction by ZEFSAII (Michael W. Deem and Ramdas Pophale) SiO2 
 PCOD8083300
Probable space group: C 2/M
;
_chemical_formula_sum "Si O2"
_cell_formula_units_Z 56
_cell_length_a 10.116021
_cell_length_b 25.281231
_cell_length_c 14.629526
_cell_angle_alpha 90.000000
_cell_angle_beta 120.907286
_cell_angle_gamma 90.000000
_cell_volume 3210.149636
_symmetry_space_group_name_H-M "C 2/M"
_symmetry_group_IT_number 12
_symmetry_cell_setting 'monoclinic'
loop_
_space_group_symop_operation_xyz
x,y,z
-x,y,-z
-x,-y,-z
x,-y,z
1/2+x,1/2+y,z
1/2-x,1/2+y,-z
1/2-x,1/2-y,-z
1/2+x,1/2-y,z
loop_
_atom_site_type_symbol
_atom_site_label
_atom_site_fract_x
_atom_site_fract_y
_atom_site_fract_z
Si Si1 0.075522 0.500000 0.930282
Si Si2 0.676990 0.704917 0.264232
Si Si3 0.002866 0.703632 0.722873
Si Si4 0.417062 0.395958 0.876692
Si Si5 0.160771 0.333487 0.506244
Si Si6 0.389455 0.056166 0.546194
Si Si7 0.435083 0.500000 0.078516
Si Si8 0.932158 0.412384 0.212503
O O1 0.019716 0.447369 0.857283
O O2 0.254341 0.500000 0.014041
O O3 0.000000 0.500000 0.000000
O O4 0.830127 0.719125 0.260378
O O5 0.555894 0.753386 0.224244
O O6 0.588806 0.654492 0.192025
O O7 0.717469 0.694268 0.384838
O O8 0.015919 0.648462 0.781910
O O9 0.872687 0.700013 0.597082
O O10 0.503402 0.444838 0.855127
O O11 0.249688 0.416840 0.841967
O O12 0.500000 0.378598 0.000000
O O13 0.222879 0.392820 0.503248
O O14 0.000000 0.342359 0.500000
O O15 0.500000 0.051684 0.500000
O O16 0.495534 0.063318 0.671819
O O17 0.297435 0.000000 0.522649
O O18 0.500000 0.500000 0.000000
#
# Coordination Sequence:
#
# PCOD8083300 Si02
#       8
#     4   8   8   8   8   8   4   8
#     4  12  22  36  55  80 104 140 177 214 258 312
#     4  10  19  34  50  76 103 135 171 212 254 303
#     4   9  19  33  54  74 102 132 173 209 263 305
#     4  10  18  32  56  74 101 131 174 211 261 297
#     4   8  15  29  46  72 101 131 165 208 248 313
#     4   9  15  23  44  78 108 128 163 210 268 310
#     4  10  18  36  58  74  97 137 175 209 260 306
#     4  10  18  34  52  77 106 139 167 220 263 305
#
# _framework density 17.444669999999999
#
# number of rings (size 3 to 8) (size 9 to 14) (size 15 to 20)
#    0.000    2.429    3.571    3.000    0.000    0.000 
#    3.857    3.571    0.000    0.000    0.000    0.000 
#    0.000    8.000    0.000    0.000    0.000    0.000 
#
# Total GULP energy -346923.242105 kJ/mol
# GULP energy per Si atom -12390.115789 kJ/mol
# Density = 1.740497 g / cm^3
# Si number density = 17.444670 Si / 1000 Ang^3
#
#
#
# Elastic Constant Matrix: (Units=GPa)
#
#
# Indices 1 2 3 4 5 6 
#
# 1 63.5445 56.3330 34.4784 0.0000 -8.7078 0.0000
# 2 56.3330 151.8839 45.8463 0.0000 -6.5428 0.0000
# 3 34.4784 45.8463 68.5824 0.0000 -5.5413 0.0000
# 4 0.0000 0.0000 0.0000 30.2152 0.0000 -4.4426
# 5 -8.7078 -6.5428 -5.5413 0.0000 19.4494 0.0000
# 6 0.0000 0.0000 0.0000 -4.4426 0.0000 24.5187
#
#
#
# Elastic Compliance Matrix: (Units=1/GPa)
#
#
# Indices 1 2 3 4 5 6 
#
# 1 0.028030 -0.007517 -0.008451 0.000000 0.007613 0.000000
# 2 -0.007517 0.010293 -0.003167 0.000000 -0.000805 0.000000
# 3 -0.008451 -0.003167 0.021039 0.000000 0.001145 0.000000
# 4 0.000000 0.000000 0.000000 0.034002 0.000000 0.006161
# 5 0.007613 -0.000805 0.001145 0.000000 0.054879 0.000000
# 6 0.000000 0.000000 0.000000 0.006161 0.000000 0.041902
#
#
# Mechanical properties :
#
#
# Convention : Reuss Voigt Hill
#
# Bulk Modulus (GPa) = 47.41171 61.92513 54.66842
# Shear Modulus (GPa) = 21.23629 24.66019 22.94824
#
# Velocity S-wave (km/s) = 3.49284 3.76390 3.63090
# Velocity P-wave (km/s) = 6.59575 7.37999 6.99887
#
# Compressibility (1/GPa) = 0.02109183
#
# Stress axis : x y z
#
# Youngs Moduli (GPa) = 35.67635 97.15059 47.53041
#
# Poissons Ratio (x) = 0.73030 0.40169
# Poissons Ratio (y) = 0.26819 0.15052
# Poissons Ratio (z) = 0.30151 0.30766
#
# Static dielectric constant tensor:
#      x y z
#    x 2.668680 0.000000 0.029690 
#    y 0.000000 3.766520 0.000000 
#    z 0.029690 0.000000 3.366140 
# 
# 
# High freq. dielectric constant tensor:
#      x y z
#    x 1.617320 0.000000 0.001890 
#    y 0.000000 1.696290 0.000000 
#    z 0.001890 0.000000 1.671040 
# 
# From -- ./inp_files/199950.got.cif
#   From: 2010.06.25/outbox.cif.g09.slc.cpg/sg12_100_cif.got.tgz:199950.got - 2010.06.28 00:19:55.
