data_PCOD8083011
_publ_section_title
;
Structure prediction by ZEFSAII (Michael W. Deem and Ramdas Pophale) SiO2 
 PCOD8083011
Probable space group: C 2/M
;
_chemical_formula_sum "Si O2"
_cell_formula_units_Z 64
_cell_length_a 23.066429
_cell_length_b 10.947719
_cell_length_c 25.014810
_cell_angle_alpha 90.000000
_cell_angle_beta 146.728245
_cell_angle_gamma 90.000000
_cell_volume 3465.496851
_symmetry_space_group_name_H-M "C 2/M"
_symmetry_group_IT_number 12
_symmetry_cell_setting 'monoclinic'
loop_
_space_group_symop_operation_xyz
x,y,z
-x,y,-z
-x,-y,-z
x,-y,z
1/2+x,1/2+y,z
1/2-x,1/2+y,-z
1/2-x,1/2-y,-z
1/2+x,1/2-y,z
loop_
_atom_site_type_symbol
_atom_site_label
_atom_site_fract_x
_atom_site_fract_y
_atom_site_fract_z
Si Si1 0.731993 0.640620 0.585922
Si Si2 0.532785 0.635989 0.372875
Si Si3 0.678438 0.272923 0.027273
Si Si4 0.303649 0.139533 0.757655
Si Si5 0.431984 0.291911 0.714767
Si Si6 0.698632 0.641240 0.788320
Si Si7 0.869600 0.365595 0.113137
Si Si8 0.450195 0.364817 0.846637
O O1 0.737259 0.500000 0.572685
O O2 0.624068 0.700753 0.479080
O O3 0.732601 0.657082 0.650251
O O4 0.832628 0.702558 0.636553
O O5 0.518762 0.500000 0.384686
O O6 0.570338 0.627232 0.340246
O O7 0.418157 0.699390 0.292165
O O8 0.715500 0.214880 0.111441
O O9 0.766745 0.362023 0.071175
O O10 0.658488 0.165276 0.969571
O O11 0.572984 0.350651 0.956045
O O12 0.226582 0.156810 0.747906
O O13 0.391537 0.247031 0.827059
O O14 0.353277 0.000000 0.796145
O O15 0.541538 0.220746 0.794917
O O16 0.431617 0.370736 0.768505
O O17 0.702033 0.500000 0.809120
O O18 0.917487 0.500000 0.150214
O O19 0.413517 0.500000 0.839891
#
# Coordination Sequence:
#
# PCOD8083011 Si02
#       8
#     8   8   8   8   8   8   8   8
#     4   9  18  32  52  79 106 136 173 223 271 315
#     4  10  19  31  51  79 108 134 173 222 272 318
#     4  10  20  33  49  76 105 139 177 217 261 320
#     4   9  20  38  58  79 105 140 183 226 270 317
#     4  10  18  32  52  77 108 140 174 211 263 325
#     4  10  20  35  54  77 106 140 180 225 267 315
#     4  10  19  31  49  73 106 142 174 212 262 318
#     4  10  21  36  56  80 109 144 181 220 267 321
#
# _framework density 18.467769000000001
#
# number of rings (size 3 to 8) (size 9 to 14) (size 15 to 20)
#    0.000    2.250    1.250    1.875    0.000    4.500 
#    0.000    5.625    0.000    0.750    0.000    3.500 
#    0.000    0.000    0.000    0.000    0.000    0.000 
#
# Total GULP energy -396623.859760 kJ/mol
# GULP energy per Si atom -12394.495618 kJ/mol
# Density = 1.842574 g / cm^3
# Si number density = 18.467769 Si / 1000 Ang^3
#
#
#
# Elastic Constant Matrix: (Units=GPa)
#
#
# Indices 1 2 3 4 5 6 
#
# 1 89.5288 23.9786 40.4105 0.0000 -1.0963 0.0000
# 2 23.9786 82.3235 27.6348 0.0000 5.4967 0.0000
# 3 40.4105 27.6348 113.2370 0.0000 10.3555 0.0000
# 4 0.0000 0.0000 0.0000 14.0836 0.0000 -5.3406
# 5 -1.0963 5.4967 10.3555 0.0000 23.5675 0.0000
# 6 0.0000 0.0000 0.0000 -5.3406 0.0000 2.6051
#
#
#
# Elastic Compliance Matrix: (Units=1/GPa)
#
#
# Indices 1 2 3 4 5 6 
#
# 1 0.014045 -0.002754 -0.004645 0.000000 0.003337 0.000000
# 2 -0.002754 0.013840 -0.002175 0.000000 -0.002400 0.000000
# 3 -0.004645 -0.002175 0.011453 0.000000 -0.004741 0.000000
# 4 0.000000 0.000000 0.000000 0.318996 0.000000 0.653970
# 5 0.003337 -0.002400 -0.004741 0.000000 0.045230 -0.000001
# 6 0.000000 0.000000 0.000000 0.653970 -0.000001 1.724561
#
#
# Mechanical properties :
#
#
# Convention : Reuss Voigt Hill
#
# Bulk Modulus (GPa) = 49.53261 52.12633 50.82947
# Shear Modulus (GPa) = 2.32126 20.92225 11.62176
#
# Velocity S-wave (km/s) = 1.12234 3.36952 2.51131
# Velocity P-wave (km/s) = 5.34405 6.58977 5.99933
#
# Compressibility (1/GPa) = 0.02018872
#
# Stress axis : x y z
#
# Youngs Moduli (GPa) = 71.20073 72.25489 87.31258
#
# Poissons Ratio (x) = 0.19902 0.40557
# Poissons Ratio (y) = 0.19611 0.18991
# Poissons Ratio (z) = 0.33073 0.15716
#
# Static dielectric constant tensor:
#      x y z
#    x 3.260640 0.000000 0.093340 
#    y 0.000000 3.217150 0.000000 
#    z 0.093340 0.000000 3.544750 
# 
# 
# High freq. dielectric constant tensor:
#      x y z
#    x 1.706900 0.000000 0.002720 
#    y 0.000000 1.696610 0.000000 
#    z 0.002720 0.000000 1.722080 
# 
# From -- ./inp_files/174659.got.cif
#   From: 2010.06.25/outbox.cif.g09.slc.cpg/sg12_88_cif.got.tgz:174659.got - 2010.06.28 00:19:55.
