data_PCOD8083578
_publ_section_title
;
Structure prediction by ZEFSAII (Michael W. Deem and Ramdas Pophale) SiO2 
 PCOD8083578
Probable space group: C 2/M
;
_chemical_formula_sum "Si O2"
_cell_formula_units_Z 64
_cell_length_a 20.503348
_cell_length_b 18.597507
_cell_length_c 11.137547
_cell_angle_alpha 90.000000
_cell_angle_beta 128.437167
_cell_angle_gamma 90.000000
_cell_volume 3326.533080
_symmetry_space_group_name_H-M "C 2/M"
_symmetry_group_IT_number 12
_symmetry_cell_setting 'monoclinic'
loop_
_space_group_symop_operation_xyz
x,y,z
-x,y,-z
-x,-y,-z
x,-y,z
1/2+x,1/2+y,z
1/2-x,1/2+y,-z
1/2-x,1/2-y,-z
1/2+x,1/2-y,z
loop_
_atom_site_type_symbol
_atom_site_label
_atom_site_fract_x
_atom_site_fract_y
_atom_site_fract_z
Si Si1 0.523773 0.679825 0.163142
Si Si2 0.301906 0.834922 0.342406
Si Si3 0.187650 0.417893 0.277833
Si Si4 0.434582 0.163179 0.704354
Si Si5 0.881615 0.212261 0.158837
Si Si6 0.268263 0.197313 0.859974
Si Si7 0.680603 0.582749 0.364788
Si Si8 0.437699 0.844975 0.328819
O O1 0.550341 0.762658 0.207839
O O2 0.442855 0.660932 0.153022
O O3 0.596959 0.627407 0.287774
O O4 0.500000 0.663574 0.000000
O O5 0.372235 0.820513 0.522606
O O6 0.258348 0.759124 0.264177
O O7 0.232208 0.889998 0.308199
O O8 0.344660 0.867914 0.268184
O O9 0.177952 0.500000 0.227593
O O10 0.103237 0.394530 0.248317
O O11 0.199074 0.371809 0.171800
O O12 0.266128 0.406411 0.454317
O O13 0.522075 0.129301 0.752641
O O14 0.808576 0.169885 0.144112
O O15 0.935799 0.257427 0.317768
O O16 0.842055 0.273238 0.026937
O O17 0.657982 0.500000 0.316613
O O18 0.500000 0.873099 0.500000
#
# Coordination Sequence:
#
# PCOD8083578 Si02
#       8
#     8   8   8   8   8   8   8   8
#     4  11  20  32  52  76 101 132 167 208 259 302
#     4   9  16  30  52  73  96 132 171 212 260 298
#     4  10  20  34  52  74 103 138 170 205 252 303
#     4   9  17  30  50  76 101 126 168 215 253 305
#     4   9  19  31  51  78 100 123 162 211 253 299
#     4  10  18  33  54  75 100 129 169 215 256 298
#     4  10  21  34  48  72 104 137 176 212 245 299
#     4   8  15  28  48  74 100 124 157 206 257 298
#
# _framework density 19.239249999999998
#
# number of rings (size 3 to 8) (size 9 to 14) (size 15 to 20)
#    0.000    2.500    0.000    3.000    0.000    3.250 
#    0.000    1.250    0.000   24.375    0.000    0.000 
#    0.000    0.000    0.000    0.000    0.000    0.000 
#
# Total GULP energy -396471.971230 kJ/mol
# GULP energy per Si atom -12389.749101 kJ/mol
# Density = 1.919546 g / cm^3
# Si number density = 19.239250 Si / 1000 Ang^3
#
#
#
# Elastic Constant Matrix: (Units=GPa)
#
#
# Indices 1 2 3 4 5 6 
#
# 1 173.6203 56.5943 20.9417 0.0000 -0.9905 0.0000
# 2 56.5943 81.7783 15.8280 0.0000 -6.0606 0.0000
# 3 20.9417 15.8280 28.5791 0.0000 -3.5031 0.0000
# 4 0.0000 0.0000 0.0000 16.6112 0.0000 1.2348
# 5 -0.9905 -6.0606 -3.5031 0.0000 24.6358 0.0000
# 6 0.0000 0.0000 0.0000 1.2348 0.0000 8.1286
#
#
#
# Elastic Compliance Matrix: (Units=1/GPa)
#
#
# Indices 1 2 3 4 5 6 
#
# 1 0.007702 -0.004821 -0.003136 0.000000 -0.001322 0.000000
# 2 -0.004821 0.016847 -0.005408 0.000000 0.003182 0.000000
# 3 -0.003136 -0.005408 0.040816 0.000000 0.004347 0.000000
# 4 0.000000 0.000000 0.000000 0.060888 0.000000 -0.009250
# 5 -0.001322 0.003182 0.004347 0.000000 0.041939 0.000000
# 6 0.000000 0.000000 0.000000 -0.009250 0.000000 0.124427
#
#
# Mechanical properties :
#
#
# Convention : Reuss Voigt Hill
#
# Bulk Modulus (GPa) = 25.88248 52.30062 39.09155
# Shear Modulus (GPa) = 15.04994 22.58270 18.81632
#
# Velocity S-wave (km/s) = 2.79991 3.42977 3.13072
# Velocity P-wave (km/s) = 4.89232 6.55193 5.78198
#
# Compressibility (1/GPa) = 0.03863618
#
# Stress axis : x y z
#
# Youngs Moduli (GPa) = 129.83806 59.35748 24.50012
#
# Poissons Ratio (x) = 0.28617 0.07682
# Poissons Ratio (y) = 0.62597 0.13249
# Poissons Ratio (z) = 0.40712 0.32099
#
# Static dielectric constant tensor:
#      x y z
#    x 3.999760 0.000000 0.038540 
#    y 0.000000 3.064320 0.000000 
#    z 0.038540 0.000000 3.526680 
# 
# 
# High freq. dielectric constant tensor:
#      x y z
#    x 1.776550 0.000000 0.002350 
#    y 0.000000 1.692760 0.000000 
#    z 0.002350 0.000000 1.745280 
# 
# From -- ./inp_files/168802.got.cif
#   From: 2010.06.25/outbox.cif.g09.slc.cpg/sg12_85_cif.got.tgz:168802.got - 2010.06.28 00:19:55.
