data_PCOD8083522
_publ_section_title
;
Structure prediction by ZEFSAII (Michael W. Deem and Ramdas Pophale) SiO2 
 PCOD8083522
Probable space group: C 2/M
;
_chemical_formula_sum "Si O2"
_cell_formula_units_Z 56
_cell_length_a 17.292323
_cell_length_b 14.274287
_cell_length_c 15.908900
_cell_angle_alpha 90.000000
_cell_angle_beta 123.299101
_cell_angle_gamma 90.000000
_cell_volume 3282.151196
_symmetry_space_group_name_H-M "C 2/M"
_symmetry_group_IT_number 12
_symmetry_cell_setting 'monoclinic'
loop_
_space_group_symop_operation_xyz
x,y,z
-x,y,-z
-x,-y,-z
x,-y,z
1/2+x,1/2+y,z
1/2-x,1/2+y,-z
1/2-x,1/2-y,-z
1/2+x,1/2-y,z
loop_
_atom_site_type_symbol
_atom_site_label
_atom_site_fract_x
_atom_site_fract_y
_atom_site_fract_z
Si Si1 0.398897 0.898422 0.432676
Si Si2 0.145130 0.889329 0.085291
Si Si3 0.003367 0.888920 0.137540
Si Si4 0.646694 0.895088 0.785385
Si Si5 0.162043 0.760530 0.503577
Si Si6 0.974510 0.780015 0.290730
Si Si7 0.598991 0.394617 0.601655
O O1 0.500000 0.849289 0.500000
O O2 0.363587 0.909246 0.318728
O O3 0.327785 0.834736 0.438604
O O4 0.404602 0.000000 0.480386
O O5 0.250279 0.853975 0.136509
O O6 0.094783 0.853627 0.141061
O O7 0.145846 0.000000 0.091814
O O8 0.086705 0.857473 0.969280
O O9 0.997724 0.843353 0.225093
O O10 0.005866 0.000000 0.151729
O O11 0.572597 0.816831 0.770602
O O12 0.631589 0.000000 0.817921
O O13 0.250000 0.750000 0.500000
O O14 0.166282 0.846585 0.572619
O O15 0.070778 0.759186 0.392836
O O16 0.906000 0.833954 0.315132
O O17 0.500000 0.400440 0.500000
O O18 0.635073 0.500000 0.643377
#
# Coordination Sequence:
#
# PCOD8083522 Si02
#       7
#     8   8   8   8   8   8   8
#     4  10  18  33  52  69  94 129 167 205 242 282
#     4   8  17  34  53  74 103 125 155 206 255 294
#     4   9  18  33  52  78 103 126 156 202 253 298
#     4  10  19  32  53  73  95 130 166 204 247 287
#     4  11  22  33  46  70 101 131 167 204 242 288
#     4  11  20  31  52  73  98 130 169 199 240 298
#     4   9  18  34  48  64  95 129 159 197 239 285
#
# _framework density 17.061979000000001
#
# number of rings (size 3 to 8) (size 9 to 14) (size 15 to 20)
#    0.000    2.286    2.857    1.714    2.000    1.714 
#    0.000    0.000    0.000    0.000    0.000    2.000 
#    0.000    0.000    0.000    0.000    0.000    0.000 
#
# Total GULP energy -346923.522228 kJ/mol
# GULP energy per Si atom -12390.125794 kJ/mol
# Density = 1.702315 g / cm^3
# Si number density = 17.061979 Si / 1000 Ang^3
#
#
#
# Elastic Constant Matrix: (Units=GPa)
#
#
# Indices 1 2 3 4 5 6 
#
# 1 65.7184 32.3099 0.7506 0.0000 -3.5228 0.0000
# 2 32.3099 84.4665 7.5541 0.0000 -4.0501 0.0000
# 3 0.7506 7.5541 35.6107 0.0000 -0.2938 0.0000
# 4 0.0000 0.0000 0.0000 23.6487 0.0000 -13.7722
# 5 -3.5228 -4.0501 -0.2938 0.0000 29.0445 0.0000
# 6 0.0000 0.0000 0.0000 -13.7722 0.0000 32.8343
#
#
#
# Elastic Compliance Matrix: (Units=1/GPa)
#
#
# Indices 1 2 3 4 5 6 
#
# 1 0.018835 -0.007246 0.001151 0.000000 0.001286 0.000000
# 2 -0.007246 0.014936 -0.003006 0.000000 0.001173 0.000000
# 3 0.001151 -0.003006 0.028695 0.000000 0.000011 0.000000
# 4 0.000000 0.000000 0.000000 0.055953 0.000000 0.023469
# 5 0.001286 0.001173 0.000011 0.000000 0.034750 0.000000
# 6 0.000000 0.000000 0.000000 0.023469 0.000000 0.040300
#
#
# Mechanical properties :
#
#
# Convention : Reuss Voigt Hill
#
# Bulk Modulus (GPa) = 22.59218 29.66944 26.13081
# Shear Modulus (GPa) = 22.08239 26.78424 24.43331
#
# Velocity S-wave (km/s) = 3.60146 3.96639 3.78833
# Velocity P-wave (km/s) = 5.52848 6.19704 5.87228
#
# Compressibility (1/GPa) = 0.04426310
#
# Stress axis : x y z
#
# Youngs Moduli (GPa) = 53.09391 66.95345 34.84936
#
# Poissons Ratio (x) = 0.48513 -0.04010
# Poissons Ratio (y) = 0.38471 0.10475
# Poissons Ratio (z) = -0.06109 0.20126
#
# Static dielectric constant tensor:
#      x y z
#    x 3.237610 0.000000 0.155930 
#    y 0.000000 3.493540 0.000000 
#    z 0.155930 0.000000 3.278380 
# 
# 
# High freq. dielectric constant tensor:
#      x y z
#    x 1.641350 0.000000 0.001870 
#    y 0.000000 1.653460 0.000000 
#    z 0.001870 0.000000 1.647390 
# 
# From -- ./inp_files/224653.got.cif
#   From: 2010.06.25/outbox.cif.g09.slc.cpg/sg12_113_cif.got.tgz:224653.got - 2010.06.28 00:19:55.
