data_PCOD8083779
_publ_section_title
;
Structure prediction by ZEFSAII (Michael W. Deem and Ramdas Pophale) SiO2 
 PCOD8083779
Probable space group: C 2/M
;
_chemical_formula_sum "Si O2"
_cell_formula_units_Z 56
_cell_length_a 19.438673
_cell_length_b 8.681929
_cell_length_c 27.073117
_cell_angle_alpha 90.000000
_cell_angle_beta 38.292962
_cell_angle_gamma 90.000000
_cell_volume 2831.329576
_symmetry_space_group_name_H-M "C 2/M"
_symmetry_group_IT_number 12
_symmetry_cell_setting 'monoclinic'
loop_
_space_group_symop_operation_xyz
x,y,z
-x,y,-z
-x,-y,-z
x,-y,z
1/2+x,1/2+y,z
1/2-x,1/2+y,-z
1/2-x,1/2-y,-z
1/2+x,1/2-y,z
loop_
_atom_site_type_symbol
_atom_site_label
_atom_site_fract_x
_atom_site_fract_y
_atom_site_fract_z
Si Si1 0.064879 0.181082 0.800587
Si Si2 0.601505 0.817787 0.677078
Si Si3 0.844559 0.819525 0.979858
Si Si4 0.241614 0.680167 0.769220
Si Si5 0.126026 0.680999 0.934530
Si Si6 0.996307 0.181223 0.638774
Si Si7 0.196026 0.683135 0.481294
O O1 0.045749 0.267947 0.759695
O O2 0.181435 0.228201 0.759415
O O3 0.965527 0.234773 0.892658
O O4 0.063134 0.000000 0.791465
O O5 0.526812 0.755648 0.674211
O O6 0.726898 0.746660 0.606332
O O7 0.609183 0.000000 0.668490
O O8 0.834821 0.000000 0.982713
O O9 0.750000 0.750000 0.000000
O O10 0.821632 0.764443 0.048109
O O11 0.219258 0.500000 0.773791
O O12 0.194097 0.735151 0.848518
O O13 0.370943 0.721166 0.694998
O O14 0.135008 0.500000 0.938092
O O15 0.000000 0.736025 0.000000
O O16 0.070488 0.251260 0.552091
O O17 0.016823 0.000000 0.631763
O O18 0.194523 0.500000 0.481667
O O19 0.250000 0.750000 0.500000
#
# Coordination Sequence:
#
# PCOD8083779 Si02
#       7
#     8   8   8   8   8   8   8
#     4  11  24  41  59  83 118 154 192 240 292 343
#     4  11  22  37  60  87 117 153 194 238 290 344
#     4  11  25  41  60  86 117 153 194 242 291 341
#     4  10  22  39  60  86 117 155 193 236 288 344
#     4  10  20  38  63  86 114 153 195 236 285 343
#     4  10  20  36  59  88 121 152 192 238 285 342
#     4  10  18  33  57  85 117 151 192 236 286 340
#
# _framework density 19.778693000000001
#
# number of rings (size 3 to 8) (size 9 to 14) (size 15 to 20)
#    0.000    1.571    1.429    5.571    2.000    3.714 
#    0.000    0.714    0.000    4.286    0.000    0.000 
#    0.000    0.000    0.000    0.000    0.000    0.000 
#
# Total GULP energy -347266.389462 kJ/mol
# GULP energy per Si atom -12402.371052 kJ/mol
# Density = 1.973368 g / cm^3
# Si number density = 19.778693 Si / 1000 Ang^3
#
#
#
# Elastic Constant Matrix: (Units=GPa)
#
#
# Indices 1 2 3 4 5 6 
#
# 1 87.2690 32.4918 12.3618 0.0003 -9.8292 0.0011
# 2 32.4918 105.2986 27.8701 0.0010 -8.6324 0.0009
# 3 12.3618 27.8701 55.5541 0.0001 -15.3610 -0.0008
# 4 0.0003 0.0010 0.0001 32.0929 0.0000 2.1032
# 5 -9.8292 -8.6324 -15.3610 0.0000 33.6324 0.0002
# 6 0.0011 0.0009 -0.0008 2.1032 0.0002 34.5839
#
#
#
# Elastic Compliance Matrix: (Units=1/GPa)
#
#
# Indices 1 2 3 4 5 6 
#
# 1 0.013216 -0.003777 -0.000282 0.000000 0.002764 0.000000
# 2 -0.003777 0.012034 -0.005320 0.000000 -0.000445 0.000000
# 3 -0.000282 -0.005320 0.023270 0.000000 0.009181 0.000001
# 4 0.000000 0.000000 0.000000 0.031284 0.000000 -0.001903
# 5 0.002764 -0.000445 0.009181 0.000000 0.034620 0.000000
# 6 0.000000 0.000000 0.000001 -0.001903 0.000000 0.029031
#
#
# Mechanical properties :
#
#
# Convention : Reuss Voigt Hill
#
# Bulk Modulus (GPa) = 33.59767 43.72990 38.66378
# Shear Modulus (GPa) = 29.04728 31.75507 30.40118
#
# Velocity S-wave (km/s) = 3.83641 4.01124 3.92480
# Velocity P-wave (km/s) = 6.05374 6.60386 6.33477
#
# Compressibility (1/GPa) = 0.02976397
#
# Stress axis : x y z
#
# Youngs Moduli (GPa) = 75.66414 83.09955 42.97321
#
# Poissons Ratio (x) = 0.31386 0.01210
# Poissons Ratio (y) = 0.28578 0.22860
# Poissons Ratio (z) = 0.02131 0.44205
#
# Static dielectric constant tensor:
#      x y z
#    x 3.420090 0.000000 -0.054900 
#    y 0.000000 3.584620 0.000000 
#    z -0.054900 0.000000 4.207550 
# 
# 
# High freq. dielectric constant tensor:
#      x y z
#    x 1.755120 0.000000 -0.004090 
#    y 0.000000 1.778490 0.000000 
#    z -0.004090 0.000000 1.784320 
# 
# From -- ./inp_files/362917.got.cif
#   From: 2010.06.25/outbox.cif.g09.slc.cpg/sg12_182_cif.got.tgz:362917.got - 2010.06.28 00:19:55.
