data_PCOD8083500
_publ_section_title
;
Structure prediction by ZEFSAII (Michael W. Deem and Ramdas Pophale) SiO2 
 PCOD8083500
Probable space group: C 2/M
;
_chemical_formula_sum "Si O2"
_cell_formula_units_Z 56
_cell_length_a 9.520168
_cell_length_b 18.374507
_cell_length_c 20.831407
_cell_angle_alpha 90.000000
_cell_angle_beta 53.368589
_cell_angle_gamma 90.000000
_cell_volume 2924.279003
_symmetry_space_group_name_H-M "C 2/M"
_symmetry_group_IT_number 12
_symmetry_cell_setting 'monoclinic'
loop_
_space_group_symop_operation_xyz
x,y,z
-x,y,-z
-x,-y,-z
x,-y,z
1/2+x,1/2+y,z
1/2-x,1/2+y,-z
1/2-x,1/2-y,-z
1/2+x,1/2-y,z
loop_
_atom_site_type_symbol
_atom_site_label
_atom_site_fract_x
_atom_site_fract_y
_atom_site_fract_z
Si Si1 0.493300 0.653547 0.322254
Si Si2 0.653378 0.087319 0.371439
Si Si3 0.176341 0.579327 0.220710
Si Si4 0.878579 0.294497 0.419216
Si Si5 0.825766 0.645483 0.301807
Si Si6 0.392890 0.308226 0.093534
Si Si7 0.947129 0.225810 0.819201
O O1 0.308826 0.609637 0.379047
O O2 0.503122 0.733515 0.352985
O O3 0.654458 0.612567 0.313135
O O4 0.529292 0.659653 0.236807
O O5 0.716966 0.106687 0.282008
O O6 0.487045 0.142004 0.428269
O O7 0.607094 0.000000 0.392012
O O8 0.250761 0.500000 0.192486
O O9 0.273757 0.622051 0.138720
O O10 0.966985 0.581092 0.268200
O O11 0.750000 0.250000 0.500000
O O12 0.771922 0.330037 0.388961
O O13 0.917495 0.710721 0.237247
O O14 0.258817 0.242046 0.126001
O O15 0.524494 0.298669 0.116138
O O16 0.500000 0.319519 0.000000
#
# Coordination Sequence:
#
# PCOD8083500 Si02
#       7
#     8   8   8   8   8   8   8
#     4  11  19  33  58  83 111 149 191 233 281 343
#     4  10  21  38  60  86 115 152 193 238 287 337
#     4   9  19  36  54  74 106 146 188 226 274 345
#     4  10  21  37  57  86 118 151 191 234 285 342
#     4   9  19  32  56  79 106 146 186 229 275 334
#     4  11  20  31  52  80 109 142 180 236 295 330
#     4  10  18  33  49  78 110 140 185 232 276 334
#
# _framework density 19.150019
#
# number of rings (size 3 to 8) (size 9 to 14) (size 15 to 20)
#    0.000    2.000    2.857    3.000    0.000    3.143 
#    0.000    1.429    0.000    0.000    0.000   10.000 
#    0.000    0.000    0.000    0.000    0.000    0.000 
#
# Total GULP energy -346890.542816 kJ/mol
# GULP energy per Si atom -12388.947958 kJ/mol
# Density = 1.910643 g / cm^3
# Si number density = 19.150019 Si / 1000 Ang^3
#
#
#
# Elastic Constant Matrix: (Units=GPa)
#
#
# Indices 1 2 3 4 5 6 
#
# 1 136.4903 24.9574 26.0147 -0.0001 -9.8026 0.0001
# 2 24.9574 66.5979 21.0502 -0.0001 -10.7077 0.0001
# 3 26.0147 21.0502 98.4913 0.0008 -2.2524 -0.0008
# 4 -0.0001 -0.0001 0.0008 11.7462 -0.0006 0.5444
# 5 -9.8026 -10.7077 -2.2524 -0.0006 21.4642 0.0005
# 6 0.0001 0.0001 -0.0008 0.5444 0.0005 18.4376
#
#
#
# Elastic Compliance Matrix: (Units=1/GPa)
#
#
# Indices 1 2 3 4 5 6 
#
# 1 0.008215 -0.002154 -0.001652 0.000000 0.002504 0.000000
# 2 -0.002154 0.018043 -0.003111 0.000001 0.007691 0.000000
# 3 -0.001652 -0.003111 0.011229 -0.000001 -0.001128 0.000001
# 4 0.000000 0.000001 -0.000001 0.085251 0.000003 -0.002517
# 5 0.002504 0.007691 -0.001128 0.000003 0.051451 -0.000002
# 6 0.000000 0.000000 0.000001 -0.002517 -0.000002 0.054311
#
#
# Mechanical properties :
#
#
# Convention : Reuss Voigt Hill
#
# Bulk Modulus (GPa) = 42.28058 49.51380 45.89719
# Shear Modulus (GPa) = 19.98257 25.63341 22.80799
#
# Velocity S-wave (km/s) = 3.23379 3.66260 3.45485
# Velocity P-wave (km/s) = 6.00581 6.61801 6.31933
#
# Compressibility (1/GPa) = 0.02365152
#
# Stress axis : x y z
#
# Youngs Moduli (GPa) = 121.72704 55.42455 89.05679
#
# Poissons Ratio (x) = 0.11937 0.14715
# Poissons Ratio (y) = 0.26217 0.27709
# Poissons Ratio (z) = 0.20113 0.17245
#
# Static dielectric constant tensor:
#      x y z
#    x 3.650970 0.000000 0.069220 
#    y 0.000000 3.335870 0.000000 
#    z 0.069220 0.000000 3.303540 
# 
# 
# High freq. dielectric constant tensor:
#      x y z
#    x 1.757740 0.000000 0.004230 
#    y 0.000000 1.716500 0.000000 
#    z 0.004230 0.000000 1.725620 
# 
# From -- ./inp_files/257614.got.cif
#   From: 2010.06.25/outbox.cif.g09.slc.cpg/sg12_129_cif.got.tgz:257614.got - 2010.06.28 00:19:55.
