data_PCOD8083743
_publ_section_title
;
Structure prediction by ZEFSAII (Michael W. Deem and Ramdas Pophale) SiO2 
 PCOD8083743
Probable space group: C 2/M
;
_chemical_formula_sum "Si O2"
_cell_formula_units_Z 60
_cell_length_a 23.029111
_cell_length_b 14.550123
_cell_length_c 27.724336
_cell_angle_alpha 90.000000
_cell_angle_beta 159.100493
_cell_angle_gamma 90.000000
_cell_volume 3313.939516
_symmetry_space_group_name_H-M "C 2/M"
_symmetry_group_IT_number 12
_symmetry_cell_setting 'monoclinic'
loop_
_space_group_symop_operation_xyz
x,y,z
-x,y,-z
-x,-y,-z
x,-y,z
1/2+x,1/2+y,z
1/2-x,1/2+y,-z
1/2-x,1/2-y,-z
1/2+x,1/2-y,z
loop_
_atom_site_type_symbol
_atom_site_label
_atom_site_fract_x
_atom_site_fract_y
_atom_site_fract_z
Si Si1 0.000000 0.649164 0.500000
Si Si2 0.192855 0.221544 0.213808
Si Si3 0.105469 0.109621 0.984394
Si Si4 0.005361 0.893076 0.204772
Si Si5 0.154035 0.896678 0.818627
Si Si6 0.363158 0.785637 0.245661
Si Si7 0.982766 0.399473 0.930184
Si Si8 0.134478 0.398139 0.505556
O O1 0.154390 0.711141 0.632636
O O2 0.047830 0.589722 0.490437
O O3 0.241724 0.219492 0.196110
O O4 0.058135 0.141938 0.115238
O O5 0.127880 0.321363 0.178806
O O6 0.087258 0.142507 0.914700
O O7 0.124119 0.000000 0.005437
O O8 0.267077 0.159956 0.129273
O O9 0.895816 0.870635 0.165830
O O10 0.187365 0.850818 0.351575
O O11 0.034818 0.000000 0.219860
O O12 0.084757 0.817680 0.729702
O O13 0.089808 0.000000 0.754829
O O14 0.347500 0.894955 0.965827
O O15 0.529860 0.836508 0.388040
O O16 0.902565 0.500000 0.860286
O O17 0.000000 0.379111 0.000000
O O18 0.146198 0.500000 0.491920
#
# Coordination Sequence:
#
# PCOD8083743 Si02
#       8
#     4   8   8   8   8   8   8   8
#     4  10  21  32  55  78 112 148 185 216 263 330
#     4  11  20  35  52  83 111 139 182 229 272 328
#     4  11  21  35  53  80 115 146 178 224 271 321
#     4   9  20  37  56  78 109 150 188 217 263 329
#     4  10  20  36  58  82 106 140 187 232 270 321
#     4  11  22  33  54  85 112 139 182 229 276 319
#     4  10  18  33  57  80 104 137 179 232 283 318
#     4  10  20  36  54  79 113 150 182 216 266 329
#
# _framework density 18.105339000000001
#
# number of rings (size 3 to 8) (size 9 to 14) (size 15 to 20)
#    0.000    1.733    4.000    1.000    0.000    4.267 
#    0.000    0.333    0.000    0.800    0.000    0.000 
#    0.000    0.000    0.000    0.000    0.000    0.000 
#
# Total GULP energy -371883.807822 kJ/mol
# GULP energy per Si atom -12396.126927 kJ/mol
# Density = 1.806413 g / cm^3
# Si number density = 18.105339 Si / 1000 Ang^3
#
#
#
# Elastic Constant Matrix: (Units=GPa)
#
#
# Indices 1 2 3 4 5 6 
#
# 1 104.0283 26.3245 38.4358 -0.0170 -2.4218 -0.0009
# 2 26.3245 112.7815 48.4715 -0.0569 -10.5018 -0.0111
# 3 38.4358 48.4715 118.2616 -0.0359 -9.0849 -0.0187
# 4 -0.0170 -0.0569 -0.0359 17.4215 -0.0220 4.8764
# 5 -2.4218 -10.5018 -9.0849 -0.0220 23.1150 -0.0069
# 6 -0.0009 -0.0111 -0.0187 4.8764 -0.0069 18.7652
#
#
#
# Elastic Compliance Matrix: (Units=1/GPa)
#
#
# Indices 1 2 3 4 5 6 
#
# 1 0.011080 -0.001309 -0.003115 0.000000 -0.000658 -0.000004
# 2 -0.001309 0.011160 -0.003887 0.000033 0.003405 -0.000005
# 3 -0.003115 -0.003887 0.011240 0.000008 0.002325 0.000007
# 4 0.000000 0.000033 0.000008 0.061903 0.000072 -0.016086
# 5 -0.000658 0.003405 0.002325 0.000072 0.045654 0.000002
# 6 -0.000004 -0.000005 0.000007 -0.016086 0.000002 0.057471
#
#
# Mechanical properties :
#
#
# Convention : Reuss Voigt Hill
#
# Bulk Modulus (GPa) = 59.31955 62.39279 60.85617
# Shear Modulus (GPa) = 22.65021 26.64964 24.64993
#
# Velocity S-wave (km/s) = 3.54082 3.84073 3.69382
# Velocity P-wave (km/s) = 7.03926 7.36234 7.20261
#
# Compressibility (1/GPa) = 0.01685785
#
# Stress axis : x y z
#
# Youngs Moduli (GPa) = 90.25641 89.60672 88.96696
#
# Poissons Ratio (x) = 0.11725 0.27715
# Poissons Ratio (y) = 0.11810 0.34583
# Poissons Ratio (z) = 0.28116 0.34832
#
# Static dielectric constant tensor:
#      x y z
#    x 3.352850 -0.000030 0.008960 
#    y -0.000030 3.474520 -0.000060 
#    z 0.008960 -0.000060 3.283840 
# 
# 
# High freq. dielectric constant tensor:
#      x y z
#    x 1.700360 0.000000 0.006230 
#    y 0.000000 1.699090 -0.000010 
#    z 0.006230 -0.000010 1.687140 
# 
# From -- ./inp_files/368171.got.cif
#   From: 2010.06.25/outbox.cif.g09.slc.cpg/sg12_185_cif.got.tgz:368171.got - 2010.06.28 00:19:55.
