data_PCOD8083506
_publ_section_title
;
Structure prediction by ZEFSAII (Michael W. Deem and Ramdas Pophale) SiO2 
 PCOD8083506
Probable space group: C 2/M
;
_chemical_formula_sum "Si O2"
_cell_formula_units_Z 64
_cell_length_a 17.927853
_cell_length_b 19.062802
_cell_length_c 19.817588
_cell_angle_alpha 90.000000
_cell_angle_beta 30.022619
_cell_angle_gamma 90.000000
_cell_volume 3388.696253
_symmetry_space_group_name_H-M "C 2/M"
_symmetry_group_IT_number 12
_symmetry_cell_setting 'monoclinic'
loop_
_space_group_symop_operation_xyz
x,y,z
-x,y,-z
-x,-y,-z
x,-y,z
1/2+x,1/2+y,z
1/2-x,1/2+y,-z
1/2-x,1/2-y,-z
1/2+x,1/2-y,z
loop_
_atom_site_type_symbol
_atom_site_label
_atom_site_fract_x
_atom_site_fract_y
_atom_site_fract_z
Si Si1 0.046105 0.079350 0.541413
Si Si2 0.239801 0.843566 0.200408
Si Si3 0.563726 0.423844 0.154392
Si Si4 0.233785 0.287958 0.118571
Si Si5 0.124148 0.077209 0.955767
Si Si6 0.619840 0.920181 0.028316
Si Si7 0.511890 0.272943 0.191617
Si Si8 0.330692 0.156423 0.283819
O O1 0.201010 0.120767 0.429435
O O2 0.000000 0.078909 0.500000
O O3 0.919809 0.117951 0.684335
O O4 0.064084 0.000000 0.554231
O O5 0.232678 0.763502 0.183174
O O6 0.357770 0.884380 0.061772
O O7 0.290100 0.845008 0.237524
O O8 0.511015 0.500000 0.227286
O O9 0.737018 0.410264 0.036111
O O10 0.477409 0.352831 0.245523
O O11 0.542769 0.429382 0.091139
O O12 0.241433 0.366307 0.144235
O O13 0.083784 0.274183 0.194229
O O14 0.378185 0.274768 0.958839
O O15 0.187352 0.000000 0.885399
O O16 0.000000 0.103309 0.000000
O O17 0.579221 0.000000 0.046163
O O18 0.483999 0.885446 0.174871
O O19 0.357847 0.235795 0.289460
#
# Coordination Sequence:
#
# PCOD8083506 Si02
#       8
#     8   8   8   8   8   8   8   8
#     4   9  20  38  52  69 108 149 175 208 261 320
#     4  11  21  33  51  79 103 138 174 216 262 312
#     4   9  18  32  48  71 108 142 169 206 265 323
#     4  10  19  31  50  74 108 135 164 216 271 311
#     4   9  18  29  45  70 104 142 175 208 256 315
#     4  11  20  31  51  79 106 134 170 214 261 314
#     4  10  18  33  50  75 106 136 167 213 269 314
#     4  11  21  32  53  77 103 137 180 218 259 306
#
# _framework density 18.886320000000001
#
# number of rings (size 3 to 8) (size 9 to 14) (size 15 to 20)
#    0.000    2.000    2.500    2.625    3.500    2.000 
#    0.000    1.250    0.000    0.000    0.000    0.875 
#    0.000    3.000    0.000    0.000    0.000    1.125 
#
# Total GULP energy -396606.064645 kJ/mol
# GULP energy per Si atom -12393.939520 kJ/mol
# Density = 1.884333 g / cm^3
# Si number density = 18.886320 Si / 1000 Ang^3
#
#
#
# Elastic Constant Matrix: (Units=GPa)
#
#
# Indices 1 2 3 4 5 6 
#
# 1 71.6889 38.4639 0.3655 0.0038 -11.5677 -0.0042
# 2 38.4639 182.7257 38.8926 0.0268 -20.4189 -0.0125
# 3 0.3655 38.8926 50.3914 0.0236 -13.3265 -0.0212
# 4 0.0038 0.0268 0.0236 20.6504 -0.0079 -10.5904
# 5 -11.5677 -20.4189 -13.3265 -0.0079 15.5616 0.0065
# 6 -0.0042 -0.0125 -0.0212 -10.5904 0.0065 27.6493
#
#
#
# Elastic Compliance Matrix: (Units=1/GPa)
#
#
# Indices 1 2 3 4 5 6 
#
# 1 0.018145 -0.003590 0.006413 0.000001 0.014270 0.000003
# 2 -0.003590 0.007646 -0.005078 -0.000004 0.003016 -0.000003
# 3 0.006413 -0.005078 0.030013 -0.000014 0.023807 0.000011
# 4 0.000001 -0.000004 -0.000014 0.060262 0.000004 0.023082
# 5 0.014270 0.003016 0.023807 0.000004 0.099213 0.000000
# 6 0.000003 -0.000003 0.000011 0.023082 0.000000 0.045008
#
#
# Mechanical properties :
#
#
# Convention : Reuss Voigt Hill
#
# Bulk Modulus (GPa) = 19.49516 51.13887 35.31702
# Shear Modulus (GPa) = 17.73703 27.91119 22.82411
#
# Velocity S-wave (km/s) = 3.06788 3.84845 3.48012
# Velocity P-wave (km/s) = 4.78476 6.84715 5.90667
#
# Compressibility (1/GPa) = 0.05129477
#
# Stress axis : x y z
#
# Youngs Moduli (GPa) = 55.11110 130.78453 33.31864
#
# Poissons Ratio (x) = 0.46951 -0.21367
# Poissons Ratio (y) = 0.19785 0.16919
# Poissons Ratio (z) = -0.35342 0.66410
#
# Static dielectric constant tensor:
#      x y z
#    x 3.430410 -0.000020 -0.085790 
#    y -0.000020 4.050020 0.000040 
#    z -0.085790 0.000040 3.089840 
# 
# 
# High freq. dielectric constant tensor:
#      x y z
#    x 1.737060 0.000000 -0.002770 
#    y 0.000000 1.756850 0.000000 
#    z -0.002770 0.000000 1.668200 
# 
# From -- ./inp_files/317806.got.cif
#   From: 2010.06.25/outbox.cif.g09.slc.cpg/sg12_159_cif.got.tgz:317806.got - 2010.06.28 00:19:55.
