data_PCOD8083940
_publ_section_title
;
Structure prediction by ZEFSAII (Michael W. Deem and Ramdas Pophale) SiO2 
 PCOD8083940
Probable space group: C 2/M
;
_chemical_formula_sum "Si O2"
_cell_formula_units_Z 64
_cell_length_a 16.812009
_cell_length_b 31.828504
_cell_length_c 9.203810
_cell_angle_alpha 90.000000
_cell_angle_beta 137.353337
_cell_angle_gamma 90.000000
_cell_volume 3336.544428
_symmetry_space_group_name_H-M "C 2/M"
_symmetry_group_IT_number 12
_symmetry_cell_setting 'monoclinic'
loop_
_space_group_symop_operation_xyz
x,y,z
-x,y,-z
-x,-y,-z
x,-y,z
1/2+x,1/2+y,z
1/2-x,1/2+y,-z
1/2-x,1/2-y,-z
1/2+x,1/2-y,z
loop_
_atom_site_type_symbol
_atom_site_label
_atom_site_fract_x
_atom_site_fract_y
_atom_site_fract_z
Si Si1 0.828972 0.767414 0.975578
Si Si2 0.215281 0.707619 0.536820
Si Si3 0.189156 0.873707 0.495041
Si Si4 0.965081 0.311779 0.109308
Si Si5 0.717218 0.875305 0.055177
Si Si6 0.168474 0.453052 0.354183
Si Si7 0.912047 0.453963 0.085132
Si Si8 0.546279 0.342139 0.723229
O O1 0.933524 0.797349 0.173499
O O2 0.888364 0.729127 0.969720
O O3 0.750000 0.750000 0.000000
O O4 0.750355 0.791400 0.752575
O O5 0.250000 0.750000 0.500000
O O6 0.274334 0.666965 0.545312
O O7 0.076381 0.701502 0.352361
O O8 0.232091 0.917625 0.478759
O O9 0.047269 0.871535 0.317702
O O10 0.247674 0.871807 0.730309
O O11 0.889361 0.342798 0.108380
O O12 0.000000 0.332387 0.000000
O O13 0.668331 0.920489 0.938463
O O14 0.828726 0.865762 0.104951
O O15 0.215799 0.500000 0.458859
O O16 0.050059 0.442430 0.285416
O O17 0.130021 0.453285 0.136445
O O18 0.889576 0.500000 0.122734
O O19 0.500000 0.332866 0.500000
#
# Coordination Sequence:
#
# PCOD8083940 Si02
#       8
#     8   8   8   8   8   8   8   8
#     4  12  26  41  55  80 114 147 184 236 283 332
#     4  12  24  37  58  86 109 144 194 232 278 338
#     4  10  19  33  55  78 112 151 187 235 280 334
#     4  12  22  36  60  81 107 146 185 233 276 326
#     4  10  18  34  51  80 111 147 189 226 281 336
#     4   8  14  26  47  81 111 141 184 234 286 331
#     4   8  14  24  46  76 113 145 176 230 285 331
#     4  10  23  38  55  75 110 154 189 228 287 341
#
# _framework density 19.181521
#
# number of rings (size 3 to 8) (size 9 to 14) (size 15 to 20)
#    0.000    1.750    3.750    2.250    5.250    0.000 
#    0.000    0.625    0.000    3.750    0.000    2.625 
#    0.000    3.000    0.000    0.000    0.000    0.000 
#
# Total GULP energy -396651.616701 kJ/mol
# GULP energy per Si atom -12395.363022 kJ/mol
# Density = 1.913786 g / cm^3
# Si number density = 19.181521 Si / 1000 Ang^3
#
#
#
# Elastic Constant Matrix: (Units=GPa)
#
#
# Indices 1 2 3 4 5 6 
#
# 1 89.4322 64.0927 35.8098 0.0000 31.3233 0.0000
# 2 64.0927 155.4052 38.8427 0.0000 26.6830 0.0000
# 3 35.8098 38.8427 68.1669 0.0000 21.0178 0.0000
# 4 0.0000 0.0000 0.0000 25.2058 0.0000 11.2732
# 5 31.3233 26.6830 21.0178 0.0000 33.3148 0.0000
# 6 0.0000 0.0000 0.0000 11.2732 0.0000 27.9918
#
#
#
# Elastic Compliance Matrix: (Units=1/GPa)
#
#
# Indices 1 2 3 4 5 6 
#
# 1 0.021360 -0.005556 -0.004016 0.000000 -0.013099 0.000000
# 2 -0.005556 0.009432 -0.002157 0.000000 -0.000970 0.000000
# 3 -0.004016 -0.002157 0.020251 0.000000 -0.007273 0.000000
# 4 0.000000 0.000000 0.000000 0.048389 0.000000 -0.019488
# 5 -0.013099 -0.000970 -0.007273 0.000000 0.047697 0.000000
# 6 0.000000 0.000000 0.000000 -0.019488 0.000000 0.043573
#
#
# Mechanical properties :
#
#
# Convention : Reuss Voigt Hill
#
# Bulk Modulus (GPa) = 36.25206 65.61050 50.93128
# Shear Modulus (GPa) = 22.38590 28.91974 25.65282
#
# Velocity S-wave (km/s) = 3.41993 3.88711 3.66098
# Velocity P-wave (km/s) = 5.87665 7.37736 6.66935
#
# Compressibility (1/GPa) = 0.02758464
#
# Stress axis : x y z
#
# Youngs Moduli (GPa) = 46.81753 106.02367 49.38077
#
# Poissons Ratio (x) = 0.58910 0.19830
# Poissons Ratio (y) = 0.26013 0.10650
# Poissons Ratio (z) = 0.18801 0.22865
#
# Static dielectric constant tensor:
#      x y z
#    x 3.508850 0.000000 0.395900 
#    y 0.000000 3.887380 0.000000 
#    z 0.395900 0.000000 3.362760 
# 
# 
# High freq. dielectric constant tensor:
#      x y z
#    x 1.733760 0.000000 0.027490 
#    y 0.000000 1.748780 0.000000 
#    z 0.027490 0.000000 1.716730 
# 
# From -- ./inp_files/80752.got.cif
#   From: 2010.06.25/outbox.cif.g09.slc.cpg/sg12_41_cif.got.tgz:80752.got - 2010.06.28 00:19:55.
