data_PCOD8083119
_publ_section_title
;
Structure prediction by ZEFSAII (Michael W. Deem and Ramdas Pophale) SiO2 
 PCOD8083119
Probable space group: C 2/M
;
_chemical_formula_sum "Si O2"
_cell_formula_units_Z 56
_cell_length_a 29.019043
_cell_length_b 8.880586
_cell_length_c 13.517551
_cell_angle_alpha 90.000000
_cell_angle_beta 57.066617
_cell_angle_gamma 90.000000
_cell_volume 2923.759389
_symmetry_space_group_name_H-M "C 2/M"
_symmetry_group_IT_number 12
_symmetry_cell_setting 'monoclinic'
loop_
_space_group_symop_operation_xyz
x,y,z
-x,y,-z
-x,-y,-z
x,-y,z
1/2+x,1/2+y,z
1/2-x,1/2+y,-z
1/2-x,1/2-y,-z
1/2+x,1/2-y,z
loop_
_atom_site_type_symbol
_atom_site_label
_atom_site_fract_x
_atom_site_fract_y
_atom_site_fract_z
Si Si1 0.220532 0.822779 0.311807
Si Si2 0.151010 0.821278 0.577127
Si Si3 0.837853 0.321399 0.226665
Si Si4 0.119608 0.178404 0.309699
Si Si5 0.556392 0.173424 0.220608
Si Si6 0.437988 0.825285 0.442120
Si Si7 0.550845 0.179170 0.004564
O O1 0.195865 0.765021 0.444787
O O2 0.283961 0.771990 0.225805
O O3 0.181496 0.767219 0.267196
O O4 0.217572 0.000000 0.317809
O O5 0.168804 0.757293 0.660907
O O6 0.092548 0.751674 0.614608
O O7 0.145629 0.000000 0.588133
O O8 0.840172 0.500000 0.239888
O O9 0.892040 0.262335 0.108232
O O10 0.105957 0.238348 0.216241
O O11 0.076576 0.245866 0.438135
O O12 0.114033 0.000000 0.319015
O O13 0.502322 0.195233 0.348870
O O14 0.573922 0.000000 0.192909
O O15 0.547221 0.239177 0.121119
O O16 0.421657 0.000000 0.466767
O O17 0.548127 0.000000 0.006186
O O18 0.500000 0.245059 0.000000
#
# Coordination Sequence:
#
# PCOD8083119 Si02
#       7
#     8   8   8   8   8   8   8
#     4   8  17  32  49  72 100 132 167 203 246 298
#     4  10  19  31  48  75 109 134 160 204 255 303
#     4  10  18  32  54  73  95 133 175 209 246 292
#     4  10  20  34  51  74 105 133 162 204 253 301
#     4  10  20  34  52  75 101 130 169 210 247 292
#     4  10  19  32  52  76 102 133 169 205 244 297
#     4   9  18  33  53  76  99 125 164 212 250 285
#
# _framework density 19.153424000000001
#
# number of rings (size 3 to 8) (size 9 to 14) (size 15 to 20)
#    0.000    2.429    0.000    3.857    0.000    5.143 
#    0.000    5.000    0.000    1.714    0.000    0.000 
#    0.000    0.000    0.000    0.000    0.000    0.000 
#
# Total GULP energy -347120.286309 kJ/mol
# GULP energy per Si atom -12397.153082 kJ/mol
# Density = 1.910983 g / cm^3
# Si number density = 19.153424 Si / 1000 Ang^3
#
#
#
# Elastic Constant Matrix: (Units=GPa)
#
#
# Indices 1 2 3 4 5 6 
#
# 1 171.2453 41.6031 78.4937 0.0000 11.3445 0.0000
# 2 41.6031 54.6598 24.0258 0.0000 1.8742 0.0000
# 3 78.4937 24.0258 85.8258 0.0000 12.5688 0.0000
# 4 0.0000 0.0000 0.0000 16.4392 0.0000 6.2555
# 5 11.3445 1.8742 12.5688 0.0000 33.7384 0.0000
# 6 0.0000 0.0000 0.0000 6.2555 0.0000 24.4453
#
#
#
# Elastic Compliance Matrix: (Units=1/GPa)
#
#
# Indices 1 2 3 4 5 6 
#
# 1 0.010940 -0.004486 -0.008723 0.000000 -0.000180 0.000000
# 2 -0.004486 0.022739 -0.002431 0.000000 0.001151 0.000000
# 3 -0.008723 -0.002431 0.021007 0.000000 -0.004758 0.000000
# 4 0.000000 0.000000 0.000000 0.067393 0.000000 -0.017246
# 5 -0.000180 0.001151 -0.004758 0.000000 0.031409 0.000000
# 6 0.000000 0.000000 0.000000 -0.017246 0.000000 0.045321
#
#
# Mechanical properties :
#
#
# Convention : Reuss Voigt Hill
#
# Bulk Modulus (GPa) = 42.72675 66.66402 54.69539
# Shear Modulus (GPa) = 21.01821 26.09845 23.55833
#
# Velocity S-wave (km/s) = 3.31624 3.69535 3.51091
# Velocity P-wave (km/s) = 6.08435 7.28617 6.71221
#
# Compressibility (1/GPa) = 0.02340454
#
# Stress axis : x y z
#
# Youngs Moduli (GPa) = 91.40994 43.97805 47.60420
#
# Poissons Ratio (x) = 0.19729 0.41525
# Poissons Ratio (y) = 0.41008 0.11573
# Poissons Ratio (z) = 0.79737 0.10691
#
# Static dielectric constant tensor:
#      x y z
#    x 3.985950 0.000000 -0.003020 
#    y 0.000000 3.248330 0.000000 
#    z -0.003020 0.000000 3.384730 
# 
# 
# High freq. dielectric constant tensor:
#      x y z
#    x 1.762260 0.000000 0.007420 
#    y 0.000000 1.717680 0.000000 
#    z 0.007420 0.000000 1.724010 
# 
# From -- ./inp_files/180838.got.cif
#   From: 2010.06.25/outbox.cif.g09.slc.cpg/sg12_91_cif.got.tgz:180838.got - 2010.06.28 00:19:55.
