data_PCOD8083083
_publ_section_title
;
Structure prediction by ZEFSAII (Michael W. Deem and Ramdas Pophale) SiO2 
 PCOD8083083
Probable space group: C 2/M
;
_chemical_formula_sum "Si O2"
_cell_formula_units_Z 40
_cell_length_a 19.541536
_cell_length_b 8.591809
_cell_length_c 24.743948
_cell_angle_alpha 90.000000
_cell_angle_beta 145.885954
_cell_angle_gamma 90.000000
_cell_volume 2329.983341
_symmetry_space_group_name_H-M "C 2/M"
_symmetry_group_IT_number 12
_symmetry_cell_setting 'monoclinic'
loop_
_space_group_symop_operation_xyz
x,y,z
-x,y,-z
-x,-y,-z
x,-y,z
1/2+x,1/2+y,z
1/2-x,1/2+y,-z
1/2-x,1/2-y,-z
1/2+x,1/2-y,z
loop_
_atom_site_type_symbol
_atom_site_label
_atom_site_fract_x
_atom_site_fract_y
_atom_site_fract_z
Si Si1 0.164833 0.818605 0.073678
Si Si2 0.921245 0.318332 0.875373
Si Si3 0.886685 0.176344 0.739758
Si Si4 0.656736 0.184049 0.396085
Si Si5 0.583056 0.675993 0.786374
O O1 0.158800 0.772930 0.132742
O O2 0.296134 0.778690 0.135419
O O3 0.138339 0.000000 0.049472
O O4 0.063209 0.725768 0.973524
O O5 0.904404 0.500000 0.874329
O O6 0.871678 0.274201 0.784227
O O7 0.804762 0.255794 0.638873
O O8 0.028207 0.177627 0.811674
O O9 0.842062 0.000000 0.720412
O O10 0.750000 0.250000 0.500000
O O11 0.520416 0.248812 0.320605
O O12 0.656813 0.000000 0.397991
O O13 0.611450 0.500000 0.785864
#
# Coordination Sequence:
#
# PCOD8083083 Si02
#       5
#     8   8   8   8   8
#     4  11  21  34  52  73 103 139 174 209 250 301
#     4  11  21  34  52  73 103 139 174 209 250 301
#     4   9  19  34  52  76 103 132 169 212 253 297
#     4  10  18  32  53  78 103 132 166 206 256 302
#     4   9  19  34  52  76 103 132 169 212 253 297
#
# _framework density 17.167504999999998
#
# number of rings (size 3 to 8) (size 9 to 14) (size 15 to 20)
#    1.200    0.800    0.000    7.200    0.000    0.800 
#    0.000    0.000    0.000    1.200    0.000    8.400 
#    0.000    0.000    0.000    0.000    0.000    0.000 
#
# Total GULP energy -247886.195929 kJ/mol
# GULP energy per Si atom -12394.309796 kJ/mol
# Density = 1.712843 g / cm^3
# Si number density = 17.167505 Si / 1000 Ang^3
#
#
#
# Elastic Constant Matrix: (Units=GPa)
#
#
# Indices 1 2 3 4 5 6 
#
# 1 35.6859 9.3974 7.9733 0.0000 -19.4472 0.0000
# 2 9.3974 106.5431 10.5976 0.0000 -7.3205 0.0000
# 3 7.9733 10.5976 37.9579 0.0000 -24.0070 0.0000
# 4 0.0000 0.0000 0.0000 31.3659 0.0000 -2.4757
# 5 -19.4472 -7.3205 -24.0070 0.0000 28.8843 0.0000
# 6 0.0000 0.0000 0.0000 -2.4757 0.0000 28.8006
#
#
#
# Elastic Compliance Matrix: (Units=1/GPa)
#
#
# Indices 1 2 3 4 5 6 
#
# 1 0.054182 -0.003412 0.025502 0.000000 0.056810 0.000000
# 2 -0.003412 0.009871 -0.004027 0.000000 -0.003142 0.000000
# 3 0.025502 -0.004027 0.068151 0.000000 0.072792 0.000000
# 4 0.000000 0.000000 0.000000 0.032100 0.000000 0.002759
# 5 0.056810 -0.003142 0.072792 0.000000 0.132574 0.000000
# 6 0.000000 0.000000 0.000000 0.002759 0.000000 0.034959
#
#
# Mechanical properties :
#
#
# Convention : Reuss Voigt Hill
#
# Bulk Modulus (GPa) = 5.94072 26.23596 16.08834
# Shear Modulus (GPa) = 14.21179 27.95806 21.08492
#
# Velocity S-wave (km/s) = 2.88033 4.03990 3.50835
# Velocity P-wave (km/s) = 3.81178 6.08906 5.07968
#
# Compressibility (1/GPa) = 0.16832981
#
# Stress axis : x y z
#
# Youngs Moduli (GPa) = 18.45634 101.30210 14.67339
#
# Poissons Ratio (x) = 0.34566 -0.37420
# Poissons Ratio (y) = 0.06298 0.05908
# Poissons Ratio (z) = -0.47067 0.40791
#
# Static dielectric constant tensor:
#      x y z
#    x 3.038770 0.000000 -0.966450 
#    y 0.000000 3.370990 0.000000 
#    z -0.966450 0.000000 29.625100 
# 
# 
# High freq. dielectric constant tensor:
#      x y z
#    x 1.641250 0.000000 -0.010870 
#    y 0.000000 1.687170 0.000000 
#    z -0.010870 0.000000 1.638750 
# 
# From -- ./inp_files/365290.got.cif
#   From: 2010.06.25/outbox.cif.g09.slc.cpg/sg12_183_cif.got.tgz:365290.got - 2010.06.28 00:19:55.
