data_PCOD8083122
_publ_section_title
;
Structure prediction by ZEFSAII (Michael W. Deem and Ramdas Pophale) SiO2 
 PCOD8083122
Probable space group: C 2/M
;
_chemical_formula_sum "Si O2"
_cell_formula_units_Z 64
_cell_length_a 20.234657
_cell_length_b 9.109125
_cell_length_c 23.658377
_cell_angle_alpha 90.000000
_cell_angle_beta 125.710965
_cell_angle_gamma 90.000000
_cell_volume 3540.775754
_symmetry_space_group_name_H-M "C 2/M"
_symmetry_group_IT_number 12
_symmetry_cell_setting 'monoclinic'
loop_
_space_group_symop_operation_xyz
x,y,z
-x,y,-z
-x,-y,-z
x,-y,z
1/2+x,1/2+y,z
1/2-x,1/2+y,-z
1/2-x,1/2-y,-z
1/2+x,1/2-y,z
loop_
_atom_site_type_symbol
_atom_site_label
_atom_site_fract_x
_atom_site_fract_y
_atom_site_fract_z
Si Si1 0.195242 0.329578 0.554233
Si Si2 0.542678 0.671961 0.682368
Si Si3 0.860872 0.169451 0.584047
Si Si4 0.078454 0.826090 0.575652
Si Si5 0.938562 0.164905 0.917461
Si Si6 0.632793 0.326818 0.837250
Si Si7 0.062284 0.672521 0.908408
Si Si8 0.680116 0.170558 0.068755
O O1 0.174622 0.500000 0.550201
O O2 0.153265 0.271106 0.476768
O O3 0.292804 0.302405 0.598296
O O4 0.160125 0.245511 0.591005
O O5 0.554406 0.500000 0.683198
O O6 0.449522 0.709820 0.652786
O O7 0.566794 0.737644 0.633232
O O8 0.601857 0.731554 0.760959
O O9 0.857928 0.000000 0.561966
O O10 0.000000 0.778737 0.500000
O O11 0.089557 0.000000 0.580165
O O12 0.854844 0.239296 0.895672
O O13 0.977010 0.258732 0.886012
O O14 0.920794 0.000000 0.887500
O O15 0.000000 0.165282 0.000000
O O16 0.618066 0.500000 0.837286
O O17 0.581778 0.241872 0.858259
O O18 0.726600 0.284732 0.891594
O O19 0.050794 0.500000 0.896506
O O20 0.134472 0.712386 0.988045
O O21 0.668750 0.000000 0.077281
#
# Coordination Sequence:
#
# PCOD8083122 Si02
#       8
#     8   8   8   8   8   8   8   8
#     4  10  19  29  49  79 103 123 157 208 250 283
#     4   9  18  34  54  72  95 134 174 205 243 299
#     4   9  17  33  52  71  99 133 164 195 242 302
#     4  10  18  32  54  74  96 130 166 198 241 303
#     4   9  17  30  51  77 101 128 167 212 253 297
#     4  10  20  34  52  74 101 135 174 212 252 302
#     4  10  19  32  51  75 104 136 170 210 258 304
#     4   9  18  32  51  76 105 135 168 211 258 302
#
# _framework density 18.075135
#
# number of rings (size 3 to 8) (size 9 to 14) (size 15 to 20)
#    0.000    2.500    1.250    1.500    0.000    3.250 
#    0.000    2.500    0.000    3.000    0.000    0.000 
#    0.000    0.000    0.000    0.000    0.000    0.000 
#
# Total GULP energy -396780.116064 kJ/mol
# GULP energy per Si atom -12399.378627 kJ/mol
# Density = 1.803400 g / cm^3
# Si number density = 18.075135 Si / 1000 Ang^3
#
#
#
# Elastic Constant Matrix: (Units=GPa)
#
#
# Indices 1 2 3 4 5 6 
#
# 1 136.7822 48.4357 43.0168 0.0000 -24.2852 0.0000
# 2 48.4357 58.8619 24.0900 0.0000 -11.2865 0.0000
# 3 43.0168 24.0900 69.2606 0.0000 -19.5776 0.0000
# 4 0.0000 0.0000 0.0000 14.4261 0.0000 -3.9921
# 5 -24.2852 -11.2865 -19.5776 0.0000 19.0011 0.0000
# 6 0.0000 0.0000 0.0000 -3.9921 0.0000 37.2794
#
#
#
# Elastic Compliance Matrix: (Units=1/GPa)
#
#
# Indices 1 2 3 4 5 6 
#
# 1 0.012277 -0.007378 -0.002628 0.000000 0.008601 0.000000
# 2 -0.007378 0.024844 -0.003602 0.000000 0.001616 0.000000
# 3 -0.002628 -0.003602 0.022249 0.000000 0.017426 0.000000
# 4 0.000000 0.000000 0.000000 0.071436 0.000000 0.007650
# 5 0.008601 0.001616 0.017426 0.000000 0.082537 0.000000
# 6 0.000000 0.000000 0.000000 0.007650 0.000000 0.027644
#
#
# Mechanical properties :
#
#
# Convention : Reuss Voigt Hill
#
# Bulk Modulus (GPa) = 31.09940 55.10996 43.10468
# Shear Modulus (GPa) = 17.92638 24.09881 21.01259
#
# Velocity S-wave (km/s) = 3.15265 3.65534 3.41326
# Velocity P-wave (km/s) = 5.52225 6.95492 6.27958
#
# Compressibility (1/GPa) = 0.03215496
#
# Stress axis : x y z
#
# Youngs Moduli (GPa) = 81.45399 40.25142 44.94624
#
# Poissons Ratio (x) = 0.29696 0.11810
# Poissons Ratio (y) = 0.60093 0.16190
# Poissons Ratio (z) = 0.21403 0.14499
#
# Static dielectric constant tensor:
#      x y z
#    x 3.553790 0.000000 0.005780 
#    y 0.000000 3.254160 0.000000 
#    z 0.005780 0.000000 3.206710 
# 
# 
# High freq. dielectric constant tensor:
#      x y z
#    x 1.715430 0.000000 0.000740 
#    y 0.000000 1.689240 0.000000 
#    z 0.000740 0.000000 1.666120 
# 
# From -- ./inp_files/346283.got.cif
#   From: 2010.06.25/outbox.cif.g09.slc.cpg/sg12_174_cif.got.tgz:346283.got - 2010.06.28 00:19:55.
