data_PCOD8083865
_publ_section_title
;
Structure prediction by ZEFSAII (Michael W. Deem and Ramdas Pophale) SiO2 
 PCOD8083865
Probable space group: C 2/M
;
_chemical_formula_sum "Si O2"
_cell_formula_units_Z 56
_cell_length_a 26.937134
_cell_length_b 8.707357
_cell_length_c 11.878039
_cell_angle_alpha 90.000000
_cell_angle_beta 76.766504
_cell_angle_gamma 90.000000
_cell_volume 2712.027006
_symmetry_space_group_name_H-M "C 2/M"
_symmetry_group_IT_number 12
_symmetry_cell_setting 'monoclinic'
loop_
_space_group_symop_operation_xyz
x,y,z
-x,y,-z
-x,-y,-z
x,-y,z
1/2+x,1/2+y,z
1/2-x,1/2+y,-z
1/2-x,1/2-y,-z
1/2+x,1/2-y,z
loop_
_atom_site_type_symbol
_atom_site_label
_atom_site_fract_x
_atom_site_fract_y
_atom_site_fract_z
Si Si1 0.740689 0.681280 0.882535
Si Si2 0.071785 0.317727 0.219716
Si Si3 0.349843 0.818722 0.208888
Si Si4 0.134696 0.820063 0.563501
Si Si5 0.026538 0.673357 0.606029
Si Si6 0.335615 0.818072 0.680415
Si Si7 0.443658 0.818250 0.017125
O O1 0.737808 0.500000 0.895856
O O2 0.688566 0.744574 0.859383
O O3 0.785877 0.730890 0.775246
O O4 0.750000 0.750000 0.000000
O O5 0.074264 0.500000 0.229304
O O6 0.115467 0.250141 0.278001
O O7 0.081354 0.261204 0.087339
O O8 0.015158 0.262867 0.284420
O O9 0.341062 0.756034 0.338304
O O10 0.341970 0.000000 0.210897
O O11 0.406983 0.771089 0.139148
O O12 0.075168 0.782174 0.581858
O O13 0.166557 0.758624 0.440850
O O14 0.142307 0.000000 0.569389
O O15 0.044423 0.500000 0.628114
O O16 0.000000 0.673604 0.500000
O O17 0.339615 0.000000 0.662468
O O18 0.449217 0.000000 0.009068
O O19 0.500000 0.744345 0.000000
#
# Coordination Sequence:
#
# PCOD8083865 Si02
#       7
#     8   8   8   8   8   8   8
#     4  11  24  43  69  96 125 158 200 252 306 365
#     4   9  16  30  56  87 116 149 200 253 293 348
#     4  11  23  41  65  89 121 163 207 254 309 367
#     4  12  25  39  58  88 127 162 202 256 317 373
#     4  10  18  33  59  87 119 162 205 245 295 364
#     4  10  21  40  63  87 116 159 211 253 296 361
#     4   9  17  31  56  89 118 150 199 251 295 349
#
# _framework density 20.648764
#
# number of rings (size 3 to 8) (size 9 to 14) (size 15 to 20)
#    0.000    1.714    1.429    3.857    0.000    6.571 
#    0.000    0.000    0.000    9.429    0.000    0.000 
#    0.000    0.000    0.000    0.000    0.000    0.000 
#
# Total GULP energy -347227.549152 kJ/mol
# GULP energy per Si atom -12400.983898 kJ/mol
# Density = 2.060177 g / cm^3
# Si number density = 20.648764 Si / 1000 Ang^3
#
#
#
# Elastic Constant Matrix: (Units=GPa)
#
#
# Indices 1 2 3 4 5 6 
#
# 1 111.7474 36.2208 58.6644 0.0000 3.3161 0.0000
# 2 36.2208 57.7107 47.9402 0.0000 -8.7984 0.0000
# 3 58.6644 47.9402 166.8170 0.0000 3.0983 0.0000
# 4 0.0000 0.0000 0.0000 23.5206 0.0000 1.9030
# 5 3.3161 -8.7984 3.0983 0.0000 35.5441 0.0000
# 6 0.0000 0.0000 0.0000 1.9030 0.0000 25.3294
#
#
#
# Elastic Compliance Matrix: (Units=1/GPa)
#
#
# Indices 1 2 3 4 5 6 
#
# 1 0.012297 -0.005948 -0.002571 0.000000 -0.002395 0.000000
# 2 -0.005948 0.027097 -0.005840 0.000000 0.007771 0.000000
# 3 -0.002571 -0.005840 0.008613 0.000000 -0.001956 0.000000
# 4 0.000000 0.000000 0.000000 0.042776 0.000000 -0.003214
# 5 -0.002395 0.007771 -0.001956 0.000000 0.030452 0.000000
# 6 0.000000 0.000000 0.000000 -0.003214 0.000000 0.039721
#
#
# Mechanical properties :
#
#
# Convention : Reuss Voigt Hill
#
# Bulk Modulus (GPa) = 51.83891 69.10286 60.47089
# Shear Modulus (GPa) = 25.49679 29.77546 27.63613
#
# Velocity S-wave (km/s) = 3.51776 3.80148 3.66237
# Velocity P-wave (km/s) = 6.45439 7.26683 6.87263
#
# Compressibility (1/GPa) = 0.01929053
#
# Stress axis : x y z
#
# Youngs Moduli (GPa) = 81.31868 36.90490 116.10019
#
# Poissons Ratio (x) = 0.21950 0.29847
# Poissons Ratio (y) = 0.48366 0.67800
# Poissons Ratio (z) = 0.20906 0.21552
#
# Static dielectric constant tensor:
#      x y z
#    x 3.807260 0.000000 -0.066760 
#    y 0.000000 3.376510 0.000000 
#    z -0.066760 0.000000 4.045130 
# 
# 
# High freq. dielectric constant tensor:
#      x y z
#    x 1.811750 0.000000 0.002500 
#    y 0.000000 1.767250 0.000000 
#    z 0.002500 0.000000 1.829450 
# 
# From -- ./inp_files/180744.got.cif
#   From: 2010.06.25/outbox.cif.g09.slc.cpg/sg12_91_cif.got.tgz:180744.got - 2010.06.28 00:19:55.
