data_PCOD8083330
_publ_section_title
;
Structure prediction by ZEFSAII (Michael W. Deem and Ramdas Pophale) SiO2 
 PCOD8083330
Probable space group: C 2/M
;
_chemical_formula_sum "Si O2"
_cell_formula_units_Z 64
_cell_length_a 20.997421
_cell_length_b 17.716677
_cell_length_c 11.235834
_cell_angle_alpha 90.000000
_cell_angle_beta 125.431191
_cell_angle_gamma 90.000000
_cell_volume 3405.737144
_symmetry_space_group_name_H-M "C 2/M"
_symmetry_group_IT_number 12
_symmetry_cell_setting 'monoclinic'
loop_
_space_group_symop_operation_xyz
x,y,z
-x,y,-z
-x,-y,-z
x,-y,z
1/2+x,1/2+y,z
1/2-x,1/2+y,-z
1/2-x,1/2-y,-z
1/2+x,1/2-y,z
loop_
_atom_site_type_symbol
_atom_site_label
_atom_site_fract_x
_atom_site_fract_y
_atom_site_fract_z
Si Si1 0.770585 0.206352 0.341606
Si Si2 0.824680 0.162860 0.649047
Si Si3 0.235060 0.583838 0.118180
Si Si4 0.023852 0.083593 0.161580
Si Si5 0.219055 0.082503 0.180461
Si Si6 0.624387 0.635373 0.875674
Si Si7 0.874501 0.583466 0.221852
Si Si8 0.581981 0.239002 0.648999
O O1 0.797601 0.158677 0.484413
O O2 0.702903 0.262305 0.312025
O O3 0.727738 0.147775 0.209166
O O4 0.844739 0.249960 0.362585
O O5 0.917776 0.152246 0.745953
O O6 0.790827 0.093717 0.689474
O O7 0.225088 0.500000 0.162131
O O8 0.321005 0.586997 0.152858
O O9 0.167029 0.599307 0.949064
O O10 0.952993 0.089481 0.177191
O O11 0.060656 0.000000 0.219218
O O12 0.000000 0.094723 0.000000
O O13 0.310393 0.083753 0.255542
O O14 0.184154 0.000000 0.108075
O O15 0.173465 0.146292 0.052548
O O16 0.601148 0.713973 0.788817
O O17 0.916127 0.500000 0.264912
O O18 0.930939 0.652560 0.319458
O O19 0.500000 0.264832 0.500000
#
# Coordination Sequence:
#
# PCOD8083330 Si02
#       8
#     8   8   8   8   8   8   8   8
#     4  10  23  37  52  78 111 144 185 227 267 326
#     4  11  21  35  52  75 111 150 184 221 261 312
#     4   9  19  35  58  82 108 139 177 225 278 328
#     4  11  21  32  51  81 114 144 178 216 262 323
#     4  10  18  32  56  82 106 138 179 223 269 316
#     4  10  20  33  55  83 114 140 176 222 266 325
#     4   9  19  34  56  82 104 132 180 232 274 319
#     4  11  22  37  56  78 110 145 182 222 280 327
#
# _framework density 18.791820000000001
#
# number of rings (size 3 to 8) (size 9 to 14) (size 15 to 20)
#    0.000    1.875    2.500    3.000    1.750    2.750 
#    0.000    0.000    0.000    6.000    0.000    0.000 
#    0.000   12.000    0.000    0.000    0.000    0.000 
#
# Total GULP energy -396473.476992 kJ/mol
# GULP energy per Si atom -12389.796156 kJ/mol
# Density = 1.874905 g / cm^3
# Si number density = 18.791820 Si / 1000 Ang^3
#
#
#
# Elastic Constant Matrix: (Units=GPa)
#
#
# Indices 1 2 3 4 5 6 
#
# 1 49.1498 13.0922 20.0113 0.0000 -7.8896 0.0000
# 2 13.0922 88.3390 43.5621 0.0000 -4.2322 0.0000
# 3 20.0113 43.5621 70.1036 0.0000 -10.7557 0.0000
# 4 0.0000 0.0000 0.0000 27.6979 0.0000 9.6170
# 5 -7.8896 -4.2322 -10.7557 0.0000 27.9178 0.0000
# 6 0.0000 0.0000 0.0000 9.6170 0.0000 -58.4021
#
#
#
# Elastic Compliance Matrix: (Units=1/GPa)
#
#
# Indices 1 2 3 4 5 6 
#
# 1 0.023511 -0.000426 -0.005778 0.000000 0.004353 0.000000
# 2 -0.000426 0.016390 -0.010310 0.000000 -0.001608 0.000000
# 3 -0.005778 -0.010310 0.023202 0.000000 0.005743 0.000000
# 4 0.000000 0.000000 0.000000 0.034151 0.000000 0.005624
# 5 0.004353 -0.001608 0.005743 0.000000 0.039018 0.000000
# 6 0.000000 0.000000 0.000000 0.005624 0.000000 -0.016197
#
#
# Mechanical properties :
#
#
# Convention : Reuss Voigt Hill
#
# Bulk Modulus (GPa) = 33.25165 40.10263 36.67714
# Shear Modulus (GPa) = 30.65047 8.17117 19.41082
#
# Velocity S-wave (km/s) = 4.04301 2.08751 3.21742
# Velocity P-wave (km/s) = 6.28711 5.21508 5.77602
#
# Compressibility (1/GPa) = 0.03007370
#
# Stress axis : x y z
#
# Youngs Moduli (GPa) = 42.53324 61.01206 43.10045
#
# Poissons Ratio (x) = 0.02602 0.24905
# Poissons Ratio (y) = 0.01814 0.44436
# Poissons Ratio (z) = 0.24577 0.62902
#
# Static dielectric constant tensor:
#      x y z
#    x 3.413500 0.000000 -0.165080 
#    y 0.000000 3.560110 0.000000 
#    z -0.165080 0.000000 3.442980 
# 
# 
# High freq. dielectric constant tensor:
#      x y z
#    x 1.716540 0.000000 -0.012880 
#    y 0.000000 1.730420 0.000000 
#    z -0.012880 0.000000 1.717510 
# 
# From -- ./inp_files/177140.got.cif
#   From: 2010.06.25/outbox.cif.g09.slc.cpg/sg12_89_cif.got.tgz:177140.got - 2010.06.28 00:19:55.
