data_PCOD8083534
_publ_section_title
;
Structure prediction by ZEFSAII (Michael W. Deem and Ramdas Pophale) SiO2 
 PCOD8083534
Probable space group: C 2/M
;
_chemical_formula_sum "Si O2"
_cell_formula_units_Z 64
_cell_length_a 22.579068
_cell_length_b 18.145668
_cell_length_c 8.771942
_cell_angle_alpha 90.000000
_cell_angle_beta 86.974432
_cell_angle_gamma 90.000000
_cell_volume 3588.962576
_symmetry_space_group_name_H-M "C 2/M"
_symmetry_group_IT_number 12
_symmetry_cell_setting 'monoclinic'
loop_
_space_group_symop_operation_xyz
x,y,z
-x,y,-z
-x,-y,-z
x,-y,z
1/2+x,1/2+y,z
1/2-x,1/2+y,-z
1/2-x,1/2-y,-z
1/2+x,1/2-y,z
loop_
_atom_site_type_symbol
_atom_site_label
_atom_site_fract_x
_atom_site_fract_y
_atom_site_fract_z
Si Si1 0.167410 0.225660 0.150262
Si Si2 0.642233 0.082716 0.879157
Si Si3 0.455350 0.083936 0.637931
Si Si4 0.345797 0.123674 0.465898
Si Si5 0.276631 0.582069 0.367315
Si Si6 0.246736 0.361212 0.057696
Si Si7 0.057758 0.686021 0.076895
Si Si8 0.184765 0.218506 0.488776
O O1 0.209690 0.296809 0.144067
O O2 0.099492 0.246035 0.121052
O O3 0.170792 0.192495 0.318951
O O4 0.192041 0.167333 0.024744
O O5 0.640026 0.089550 0.698701
O O6 0.626115 0.000000 0.929174
O O7 0.707865 0.101600 0.930968
O O8 0.593265 0.134942 0.956296
O O9 0.500000 0.109785 0.500000
O O10 0.388403 0.089034 0.586896
O O11 0.464276 0.138005 0.777918
O O12 0.468807 0.000000 0.687002
O O13 0.280275 0.099786 0.522201
O O14 0.356703 0.212469 0.457732
O O15 0.300298 0.500000 0.403965
O O16 0.262836 0.582181 0.189064
O O17 0.324711 0.646051 0.403174
O O18 0.000000 0.718527 0.000000
O O19 0.250000 0.250000 0.500000
#
# Coordination Sequence:
#
# PCOD8083534 Si02
#       8
#     8   8   8   8   8   8   8   8
#     4  10  19  34  53  77 102 143 183 230 272 317
#     4  11  22  33  52  79 113 151 186 227 275 326
#     4  11  22  36  53  74 106 145 186 229 266 303
#     4  11  20  34  51  75 106 148 186 218 259 320
#     4  11  21  32  52  79 111 141 172 217 273 338
#     4  10  19  32  52  76 109 138 181 225 280 328
#     4  11  23  38  53  74 111 149 194 232 267 316
#     4  10  18  33  52  75 101 139 176 218 268 320
#
# _framework density 17.832452
#
# number of rings (size 3 to 8) (size 9 to 14) (size 15 to 20)
#    0.000    1.375    3.750    4.875    3.500    2.000 
#    0.000    0.625    0.000    0.000    0.000    0.000 
#    0.000    8.000    0.000    0.000    0.000    0.000 
#
# Total GULP energy -396802.645314 kJ/mol
# GULP energy per Si atom -12400.082666 kJ/mol
# Density = 1.779186 g / cm^3
# Si number density = 17.832452 Si / 1000 Ang^3
#
#
#
# Elastic Constant Matrix: (Units=GPa)
#
#
# Indices 1 2 3 4 5 6 
#
# 1 71.9548 19.7064 28.3821 0.0000 9.1139 0.0000
# 2 19.7064 80.5898 16.3377 0.0000 5.8780 0.0000
# 3 28.3821 16.3377 83.0660 0.0000 13.5712 0.0000
# 4 0.0000 0.0000 0.0000 18.3538 0.0000 -3.2487
# 5 9.1139 5.8780 13.5712 0.0000 25.8363 0.0000
# 6 0.0000 0.0000 0.0000 -3.2487 0.0000 15.7089
#
#
#
# Elastic Compliance Matrix: (Units=1/GPa)
#
#
# Indices 1 2 3 4 5 6 
#
# 1 0.016939 -0.002976 -0.004744 0.000000 -0.002807 0.000000
# 2 -0.002976 0.013520 -0.001434 0.000000 -0.001273 0.000000
# 3 -0.004744 -0.001434 0.014893 0.000000 -0.005823 0.000000
# 4 0.000000 0.000000 0.000000 0.056555 0.000000 0.011696
# 5 -0.002807 -0.001273 -0.005823 0.000000 0.043044 0.000000
# 6 0.000000 0.000000 0.000000 0.011696 0.000000 0.066077
#
#
# Mechanical properties :
#
#
# Convention : Reuss Voigt Hill
#
# Bulk Modulus (GPa) = 36.97703 40.49590 38.73647
# Shear Modulus (GPa) = 20.97749 23.39208 22.18479
#
# Velocity S-wave (km/s) = 3.43354 3.62577 3.53096
# Velocity P-wave (km/s) = 6.04150 6.34718 6.19622
#
# Compressibility (1/GPa) = 0.02704381
#
# Stress axis : x y z
#
# Youngs Moduli (GPa) = 59.03430 73.96569 67.14520
#
# Poissons Ratio (x) = 0.22010 0.31854
# Poissons Ratio (y) = 0.17567 0.09632
# Poissons Ratio (z) = 0.28006 0.10610
#
# Static dielectric constant tensor:
#      x y z
#    x 3.168430 0.000000 0.094670 
#    y 0.000000 3.524010 0.000000 
#    z 0.094670 0.000000 3.275760 
# 
# 
# High freq. dielectric constant tensor:
#      x y z
#    x 1.651790 0.000000 0.008210 
#    y 0.000000 1.671420 0.000000 
#    z 0.008210 0.000000 1.708270 
# 
# From -- ./inp_files/87982.got.cif
#   From: 2010.06.25/outbox.cif.g09.slc.cpg/sg12_44_cif.got.tgz:87982.got - 2010.06.28 00:19:55.
