data_PCOD8083724
_publ_section_title
;
Structure prediction by ZEFSAII (Michael W. Deem and Ramdas Pophale) SiO2 
 PCOD8083724
Probable space group: C 2/M
;
_chemical_formula_sum "Si O2"
_cell_formula_units_Z 56
_cell_length_a 9.509960
_cell_length_b 27.871600
_cell_length_c 19.195417
_cell_angle_alpha 90.000000
_cell_angle_beta 36.673387
_cell_angle_gamma 90.000000
_cell_volume 3038.758887
_symmetry_space_group_name_H-M "C 2/M"
_symmetry_group_IT_number 12
_symmetry_cell_setting 'monoclinic'
loop_
_space_group_symop_operation_xyz
x,y,z
-x,y,-z
-x,-y,-z
x,-y,z
1/2+x,1/2+y,z
1/2-x,1/2+y,-z
1/2-x,1/2-y,-z
1/2+x,1/2-y,z
loop_
_atom_site_type_symbol
_atom_site_label
_atom_site_fract_x
_atom_site_fract_y
_atom_site_fract_z
Si Si1 0.741459 0.279885 0.073895
Si Si2 0.574587 0.700557 0.612456
Si Si3 0.704255 0.446089 0.471606
Si Si4 0.046985 0.352892 0.626848
Si Si5 0.441171 0.355987 0.245687
Si Si6 0.271662 0.554109 0.382170
Si Si7 0.640262 0.776729 0.689918
O O1 0.630358 0.334701 0.113951
O O2 0.582491 0.249695 0.189501
O O3 0.750000 0.250000 0.000000
O O4 0.000000 0.285497 0.000000
O O5 0.732131 0.666105 0.503899
O O6 0.484928 0.667443 0.710888
O O7 0.711984 0.746977 0.590397
O O8 0.352384 0.720480 0.658875
O O9 0.500000 0.429943 0.500000
O O10 0.791936 0.500000 0.419317
O O11 0.926052 0.410299 0.374250
O O12 0.608062 0.443943 0.589322
O O13 0.055119 0.329443 0.700344
O O14 0.812249 0.337862 0.679903
O O15 0.419993 0.413370 0.268035
O O16 0.271413 0.500000 0.352191
O O17 0.000000 0.572412 0.500000
#
# Coordination Sequence:
#
# PCOD8083724 Si02
#       7
#     8   8   8   8   8   8   8
#     4  11  23  42  57  72  99 139 190 251 286 317
#     4  11  21  35  49  78 114 142 170 215 265 337
#     4  10  20  33  50  78 120 158 179 203 247 313
#     4  12  21  33  51  81 115 147 172 215 262 339
#     4  11  21  35  56  80 107 145 190 221 275 331
#     4  10  18  33  56  85 120 151 177 212 263 334
#     4  11  23  35  54  76 101 141 185 220 281 332
#
# _framework density 18.428576
#
# number of rings (size 3 to 8) (size 9 to 14) (size 15 to 20)
#    0.000    1.143    2.857    6.429    0.000    2.286 
#    0.000    0.000    0.000    0.429    0.000    1.000 
#    0.000    3.429    0.000    0.000    0.000    0.000 
#
# Total GULP energy -346975.427068 kJ/mol
# GULP energy per Si atom -12391.979538 kJ/mol
# Density = 1.838663 g / cm^3
# Si number density = 18.428576 Si / 1000 Ang^3
#
#
#
# Elastic Constant Matrix: (Units=GPa)
#
#
# Indices 1 2 3 4 5 6 
#
# 1 118.8449 43.3122 35.2640 0.0000 -10.8730 0.0000
# 2 43.3122 121.9344 43.2087 0.0000 -3.9267 0.0000
# 3 35.2640 43.2087 70.7248 0.0000 -13.1780 0.0000
# 4 0.0000 0.0000 0.0000 32.7872 0.0000 1.6146
# 5 -10.8730 -3.9267 -13.1780 0.0000 25.5958 0.0000
# 6 0.0000 0.0000 0.0000 1.6146 0.0000 28.7979
#
#
#
# Elastic Compliance Matrix: (Units=1/GPa)
#
#
# Indices 1 2 3 4 5 6 
#
# 1 0.010515 -0.002499 -0.003268 0.000000 0.002400 0.000000
# 2 -0.002499 0.011142 -0.006018 0.000000 -0.002451 0.000000
# 3 -0.003268 -0.006018 0.021032 0.000000 0.008517 0.000000
# 4 0.000000 0.000000 0.000000 0.030584 0.000000 -0.001715
# 5 0.002400 -0.002451 0.008517 0.000000 0.044098 0.000000
# 6 0.000000 0.000000 0.000000 -0.001715 0.000000 0.034821
#
#
# Mechanical properties :
#
#
# Convention : Reuss Voigt Hill
#
# Bulk Modulus (GPa) = 52.30595 61.67490 56.99042
# Shear Modulus (GPa) = 27.45196 30.08411 28.76804
#
# Velocity S-wave (km/s) = 3.86377 4.04477 3.95531
# Velocity P-wave (km/s) = 6.95339 7.43997 7.20079
#
# Compressibility (1/GPa) = 0.01911829
#
# Stress axis : x y z
#
# Youngs Moduli (GPa) = 95.10543 89.74653 47.54557
#
# Poissons Ratio (x) = 0.22431 0.15540
# Poissons Ratio (y) = 0.23771 0.28612
# Poissons Ratio (z) = 0.31085 0.54008
#
# Static dielectric constant tensor:
#      x y z
#    x 3.725260 0.000000 0.270180 
#    y 0.000000 3.847160 0.000000 
#    z 0.270180 0.000000 3.307680 
# 
# 
# High freq. dielectric constant tensor:
#      x y z
#    x 1.737950 0.000000 0.003930 
#    y 0.000000 1.725550 0.000000 
#    z 0.003930 0.000000 1.655910 
# 
# From -- ./inp_files/260092.got.cif
#   From: 2010.06.25/outbox.cif.g09.slc.cpg/sg12_131_cif.got.tgz:260092.got - 2010.06.28 00:19:55.
