data_PCOD8083090
_publ_section_title
;
Structure prediction by ZEFSAII (Michael W. Deem and Ramdas Pophale) SiO2 
 PCOD8083090
Probable space group: C 2/M
;
_chemical_formula_sum "Si O2"
_cell_formula_units_Z 64
_cell_length_a 29.650278
_cell_length_b 9.544772
_cell_length_c 15.920842
_cell_angle_alpha 90.000000
_cell_angle_beta 132.555727
_cell_angle_gamma 90.000000
_cell_volume 3318.973658
_symmetry_space_group_name_H-M "C 2/M"
_symmetry_group_IT_number 12
_symmetry_cell_setting 'monoclinic'
loop_
_space_group_symop_operation_xyz
x,y,z
-x,y,-z
-x,-y,-z
x,-y,z
1/2+x,1/2+y,z
1/2-x,1/2+y,-z
1/2-x,1/2-y,-z
1/2+x,1/2-y,z
loop_
_atom_site_type_symbol
_atom_site_label
_atom_site_fract_x
_atom_site_fract_y
_atom_site_fract_z
Si Si1 0.206343 0.665636 0.592508
Si Si2 0.477677 0.841029 0.223523
Si Si3 0.112409 0.335934 0.333969
Si Si4 0.122571 0.654891 0.036013
Si Si5 0.324265 0.845364 0.264882
Si Si6 0.208805 0.210991 0.025968
Si Si7 0.154621 0.167446 0.232863
Si Si8 0.106222 0.846687 0.779193
O O1 0.206513 0.500000 0.598680
O O2 0.165512 0.717439 0.463552
O O3 0.177650 0.720668 0.644030
O O4 0.275508 0.718906 0.666922
O O5 0.548428 0.807153 0.298772
O O6 0.453155 0.738182 0.265058
O O7 0.468339 0.000000 0.243711
O O8 0.442213 0.819763 0.091112
O O9 0.119912 0.500000 0.320101
O O10 0.114664 0.240458 0.254472
O O11 0.124275 0.500000 0.079654
O O12 0.177739 0.659721 0.036933
O O13 0.129642 0.777266 0.112746
O O14 0.253564 0.869049 0.146314
O O15 0.361578 0.738602 0.254673
O O16 0.355212 0.000000 0.302054
O O17 0.250000 0.250000 0.000000
O O18 0.152177 0.124943 0.915562
O O19 0.147120 0.000000 0.227016
O O20 0.086068 0.000000 0.720508
#
# Coordination Sequence:
#
# PCOD8083090 Si02
#       8
#     8   8   8   8   8   8   8   8
#     4   9  19  36  58  83 110 141 181 228 274 326
#     4   9  20  38  58  79 107 145 189 230 267 318
#     4  10  21  40  62  80 102 142 192 233 272 321
#     4  10  20  35  55  81 111 145 183 223 269 323
#     4  10  18  32  53  78 111 146 178 220 272 326
#     4   9  18  30  49  78 112 143 176 218 266 319
#     4  11  22  37  57  85 116 141 175 225 285 334
#     4  10  20  32  51  81 113 146 182 221 270 327
#
# _framework density 19.283069999999999
#
# number of rings (size 3 to 8) (size 9 to 14) (size 15 to 20)
#    0.000    2.250    1.250    1.500    0.000    8.000 
#    0.000    4.375    0.000    3.750    0.000    0.000 
#    0.000    0.000    0.000    0.000    0.000    0.000 
#
# Total GULP energy -396590.865972 kJ/mol
# GULP energy per Si atom -12393.464562 kJ/mol
# Density = 1.923918 g / cm^3
# Si number density = 19.283070 Si / 1000 Ang^3
#
#
#
# Elastic Constant Matrix: (Units=GPa)
#
#
# Indices 1 2 3 4 5 6 
#
# 1 76.5144 44.5078 9.5483 0.0000 -3.5795 0.0000
# 2 44.5078 104.7783 12.9660 0.0000 -3.7367 0.0000
# 3 9.5483 12.9660 34.6638 0.0000 -2.8252 0.0000
# 4 0.0000 0.0000 0.0000 20.4025 0.0000 -3.1439
# 5 -3.5795 -3.7367 -2.8252 0.0000 29.0621 0.0000
# 6 0.0000 0.0000 0.0000 -3.1439 0.0000 27.8791
#
#
#
# Elastic Compliance Matrix: (Units=1/GPa)
#
#
# Indices 1 2 3 4 5 6 
#
# 1 0.017540 -0.007157 -0.002070 0.000000 0.001039 0.000000
# 2 -0.007157 0.012953 -0.002832 0.000000 0.000509 0.000000
# 3 -0.002070 -0.002832 0.030671 0.000000 0.002363 0.000000
# 4 0.000000 0.000000 0.000000 0.049880 0.000000 0.005625
# 5 0.001039 0.000509 0.002363 0.000000 0.034832 0.000000
# 6 0.000000 0.000000 0.000000 0.005625 0.000000 0.036504
#
#
# Mechanical properties :
#
#
# Convention : Reuss Voigt Hill
#
# Bulk Modulus (GPa) = 26.99403 38.88896 32.94149
# Shear Modulus (GPa) = 22.84717 25.39768 24.12243
#
# Velocity S-wave (km/s) = 3.44587 3.63312 3.54073
# Velocity P-wave (km/s) = 5.46455 6.14903 5.81687
#
# Compressibility (1/GPa) = 0.03704523
#
# Stress axis : x y z
#
# Youngs Moduli (GPa) = 57.01356 77.20300 32.60460
#
# Poissons Ratio (x) = 0.55257 0.06748
# Poissons Ratio (y) = 0.40807 0.09234
# Poissons Ratio (z) = 0.11799 0.21864
#
# Static dielectric constant tensor:
#      x y z
#    x 3.471900 0.000000 0.005440 
#    y 0.000000 3.332330 0.000000 
#    z 0.005440 0.000000 3.679560 
# 
# 
# High freq. dielectric constant tensor:
#      x y z
#    x 1.750400 0.000000 -0.005330 
#    y 0.000000 1.735290 0.000000 
#    z -0.005330 0.000000 1.737550 
# 
# From -- ./inp_files/250049.got.cif
#   From: 2010.06.25/outbox.cif.g09.slc.cpg/sg12_126_cif.got.tgz:250049.got - 2010.06.28 00:19:55.
