data_PCOD8083686
_publ_section_title
;
Structure prediction by ZEFSAII (Michael W. Deem and Ramdas Pophale) SiO2 
 PCOD8083686
Probable space group: C 2/M
;
_chemical_formula_sum "Si O2"
_cell_formula_units_Z 64
_cell_length_a 30.934611
_cell_length_b 8.926980
_cell_length_c 26.027001
_cell_angle_alpha 90.000000
_cell_angle_beta 27.568412
_cell_angle_gamma 90.000000
_cell_volume 3326.393571
_symmetry_space_group_name_H-M "C 2/M"
_symmetry_group_IT_number 12
_symmetry_cell_setting 'monoclinic'
loop_
_space_group_symop_operation_xyz
x,y,z
-x,y,-z
-x,-y,-z
x,-y,z
1/2+x,1/2+y,z
1/2-x,1/2+y,-z
1/2-x,1/2-y,-z
1/2+x,1/2-y,z
loop_
_atom_site_type_symbol
_atom_site_label
_atom_site_fract_x
_atom_site_fract_y
_atom_site_fract_z
Si Si1 0.249172 0.321771 0.733286
Si Si2 0.295925 0.323206 0.500761
Si Si3 0.987589 0.672708 0.286331
Si Si4 0.954230 0.169944 0.492787
Si Si5 0.277268 0.178294 0.124312
Si Si6 0.032143 0.678309 0.125358
Si Si7 0.902353 0.671816 0.730137
Si Si8 0.649935 0.822613 0.738906
O O1 0.252677 0.500000 0.732698
O O2 0.349772 0.264721 0.607779
O O3 0.226353 0.257260 0.813742
O O4 0.170289 0.267194 0.775751
O O5 0.294514 0.500000 0.495310
O O6 0.250000 0.250000 0.500000
O O7 0.401036 0.268387 0.398166
O O8 0.236143 0.271223 0.612809
O O9 0.955837 0.500000 0.315554
O O10 0.020248 0.733677 0.196426
O O11 0.073140 0.691990 0.235621
O O12 0.000000 0.173307 0.500000
O O13 0.010089 0.275030 0.395484
O O14 0.954190 0.000000 0.471135
O O15 0.189045 0.232028 0.184810
O O16 0.275669 0.000000 0.126367
O O17 0.370978 0.241572 0.999163
O O18 0.032684 0.500000 0.122759
O O19 0.947339 0.744241 0.180087
O O20 0.881789 0.500000 0.738272
O O21 0.642216 0.000000 0.746144
#
# Coordination Sequence:
#
# PCOD8083686 Si02
#       8
#     8   8   8   8   8   8   8   8
#     4   9  17  30  51  82 110 134 170 220 269 313
#     4  11  20  33  57  84 112 146 178 218 270 327
#     4  10  21  38  55  78 112 146 181 223 272 323
#     4  10  18  33  56  79 109 142 174 218 267 321
#     4  10  20  36  57  78 104 140 184 229 271 318
#     4   9  18  34  55  77 105 142 180 226 274 314
#     4  11  23  36  54  79 111 145 179 224 274 327
#     4   9  17  30  52  81 110 137 170 214 268 323
#
# _framework density 19.240055999999999
#
# number of rings (size 3 to 8) (size 9 to 14) (size 15 to 20)
#    0.000    2.125    2.500    1.500    0.000    3.250 
#    0.000    3.125    0.000    0.750    0.000    0.875 
#    0.000    0.000    0.000    0.000    0.000    0.000 
#
# Total GULP energy -396789.241693 kJ/mol
# GULP energy per Si atom -12399.663803 kJ/mol
# Density = 1.919626 g / cm^3
# Si number density = 19.240056 Si / 1000 Ang^3
#
#
#
# Elastic Constant Matrix: (Units=GPa)
#
#
# Indices 1 2 3 4 5 6 
#
# 1 140.1209 18.8260 67.1968 0.0011 -4.9992 0.0048
# 2 18.8260 28.1953 19.7192 0.0348 -0.7562 0.0016
# 3 67.1968 19.7192 148.1396 0.0235 -11.3484 0.0026
# 4 0.0011 0.0348 0.0235 18.7348 -0.0045 -1.9485
# 5 -4.9992 -0.7562 -11.3484 -0.0045 17.1969 -0.0040
# 6 0.0048 0.0016 0.0026 -1.9485 -0.0040 16.2933
#
#
#
# Elastic Compliance Matrix: (Units=1/GPa)
#
#
# Indices 1 2 3 4 5 6 
#
# 1 0.009450 -0.003654 -0.003794 0.000011 0.000083 0.000000
# 2 -0.003654 0.040574 -0.003884 -0.000072 -0.001841 -0.000011
# 3 -0.003794 -0.003884 0.009364 -0.000003 0.004906 0.000001
# 4 0.000011 -0.000072 -0.000003 0.054049 0.000014 0.006464
# 5 0.000083 -0.001841 0.004906 0.000014 0.061331 0.000016
# 6 0.000000 -0.000011 0.000001 0.006464 0.000016 0.062148
#
#
# Mechanical properties :
#
#
# Convention : Reuss Voigt Hill
#
# Bulk Modulus (GPa) = 27.23051 58.65996 42.94524
# Shear Modulus (GPa) = 18.39440 24.49259 21.44350
#
# Velocity S-wave (km/s) = 3.09536 3.57178 3.34207
# Velocity P-wave (km/s) = 5.19218 6.89673 6.10424
#
# Compressibility (1/GPa) = 0.03672351
#
# Stress axis : x y z
#
# Youngs Moduli (GPa) = 105.82031 24.64619 106.79026
#
# Poissons Ratio (x) = 0.09006 0.40514
# Poissons Ratio (y) = 0.38669 0.41481
# Poissons Ratio (z) = 0.40146 0.09574
#
# Static dielectric constant tensor:
#      x y z
#    x 3.789610 0.000000 0.025100 
#    y 0.000000 3.163110 0.000030 
#    z 0.025100 0.000030 3.724970 
# 
# 
# High freq. dielectric constant tensor:
#      x y z
#    x 1.767510 0.000000 -0.000400 
#    y 0.000000 1.701470 0.000000 
#    z -0.000400 0.000000 1.747550 
# 
# From -- ./inp_files/353303.got.cif
#   From: 2010.06.25/outbox.cif.g09.slc.cpg/sg12_177_cif.got.tgz:353303.got - 2010.06.28 00:19:55.
