data_PCOD8083235
_publ_section_title
;
Structure prediction by ZEFSAII (Michael W. Deem and Ramdas Pophale) SiO2 
 PCOD8083235
Probable space group: C 2/M
;
_chemical_formula_sum "Si O2"
_cell_formula_units_Z 56
_cell_length_a 10.271580
_cell_length_b 14.655492
_cell_length_c 24.883453
_cell_angle_alpha 90.000000
_cell_angle_beta 44.952530
_cell_angle_gamma 90.000000
_cell_volume 2646.507866
_symmetry_space_group_name_H-M "C 2/M"
_symmetry_group_IT_number 12
_symmetry_cell_setting 'monoclinic'
loop_
_space_group_symop_operation_xyz
x,y,z
-x,y,-z
-x,-y,-z
x,-y,z
1/2+x,1/2+y,z
1/2-x,1/2+y,-z
1/2-x,1/2-y,-z
1/2+x,1/2-y,z
loop_
_atom_site_type_symbol
_atom_site_label
_atom_site_fract_x
_atom_site_fract_y
_atom_site_fract_z
Si Si1 0.304291 0.894247 0.031773
Si Si2 0.357592 0.000000 0.619620
Si Si3 0.738023 0.301862 0.667467
Si Si4 0.755124 0.000000 0.470864
Si Si5 0.742102 0.902889 0.785017
Si Si6 0.373160 0.275257 0.834924
Si Si7 0.470930 0.334103 0.377781
Si Si8 0.676290 0.099150 0.098751
O O1 0.140167 0.838345 0.108226
O O2 0.271372 0.000000 0.052580
O O3 0.500000 0.863845 0.000000
O O4 0.295279 0.872945 0.971263
O O5 0.273507 0.908692 0.670945
O O6 0.579253 0.000000 0.561565
O O7 0.306285 0.000000 0.572602
O O8 0.587580 0.264728 0.754589
O O9 0.665776 0.290457 0.627268
O O10 0.929598 0.246266 0.617398
O O11 0.866955 0.905069 0.448136
O O12 0.760297 0.819166 0.819728
O O13 0.536762 0.907616 0.824377
O O14 0.874588 0.894321 0.695869
O O15 0.789882 0.000000 0.799974
O O16 0.261904 0.180713 0.879990
O O17 0.770595 0.000000 0.083667
#
# Coordination Sequence:
#
# PCOD8083235 Si02
#       8
#     8   4   8   4   8   8   8   8
#     4  10  19  32  51  80 105 138 187 241 286 332
#     4   9  20  38  57  91 119 152 188 244 285 341
#     4  10  22  35  59  85 120 149 196 236 289 341
#     4   9  18  36  65  85 116 155 199 229 281 339
#     4  10  18  32  55  79 104 136 186 234 273 326
#     4  11  20  31  55  80 106 142 184 240 286 330
#     4  10  19  36  57  89 114 152 190 238 281 344
#     4  10  20  34  50  73 107 141 179 235 279 334
#
# _framework density 21.159960999999999
#
# number of rings (size 3 to 8) (size 9 to 14) (size 15 to 20)
#    0.000    2.000    3.571    0.857    4.000    0.571 
#    0.000    0.714    4.714    3.000    0.000    0.000 
#    0.000    0.000    0.000    0.000    0.000    0.000 
#
# Total GULP energy -346953.742249 kJ/mol
# GULP energy per Si atom -12391.205080 kJ/mol
# Density = 2.111180 g / cm^3
# Si number density = 21.159961 Si / 1000 Ang^3
#
#
#
# Elastic Constant Matrix: (Units=GPa)
#
#
# Indices 1 2 3 4 5 6 
#
# 1 54.1839 30.3932 0.4562 0.0000 -9.0630 0.0000
# 2 30.3932 110.1948 4.3385 0.0001 1.9050 0.0001
# 3 0.4562 4.3385 42.3767 -0.0007 -3.5658 -0.0002
# 4 0.0000 0.0001 -0.0007 30.9327 0.0000 -4.5161
# 5 -9.0630 1.9050 -3.5658 0.0000 17.8370 0.0000
# 6 0.0000 0.0001 -0.0002 -4.5161 0.0000 25.4810
#
#
#
# Elastic Compliance Matrix: (Units=1/GPa)
#
#
# Indices 1 2 3 4 5 6 
#
# 1 0.024715 -0.007116 0.001610 0.000000 0.013640 0.000000
# 2 -0.007116 0.011185 -0.001498 0.000000 -0.005110 0.000000
# 3 0.001610 -0.001498 0.024224 0.000001 0.005821 0.000000
# 4 0.000000 0.000000 0.000001 0.033187 0.000000 0.005882
# 5 0.013640 -0.005110 0.005821 0.000000 0.064703 0.000000
# 6 0.000000 0.000000 0.000000 0.005882 0.000000 0.040287
#
#
# Mechanical properties :
#
#
# Convention : Reuss Voigt Hill
#
# Bulk Modulus (GPa) = 21.68480 30.79235 26.23857
# Shear Modulus (GPa) = 21.96055 26.28797 24.12426
#
# Velocity S-wave (km/s) = 3.22504 3.52852 3.38019
# Velocity P-wave (km/s) = 4.91306 5.58429 5.25939
#
# Compressibility (1/GPa) = 0.04611526
#
# Stress axis : x y z
#
# Youngs Moduli (GPa) = 40.46119 89.40676 41.28176
#
# Poissons Ratio (x) = 0.63621 -0.06647
# Poissons Ratio (y) = 0.28792 0.06186
# Poissons Ratio (z) = -0.06515 0.13397
#
# Static dielectric constant tensor:
#      x y z
#    x 3.423630 0.000000 -0.241770 
#    y 0.000000 4.445750 0.000000 
#    z -0.241770 0.000000 3.870430 
# 
# 
# High freq. dielectric constant tensor:
#      x y z
#    x 1.781610 0.000000 -0.016570 
#    y 0.000000 1.845830 0.000000 
#    z -0.016570 0.000000 1.824920 
# 
# From -- ./inp_files/358200.got.cif
#   From: 2010.06.25/outbox.cif.g09.slc.cpg/sg12_180_cif.got.tgz:358200.got - 2010.06.28 00:19:55.
