data_PCOD8083987
_publ_section_title
;
Structure prediction by ZEFSAII (Michael W. Deem and Ramdas Pophale) SiO2 
 PCOD8083987
Probable space group: C 2/M
;
_chemical_formula_sum "Si O2"
_cell_formula_units_Z 64
_cell_length_a 25.620290
_cell_length_b 9.372543
_cell_length_c 16.336101
_cell_angle_alpha 90.000000
_cell_angle_beta 65.924810
_cell_angle_gamma 90.000000
_cell_volume 3581.507440
_symmetry_space_group_name_H-M "C 2/M"
_symmetry_group_IT_number 12
_symmetry_cell_setting 'monoclinic'
loop_
_space_group_symop_operation_xyz
x,y,z
-x,y,-z
-x,-y,-z
x,-y,z
1/2+x,1/2+y,z
1/2-x,1/2+y,-z
1/2-x,1/2-y,-z
1/2+x,1/2-y,z
loop_
_atom_site_type_symbol
_atom_site_label
_atom_site_fract_x
_atom_site_fract_y
_atom_site_fract_z
Si Si1 0.777165 0.167575 0.601089
Si Si2 0.440098 0.346019 0.075203
Si Si3 0.948879 0.168476 0.254056
Si Si4 0.925021 0.169663 0.794430
Si Si5 0.114305 0.659348 0.023832
Si Si6 0.327896 0.332580 0.394461
Si Si7 0.828433 0.831696 0.736010
Si Si8 0.743870 0.842292 0.925175
O O1 0.716649 0.249731 0.635428
O O2 0.814670 0.201072 0.497247
O O3 0.814855 0.227019 0.653578
O O4 0.763487 0.000000 0.617842
O O5 0.406014 0.500000 0.098305
O O6 0.445461 0.280660 0.162575
O O7 0.415917 0.223021 0.035007
O O8 0.500000 0.386618 0.000000
O O9 0.892524 0.224688 0.337456
O O10 0.009018 0.223793 0.254931
O O11 0.950165 0.000000 0.257994
O O12 0.890744 0.212583 0.732954
O O13 0.922301 0.000000 0.811640
O O14 0.893140 0.243352 0.891185
O O15 0.091389 0.500000 0.058371
O O16 0.177719 0.650975 0.948022
O O17 0.322407 0.500000 0.378022
O O18 0.778862 0.772637 0.827754
O O19 0.824920 0.000000 0.732400
O O20 0.769113 0.000000 0.926292
O O21 0.750000 0.750000 0.000000
#
# Coordination Sequence:
#
# PCOD8083987 Si02
#       8
#     8   8   8   8   8   8   8   8
#     4   9  18  34  55  77 102 129 160 199 250 304
#     4  10  19  33  51  69  94 135 177 204 238 294
#     4   9  18  32  51  75  98 126 170 210 240 287
#     4  10  18  34  55  69  94 138 173 200 243 298
#     4  11  22  32  45  71 104 132 163 211 258 288
#     4   9  18  34  54  77 103 128 158 205 251 291
#     4   9  18  32  52  74  96 129 167 201 242 295
#     4  10  20  33  48  69  99 132 168 204 243 291
#
# _framework density 17.869571000000001
#
# number of rings (size 3 to 8) (size 9 to 14) (size 15 to 20)
#    0.000    2.375    2.500    0.375    1.750    0.750 
#    0.000    2.500    0.000    3.750    0.000    0.000 
#    0.000    5.000    0.000    0.000    0.000    0.000 
#
# Total GULP energy -396490.821510 kJ/mol
# GULP energy per Si atom -12390.338172 kJ/mol
# Density = 1.782890 g / cm^3
# Si number density = 17.869571 Si / 1000 Ang^3
#
#
#
# Elastic Constant Matrix: (Units=GPa)
#
#
# Indices 1 2 3 4 5 6 
#
# 1 137.1985 34.7213 72.6867 0.0000 11.2508 0.0000
# 2 34.7213 48.7688 21.9244 0.0001 7.3206 0.0001
# 3 72.6867 21.9244 106.6190 0.0000 9.2114 0.0000
# 4 0.0000 0.0001 0.0000 18.1413 0.0000 1.6197
# 5 11.2508 7.3206 9.2114 0.0000 35.4659 0.0000
# 6 0.0000 0.0001 0.0000 1.6197 0.0000 24.9705
#
#
#
# Elastic Compliance Matrix: (Units=1/GPa)
#
#
# Indices 1 2 3 4 5 6 
#
# 1 0.012720 -0.005566 -0.007445 0.000000 -0.000953 0.000000
# 2 -0.005566 0.025471 -0.001168 0.000000 -0.003189 0.000000
# 3 -0.007445 -0.001168 0.014802 0.000000 -0.001242 0.000000
# 4 0.000000 0.000000 0.000000 0.055444 0.000000 -0.003596
# 5 -0.000953 -0.003189 -0.001242 0.000000 0.029479 0.000000
# 6 0.000000 0.000000 0.000000 -0.003596 0.000000 0.040281
#
#
# Mechanical properties :
#
#
# Convention : Reuss Voigt Hill
#
# Bulk Modulus (GPa) = 40.59080 61.25012 50.92046
# Shear Modulus (GPa) = 23.28129 26.59912 24.94020
#
# Velocity S-wave (km/s) = 3.61341 3.86231 3.73993
# Velocity P-wave (km/s) = 6.33824 7.36482 6.87073
#
# Compressibility (1/GPa) = 0.02463612
#
# Stress axis : x y z
#
# Youngs Moduli (GPa) = 78.61926 39.26001 67.55893
#
# Poissons Ratio (x) = 0.21852 0.50295
# Poissons Ratio (y) = 0.43759 0.07889
# Poissons Ratio (z) = 0.58529 0.04584
#
# Static dielectric constant tensor:
#      x y z
#    x 4.198530 0.000000 -0.526360 
#    y 0.000000 3.152560 0.000000 
#    z -0.526360 0.000000 3.834250 
# 
# 
# High freq. dielectric constant tensor:
#      x y z
#    x 1.697240 0.000000 0.000980 
#    y 0.000000 1.664680 0.000000 
#    z 0.000980 0.000000 1.681540 
# 
# From -- ./inp_files/243803.got.cif
#   From: 2010.06.25/outbox.cif.g09.slc.cpg/sg12_122_cif.got.tgz:243803.got - 2010.06.28 00:19:55.
