data_PCOD8083638
_publ_section_title
;
Structure prediction by ZEFSAII (Michael W. Deem and Ramdas Pophale) SiO2 
 PCOD8083638
Probable space group: C 2/M
;
_chemical_formula_sum "Si O2"
_cell_formula_units_Z 56
_cell_length_a 29.192176
_cell_length_b 8.865879
_cell_length_c 21.518607
_cell_angle_alpha 90.000000
_cell_angle_beta 31.426202
_cell_angle_gamma 90.000000
_cell_volume 2903.844653
_symmetry_space_group_name_H-M "C 2/M"
_symmetry_group_IT_number 12
_symmetry_cell_setting 'monoclinic'
loop_
_space_group_symop_operation_xyz
x,y,z
-x,y,-z
-x,-y,-z
x,-y,z
1/2+x,1/2+y,z
1/2-x,1/2+y,-z
1/2-x,1/2-y,-z
1/2+x,1/2-y,z
loop_
_atom_site_type_symbol
_atom_site_label
_atom_site_fract_x
_atom_site_fract_y
_atom_site_fract_z
Si Si1 0.723268 0.325605 0.803227
Si Si2 0.076251 0.322683 0.633917
Si Si3 0.540603 0.170070 0.020662
Si Si4 0.376571 0.178118 0.285391
Si Si5 0.227951 0.673417 0.115485
Si Si6 0.284516 0.678645 0.609080
Si Si7 0.609921 0.325135 0.156502
O O1 0.727397 0.500000 0.779639
O O2 0.773405 0.294910 0.809650
O O3 0.771118 0.228651 0.695277
O O4 0.622639 0.280127 0.927855
O O5 0.079075 0.500000 0.619820
O O6 0.127913 0.276160 0.637174
O O7 0.123019 0.241980 0.522084
O O8 0.976228 0.272251 0.755180
O O9 0.467777 0.239537 0.151374
O O10 0.569240 0.000000 0.006742
O O11 0.500000 0.166516 0.000000
O O12 0.293515 0.245653 0.344140
O O13 0.376678 0.000000 0.275682
O O14 0.205130 0.500000 0.126764
O O15 0.154298 0.778881 0.170311
O O16 0.323832 0.712202 0.976582
O O17 0.286959 0.500000 0.603704
O O18 0.584326 0.500000 0.188771
#
# Coordination Sequence:
#
# PCOD8083638 Si02
#       7
#     8   8   8   8   8   8   8
#     4  11  22  36  55  84 117 149 185 228 282 332
#     4  11  22  37  57  82 112 147 189 233 281 329
#     4  10  18  33  55  79 112 150 185 224 271 325
#     4   9  19  35  56  81 110 149 191 230 275 328
#     4   9  20  38  60  86 117 146 178 226 281 334
#     4  11  22  39  57  77 111 152 194 234 273 327
#     4  10  20  37  61  88 114 143 183 227 277 333
#
# _framework density 19.284777999999999
#
# number of rings (size 3 to 8) (size 9 to 14) (size 15 to 20)
#    0.000    1.857    1.429    3.000    0.000    2.000 
#    0.000    3.571    0.000    4.286    0.000    0.000 
#    0.000    0.000    0.000    0.000    0.000    0.000 
#
# Total GULP energy -347293.608601 kJ/mol
# GULP energy per Si atom -12403.343164 kJ/mol
# Density = 1.924088 g / cm^3
# Si number density = 19.284778 Si / 1000 Ang^3
#
#
#
# Elastic Constant Matrix: (Units=GPa)
#
#
# Indices 1 2 3 4 5 6 
#
# 1 88.1376 39.2461 37.6994 -0.0010 9.6607 0.0032
# 2 39.2461 73.4307 35.5222 0.0126 6.3026 0.0007
# 3 37.6994 35.5222 90.9725 0.0007 12.3158 0.0044
# 4 -0.0010 0.0126 0.0007 35.4770 0.0006 -4.8667
# 5 9.6607 6.3026 12.3158 0.0006 21.4045 -0.0032
# 6 0.0032 0.0007 0.0044 -4.8667 -0.0032 35.3161
#
#
#
# Elastic Compliance Matrix: (Units=1/GPa)
#
#
# Indices 1 2 3 4 5 6 
#
# 1 0.016227 -0.006600 -0.003708 0.000003 -0.003247 -0.000001
# 2 -0.006600 0.019506 -0.004888 -0.000007 0.000048 0.000000
# 3 -0.003708 -0.004888 0.015200 0.000001 -0.005633 -0.000002
# 4 0.000003 -0.000007 0.000001 0.028730 0.000000 0.003959
# 5 -0.003247 0.000048 -0.005633 0.000000 0.051412 0.000006
# 6 -0.000001 0.000000 -0.000002 0.003959 0.000006 0.028861
#
#
# Mechanical properties :
#
#
# Convention : Reuss Voigt Hill
#
# Bulk Modulus (GPa) = 48.68238 53.05288 50.86763
# Shear Modulus (GPa) = 25.35816 27.77774 26.56795
#
# Velocity S-wave (km/s) = 3.63013 3.79937 3.71572
# Velocity P-wave (km/s) = 6.54746 6.84229 6.69650
#
# Compressibility (1/GPa) = 0.02054131
#
# Stress axis : x y z
#
# Youngs Moduli (GPa) = 61.62697 51.26526 65.78955
#
# Poissons Ratio (x) = 0.33837 0.24392
# Poissons Ratio (y) = 0.40676 0.32158
# Poissons Ratio (z) = 0.22849 0.25058
#
# Static dielectric constant tensor:
#      x y z
#    x 3.584240 0.000000 0.075460 
#    y 0.000000 3.423330 0.000020 
#    z 0.075460 0.000020 3.503670 
# 
# 
# High freq. dielectric constant tensor:
#      x y z
#    x 1.748130 0.000000 0.007720 
#    y 0.000000 1.743220 0.000000 
#    z 0.007720 0.000000 1.749670 
# 
# From -- ./inp_files/329446.got.cif
#   From: 2010.06.25/outbox.cif.g09.slc.cpg/sg12_165_cif.got.tgz:329446.got - 2010.06.28 00:19:55.
