data_PCOD8083258
_publ_section_title
;
Structure prediction by ZEFSAII (Michael W. Deem and Ramdas Pophale) SiO2 
 PCOD8083258
Probable space group: C 2/M
;
_chemical_formula_sum "Si O2"
_cell_formula_units_Z 56
_cell_length_a 31.668201
_cell_length_b 8.419943
_cell_length_c 20.562366
_cell_angle_alpha 90.000000
_cell_angle_beta 32.214282
_cell_angle_gamma 90.000000
_cell_volume 2922.832142
_symmetry_space_group_name_H-M "C 2/M"
_symmetry_group_IT_number 12
_symmetry_cell_setting 'monoclinic'
loop_
_space_group_symop_operation_xyz
x,y,z
-x,y,-z
-x,-y,-z
x,-y,z
1/2+x,1/2+y,z
1/2-x,1/2+y,-z
1/2-x,1/2-y,-z
1/2+x,1/2-y,z
loop_
_atom_site_type_symbol
_atom_site_label
_atom_site_fract_x
_atom_site_fract_y
_atom_site_fract_z
Si Si1 0.936656 0.315932 0.349236
Si Si2 0.977950 0.812119 0.100496
Si Si3 0.119580 0.686100 0.305130
Si Si4 0.732200 0.182724 0.951982
Si Si5 0.045141 0.684312 0.533125
Si Si6 0.923527 0.814710 0.903391
Si Si7 0.335489 0.319170 0.372492
O O1 0.911622 0.500000 0.373263
O O2 0.923991 0.250365 0.438606
O O3 0.883917 0.199848 0.375273
O O4 0.027996 0.292106 0.210840
O O5 0.892201 0.746207 0.240323
O O6 0.048848 0.768303 0.058852
O O7 0.970018 0.000000 0.104973
O O8 0.000000 0.740873 0.000000
O O9 0.135803 0.500000 0.268295
O O10 0.188483 0.799887 0.192258
O O11 0.112146 0.713703 0.392158
O O12 0.039958 0.754927 0.375819
O O13 0.706953 0.000000 0.990691
O O14 0.750000 0.250000 0.000000
O O15 0.667383 0.278104 0.994251
O O16 0.027284 0.500000 0.564400
O O17 0.940594 0.000000 0.869718
O O18 0.321143 0.500000 0.373586
O O19 0.250000 0.250000 0.500000
#
# Coordination Sequence:
#
# PCOD8083258 Si02
#       7
#     8   8   8   8   8   8   8
#     4  10  18  32  55  81 108 141 180 219 265 324
#     4   8  16  34  59  83 106 140 186 230 275 332
#     4   9  17  34  55  76 104 137 177 221 262 312
#     4  12  24  37  53  77 109 144 183 225 274 322
#     4   8  16  31  54  78 101 136 178 216 260 318
#     4  10  20  35  56  82 110 142 182 227 272 322
#     4  10  20  35  55  80 110 141 182 234 284 335
#
# _framework density 19.159499
#
# number of rings (size 3 to 8) (size 9 to 14) (size 15 to 20)
#    0.000    2.429    0.000    5.143    0.000    1.143 
#    2.571    3.571    0.000   14.571    0.000    0.000 
#    0.000    0.000    0.000    0.000    0.000    0.000 
#
# Total GULP energy -346913.456320 kJ/mol
# GULP energy per Si atom -12389.766297 kJ/mol
# Density = 1.911589 g / cm^3
# Si number density = 19.159499 Si / 1000 Ang^3
#
#
#
# Elastic Constant Matrix: (Units=GPa)
#
#
# Indices 1 2 3 4 5 6 
#
# 1 114.4233 18.3225 69.4639 -0.0016 21.6285 0.0044
# 2 18.3225 43.5023 14.4783 0.1024 3.3481 -0.0160
# 3 69.4639 14.4783 130.4682 0.0600 8.2583 -0.0136
# 4 -0.0016 0.1024 0.0600 30.6332 -0.0208 -3.0108
# 5 21.6285 3.3481 8.2583 -0.0208 32.8776 -0.0009
# 6 0.0044 -0.0160 -0.0136 -3.0108 -0.0009 23.6152
#
#
#
# Elastic Compliance Matrix: (Units=1/GPa)
#
#
# Indices 1 2 3 4 5 6 
#
# 1 0.015110 -0.003376 -0.007177 0.000020 -0.007794 -0.000007
# 2 -0.003376 0.024728 -0.000943 -0.000080 -0.000061 0.000007
# 3 -0.007177 -0.000943 0.011468 -0.000018 0.001937 0.000005
# 4 0.000020 -0.000080 -0.000018 0.033059 0.000020 0.004215
# 5 -0.007794 -0.000061 0.001937 0.000020 0.035063 0.000007
# 6 -0.000007 0.000007 0.000005 0.004215 0.000007 0.042883
#
#
# Mechanical properties :
#
#
# Convention : Reuss Voigt Hill
#
# Bulk Modulus (GPa) = 35.31755 54.76924 45.04340
# Shear Modulus (GPa) = 25.67524 29.83381 27.75453
#
# Velocity S-wave (km/s) = 3.66468 3.95033 3.81018
# Velocity P-wave (km/s) = 6.03158 7.03241 6.55114
#
# Compressibility (1/GPa) = 0.02831454
#
# Stress axis : x y z
#
# Youngs Moduli (GPa) = 66.18015 40.44036 87.19937
#
# Poissons Ratio (x) = 0.13652 0.62584
# Poissons Ratio (y) = 0.22341 0.08222
# Poissons Ratio (z) = 0.47498 0.03813
#
# Static dielectric constant tensor:
#      x y z
#    x 4.527800 -0.000100 0.160600 
#    y -0.000100 3.243010 0.000050 
#    z 0.160600 0.000050 3.756480 
# 
# 
# High freq. dielectric constant tensor:
#      x y z
#    x 1.744900 0.000000 0.006460 
#    y 0.000000 1.718960 0.000000 
#    z 0.006460 0.000000 1.746820 
# 
# From -- ./inp_files/329545.got.cif
#   From: 2010.06.25/outbox.cif.g09.slc.cpg/sg12_165_cif.got.tgz:329545.got - 2010.06.28 00:19:55.
