data_PCOD8083435
_publ_section_title
;
Structure prediction by ZEFSAII (Michael W. Deem and Ramdas Pophale) SiO2 
 PCOD8083435
Probable space group: C 2/M
;
_chemical_formula_sum "Si O2"
_cell_formula_units_Z 36
_cell_length_a 16.885295
_cell_length_b 19.571985
_cell_length_c 11.466962
_cell_angle_alpha 90.000000
_cell_angle_beta 33.831415
_cell_angle_gamma 90.000000
_cell_volume 2109.857034
_symmetry_space_group_name_H-M "C 2/M"
_symmetry_group_IT_number 12
_symmetry_cell_setting 'monoclinic'
loop_
_space_group_symop_operation_xyz
x,y,z
-x,y,-z
-x,-y,-z
x,-y,z
1/2+x,1/2+y,z
1/2-x,1/2+y,-z
1/2-x,1/2-y,-z
1/2+x,1/2-y,z
loop_
_atom_site_type_symbol
_atom_site_label
_atom_site_fract_x
_atom_site_fract_y
_atom_site_fract_z
Si Si1 0.055112 0.212056 0.811798
Si Si2 0.823209 0.176515 0.919965
Si Si3 0.142461 0.683047 0.519589
Si Si4 0.500000 0.277865 0.500000
Si Si5 0.436414 0.922219 0.707060
O O1 0.104572 0.277699 0.682457
O O2 0.190578 0.164764 0.680163
O O3 0.936853 0.170135 0.885388
O O4 0.000000 0.241789 0.000000
O O5 0.904433 0.170758 0.696022
O O6 0.750000 0.250000 0.000000
O O7 0.709926 0.118036 0.088437
O O8 0.097483 0.727984 0.460885
O O9 0.059254 0.611913 0.633629
O O10 0.500000 0.916630 0.500000
O O11 0.410305 0.000000 0.776556
#
# Coordination Sequence:
#
# PCOD8083435 Si02
#       5
#     8   8   8   4   8
#     4  10  19  29  52  81 108 130 171 227 262 304
#     4  11  19  34  56  81 108 139 181 223 263 313
#     4  10  19  32  50  83 104 135 175 217 270 305
#     4  10  18  32  58  80 106 136 182 228 260 308
#     4  11  21  35  55  79 109 142 178 218 270 324
#
# _framework density 17.062766
#
# number of rings (size 3 to 8) (size 9 to 14) (size 15 to 20)
#    0.000    1.556    5.556    2.667    0.000    0.000 
#    0.000    1.667    0.000    4.667    0.000    0.000 
#    0.000    0.000    0.000    0.000    0.000    0.000 
#
# Total GULP energy -222993.794537 kJ/mol
# GULP energy per Si atom -12388.544141 kJ/mol
# Density = 1.702393 g / cm^3
# Si number density = 17.062766 Si / 1000 Ang^3
#
#
#
# Elastic Constant Matrix: (Units=GPa)
#
#
# Indices 1 2 3 4 5 6 
#
# 1 117.4941 40.2070 72.2679 -0.0013 -16.6046 0.0009
# 2 40.2070 107.4719 60.2728 -0.0013 -15.1285 0.0009
# 3 72.2679 60.2728 124.9033 -0.0021 -4.4291 0.0017
# 4 -0.0013 -0.0013 -0.0021 21.1186 0.0017 0.0386
# 5 -16.6046 -15.1285 -4.4291 0.0017 44.2818 -0.0013
# 6 0.0009 0.0009 0.0017 0.0386 -0.0013 9.7007
#
#
#
# Elastic Compliance Matrix: (Units=1/GPa)
#
#
# Indices 1 2 3 4 5 6 
#
# 1 0.014046 -0.000226 -0.007862 0.000000 0.004404 0.000001
# 2 -0.000226 0.013415 -0.006205 0.000000 0.003878 0.000000
# 3 -0.007862 -0.006205 0.015424 0.000001 -0.003525 -0.000002
# 4 0.000000 0.000000 0.000001 0.047352 -0.000002 -0.000189
# 5 0.004404 0.003878 -0.003525 -0.000002 0.025206 0.000003
# 6 0.000001 0.000000 -0.000002 -0.000189 0.000003 0.103086
#
#
# Mechanical properties :
#
#
# Convention : Reuss Voigt Hill
#
# Bulk Modulus (GPa) = 69.93195 77.26275 73.59735
# Shear Modulus (GPa) = 19.85050 26.82834 23.33942
#
# Velocity S-wave (km/s) = 3.41454 3.96957 3.70247
# Velocity P-wave (km/s) = 7.52459 8.14799 7.84249
#
# Compressibility (1/GPa) = 0.01429962
#
# Stress axis : x y z
#
# Youngs Moduli (GPa) = 71.19262 74.54188 64.83211
#
# Poissons Ratio (x) = 0.01684 0.50971
# Poissons Ratio (y) = 0.01609 0.40231
# Poissons Ratio (z) = 0.55971 0.46256
#
# Static dielectric constant tensor:
#      x y z
#    x 3.630420 0.000000 -0.234950 
#    y 0.000000 2.914750 0.000000 
#    z -0.234950 0.000000 3.816090 
# 
# 
# High freq. dielectric constant tensor:
#      x y z
#    x 1.667150 0.000000 -0.005240 
#    y 0.000000 1.604720 0.000000 
#    z -0.005240 0.000000 1.685500 
# 
# From -- ./inp_files/49859.got.cif
#   From: 2010.06.25/outbox.cif.g09.slc.cpg/sg12_25_cif.got.tgz:49859.got - 2010.06.28 00:19:55.
