data_PCOD8083847
_publ_section_title
;
Structure prediction by ZEFSAII (Michael W. Deem and Ramdas Pophale) SiO2 
 PCOD8083847
Probable space group: C 2/M
;
_chemical_formula_sum "Si O2"
_cell_formula_units_Z 64
_cell_length_a 15.381219
_cell_length_b 9.048493
_cell_length_c 33.191263
_cell_angle_alpha 90.000000
_cell_angle_beta 134.181692
_cell_angle_gamma 90.000000
_cell_volume 3312.765559
_symmetry_space_group_name_H-M "C 2/M"
_symmetry_group_IT_number 12
_symmetry_cell_setting 'monoclinic'
loop_
_space_group_symop_operation_xyz
x,y,z
-x,y,-z
-x,-y,-z
x,-y,z
1/2+x,1/2+y,z
1/2-x,1/2+y,-z
1/2-x,1/2-y,-z
1/2+x,1/2-y,z
loop_
_atom_site_type_symbol
_atom_site_label
_atom_site_fract_x
_atom_site_fract_y
_atom_site_fract_z
Si Si1 0.837688 0.174659 0.059843
Si Si2 0.960689 0.826160 0.364565
Si Si3 0.091467 0.824431 0.563766
Si Si4 0.709429 0.831734 0.873559
Si Si5 0.110485 0.829776 0.135614
Si Si6 0.031215 0.329985 0.250385
Si Si7 0.651608 0.673751 0.362007
Si Si8 0.223480 0.673071 0.245017
O O1 0.799973 0.220338 0.092532
O O2 0.973489 0.230633 0.093791
O O3 0.826432 0.000000 0.051788
O O4 0.750000 0.250000 0.000000
O O5 0.960208 0.765724 0.410168
O O6 0.847275 0.758733 0.303282
O O7 0.086528 0.786015 0.383341
O O8 0.940702 0.000000 0.359767
O O9 0.222496 0.757931 0.597978
O O10 0.000000 0.767737 0.500000
O O11 0.104546 0.000000 0.567219
O O12 0.838467 0.807427 0.893171
O O13 0.606124 0.799603 0.807110
O O14 0.697092 0.000000 0.885640
O O15 0.198386 0.744816 0.194102
O O16 0.113519 0.000000 0.149351
O O17 0.052724 0.500000 0.270114
O O18 0.062849 0.225232 0.297809
O O19 0.115220 0.286714 0.240091
O O20 0.674054 0.500000 0.365004
O O21 0.235123 0.500000 0.241595
#
# Coordination Sequence:
#
# PCOD8083847 Si02
#       8
#     8   8   8   8   8   8   8   8
#     4  11  24  41  60  83 113 151 193 239 284 336
#     4   9  19  36  55  81 115 148 182 224 281 336
#     4  10  21  40  62  79 105 150 196 234 279 340
#     4  10  21  39  61  86 116 150 185 231 283 333
#     4  10  22  38  58  86 118 146 182 233 286 334
#     4  10  19  34  59  86 115 150 186 223 272 340
#     4  11  22  35  56  84 116 148 181 232 284 329
#     4  10  18  33  59  84 113 150 184 224 274 336
#
# _framework density 19.319206000000001
#
# number of rings (size 3 to 8) (size 9 to 14) (size 15 to 20)
#    0.000    1.875    2.500    1.500    0.000    3.250 
#    0.000    4.375    0.000    0.000    0.000    0.000 
#    0.000    0.000    0.000    0.000    0.000    0.000 
#
# Total GULP energy -396869.287895 kJ/mol
# GULP energy per Si atom -12402.165247 kJ/mol
# Density = 1.927524 g / cm^3
# Si number density = 19.319206 Si / 1000 Ang^3
#
#
#
# Elastic Constant Matrix: (Units=GPa)
#
#
# Indices 1 2 3 4 5 6 
#
# 1 121.7635 29.6528 55.6791 0.0000 -9.4144 0.0000
# 2 29.6528 40.9006 34.8546 0.0000 -6.4610 0.0000
# 3 55.6791 34.8546 122.6170 0.0000 -4.5061 0.0000
# 4 0.0000 0.0000 0.0000 28.5733 0.0000 0.1247
# 5 -9.4144 -6.4610 -4.5061 0.0000 12.6291 0.0000
# 6 0.0000 0.0000 0.0000 0.1247 0.0000 27.1253
#
#
#
# Elastic Compliance Matrix: (Units=1/GPa)
#
#
# Indices 1 2 3 4 5 6 
#
# 1 0.011350 -0.004236 -0.003768 0.000000 0.004949 0.000000
# 2 -0.004236 0.036255 -0.007920 0.000000 0.012564 0.000000
# 3 -0.003768 -0.007920 0.012023 0.000000 -0.002571 0.000000
# 4 0.000000 0.000000 0.000000 0.034998 0.000000 -0.000161
# 5 0.004949 0.012564 -0.002571 0.000000 0.088382 0.000000
# 6 0.000000 0.000000 0.000000 -0.000161 0.000000 0.036867
#
#
# Mechanical properties :
#
#
# Convention : Reuss Voigt Hill
#
# Bulk Modulus (GPa) = 35.99752 58.40600 47.20176
# Shear Modulus (GPa) = 19.15831 24.67187 21.91509
#
# Velocity S-wave (km/s) = 3.15250 3.57748 3.37169
# Velocity P-wave (km/s) = 5.65017 6.88202 6.29630
#
# Compressibility (1/GPa) = 0.02777969
#
# Stress axis : x y z
#
# Youngs Moduli (GPa) = 88.10737 27.58249 83.17115
#
# Poissons Ratio (x) = 0.11683 0.31338
# Poissons Ratio (y) = 0.37321 0.65876
# Poissons Ratio (z) = 0.33198 0.21847
#
# Static dielectric constant tensor:
#      x y z
#    x 3.789700 0.000000 -0.093600 
#    y 0.000000 3.337270 0.000000 
#    z -0.093600 0.000000 3.684090 
# 
# 
# High freq. dielectric constant tensor:
#      x y z
#    x 1.767730 0.000000 0.000920 
#    y 0.000000 1.732990 0.000000 
#    z 0.000920 0.000000 1.749230 
# 
# From -- ./inp_files/375628.got.cif
#   From: 2010.06.25/outbox.cif.g09.slc.cpg/sg12_188_cif.got.tgz:375628.got - 2010.06.28 00:19:55.
