data_PCOD8083319
_publ_section_title
;
Structure prediction by ZEFSAII (Michael W. Deem and Ramdas Pophale) SiO2 
 PCOD8083319
Probable space group: C 2/M
;
_chemical_formula_sum "Si O2"
_cell_formula_units_Z 48
_cell_length_a 19.779751
_cell_length_b 7.524426
_cell_length_c 33.238219
_cell_angle_alpha 90.000000
_cell_angle_beta 33.379316
_cell_angle_gamma 90.000000
_cell_volume 2721.674620
_symmetry_space_group_name_H-M "C 2/M"
_symmetry_group_IT_number 12
_symmetry_cell_setting 'monoclinic'
loop_
_space_group_symop_operation_xyz
x,y,z
-x,y,-z
-x,-y,-z
x,-y,z
1/2+x,1/2+y,z
1/2-x,1/2+y,-z
1/2-x,1/2-y,-z
1/2+x,1/2-y,z
loop_
_atom_site_type_symbol
_atom_site_label
_atom_site_fract_x
_atom_site_fract_y
_atom_site_fract_z
Si Si1 0.801032 0.204218 0.430973
Si Si2 0.315179 0.000000 0.848068
Si Si3 0.291081 0.000000 0.324020
Si Si4 0.008825 0.500000 0.162220
Si Si5 0.857718 0.702352 0.567228
Si Si6 0.874894 0.703898 0.038506
Si Si7 0.112103 0.201470 0.058681
Si Si8 0.958434 0.500000 0.317838
O O1 0.750000 0.250000 0.500000
O O2 0.692285 0.243492 0.452864
O O3 0.920607 0.324850 0.362126
O O4 0.843568 0.000000 0.407684
O O5 0.232154 0.823091 0.888725
O O6 0.397674 0.000000 0.766173
O O7 0.395464 0.000000 0.848668
O O8 0.209171 0.823271 0.366607
O O9 0.387179 0.000000 0.311937
O O10 0.366777 0.000000 0.245404
O O11 0.022850 0.324531 0.128696
O O12 0.831750 0.500000 0.592255
O O13 0.000000 0.749769 0.500000
O O14 0.828697 0.500000 0.061383
O O15 0.909698 0.770681 0.977247
O O16 0.000000 0.727647 0.000000
O O17 0.083635 0.000000 0.085199
O O18 0.250000 0.250000 0.000000
#
# Coordination Sequence:
#
# PCOD8083319 Si02
#       8
#     8   4   4   4   8   8   8   4
#     4  10  18  32  56  80 107 137 175 220 261 307
#     4  11  21  36  58  79 111 142 177 224 276 321
#     4   9  19  34  52  79 115 139 168 219 280 307
#     4  11  22  34  55  84 110 141 178 231 271 317
#     4   9  18  33  56  80 105 139 183 217 252 319
#     4  11  22  36  58  81 105 142 184 226 268 324
#     4  12  20  34  57  81 107 136 184 227 265 314
#     4   9  20  34  52  84 107 138 176 216 267 322
#
# _framework density 17.636201
#
# number of rings (size 3 to 8) (size 9 to 14) (size 15 to 20)
#    0.000    1.667    5.000    0.500    0.000    1.333 
#    0.000    3.333    3.667    0.000    0.000    0.000 
#    0.000    0.000    0.000    0.000    0.000    0.000 
#
# Total GULP energy -297569.811973 kJ/mol
# GULP energy per Si atom -12398.742166 kJ/mol
# Density = 1.759606 g / cm^3
# Si number density = 17.636201 Si / 1000 Ang^3
#
#
#
# Elastic Constant Matrix: (Units=GPa)
#
#
# Indices 1 2 3 4 5 6 
#
# 1 54.8218 34.3676 33.9231 0.5032 4.9099 -0.0392
# 2 34.3676 169.0785 91.8461 2.5244 3.1151 0.6971
# 3 33.9231 91.8461 156.6481 0.1811 12.4253 -0.3357
# 4 0.5032 2.5244 0.1811 13.7976 0.0240 7.6616
# 5 4.9099 3.1151 12.4253 0.0240 23.0872 0.0881
# 6 -0.0392 0.6971 -0.3357 7.6616 0.0881 -8.9898
#
#
#
# Elastic Compliance Matrix: (Units=1/GPa)
#
#
# Indices 1 2 3 4 5 6 
#
# 1 0.022068 -0.002869 -0.002879 -0.000071 -0.002755 -0.000299
# 2 -0.002869 0.009143 -0.004898 -0.001371 0.002015 -0.000245
# 3 -0.002879 -0.004898 0.010213 0.000891 -0.004224 -0.000030
# 4 -0.000071 -0.001371 0.000891 0.049414 -0.000491 0.041969
# 5 -0.002755 0.002015 -0.004224 -0.000491 0.045901 0.000357
# 6 -0.000299 -0.000245 -0.000030 0.041969 0.000357 -0.075482
#
#
# Mechanical properties :
#
#
# Convention : Reuss Voigt Hill
#
# Bulk Modulus (GPa) = 49.67172 77.86909 63.77040
# Shear Modulus (GPa) = 56.01693 20.27311 38.14502
#
# Velocity S-wave (km/s) = 5.64193 3.39413 4.65572
# Velocity P-wave (km/s) = 8.40641 7.72069 8.07083
#
# Compressibility (1/GPa) = 0.02013218
#
# Stress axis : x y z
#
# Youngs Moduli (GPa) = 45.31454 109.37886 97.91469
#
# Poissons Ratio (x) = 0.31377 0.28190
# Poissons Ratio (y) = 0.12999 0.47959
# Poissons Ratio (z) = 0.13046 0.53574
#
# Static dielectric constant tensor:
#      x y z
#    x 3.163400 0.000790 0.034210 
#    y 0.000790 3.959320 -0.001180 
#    z 0.034210 -0.001180 3.380460 
# 
# 
# High freq. dielectric constant tensor:
#      x y z
#    x 1.667180 0.000010 0.004940 
#    y 0.000010 1.703940 -0.000030 
#    z 0.004940 -0.000030 1.670180 
# 
# From -- ./inp_files/377946.got.cif
#   From: 2010.06.25/outbox.cif.g09.slc.cpg/sg12_189_cif.got.tgz:377946.got - 2010.06.28 00:19:55.
