data_PCOD8083701
_publ_section_title
;
Structure prediction by ZEFSAII (Michael W. Deem and Ramdas Pophale) SiO2 
 PCOD8083701
Probable space group: C 2/M
;
_chemical_formula_sum "Si O2"
_cell_formula_units_Z 64
_cell_length_a 16.520409
_cell_length_b 18.401303
_cell_length_c 11.385275
_cell_angle_alpha 90.000000
_cell_angle_beta 92.583086
_cell_angle_gamma 90.000000
_cell_volume 3457.573280
_symmetry_space_group_name_H-M "C 2/M"
_symmetry_group_IT_number 12
_symmetry_cell_setting 'monoclinic'
loop_
_space_group_symop_operation_xyz
x,y,z
-x,y,-z
-x,-y,-z
x,-y,z
1/2+x,1/2+y,z
1/2-x,1/2+y,-z
1/2-x,1/2-y,-z
1/2+x,1/2-y,z
loop_
_atom_site_type_symbol
_atom_site_label
_atom_site_fract_x
_atom_site_fract_y
_atom_site_fract_z
Si Si1 0.811198 0.583966 0.295436
Si Si2 0.901585 0.181832 0.431411
Si Si3 0.769381 0.665820 0.527313
Si Si4 0.151027 0.138719 0.181234
Si Si5 0.576701 0.794157 0.758446
Si Si6 0.415941 0.676866 0.059248
Si Si7 0.483011 0.583317 0.260615
Si Si8 0.900531 0.735276 0.667527
O O1 0.834928 0.500000 0.306078
O O2 0.796193 0.615529 0.422950
O O3 0.731411 0.593403 0.211550
O O4 0.886716 0.625003 0.238784
O O5 0.817149 0.135721 0.432396
O O6 0.884886 0.251665 0.348833
O O7 0.968967 0.127879 0.380492
O O8 0.929616 0.214232 0.559591
O O9 0.750000 0.750000 0.500000
O O10 0.843820 0.667358 0.625141
O O11 0.152331 0.215967 0.247308
O O12 0.074668 0.092392 0.222071
O O13 0.150331 0.153315 0.041071
O O14 0.604064 0.753595 0.879780
O O15 0.479109 0.795503 0.739511
O O16 0.421917 0.614198 0.158213
O O17 0.500000 0.687379 0.000000
O O18 0.463435 0.500000 0.282642
#
# Coordination Sequence:
#
# PCOD8083701 Si02
#       8
#     8   8   8   8   8   8   8   8
#     4  12  25  37  54  87 124 155 187 235 299 348
#     4  10  18  33  56  82 110 148 190 233 280 334
#     4  10  19  35  57  80 112 152 189 230 279 337
#     4  11  20  37  57  84 114 148 195 233 285 338
#     4  11  20  36  59  84 118 142 195 245 278 334
#     4   9  19  36  60  84 106 143 196 240 277 340
#     4  10  21  33  52  81 117 152 181 228 289 347
#     4  11  18  33  62  83 105 146 192 245 279 325
#
# _framework density 18.510093000000001
#
# number of rings (size 3 to 8) (size 9 to 14) (size 15 to 20)
#    0.000    1.500    8.750    0.750    0.000    3.750 
#    0.000    1.875    0.000    0.375    0.000    0.000 
#    0.000    0.000    0.000    0.000    0.000    0.000 
#
# Total GULP energy -396650.016634 kJ/mol
# GULP energy per Si atom -12395.313020 kJ/mol
# Density = 1.846796 g / cm^3
# Si number density = 18.510093 Si / 1000 Ang^3
#
#
#
# Elastic Constant Matrix: (Units=GPa)
#
#
# Indices 1 2 3 4 5 6 
#
# 1 57.6555 36.9813 16.8921 0.0000 5.9263 0.0000
# 2 36.9813 117.4293 28.3533 0.0000 4.7675 0.0000
# 3 16.8921 28.3533 68.5069 0.0000 13.2959 0.0000
# 4 0.0000 0.0000 0.0000 14.4532 0.0000 -0.4489
# 5 5.9263 4.7675 13.2959 0.0000 21.3010 0.0000
# 6 0.0000 0.0000 0.0000 -0.4489 0.0000 23.4661
#
#
#
# Elastic Compliance Matrix: (Units=1/GPa)
#
#
# Indices 1 2 3 4 5 6 
#
# 1 0.022449 -0.006394 -0.002224 0.000000 -0.003426 0.000000
# 2 -0.006394 0.011285 -0.003355 0.000000 0.001348 0.000000
# 3 -0.002224 -0.003355 0.018511 0.000000 -0.010184 0.000000
# 4 0.000000 0.000000 0.000000 0.069230 0.000000 0.001324
# 5 -0.003426 0.001348 -0.010184 0.000000 0.053955 0.000000
# 6 0.000000 0.000000 0.000000 0.001324 0.000000 0.042640
#
#
# Mechanical properties :
#
#
# Convention : Reuss Voigt Hill
#
# Bulk Modulus (GPa) = 35.33813 45.33834 40.33824
# Shear Modulus (GPa) = 19.88475 22.60174 21.24324
#
# Velocity S-wave (km/s) = 3.28115 3.49814 3.39138
# Velocity P-wave (km/s) = 5.78683 6.39242 6.09715
#
# Compressibility (1/GPa) = 0.02829804
#
# Stress axis : x y z
#
# Youngs Moduli (GPa) = 44.54490 88.61522 54.02233
#
# Poissons Ratio (x) = 0.56657 0.12016
# Poissons Ratio (y) = 0.28480 0.18127
# Poissons Ratio (z) = 0.09908 0.29735
#
# Static dielectric constant tensor:
#      x y z
#    x 3.738990 0.000000 0.106120 
#    y 0.000000 3.116510 0.000000 
#    z 0.106120 0.000000 3.752120 
# 
# 
# High freq. dielectric constant tensor:
#      x y z
#    x 1.717160 0.000000 0.006680 
#    y 0.000000 1.679240 0.000000 
#    z 0.006680 0.000000 1.718040 
# 
# From -- ./inp_files/157879.got.cif
#   From: 2010.06.25/outbox.cif.g09.slc.cpg/sg12_79_cif.got.tgz:157879.got - 2010.06.28 00:19:55.
