data_PCOD8083517
_publ_section_title
;
Structure prediction by ZEFSAII (Michael W. Deem and Ramdas Pophale) SiO2 
 PCOD8083517
Probable space group: C 2/M
;
_chemical_formula_sum "Si O2"
_cell_formula_units_Z 40
_cell_length_a 21.108752
_cell_length_b 15.255552
_cell_length_c 8.851382
_cell_angle_alpha 90.000000
_cell_angle_beta 66.271916
_cell_angle_gamma 90.000000
_cell_volume 2609.417279
_symmetry_space_group_name_H-M "C 2/M"
_symmetry_group_IT_number 12
_symmetry_cell_setting 'monoclinic'
loop_
_space_group_symop_operation_xyz
x,y,z
-x,y,-z
-x,-y,-z
x,-y,z
1/2+x,1/2+y,z
1/2-x,1/2+y,-z
1/2-x,1/2-y,-z
1/2+x,1/2-y,z
loop_
_atom_site_type_symbol
_atom_site_label
_atom_site_fract_x
_atom_site_fract_y
_atom_site_fract_z
Si Si1 0.286264 0.756724 0.625824
Si Si2 0.676542 0.399941 0.231098
Si Si3 0.942980 0.101769 0.171823
Si Si4 0.801727 0.100072 0.138427
Si Si5 0.068957 0.195406 0.507327
O O1 0.250000 0.750000 0.500000
O O2 0.270704 0.665635 0.731667
O O3 0.260581 0.838945 0.747027
O O4 0.369921 0.767580 0.528177
O O5 0.697835 0.500000 0.245434
O O6 0.598836 0.381455 0.368218
O O7 0.678170 0.379181 0.052502
O O8 0.867201 0.119864 0.179707
O O9 0.953090 0.155968 0.312729
O O10 0.954830 0.000000 0.195749
O O11 0.000000 0.136135 0.000000
O O12 0.777081 0.000000 0.179617
O O13 0.000000 0.237704 0.500000
#
# Coordination Sequence:
#
# PCOD8083517 Si02
#       5
#     8   8   8   8   8
#     4  10  20  33  50  70 101 131 167 204 240 289
#     4   9  19  31  51  74 101 130 160 198 247 297
#     4  10  19  29  46  71 102 133 163 192 241 301
#     4  10  18  33  51  73  99 132 167 202 243 289
#     4  10  20  31  47  70 102 131 165 196 245 291
#
# _framework density 15.329093
#
# number of rings (size 3 to 8) (size 9 to 14) (size 15 to 20)
#    1.200    1.000    2.000    2.400    0.000    4.000 
#    0.000    0.000    0.000    0.600    0.000    0.000 
#    0.000    4.800    0.000    0.000    0.000    0.000 
#
# Total GULP energy -247853.474682 kJ/mol
# GULP energy per Si atom -12392.673734 kJ/mol
# Density = 1.529420 g / cm^3
# Si number density = 15.329093 Si / 1000 Ang^3
#
#
#
# Elastic Constant Matrix: (Units=GPa)
#
#
# Indices 1 2 3 4 5 6 
#
# 1 101.6102 37.7448 44.4192 0.0000 0.0286 0.0000
# 2 37.7448 58.0309 36.5607 0.0000 -5.7663 0.0000
# 3 44.4192 36.5607 110.1319 0.0000 -4.1449 0.0000
# 4 0.0000 0.0000 0.0000 25.8320 0.0000 -4.0903
# 5 0.0286 -5.7663 -4.1449 0.0000 27.1746 0.0000
# 6 0.0000 0.0000 0.0000 -4.0903 0.0000 18.6325
#
#
#
# Elastic Compliance Matrix: (Units=1/GPa)
#
#
# Indices 1 2 3 4 5 6 
#
# 1 0.013967 -0.007195 -0.003322 0.000000 -0.002048 0.000000
# 2 -0.007195 0.025840 -0.005501 0.000000 0.004652 0.000000
# 3 -0.003322 -0.005501 0.012273 0.000000 0.000708 0.000000
# 4 0.000000 0.000000 0.000000 0.040106 0.000000 0.008804
# 5 -0.002048 0.004652 0.000708 0.000000 0.037896 0.000000
# 6 0.000000 0.000000 0.000000 0.008804 0.000000 0.055602
#
#
# Mechanical properties :
#
#
# Convention : Reuss Voigt Hill
#
# Bulk Modulus (GPa) = 49.89112 56.35803 53.12458
# Shear Modulus (GPa) = 22.28145 24.39770 23.33958
#
# Velocity S-wave (km/s) = 3.81667 3.99381 3.90624
# Velocity P-wave (km/s) = 7.21387 7.62316 7.42134
#
# Compressibility (1/GPa) = 0.02004365
#
# Stress axis : x y z
#
# Youngs Moduli (GPa) = 71.59721 38.69932 81.48210
#
# Poissons Ratio (x) = 0.27845 0.27066
# Poissons Ratio (y) = 0.51516 0.44824
# Poissons Ratio (z) = 0.23783 0.21289
#
# Static dielectric constant tensor:
#      x y z
#    x 2.866460 0.000000 0.039080 
#    y 0.000000 2.729030 0.000000 
#    z 0.039080 0.000000 3.062310 
# 
# 
# High freq. dielectric constant tensor:
#      x y z
#    x 1.579440 0.000000 0.012170 
#    y 0.000000 1.555050 0.000000 
#    z 0.012170 0.000000 1.605540 
# 
# From -- ./inp_files/74110.got.cif
#   From: 2010.06.25/outbox.cif.g09.slc.cpg/sg12_38_cif.got.tgz:74110.got - 2010.06.28 00:19:55.
