data_PCOD8083243
_publ_section_title
;
Structure prediction by ZEFSAII (Michael W. Deem and Ramdas Pophale) SiO2 
 PCOD8083243
Probable space group: C 2/M
;
_chemical_formula_sum "Si O2"
_cell_formula_units_Z 56
_cell_length_a 13.437093
_cell_length_b 13.529842
_cell_length_c 24.955996
_cell_angle_alpha 90.000000
_cell_angle_beta 138.113525
_cell_angle_gamma 90.000000
_cell_volume 3029.188201
_symmetry_space_group_name_H-M "C 2/M"
_symmetry_group_IT_number 12
_symmetry_cell_setting 'monoclinic'
loop_
_space_group_symop_operation_xyz
x,y,z
-x,y,-z
-x,-y,-z
x,-y,z
1/2+x,1/2+y,z
1/2-x,1/2+y,-z
1/2-x,1/2-y,-z
1/2+x,1/2-y,z
loop_
_atom_site_type_symbol
_atom_site_label
_atom_site_fract_x
_atom_site_fract_y
_atom_site_fract_z
Si Si1 0.295995 0.612563 0.051805
Si Si2 0.624357 0.614867 0.223125
Si Si3 0.833115 0.612132 0.622783
Si Si4 0.296366 0.799723 0.385101
Si Si5 0.097914 0.385984 0.469106
Si Si6 0.171401 0.614531 0.791656
Si Si7 0.164826 0.200410 0.045323
O O1 0.249143 0.500000 0.045386
O O2 0.456335 0.638933 0.140163
O O3 0.177035 0.685314 0.031816
O O4 0.299661 0.627886 0.989623
O O5 0.653658 0.500000 0.243857
O O6 0.659389 0.669412 0.292708
O O7 0.732985 0.654536 0.220099
O O8 0.782799 0.500000 0.614044
O O9 0.719047 0.683466 0.607835
O O10 0.824138 0.636683 0.555985
O O11 0.999108 0.630932 0.710271
O O12 0.452294 0.817629 0.417572
O O13 0.287708 0.862566 0.436882
O O14 0.045599 0.500000 0.450263
O O15 0.209502 0.500000 0.817713
O O16 0.214760 0.678012 0.860723
O O17 0.000000 0.178364 0.000000
#
# Coordination Sequence:
#
# PCOD8083243 Si02
#       7
#     8   8   8   8   8   8   8
#     4  10  22  36  53  80 107 135 175 217 259 310
#     4  10  18  32  55  80 103 132 174 221 260 300
#     4  10  21  36  53  76 107 140 174 211 259 313
#     4  11  19  32  56  80 104 137 173 216 260 305
#     4  10  20  35  55  82 107 133 176 220 261 306
#     4  10  19  33  55  80 104 134 173 218 260 303
#     4  11  21  35  56  79 105 139 174 213 262 313
#
# _framework density 18.486801
#
# number of rings (size 3 to 8) (size 9 to 14) (size 15 to 20)
#    0.000    1.714    2.857    3.429    0.000    0.857 
#    0.000    1.429    0.000    3.429    0.000    0.000 
#    0.000    0.000    0.000    0.000    0.000    0.000 
#
# Total GULP energy -347276.435124 kJ/mol
# GULP energy per Si atom -12402.729826 kJ/mol
# Density = 1.844472 g / cm^3
# Si number density = 18.486801 Si / 1000 Ang^3
#
#
#
# Elastic Constant Matrix: (Units=GPa)
#
#
# Indices 1 2 3 4 5 6 
#
# 1 51.3148 34.4304 18.7480 0.0000 -14.2431 0.0000
# 2 34.4304 84.4531 22.9573 0.0000 -8.5143 0.0000
# 3 18.7480 22.9573 93.6576 0.0000 -29.6548 0.0000
# 4 0.0000 0.0000 0.0000 25.9745 0.0000 4.1256
# 5 -14.2431 -8.5143 -29.6548 0.0000 26.2706 0.0000
# 6 0.0000 0.0000 0.0000 4.1256 0.0000 22.7505
#
#
#
# Elastic Compliance Matrix: (Units=1/GPa)
#
#
# Indices 1 2 3 4 5 6 
#
# 1 0.030648 -0.011375 0.001163 0.000000 0.014242 0.000000
# 2 -0.011375 0.016923 -0.003248 0.000000 -0.004349 0.000000
# 3 0.001163 -0.003248 0.017285 0.000000 0.019089 0.000000
# 4 0.000000 0.000000 0.000000 0.039641 0.000000 -0.007189
# 5 0.014242 -0.004349 0.019089 0.000000 0.065926 0.000000
# 6 0.000000 0.000000 0.000000 -0.007189 0.000000 0.045259
#
#
# Mechanical properties :
#
#
# Convention : Reuss Voigt Hill
#
# Bulk Modulus (GPa) = 26.36091 42.41077 34.38584
# Shear Modulus (GPa) = 19.58882 25.21841 22.40362
#
# Velocity S-wave (km/s) = 3.25870 3.69742 3.48497
# Velocity P-wave (km/s) = 5.33377 6.42019 5.90203
#
# Compressibility (1/GPa) = 0.03793496
#
# Stress axis : x y z
#
# Youngs Moduli (GPa) = 32.62841 59.09165 57.85411
#
# Poissons Ratio (x) = 0.67217 -0.06727
# Poissons Ratio (y) = 0.37115 0.18792
# Poissons Ratio (z) = -0.03794 0.19194
#
# Static dielectric constant tensor:
#      x y z
#    x 3.196560 0.000000 -0.217740 
#    y 0.000000 3.330560 0.000000 
#    z -0.217740 0.000000 3.532980 
# 
# 
# High freq. dielectric constant tensor:
#      x y z
#    x 1.698540 0.000000 -0.016960 
#    y 0.000000 1.709880 0.000000 
#    z -0.016960 0.000000 1.730120 
# 
# From -- ./inp_files/268884.got.cif
#   From: 2010.06.25/outbox.cif.g09.slc.cpg/sg12_135_cif.got.tgz:268884.got - 2010.06.28 00:19:55.
