data_PCOD8083075
_publ_section_title
;
Structure prediction by ZEFSAII (Michael W. Deem and Ramdas Pophale) SiO2 
 PCOD8083075
Probable space group: C 2/M
;
_chemical_formula_sum "Si O2"
_cell_formula_units_Z 48
_cell_length_a 32.156377
_cell_length_b 8.604614
_cell_length_c 9.198261
_cell_angle_alpha 90.000000
_cell_angle_beta 92.808945
_cell_angle_gamma 90.000000
_cell_volume 2542.038442
_symmetry_space_group_name_H-M "C 2/M"
_symmetry_group_IT_number 12
_symmetry_cell_setting 'monoclinic'
loop_
_space_group_symop_operation_xyz
x,y,z
-x,y,-z
-x,-y,-z
x,-y,z
1/2+x,1/2+y,z
1/2-x,1/2+y,-z
1/2-x,1/2-y,-z
1/2+x,1/2-y,z
loop_
_atom_site_type_symbol
_atom_site_label
_atom_site_fract_x
_atom_site_fract_y
_atom_site_fract_z
Si Si1 0.253236 0.816207 0.840660
Si Si2 0.502057 0.817975 0.336447
Si Si3 0.456882 0.325712 0.077052
Si Si4 0.913864 0.319882 0.814769
Si Si5 0.169054 0.818093 0.314342
Si Si6 0.210285 0.684625 0.576537
O O1 0.297256 0.768011 0.779847
O O2 0.214065 0.747021 0.742060
O O3 0.249609 0.000000 0.842674
O O4 0.250000 0.750000 0.000000
O O5 0.500000 0.754180 0.500000
O O6 0.464595 0.738941 0.240090
O O7 0.546925 0.775766 0.278682
O O8 0.493795 0.000000 0.328523
O O9 0.439236 0.500000 0.083975
O O10 0.500000 0.319814 0.000000
O O11 0.423783 0.219827 0.984755
O O12 0.901790 0.500000 0.799688
O O13 0.876380 0.213242 0.755624
O O14 0.170777 0.752616 0.480973
O O15 0.178926 0.000000 0.314872
O O16 0.208906 0.500000 0.575299
O O17 0.250000 0.750000 0.500000
#
# Coordination Sequence:
#
# PCOD8083075 Si02
#       6
#     8   8   8   8   8   8
#     4  11  21  36  56  80 107 137 173 213 258 307
#     4   9  18  33  53  76 102 133 170 211 256 307
#     4   9  17  30  49  73 100 132 170 209 252 306
#     4  10  19  33  53  76 102 134 172 213 258 308
#     4  11  21  35  54  78 106 137 174 216 261 309
#     4  10  18  32  53  77 103 136 175 212 254 307
#
# _framework density 18.882484999999999
#
# number of rings (size 3 to 8) (size 9 to 14) (size 15 to 20)
#    0.000    2.000    0.000    7.500    0.000    3.000 
#    0.000    1.667    0.000    2.000    0.000    0.000 
#    0.000    0.000    0.000    0.000    0.000    0.000 
#
# Total GULP energy -297575.663414 kJ/mol
# GULP energy per Si atom -12398.985976 kJ/mol
# Density = 1.883951 g / cm^3
# Si number density = 18.882485 Si / 1000 Ang^3
#
#
#
# Elastic Constant Matrix: (Units=GPa)
#
#
# Indices 1 2 3 4 5 6 
#
# 1 58.0129 28.0386 43.3485 0.0000 23.5709 0.0000
# 2 28.0386 122.8314 46.4410 0.0000 13.6898 0.0000
# 3 43.3485 46.4410 163.8929 0.0000 29.6161 0.0000
# 4 0.0000 0.0000 0.0000 33.5171 0.0000 9.6815
# 5 23.5709 13.6898 29.6161 0.0000 27.8005 0.0000
# 6 0.0000 0.0000 0.0000 9.6815 0.0000 27.5150
#
#
#
# Elastic Compliance Matrix: (Units=1/GPa)
#
#
# Indices 1 2 3 4 5 6 
#
# 1 0.029259 -0.003250 -0.003250 0.000000 -0.019745 0.000000
# 2 -0.003250 0.009584 -0.001859 0.000000 0.000016 0.000000
# 3 -0.003250 -0.001859 0.008452 0.000000 -0.005332 0.000000
# 4 0.000000 0.000000 0.000000 0.033211 0.000000 -0.011686
# 5 -0.019745 0.000016 -0.005332 0.000000 0.058384 0.000000
# 6 0.000000 0.000000 0.000000 -0.011686 0.000000 0.040456
#
#
# Mechanical properties :
#
#
# Convention : Reuss Voigt Hill
#
# Bulk Modulus (GPa) = 32.70398 64.48816 48.59607
# Shear Modulus (GPa) = 24.24174 32.89380 28.56777
#
# Velocity S-wave (km/s) = 3.58693 4.17829 3.89385
# Velocity P-wave (km/s) = 5.87470 7.58314 6.78292
#
# Compressibility (1/GPa) = 0.03057732
#
# Stress axis : x y z
#
# Youngs Moduli (GPa) = 34.17733 104.33887 118.32109
#
# Poissons Ratio (x) = 0.33905 0.38454
# Poissons Ratio (y) = 0.11106 0.21999
# Poissons Ratio (z) = 0.11108 0.19399
#
# Static dielectric constant tensor:
#      x y z
#    x 3.230760 0.000000 0.416290 
#    y 0.000000 3.655840 0.000000 
#    z 0.416290 0.000000 3.929500 
# 
# 
# High freq. dielectric constant tensor:
#      x y z
#    x 1.699320 0.000000 0.033540 
#    y 0.000000 1.749280 0.000000 
#    z 0.033540 0.000000 1.741070 
# 
# From -- ./inp_files/108723.got.cif
#   From: 2010.06.25/outbox.cif.g09.slc.cpg/sg12_55_cif.got.tgz:108723.got - 2010.06.28 00:19:55.
