data_PCOD8083388
_publ_section_title
;
Structure prediction by ZEFSAII (Michael W. Deem and Ramdas Pophale) SiO2 
 PCOD8083388
Probable space group: C 2/M
;
_chemical_formula_sum "Si O2"
_cell_formula_units_Z 64
_cell_length_a 11.840667
_cell_length_b 18.791750
_cell_length_c 14.910361
_cell_angle_alpha 90.000000
_cell_angle_beta 85.636072
_cell_angle_gamma 90.000000
_cell_volume 3308.039149
_symmetry_space_group_name_H-M "C 2/M"
_symmetry_group_IT_number 12
_symmetry_cell_setting 'monoclinic'
loop_
_space_group_symop_operation_xyz
x,y,z
-x,y,-z
-x,-y,-z
x,-y,z
1/2+x,1/2+y,z
1/2-x,1/2+y,-z
1/2-x,1/2-y,-z
1/2+x,1/2-y,z
loop_
_atom_site_type_symbol
_atom_site_label
_atom_site_fract_x
_atom_site_fract_y
_atom_site_fract_z
Si Si1 0.252147 0.336682 0.926577
Si Si2 0.254545 0.785018 0.596353
Si Si3 0.601501 0.676927 0.749854
Si Si4 0.867092 0.581740 0.520419
Si Si5 0.774391 0.635408 0.339494
Si Si6 0.396909 0.579715 0.784680
Si Si7 0.548465 0.827331 0.812838
Si Si8 0.200779 0.677780 0.124459
O O1 0.335286 0.392045 0.876171
O O2 0.124833 0.340743 0.895694
O O3 0.307672 0.260474 0.901823
O O4 0.247097 0.359105 0.031114
O O5 0.250000 0.750000 0.500000
O O6 0.134041 0.811837 0.642584
O O7 0.336679 0.854819 0.593570
O O8 0.282621 0.715600 0.657086
O O9 0.519572 0.611162 0.759527
O O10 0.536292 0.743912 0.794243
O O11 0.716733 0.662104 0.797852
O O12 0.833708 0.500000 0.551684
O O13 0.799590 0.601783 0.434422
O O14 0.000000 0.585600 0.500000
O O15 0.681866 0.586726 0.297918
O O16 0.892195 0.634858 0.276344
O O17 0.424356 0.500000 0.803834
O O18 0.421450 0.854600 0.839647
#
# Coordination Sequence:
#
# PCOD8083388 Si02
#       8
#     8   8   8   8   8   8   8   8
#     4   9  19  33  53  86 111 148 194 230 296 341
#     4   9  20  37  57  85 114 147 187 249 285 338
#     4  10  21  33  54  85 112 149 193 230 296 350
#     4  10  21  36  56  83 115 148 183 231 296 358
#     4   9  20  36  60  85 105 151 200 237 282 338
#     4  11  22  39  58  78 121 161 194 236 281 358
#     4   9  17  32  57  84 112 139 184 249 290 331
#     4  10  18  32  57  82 115 142 185 257 289 336
#
# _framework density 19.346806999999998
#
# number of rings (size 3 to 8) (size 9 to 14) (size 15 to 20)
#    0.000    2.375    1.250    1.500    1.750    3.000 
#    0.000    3.125    0.000   11.250    0.000    0.000 
#    0.000    0.000    0.000    0.000    0.000    0.000 
#
# Total GULP energy -396478.030180 kJ/mol
# GULP energy per Si atom -12389.938443 kJ/mol
# Density = 1.930277 g / cm^3
# Si number density = 19.346807 Si / 1000 Ang^3
#
#
#
# Elastic Constant Matrix: (Units=GPa)
#
#
# Indices 1 2 3 4 5 6 
#
# 1 95.5923 35.2079 37.5808 0.0000 -19.9624 0.0000
# 2 35.2079 101.9161 23.3546 0.0000 -16.5468 0.0000
# 3 37.5808 23.3546 93.9921 0.0000 -16.3095 0.0000
# 4 0.0000 0.0000 0.0000 19.2302 0.0000 -1.6145
# 5 -19.9624 -16.5468 -16.3095 0.0000 20.8948 0.0000
# 6 0.0000 0.0000 0.0000 -1.6145 0.0000 20.1532
#
#
#
# Elastic Compliance Matrix: (Units=1/GPa)
#
#
# Indices 1 2 3 4 5 6 
#
# 1 0.014831 -0.002810 -0.003654 0.000000 0.009092 0.000000
# 2 -0.002810 0.011965 -0.000776 0.000000 0.006184 0.000000
# 3 -0.003654 -0.000776 0.013395 0.000000 0.006350 0.000000
# 4 0.000000 0.000000 0.000000 0.052354 0.000000 0.004194
# 5 0.009092 0.006184 0.006350 0.000000 0.066399 0.000000
# 6 0.000000 0.000000 0.000000 0.004194 0.000000 0.049956
#
#
# Mechanical properties :
#
#
# Convention : Reuss Voigt Hill
#
# Bulk Modulus (GPa) = 38.89539 53.75410 46.32475
# Shear Modulus (GPa) = 21.55634 25.07944 23.31789
#
# Velocity S-wave (km/s) = 3.34159 3.60434 3.47545
# Velocity P-wave (km/s) = 5.91914 6.72060 6.33256
#
# Compressibility (1/GPa) = 0.02570999
#
# Stress axis : x y z
#
# Youngs Moduli (GPa) = 67.42488 83.57890 74.65535
#
# Poissons Ratio (x) = 0.23487 0.27280
# Poissons Ratio (y) = 0.18947 0.05795
# Poissons Ratio (z) = 0.24638 0.06488
#
# Static dielectric constant tensor:
#      x y z
#    x 3.364980 0.000000 -0.153300 
#    y 0.000000 3.528940 0.000000 
#    z -0.153300 0.000000 3.711540 
# 
# 
# High freq. dielectric constant tensor:
#      x y z
#    x 1.744540 0.000000 -0.010700 
#    y 0.000000 1.729380 0.000000 
#    z -0.010700 0.000000 1.757390 
# 
# From -- ./inp_files/206684.got.cif
#   From: 2010.06.25/outbox.cif.g09.slc.cpg/sg12_104_cif.got.tgz:206684.got - 2010.06.28 00:19:55.
