data_PCOD8083853
_publ_section_title
;
Structure prediction by ZEFSAII (Michael W. Deem and Ramdas Pophale) SiO2 
 PCOD8083853
Probable space group: C 2/M
;
_chemical_formula_sum "Si O2"
_cell_formula_units_Z 64
_cell_length_a 15.326827
_cell_length_b 24.954423
_cell_length_c 8.808662
_cell_angle_alpha 90.000000
_cell_angle_beta 90.379539
_cell_angle_gamma 90.000000
_cell_volume 3368.993749
_symmetry_space_group_name_H-M "C 2/M"
_symmetry_group_IT_number 12
_symmetry_cell_setting 'monoclinic'
loop_
_space_group_symop_operation_xyz
x,y,z
-x,y,-z
-x,-y,-z
x,-y,z
1/2+x,1/2+y,z
1/2-x,1/2+y,-z
1/2-x,1/2-y,-z
1/2+x,1/2-y,z
loop_
_atom_site_type_symbol
_atom_site_label
_atom_site_fract_x
_atom_site_fract_y
_atom_site_fract_z
Si Si1 0.329339 0.562312 0.823544
Si Si2 0.176151 0.938331 0.827746
Si Si3 0.974269 0.779573 0.672648
Si Si4 0.311681 0.861880 0.320529
Si Si5 0.276762 0.257846 0.671154
Si Si6 0.498525 0.836033 0.320327
Si Si7 0.504704 0.395282 0.680666
Si Si8 0.690379 0.140591 0.317924
O O1 0.310014 0.500000 0.800160
O O2 0.245648 0.592681 0.756720
O O3 0.417923 0.576913 0.740072
O O4 0.340973 0.577569 0.999110
O O5 0.257545 0.905631 0.764478
O O6 0.088575 0.928084 0.733005
O O7 0.202126 0.000000 0.810941
O O8 0.870868 0.784468 0.685084
O O9 0.007113 0.724341 0.751938
O O10 0.013522 0.834166 0.745402
O O11 0.000000 0.778098 0.500000
O O12 0.287608 0.802191 0.256998
O O13 0.413298 0.870645 0.274288
O O14 0.297318 0.864494 0.501232
O O15 0.250000 0.250000 0.500000
O O16 0.274461 0.198294 0.744228
O O17 0.500000 0.827672 0.500000
O O18 0.587901 0.865303 0.271238
O O19 0.500000 0.395092 0.500000
#
# Coordination Sequence:
#
# PCOD8083853 Si02
#       8
#     8   8   8   8   8   8   8   8
#     4  11  24  42  56  76 114 155 193 233 283 339
#     4  11  25  41  57  76 111 158 192 233 289 335
#     4   9  16  27  48  85 119 143 173 217 274 338
#     4  10  18  33  59  86 112 146 187 235 279 336
#     4   9  16  27  52  85 116 143 177 225 281 329
#     4   8  16  31  54  85 119 145 174 226 288 332
#     4  11  22  35  61  89 112 143 188 235 278 334
#     4   9  19  34  58  87 112 144 189 235 280 335
#
# _framework density 18.996769
#
# number of rings (size 3 to 8) (size 9 to 14) (size 15 to 20)
#    0.000    2.250    1.250    3.750    7.000    3.500 
#    0.000    1.875    0.000    3.750    0.000    0.000 
#    0.000    0.000    0.000    0.000    0.000    0.000 
#
# Total GULP energy -396542.280484 kJ/mol
# GULP energy per Si atom -12391.946265 kJ/mol
# Density = 1.895353 g / cm^3
# Si number density = 18.996769 Si / 1000 Ang^3
#
#
#
# Elastic Constant Matrix: (Units=GPa)
#
#
# Indices 1 2 3 4 5 6 
#
# 1 144.7233 70.3140 41.6496 0.0000 -6.0854 0.0000
# 2 70.3140 110.2227 43.2962 0.0000 -2.7379 0.0000
# 3 41.6496 43.2962 58.5781 0.0000 -3.2915 0.0000
# 4 0.0000 0.0000 0.0000 -10.1571 0.0000 -5.0714
# 5 -6.0854 -2.7379 -3.2915 0.0000 12.4488 0.0000
# 6 0.0000 0.0000 0.0000 -5.0714 0.0000 31.9905
#
#
#
# Elastic Compliance Matrix: (Units=1/GPa)
#
#
# Indices 1 2 3 4 5 6 
#
# 1 0.010629 -0.005359 -0.003421 0.000000 0.003113 0.000000
# 2 -0.005359 0.015488 -0.007707 0.000000 -0.001251 0.000000
# 3 -0.003421 -0.007707 0.025388 0.000000 0.003345 0.000000
# 4 0.000000 0.000000 0.000000 -0.091232 0.000000 -0.014463
# 5 0.003113 -0.001251 0.003345 0.000000 0.082460 0.000000
# 6 0.000000 0.000000 0.000000 -0.014463 0.000000 0.028967
#
#
# Mechanical properties :
#
#
# Convention : Reuss Voigt Hill
#
# Bulk Modulus (GPa) = 53.96761 69.33817 61.65289
# Shear Modulus (GPa) = 45.10548 17.40738 31.25643
#
# Velocity S-wave (km/s) = 4.87804 3.03038 4.06070
# Velocity P-wave (km/s) = 7.75871 6.98738 7.38313
#
# Compressibility (1/GPa) = 0.01852963
#
# Stress axis : x y z
#
# Youngs Moduli (GPa) = 94.08173 64.56735 39.38846
#
# Poissons Ratio (x) = 0.34604 0.13476
# Poissons Ratio (y) = 0.50422 0.30357
# Poissons Ratio (z) = 0.32188 0.49762
#
# Static dielectric constant tensor:
#      x y z
#    x 3.777020 0.000000 0.001610 
#    y 0.000000 3.745440 0.000000 
#    z 0.001610 0.000000 3.115830 
# 
# 
# High freq. dielectric constant tensor:
#      x y z
#    x 1.751890 0.000000 -0.001080 
#    y 0.000000 1.741090 0.000000 
#    z -0.001080 0.000000 1.692480 
# 
# From -- ./inp_files/65900.got.cif
#   From: 2010.06.25/outbox.cif.g09.slc.cpg/sg12_33_cif.got.tgz:65900.got - 2010.06.28 00:19:55.
