data_PCOD8083236
_publ_section_title
;
Structure prediction by ZEFSAII (Michael W. Deem and Ramdas Pophale) SiO2 
 PCOD8083236
Probable space group: C 2/M
;
_chemical_formula_sum "Si O2"
_cell_formula_units_Z 64
_cell_length_a 14.652828
_cell_length_b 8.675783
_cell_length_c 25.755973
_cell_angle_alpha 90.000000
_cell_angle_beta 87.620997
_cell_angle_gamma 90.000000
_cell_volume 3271.399763
_symmetry_space_group_name_H-M "C 2/M"
_symmetry_group_IT_number 12
_symmetry_cell_setting 'monoclinic'
loop_
_space_group_symop_operation_xyz
x,y,z
-x,y,-z
-x,-y,-z
x,-y,z
1/2+x,1/2+y,z
1/2-x,1/2+y,-z
1/2-x,1/2-y,-z
1/2+x,1/2-y,z
loop_
_atom_site_type_symbol
_atom_site_label
_atom_site_fract_x
_atom_site_fract_y
_atom_site_fract_z
Si Si1 0.908012 0.682677 0.861253
Si Si2 0.918595 0.179992 0.383577
Si Si3 0.652062 0.320021 0.507783
Si Si4 0.383106 0.677960 0.605685
Si Si5 0.246025 0.319517 0.056551
Si Si6 0.611047 0.317263 0.861757
Si Si7 0.764511 0.819098 0.789128
Si Si8 0.758291 0.820624 0.319178
O O1 0.912103 0.500000 0.854894
O O2 0.847966 0.731538 0.912963
O O3 0.856439 0.751451 0.812621
O O4 0.010159 0.746344 0.864377
O O5 0.895176 0.255913 0.440296
O O6 0.856461 0.239863 0.337501
O O7 0.022937 0.213272 0.366372
O O8 0.899567 0.000000 0.389520
O O9 0.660878 0.500000 0.516139
O O10 0.750000 0.250000 0.500000
O O11 0.597931 0.286166 0.455584
O O12 0.352320 0.500000 0.613777
O O13 0.309688 0.793554 0.631174
O O14 0.247905 0.500000 0.050526
O O15 0.334792 0.266114 0.087384
O O16 0.250000 0.250000 0.000000
O O17 0.602569 0.500000 0.857549
O O18 0.671098 0.257730 0.812141
O O19 0.771477 0.783896 0.728205
O O20 0.760769 0.000000 0.799651
O O21 0.758372 0.000000 0.303108
#
# Coordination Sequence:
#
# PCOD8083236 Si02
#       8
#     8   8   8   8   8   8   8   8
#     4  10  21  39  61  88 118 154 199 244 292 345
#     4   9  19  35  55  78 106 142 179 216 271 332
#     4  10  18  32  55  79 105 139 178 220 269 330
#     4  10  20  35  56  80 106 140 183 225 268 335
#     4   9  20  36  56  85 124 162 200 243 286 336
#     4  10  21  39  61  88 119 156 199 242 290 345
#     4  11  23  40  61  84 112 149 193 243 295 347
#     4  11  22  38  57  79 111 143 178 230 287 343
#
# _framework density 19.563490999999999
#
# number of rings (size 3 to 8) (size 9 to 14) (size 15 to 20)
#    0.000    2.000    1.250    3.375    0.000    6.000 
#    0.000    8.125    0.000    1.500    0.000    0.000 
#    0.000    0.000    0.000    0.000    0.000    0.000 
#
# Total GULP energy -396697.296816 kJ/mol
# GULP energy per Si atom -12396.790525 kJ/mol
# Density = 1.951896 g / cm^3
# Si number density = 19.563491 Si / 1000 Ang^3
#
#
#
# Elastic Constant Matrix: (Units=GPa)
#
#
# Indices 1 2 3 4 5 6 
#
# 1 122.7970 32.0033 32.1863 0.0000 23.0861 0.0000
# 2 32.0033 59.3806 33.2497 0.0000 7.3579 0.0000
# 3 32.1863 33.2497 86.8427 0.0000 14.2309 0.0000
# 4 0.0000 0.0000 0.0000 29.2913 0.0000 -1.8940
# 5 23.0861 7.3579 14.2309 0.0000 22.6642 0.0000
# 6 0.0000 0.0000 0.0000 -1.8940 0.0000 32.1101
#
#
#
# Elastic Compliance Matrix: (Units=1/GPa)
#
#
# Indices 1 2 3 4 5 6 
#
# 1 0.011327 -0.004389 -0.000959 0.000000 -0.009511 0.000000
# 2 -0.004389 0.023220 -0.007536 0.000000 0.001665 0.000000
# 3 -0.000959 -0.007536 0.015823 0.000000 -0.006512 0.000000
# 4 0.000000 0.000000 0.000000 0.034271 0.000000 0.002021
# 5 -0.009511 0.001665 -0.006512 0.000000 0.057359 0.000000
# 6 0.000000 0.000000 0.000000 0.002021 0.000000 0.031262
#
#
# Mechanical properties :
#
#
# Convention : Reuss Voigt Hill
#
# Bulk Modulus (GPa) = 40.64928 51.54431 46.09679
# Shear Modulus (GPa) = 24.12782 28.25184 26.18983
#
# Velocity S-wave (km/s) = 3.51566 3.80427 3.66281
# Velocity P-wave (km/s) = 6.10762 6.76025 6.44221
#
# Compressibility (1/GPa) = 0.02460068
#
# Stress axis : x y z
#
# Youngs Moduli (GPa) = 88.28618 43.06699 63.19906
#
# Poissons Ratio (x) = 0.18903 0.06061
# Poissons Ratio (y) = 0.38750 0.47628
# Poissons Ratio (z) = 0.08467 0.32456
#
# Static dielectric constant tensor:
#      x y z
#    x 3.747960 0.000000 0.251210 
#    y 0.000000 3.417670 0.000000 
#    z 0.251210 0.000000 3.394880 
# 
# 
# High freq. dielectric constant tensor:
#      x y z
#    x 1.768380 0.000000 0.008100 
#    y 0.000000 1.749440 0.000000 
#    z 0.008100 0.000000 1.763850 
# 
# From -- ./inp_files/359906.got.cif
#   From: 2010.06.25/outbox.cif.g09.slc.cpg/sg12_180_cif.got.tgz:359906.got - 2010.06.28 00:19:55.
