data_PCOD8083717
_publ_section_title
;
Structure prediction by ZEFSAII (Michael W. Deem and Ramdas Pophale) SiO2 
 PCOD8083717
Probable space group: C 2/M
;
_chemical_formula_sum "Si O2"
_cell_formula_units_Z 56
_cell_length_a 31.558510
_cell_length_b 8.754182
_cell_length_c 11.814005
_cell_angle_alpha 90.000000
_cell_angle_beta 123.015093
_cell_angle_gamma 90.000000
_cell_volume 2736.820402
_symmetry_space_group_name_H-M "C 2/M"
_symmetry_group_IT_number 12
_symmetry_cell_setting 'monoclinic'
loop_
_space_group_symop_operation_xyz
x,y,z
-x,y,-z
-x,-y,-z
x,-y,z
1/2+x,1/2+y,z
1/2-x,1/2+y,-z
1/2-x,1/2-y,-z
1/2+x,1/2-y,z
loop_
_atom_site_type_symbol
_atom_site_label
_atom_site_fract_x
_atom_site_fract_y
_atom_site_fract_z
Si Si1 0.075215 0.175515 0.872859
Si Si2 0.243721 0.680664 0.867766
Si Si3 0.629481 0.180127 0.321331
Si Si4 0.516845 0.826272 0.152867
Si Si5 0.646859 0.180044 0.594085
Si Si6 0.443267 0.676474 0.410425
Si Si7 0.334688 0.179691 0.865929
O O1 0.081295 0.201029 0.748129
O O2 0.018313 0.218751 0.822688
O O3 0.086159 0.000000 0.921567
O O4 0.113664 0.287038 0.992432
O O5 0.242069 0.500000 0.876920
O O6 0.192178 0.745816 0.737012
O O7 0.289655 0.726142 0.854838
O O8 0.250000 0.750000 0.000000
O O9 0.572710 0.246033 0.241682
O O10 0.657469 0.227217 0.478515
O O11 0.660085 0.239338 0.256143
O O12 0.624254 0.000000 0.299697
O O13 0.514563 0.000000 0.196169
O O14 0.500000 0.821129 0.000000
O O15 0.592442 0.241282 0.551483
O O16 0.645033 0.000000 0.602644
O O17 0.500000 0.745842 0.500000
O O18 0.445582 0.500000 0.447568
O O19 0.323224 0.000000 0.857056
#
# Coordination Sequence:
#
# PCOD8083717 Si02
#       7
#     8   8   8   8   8   8   8
#     4  11  22  35  55  85 119 154 195 245 292 341
#     4  11  24  42  63  89 117 148 193 243 292 344
#     4   9  19  37  59  85 118 153 192 237 287 345
#     4  10  18  33  56  83 116 157 196 233 282 343
#     4  10  22  40  62  86 114 151 194 240 285 342
#     4  10  22  39  57  82 119 155 190 236 289 341
#     4  11  22  39  62  86 115 153 193 237 292 348
#
# _framework density 20.461701999999999
#
# number of rings (size 3 to 8) (size 9 to 14) (size 15 to 20)
#    0.000    1.714    1.429    3.000    0.000    5.714 
#    0.000    1.429    0.000    0.000    0.000    0.000 
#    0.000    0.000    0.000    0.000    0.000    0.000 
#
# Total GULP energy -347256.381607 kJ/mol
# GULP energy per Si atom -12402.013629 kJ/mol
# Density = 2.041513 g / cm^3
# Si number density = 20.461702 Si / 1000 Ang^3
#
#
#
# Elastic Constant Matrix: (Units=GPa)
#
#
# Indices 1 2 3 4 5 6 
#
# 1 140.9897 21.1022 62.7457 0.0000 -5.7867 0.0000
# 2 21.1022 40.4723 29.4917 0.0000 -7.1239 0.0000
# 3 62.7457 29.4917 139.3596 0.0000 -2.2015 0.0000
# 4 0.0000 0.0000 0.0000 22.4584 0.0000 2.1548
# 5 -5.7867 -7.1239 -2.2015 0.0000 34.0666 0.0000
# 6 0.0000 0.0000 0.0000 2.1548 0.0000 33.5708
#
#
#
# Elastic Compliance Matrix: (Units=1/GPa)
#
#
# Indices 1 2 3 4 5 6 
#
# 1 0.009040 -0.001890 -0.003656 0.000000 0.000904 0.000000
# 2 -0.001890 0.030764 -0.005568 0.000000 0.005752 0.000000
# 3 -0.003656 -0.005568 0.009982 0.000000 -0.001140 0.000000
# 4 0.000000 0.000000 0.000000 0.044803 0.000000 -0.002876
# 5 0.000904 0.005752 -0.001140 0.000000 0.030637 0.000000
# 6 0.000000 0.000000 0.000000 -0.002876 0.000000 0.029972
#
#
# Mechanical properties :
#
#
# Convention : Reuss Voigt Hill
#
# Bulk Modulus (GPa) = 36.28856 60.83339 48.56097
# Shear Modulus (GPa) = 26.79351 31.85130 29.32240
#
# Velocity S-wave (km/s) = 3.62255 3.94970 3.78966
# Velocity P-wave (km/s) = 5.93890 7.11302 6.55231
#
# Compressibility (1/GPa) = 0.02755690
#
# Stress axis : x y z
#
# Youngs Moduli (GPa) = 110.62334 32.50551 100.17982
#
# Poissons Ratio (x) = 0.06144 0.36623
# Poissons Ratio (y) = 0.20911 0.55784
# Poissons Ratio (z) = 0.40441 0.18100
#
# Static dielectric constant tensor:
#      x y z
#    x 3.909960 0.000000 0.025210 
#    y 0.000000 3.477890 0.000000 
#    z 0.025210 0.000000 3.994650 
# 
# 
# High freq. dielectric constant tensor:
#      x y z
#    x 1.806600 0.000000 -0.006080 
#    y 0.000000 1.779090 0.000000 
#    z -0.006080 0.000000 1.811520 
# 
# From -- ./inp_files/187769.got.cif
#   From: 2010.06.25/outbox.cif.g09.slc.cpg/sg12_94_cif.got.tgz:187769.got - 2010.06.28 00:19:55.
