data_PCOD8083010
_publ_section_title
;
Structure prediction by ZEFSAII (Michael W. Deem and Ramdas Pophale) SiO2 
 PCOD8083010
Probable space group: C 2/M
;
_chemical_formula_sum "Si O2"
_cell_formula_units_Z 56
_cell_length_a 13.357819
_cell_length_b 9.946832
_cell_length_c 22.734887
_cell_angle_alpha 90.000000
_cell_angle_beta 75.967354
_cell_angle_gamma 90.000000
_cell_volume 2930.592839
_symmetry_space_group_name_H-M "C 2/M"
_symmetry_group_IT_number 12
_symmetry_cell_setting 'monoclinic'
loop_
_space_group_symop_operation_xyz
x,y,z
-x,y,-z
-x,-y,-z
x,-y,z
1/2+x,1/2+y,z
1/2-x,1/2+y,-z
1/2-x,1/2-y,-z
1/2+x,1/2-y,z
loop_
_atom_site_type_symbol
_atom_site_label
_atom_site_fract_x
_atom_site_fract_y
_atom_site_fract_z
Si Si1 0.044083 0.149810 0.637264
Si Si2 0.706271 0.840754 0.558318
Si Si3 0.790376 0.851105 0.144103
Si Si4 0.562493 0.153905 0.170621
Si Si5 0.185409 0.151752 0.336247
Si Si6 0.874233 0.792598 0.253478
Si Si7 0.949545 0.344787 0.068679
O O1 0.928716 0.210632 0.658694
O O2 0.101343 0.266475 0.592703
O O3 0.096523 0.122134 0.693277
O O4 0.045572 0.000000 0.606348
O O5 0.750000 0.750000 0.500000
O O6 0.788333 0.831325 0.598941
O O7 0.686946 0.000000 0.544489
O O8 0.676180 0.785283 0.166990
O O9 0.847046 0.874422 0.198706
O O10 0.851434 0.749894 0.093183
O O11 0.785228 0.000000 0.115405
O O12 0.475167 0.204273 0.227211
O O13 0.534018 0.181659 0.106938
O O14 0.571390 0.000000 0.184560
O O15 0.270661 0.211653 0.281482
O O16 0.181145 0.000000 0.316931
O O17 0.912678 0.500000 0.074391
O O18 0.000000 0.304269 0.000000
#
# Coordination Sequence:
#
# PCOD8083010 Si02
#       7
#     8   8   8   8   8   8   8
#     4  10  20  35  54  78 106 136 170 211 254 297
#     4  10  21  38  57  78 104 136 172 211 254 302
#     4  10  20  33  50  77 107 134 166 209 262 308
#     4   9  18  32  51  74 104 138 169 208 259 308
#     4   9  19  34  54  78 104 137 174 208 249 301
#     4  10  18  32  52  77 105 137 171 209 248 301
#     4   9  19  36  54  72  97 133 176 215 252 303
#
# _framework density 19.108761999999999
#
# number of rings (size 3 to 8) (size 9 to 14) (size 15 to 20)
#    0.000    2.429    0.000    2.143    0.000    2.571 
#    0.000   10.714    0.000    0.000    0.000    0.000 
#    0.000    0.000    0.000    0.000    0.000    0.000 
#
# Total GULP energy -346913.724840 kJ/mol
# GULP energy per Si atom -12389.775887 kJ/mol
# Density = 1.906527 g / cm^3
# Si number density = 19.108762 Si / 1000 Ang^3
#
#
#
# Elastic Constant Matrix: (Units=GPa)
#
#
# Indices 1 2 3 4 5 6 
#
# 1 136.3554 53.4107 39.2870 0.0000 -34.4483 0.0000
# 2 53.4107 98.8347 54.7487 0.0000 -22.4156 0.0000
# 3 39.2870 54.7487 96.7362 0.0000 -23.0966 0.0000
# 4 0.0000 0.0000 0.0000 -3.9202 0.0000 -4.1622
# 5 -34.4483 -22.4156 -23.0966 0.0000 26.7337 0.0000
# 6 0.0000 0.0000 0.0000 -4.1622 0.0000 26.4171
#
#
#
# Elastic Compliance Matrix: (Units=1/GPa)
#
#
# Indices 1 2 3 4 5 6 
#
# 1 0.011845 -0.003743 0.000255 0.000000 0.012346 0.000000
# 2 -0.003743 0.016873 -0.007311 0.000000 0.003008 0.000000
# 3 0.000255 -0.007311 0.016361 0.000000 0.008334 0.000000
# 4 0.000000 0.000000 0.000000 -0.218533 0.000000 -0.034432
# 5 0.012346 0.003008 0.008334 0.000000 0.063037 0.000000
# 6 0.000000 0.000000 0.000000 -0.034432 0.000000 0.032429
#
#
# Mechanical properties :
#
#
# Convention : Reuss Voigt Hill
#
# Bulk Modulus (GPa) = 42.58508 69.64657 56.11583
# Shear Modulus (GPa) = -102.95804 22.14479 -40.40662
#
# Velocity S-wave (km/s) = -7.34826 3.40793 -4.60342
# Velocity P-wave (km/s) = 7.04712 7.21193 1.08395
#
# Compressibility (1/GPa) = 0.02348240
#
# Stress axis : x y z
#
# Youngs Moduli (GPa) = 84.42211 59.26800 61.11994
#
# Poissons Ratio (x) = 0.22181 -0.01559
# Poissons Ratio (y) = 0.31595 0.44684
# Poissons Ratio (z) = -0.02154 0.43330
#
# Static dielectric constant tensor:
#      x y z
#    x 3.765990 0.000000 -0.133830 
#    y 0.000000 3.403760 0.000000 
#    z -0.133830 0.000000 3.479560 
# 
# 
# High freq. dielectric constant tensor:
#      x y z
#    x 1.752480 0.000000 -0.004170 
#    y 0.000000 1.736200 0.000000 
#    z -0.004170 0.000000 1.735730 
# 
# From -- ./inp_files/304696.got.cif
#   From: 2010.06.25/outbox.cif.g09.slc.cpg/sg12_153_cif.got.tgz:304696.got - 2010.06.28 00:19:55.
