data_PCOD8083191
_publ_section_title
;
Structure prediction by ZEFSAII (Michael W. Deem and Ramdas Pophale) SiO2 
 PCOD8083191
Probable space group: C 2/M
;
_chemical_formula_sum "Si O2"
_cell_formula_units_Z 56
_cell_length_a 18.222334
_cell_length_b 27.257826
_cell_length_c 8.822536
_cell_angle_alpha 90.000000
_cell_angle_beta 134.946947
_cell_angle_gamma 90.000000
_cell_volume 3101.525966
_symmetry_space_group_name_H-M "C 2/M"
_symmetry_group_IT_number 12
_symmetry_cell_setting 'monoclinic'
loop_
_space_group_symop_operation_xyz
x,y,z
-x,y,-z
-x,-y,-z
x,-y,z
1/2+x,1/2+y,z
1/2-x,1/2+y,-z
1/2-x,1/2-y,-z
1/2+x,1/2-y,z
loop_
_atom_site_type_symbol
_atom_site_label
_atom_site_fract_x
_atom_site_fract_y
_atom_site_fract_z
Si Si1 0.106631 0.053980 0.729986
Si Si2 0.426469 0.709862 0.150949
Si Si3 0.720359 0.646488 0.871264
Si Si4 0.470069 0.554949 0.793371
Si Si5 0.391853 0.196467 0.303217
Si Si6 0.136670 0.847671 0.430697
Si Si7 0.269400 0.712827 0.666991
O O1 0.206639 0.087678 0.846236
O O2 0.000000 0.074734 0.500000
O O3 0.080286 0.051450 0.869115
O O4 0.131622 0.000000 0.698851
O O5 0.366204 0.664649 0.137889
O O6 0.423561 0.753034 0.268925
O O7 0.540512 0.690227 0.280592
O O8 0.368584 0.728141 0.913856
O O9 0.702683 0.667222 0.676264
O O10 0.832002 0.662140 0.096422
O O11 0.419033 0.500000 0.723904
O O12 0.393006 0.594681 0.604560
O O13 0.500000 0.575526 0.000000
O O14 0.500000 0.169311 0.500000
O O15 0.329054 0.207147 0.366061
O O16 0.205657 0.838806 0.380861
O O17 0.250000 0.750000 0.500000
#
# Coordination Sequence:
#
# PCOD8083191 Si02
#       7
#     8   8   8   8   8   8   8
#     4  10  18  32  54  83 114 143 175 210 262 338
#     4  11  20  35  54  77 108 141 174 219 277 326
#     4  11  20  34  53  78 106 144 181 215 264 324
#     4  10  20  32  49  82 123 147 164 201 266 338
#     4  11  24  39  54  70 103 145 189 233 266 307
#     4  12  21  33  56  83 111 144 173 219 279 333
#     4  11  22  35  52  79 104 138 189 227 265 326
#
# _framework density 18.055629
#
# number of rings (size 3 to 8) (size 9 to 14) (size 15 to 20)
#    0.000    1.143    2.857    6.857    2.000    0.000 
#    0.000    2.143    0.000    0.429    0.000    0.000 
#    0.000    2.286    0.000    0.000    0.000    0.000 
#
# Total GULP energy -347003.802128 kJ/mol
# GULP energy per Si atom -12392.992933 kJ/mol
# Density = 1.801453 g / cm^3
# Si number density = 18.055629 Si / 1000 Ang^3
#
#
#
# Elastic Constant Matrix: (Units=GPa)
#
#
# Indices 1 2 3 4 5 6 
#
# 1 82.3450 27.9869 54.6878 0.0000 -9.4189 0.0000
# 2 27.9869 92.1211 41.4718 0.0000 10.4814 0.0000
# 3 54.6878 41.4718 143.9263 0.0000 -4.3925 0.0000
# 4 0.0000 0.0000 0.0000 18.3047 0.0000 -4.1623
# 5 -9.4189 10.4814 -4.3925 0.0000 31.7454 0.0000
# 6 0.0000 0.0000 0.0000 -4.1623 0.0000 21.8430
#
#
#
# Elastic Compliance Matrix: (Units=1/GPa)
#
#
# Indices 1 2 3 4 5 6 
#
# 1 0.017651 -0.003518 -0.005521 0.000000 0.005635 0.000000
# 2 -0.003518 0.013893 -0.002850 0.000000 -0.006025 0.000000
# 3 -0.005521 -0.002850 0.009888 0.000000 0.000671 0.000000
# 4 0.000000 0.000000 0.000000 0.057105 0.000000 0.010882
# 5 0.005635 -0.006025 0.000671 0.000000 0.035255 0.000000
# 6 0.000000 0.000000 0.000000 0.010882 0.000000 0.047855
#
#
# Mechanical properties :
#
#
# Convention : Reuss Voigt Hill
#
# Bulk Modulus (GPa) = 56.64931 62.96504 59.80717
# Shear Modulus (GPa) = 23.66202 27.32836 25.49519
#
# Velocity S-wave (km/s) = 3.62402 3.89468 3.76178
# Velocity P-wave (km/s) = 6.99674 7.42786 7.21552
#
# Compressibility (1/GPa) = 0.01765247
#
# Stress axis : x y z
#
# Youngs Moduli (GPa) = 56.65405 71.97997 101.13594
#
# Poissons Ratio (x) = 0.25322 0.55839
# Poissons Ratio (y) = 0.19931 0.28827
# Poissons Ratio (z) = 0.31280 0.20516
#
# Static dielectric constant tensor:
#      x y z
#    x 3.493750 0.000000 -0.275570 
#    y 0.000000 3.313060 0.000000 
#    z -0.275570 0.000000 3.470770 
# 
# 
# High freq. dielectric constant tensor:
#      x y z
#    x 1.690590 0.000000 -0.039380 
#    y 0.000000 1.687950 0.000000 
#    z -0.039380 0.000000 1.694650 
# 
# From -- ./inp_files/80497.got.cif
#   From: 2010.06.25/outbox.cif.g09.slc.cpg/sg12_41_cif.got.tgz:80497.got - 2010.06.28 00:19:55.
