data_PCOD8083195
_publ_section_title
;
Structure prediction by ZEFSAII (Michael W. Deem and Ramdas Pophale) SiO2 
 PCOD8083195
Probable space group: C 2/M
;
_chemical_formula_sum "Si O2"
_cell_formula_units_Z 40
_cell_length_a 27.308432
_cell_length_b 11.070630
_cell_length_c 10.363682
_cell_angle_alpha 90.000000
_cell_angle_beta 42.144505
_cell_angle_gamma 90.000000
_cell_volume 2102.361918
_symmetry_space_group_name_H-M "C 2/M"
_symmetry_group_IT_number 12
_symmetry_cell_setting 'monoclinic'
loop_
_space_group_symop_operation_xyz
x,y,z
-x,y,-z
-x,-y,-z
x,-y,z
1/2+x,1/2+y,z
1/2-x,1/2+y,-z
1/2-x,1/2-y,-z
1/2+x,1/2-y,z
loop_
_atom_site_type_symbol
_atom_site_label
_atom_site_fract_x
_atom_site_fract_y
_atom_site_fract_z
Si Si1 0.928492 0.860364 0.498926
Si Si2 0.063512 0.500000 0.979340
Si Si3 0.182489 0.859413 0.504918
Si Si4 0.941199 0.500000 0.725480
Si Si5 0.158472 0.262513 0.808979
Si Si6 0.913235 0.763189 0.793879
O O1 0.873682 0.818012 0.495424
O O2 0.890321 0.841176 0.713664
O O3 0.000165 0.777421 0.349244
O O4 0.950977 0.000000 0.439488
O O5 0.114294 0.383427 0.862805
O O6 0.025413 0.500000 0.194660
O O7 0.000000 0.500000 0.000000
O O8 0.147279 0.828907 0.712087
O O9 0.256377 0.786967 0.336978
O O10 0.199390 0.000000 0.462176
O O11 0.893550 0.622083 0.804690
O O12 0.000000 0.500000 0.500000
O O13 0.130028 0.195544 0.993928
#
# Coordination Sequence:
#
# PCOD8083195 Si02
#       6
#     8   4   8   4   8   8
#     4  10  21  36  58  82 112 145 182 227 274 330
#     4  10  22  34  60  88 112 140 183 234 276 321
#     4  10  22  40  56  79 113 151 185 224 278 333
#     4  10  18  32  54  84 114 138 167 233 277 322
#     4  10  22  38  59  80 114 147 184 229 277 331
#     4  10  20  35  57  86 109 140 186 229 278 321
#
# _framework density 19.026219000000001
#
# number of rings (size 3 to 8) (size 9 to 14) (size 15 to 20)
#    0.000    2.000    3.000    1.200    5.600    2.400 
#    0.000    2.000    0.000    0.000    0.000    0.000 
#    0.000    0.000    0.000    0.000    0.000    0.000 
#
# Total GULP energy -247968.303759 kJ/mol
# GULP energy per Si atom -12398.415188 kJ/mol
# Density = 1.898291 g / cm^3
# Si number density = 19.026219 Si / 1000 Ang^3
#
#
#
# Elastic Constant Matrix: (Units=GPa)
#
#
# Indices 1 2 3 4 5 6 
#
# 1 112.9312 27.0939 52.5695 0.0000 20.5497 0.0000
# 2 27.0939 48.2006 8.7436 0.0000 1.3558 0.0000
# 3 52.5695 8.7436 141.1959 0.0000 26.6678 0.0000
# 4 0.0000 0.0000 0.0000 29.8586 0.0000 7.1575
# 5 20.5497 1.3558 26.6678 0.0000 25.4038 0.0000
# 6 0.0000 0.0000 0.0000 7.1575 0.0000 23.7762
#
#
#
# Elastic Compliance Matrix: (Units=1/GPa)
#
#
# Indices 1 2 3 4 5 6 
#
# 1 0.013203 -0.006647 -0.003185 0.000000 -0.006981 0.000000
# 2 -0.006647 0.024331 0.000247 0.000000 0.003820 0.000000
# 3 -0.003185 0.000247 0.009690 0.000000 -0.007609 0.000000
# 4 0.000000 0.000000 0.000000 0.036096 0.000000 -0.010866
# 5 -0.006981 0.003820 -0.007609 0.000000 0.052795 0.000000
# 6 0.000000 0.000000 0.000000 -0.010866 0.000000 0.045330
#
#
# Mechanical properties :
#
#
# Convention : Reuss Voigt Hill
#
# Bulk Modulus (GPa) = 35.64791 53.23797 44.44294
# Shear Modulus (GPa) = 23.81324 30.06912 26.94118
#
# Velocity S-wave (km/s) = 3.54164 3.97974 3.76706
# Velocity P-wave (km/s) = 5.95828 7.01141 6.50619
#
# Compressibility (1/GPa) = 0.02805214
#
# Stress axis : x y z
#
# Youngs Moduli (GPa) = 75.74073 41.10000 103.19784
#
# Poissons Ratio (x) = 0.27320 0.32873
# Poissons Ratio (y) = 0.50347 -0.02547
# Poissons Ratio (z) = 0.24127 -0.01014
#
# Static dielectric constant tensor:
#      x y z
#    x 3.387290 0.000000 0.267690 
#    y 0.000000 3.552600 0.000000 
#    z 0.267690 0.000000 3.669970 
# 
# 
# High freq. dielectric constant tensor:
#      x y z
#    x 1.725020 0.000000 0.021030 
#    y 0.000000 1.740160 0.000000 
#    z 0.021030 0.000000 1.746790 
# 
# From -- ./inp_files/102357.got.cif
#   From: 2010.06.25/outbox.cif.g09.slc.cpg/sg12_52_cif.got.tgz:102357.got - 2010.06.28 00:19:55.
