data_PCOD8083608
_publ_section_title
;
Structure prediction by ZEFSAII (Michael W. Deem and Ramdas Pophale) SiO2 
 PCOD8083608
Probable space group: C 2/M
;
_chemical_formula_sum "Si O2"
_cell_formula_units_Z 36
_cell_length_a 7.722821
_cell_length_b 21.604742
_cell_length_c 12.104725
_cell_angle_alpha 90.000000
_cell_angle_beta 66.476526
_cell_angle_gamma 90.000000
_cell_volume 1851.826768
_symmetry_space_group_name_H-M "C 2/M"
_symmetry_group_IT_number 12
_symmetry_cell_setting 'monoclinic'
loop_
_space_group_symop_operation_xyz
x,y,z
-x,y,-z
-x,-y,-z
x,-y,z
1/2+x,1/2+y,z
1/2-x,1/2+y,-z
1/2-x,1/2-y,-z
1/2+x,1/2-y,z
loop_
_atom_site_type_symbol
_atom_site_label
_atom_site_fract_x
_atom_site_fract_y
_atom_site_fract_z
Si Si1 0.505559 0.804895 0.269092
Si Si2 0.860146 0.832889 0.763655
Si Si3 0.391338 0.570118 0.413833
Si Si4 0.788675 0.179522 0.016000
Si Si5 0.000000 0.632749 0.500000
O O1 0.292805 0.824395 0.293687
O O2 0.524213 0.731083 0.250237
O O3 0.548899 0.823691 0.383538
O O4 0.646619 0.841587 0.149486
O O5 0.758491 0.853515 0.904698
O O6 0.009303 0.885998 0.699864
O O7 0.500000 0.577154 0.500000
O O8 0.400355 0.500000 0.367422
O O9 0.174711 0.589059 0.485374
O O10 0.750000 0.250000 0.000000
O O11 0.000000 0.166926 0.000000
#
# Coordination Sequence:
#
# PCOD8083608 Si02
#       5
#     8   8   8   8   4
#     4  11  22  34  60  92 121 155 189 245 307 353
#     4  11  21  38  59  87 123 153 199 244 294 357
#     4  11  24  42  61  84 118 161 203 243 290 349
#     4  10  18  33  54  84 118 154 190 233 296 357
#     4  12  23  40  62  90 119 152 198 246 302 356
#
# _framework density 19.440262000000001
#
# number of rings (size 3 to 8) (size 9 to 14) (size 15 to 20)
#    0.000    1.111    2.222    9.000    1.556    1.778 
#    0.000    0.000    0.000   10.000    0.000    0.000 
#    0.000    0.000    0.000    0.000    0.000    0.000 
#
# Total GULP energy -223174.226519 kJ/mol
# GULP energy per Si atom -12398.568140 kJ/mol
# Density = 1.939602 g / cm^3
# Si number density = 19.440262 Si / 1000 Ang^3
#
#
#
# Elastic Constant Matrix: (Units=GPa)
#
#
# Indices 1 2 3 4 5 6 
#
# 1 103.3575 31.8770 33.2925 0.0000 -6.4688 0.0000
# 2 31.8770 92.7410 56.4156 0.0000 -9.6275 0.0000
# 3 33.2925 56.4156 145.3345 0.0000 1.2848 0.0000
# 4 0.0000 0.0000 0.0000 12.0884 0.0000 3.0105
# 5 -6.4688 -9.6275 1.2848 0.0000 37.4166 0.0000
# 6 0.0000 0.0000 0.0000 3.0105 0.0000 17.0471
#
#
#
# Elastic Compliance Matrix: (Units=1/GPa)
#
#
# Indices 1 2 3 4 5 6 
#
# 1 0.011086 -0.002787 -0.001469 0.000000 0.001250 0.000000
# 2 -0.002787 0.015385 -0.005366 0.000000 0.003661 0.000000
# 3 -0.001469 -0.005366 0.009317 0.000000 -0.001955 0.000000
# 4 0.000000 0.000000 0.000000 0.086529 0.000000 -0.015281
# 5 0.001250 0.003661 -0.001955 0.000000 0.027951 0.000000
# 6 0.000000 0.000000 0.000000 -0.015281 0.000000 0.061359
#
#
# Mechanical properties :
#
#
# Convention : Reuss Voigt Hill
#
# Bulk Modulus (GPa) = 60.44293 64.95594 62.69943
# Shear Modulus (GPa) = 21.15174 27.96696 24.55935
#
# Velocity S-wave (km/s) = 3.30212 3.79702 3.55818
# Velocity P-wave (km/s) = 6.76001 7.26008 7.01450
#
# Compressibility (1/GPa) = 0.01654453
#
# Stress axis : x y z
#
# Youngs Moduli (GPa) = 90.20303 64.99817 107.32699
#
# Poissons Ratio (x) = 0.18118 0.15762
# Poissons Ratio (y) = 0.25143 0.57591
# Poissons Ratio (z) = 0.13247 0.34878
#
# Static dielectric constant tensor:
#      x y z
#    x 3.676030 0.000000 -0.007270 
#    y 0.000000 3.223260 0.000000 
#    z -0.007270 0.000000 4.859290 
# 
# 
# High freq. dielectric constant tensor:
#      x y z
#    x 1.777410 0.000000 0.002020 
#    y 0.000000 1.704610 0.000000 
#    z 0.002020 0.000000 1.773340 
# 
# From -- ./inp_files/119967.got.cif
#   From: 2010.06.25/outbox.cif.g09.slc.cpg/sg12_60_cif.got.tgz:119967.got - 2010.06.28 00:19:55.
