data_PCOD8083173
_publ_section_title
;
Structure prediction by ZEFSAII (Michael W. Deem and Ramdas Pophale) SiO2 
 PCOD8083173
Probable space group: C 2/M
;
_chemical_formula_sum "Si O2"
_cell_formula_units_Z 48
_cell_length_a 22.153280
_cell_length_b 8.796177
_cell_length_c 23.120946
_cell_angle_alpha 90.000000
_cell_angle_beta 148.174232
_cell_angle_gamma 90.000000
_cell_volume 2375.891692
_symmetry_space_group_name_H-M "C 2/M"
_symmetry_group_IT_number 12
_symmetry_cell_setting 'monoclinic'
loop_
_space_group_symop_operation_xyz
x,y,z
-x,y,-z
-x,-y,-z
x,-y,z
1/2+x,1/2+y,z
1/2-x,1/2+y,-z
1/2-x,1/2-y,-z
1/2+x,1/2-y,z
loop_
_atom_site_type_symbol
_atom_site_label
_atom_site_fract_x
_atom_site_fract_y
_atom_site_fract_z
Si Si1 0.498394 0.820121 0.066061
Si Si2 0.711699 0.169688 0.312506
Si Si3 0.290134 0.317905 0.970295
Si Si4 0.069497 0.319434 0.726126
Si Si5 0.144443 0.330085 0.384407
Si Si6 0.948631 0.320734 0.515361
O O1 0.625912 0.776977 0.192108
O O2 0.476202 0.000000 0.051788
O O3 0.500000 0.764616 0.000000
O O4 0.407128 0.741403 0.035438
O O5 0.638941 0.172744 0.311482
O O6 0.815417 0.282703 0.408388
O O7 0.758383 0.000000 0.337834
O O8 0.297029 0.500000 0.982559
O O9 0.194215 0.262105 0.846148
O O10 0.250000 0.250000 0.000000
O O11 0.072474 0.500000 0.727207
O O12 0.976144 0.256464 0.695588
O O13 0.026270 0.251700 0.629821
O O14 0.151135 0.500000 0.414720
O O15 0.250000 0.250000 0.500000
O O16 0.960544 0.500000 0.525630
O O17 0.000000 0.246296 0.500000
#
# Coordination Sequence:
#
# PCOD8083173 Si02
#       6
#     8   8   8   8   8   8
#     4  10  23  43  64  88 122 163 205 253 308 361
#     4  10  21  37  58  84 116 151 188 239 297 350
#     4  11  23  41  65  91 123 162 206 253 303 361
#     4   9  19  36  57  83 117 152 184 235 295 345
#     4  10  18  32  54  80 110 144 181 224 280 341
#     4  10  21  36  57  84 114 151 192 234 287 350
#
# _framework density 20.202943000000001
#
# number of rings (size 3 to 8) (size 9 to 14) (size 15 to 20)
#    0.000    2.000    1.667    1.500    2.333    4.000 
#    0.000    5.000    0.000    0.000    0.000    0.000 
#    0.000    0.000    0.000    0.000    0.000    0.000 
#
# Total GULP energy -297330.705134 kJ/mol
# GULP energy per Si atom -12388.779381 kJ/mol
# Density = 2.015696 g / cm^3
# Si number density = 20.202943 Si / 1000 Ang^3
#
#
#
# Elastic Constant Matrix: (Units=GPa)
#
#
# Indices 1 2 3 4 5 6 
#
# 1 114.5338 23.6137 40.2408 0.0000 -11.4345 0.0000
# 2 23.6137 40.8977 20.7176 0.0000 -2.9791 0.0000
# 3 40.2408 20.7176 145.3948 0.0000 -16.1713 0.0000
# 4 0.0000 0.0000 0.0000 17.0690 0.0000 5.2088
# 5 -11.4345 -2.9791 -16.1713 0.0000 34.3117 0.0000
# 6 0.0000 0.0000 0.0000 5.2088 0.0000 24.2618
#
#
#
# Elastic Compliance Matrix: (Units=1/GPa)
#
#
# Indices 1 2 3 4 5 6 
#
# 1 0.010682 -0.004995 -0.002002 0.000000 0.002183 0.000000
# 2 -0.004995 0.028698 -0.002760 0.000000 -0.000473 0.000000
# 3 -0.002002 -0.002760 0.008152 0.000000 0.002935 0.000000
# 4 0.000000 0.000000 0.000000 0.062693 0.000000 -0.013460
# 5 0.002183 -0.000473 0.002935 0.000000 0.031214 0.000000
# 6 0.000000 0.000000 0.000000 -0.013460 0.000000 0.044107
#
#
# Mechanical properties :
#
#
# Convention : Reuss Voigt Hill
#
# Bulk Modulus (GPa) = 35.68898 52.21895 43.95396
# Shear Modulus (GPa) = 23.32106 29.54545 26.43325
#
# Velocity S-wave (km/s) = 3.40124 3.82833 3.62109
# Velocity P-wave (km/s) = 5.75571 6.74127 6.26789
#
# Compressibility (1/GPa) = 0.02801986
#
# Stress axis : x y z
#
# Youngs Moduli (GPa) = 93.61469 34.84503 122.67526
#
# Poissons Ratio (x) = 0.17403 0.24560
# Poissons Ratio (y) = 0.46756 0.33854
# Poissons Ratio (z) = 0.18742 0.09616
#
# Static dielectric constant tensor:
#      x y z
#    x 4.044620 0.000000 -0.173760 
#    y 0.000000 3.443130 0.000000 
#    z -0.173760 0.000000 3.972140 
# 
# 
# High freq. dielectric constant tensor:
#      x y z
#    x 1.799870 0.000000 -0.006060 
#    y 0.000000 1.758020 0.000000 
#    z -0.006060 0.000000 1.804740 
# 
# From -- ./inp_files/348886.got.cif
#   From: 2010.06.25/outbox.cif.g09.slc.cpg/sg12_175_cif.got.tgz:348886.got - 2010.06.28 00:19:55.
