data_PCOD8083874
_publ_section_title
;
Structure prediction by ZEFSAII (Michael W. Deem and Ramdas Pophale) SiO2 
 PCOD8083874
Probable space group: C 2/M
;
_chemical_formula_sum "Si O2"
_cell_formula_units_Z 64
_cell_length_a 28.211966
_cell_length_b 8.999061
_cell_length_c 15.458299
_cell_angle_alpha 90.000000
_cell_angle_beta 57.160084
_cell_angle_gamma 90.000000
_cell_volume 3297.381882
_symmetry_space_group_name_H-M "C 2/M"
_symmetry_group_IT_number 12
_symmetry_cell_setting 'monoclinic'
loop_
_space_group_symop_operation_xyz
x,y,z
-x,y,-z
-x,-y,-z
x,-y,z
1/2+x,1/2+y,z
1/2-x,1/2+y,-z
1/2-x,1/2-y,-z
1/2+x,1/2-y,z
loop_
_atom_site_type_symbol
_atom_site_label
_atom_site_fract_x
_atom_site_fract_y
_atom_site_fract_z
Si Si1 0.189440 0.824034 0.060959
Si Si2 0.613831 0.175358 0.476438
Si Si3 0.002427 0.827890 0.646795
Si Si4 0.621973 0.170298 0.978680
Si Si5 0.121028 0.828259 0.296645
Si Si6 0.999726 0.330065 0.828450
Si Si7 0.614932 0.176054 0.794140
Si Si8 0.689864 0.824277 0.562391
O O1 0.155865 0.770102 0.179345
O O2 0.195849 0.000000 0.053043
O O3 0.250000 0.750000 0.000000
O O4 0.155254 0.774718 0.010743
O O5 0.551504 0.239096 0.550821
O O6 0.640791 0.236889 0.361086
O O7 0.653392 0.226859 0.516109
O O8 0.609518 0.000000 0.475331
O O9 0.991751 0.772471 0.753707
O O10 0.945274 0.801612 0.650529
O O11 0.019150 0.000000 0.632302
O O12 0.633562 0.232383 0.870502
O O13 0.642606 0.000000 0.969948
O O14 0.555139 0.180934 0.058185
O O15 0.134641 0.000000 0.299573
O O16 0.010702 0.500000 0.786919
O O17 0.052368 0.268092 0.831391
O O18 0.658934 0.234509 0.679316
O O19 0.613749 0.000000 0.797581
O O20 0.750000 0.750000 0.500000
O O21 0.697194 0.000000 0.556591
#
# Coordination Sequence:
#
# PCOD8083874 Si02
#       8
#     8   8   8   8   8   8   8   8
#     4  11  24  43  62  83 117 156 199 248 294 345
#     4  11  23  39  61  90 119 151 195 245 291 343
#     4  11  21  36  59  87 121 158 192 232 292 354
#     4  10  20  35  62  92 116 151 193 236 293 352
#     4  10  23  41  60  85 119 157 192 236 297 355
#     4  10  18  33  59  89 120 151 190 236 286 348
#     4   9  18  36  59  86 120 153 187 234 289 347
#     4  10  22  40  59  81 114 151 193 239 285 338
#
# _framework density 19.409338999999999
#
# number of rings (size 3 to 8) (size 9 to 14) (size 15 to 20)
#    0.000    1.750    2.500    1.875    0.000    7.000 
#    0.000    5.000    0.000    1.500    0.000    0.000 
#    0.000    0.000    0.000    0.000    0.000    0.000 
#
# Total GULP energy -396892.684372 kJ/mol
# GULP energy per Si atom -12402.896387 kJ/mol
# Density = 1.936516 g / cm^3
# Si number density = 19.409339 Si / 1000 Ang^3
#
#
#
# Elastic Constant Matrix: (Units=GPa)
#
#
# Indices 1 2 3 4 5 6 
#
# 1 95.5607 43.6346 86.8649 0.0000 0.8039 0.0000
# 2 43.6346 55.4089 48.0993 0.0000 4.4104 0.0002
# 3 86.8649 48.0993 140.2298 0.0000 21.3879 0.0000
# 4 0.0000 0.0000 0.0000 31.0008 0.0000 -2.7234
# 5 0.8039 4.4104 21.3879 0.0000 40.7076 0.0000
# 6 0.0000 0.0002 0.0000 -2.7234 0.0000 27.9111
#
#
#
# Elastic Compliance Matrix: (Units=1/GPa)
#
#
# Indices 1 2 3 4 5 6 
#
# 1 0.029997 -0.009978 -0.016561 0.000000 0.009190 0.000000
# 2 -0.009978 0.029171 -0.003666 0.000000 -0.001037 0.000000
# 3 -0.016561 -0.003666 0.020152 0.000000 -0.009863 0.000000
# 4 0.000000 0.000000 0.000000 0.032536 0.000000 0.003175
# 5 0.009190 -0.001037 -0.009863 0.000000 0.029679 0.000000
# 6 0.000000 0.000000 0.000000 0.003175 0.000000 0.036138
#
#
# Mechanical properties :
#
#
# Convention : Reuss Voigt Hill
#
# Bulk Modulus (GPa) = 52.88575 72.04411 62.46493
# Shear Modulus (GPa) = 20.45940 27.43061 23.94500
#
# Velocity S-wave (km/s) = 3.25021 3.76342 3.51620
# Velocity P-wave (km/s) = 6.43366 7.48888 6.98123
#
# Compressibility (1/GPa) = 0.01890869
#
# Stress axis : x y z
#
# Youngs Moduli (GPa) = 33.33637 34.28068 49.62378
#
# Poissons Ratio (x) = 0.34207 0.82181
# Poissons Ratio (y) = 0.33264 0.18195
# Poissons Ratio (z) = 0.55207 0.12569
#
# Static dielectric constant tensor:
#      x y z
#    x 3.489600 0.000000 0.217250 
#    y 0.000000 3.914660 0.000000 
#    z 0.217250 0.000000 3.769530 
# 
# 
# High freq. dielectric constant tensor:
#      x y z
#    x 1.759120 0.000000 0.006770 
#    y 0.000000 1.738470 0.000000 
#    z 0.006770 0.000000 1.769010 
# 
# From -- ./inp_files/249725.got.cif
#   From: 2010.06.25/outbox.cif.g09.slc.cpg/sg12_125_cif.got.tgz:249725.got - 2010.06.28 00:19:55.
