data_PCOD8083798
_publ_section_title
;
Structure prediction by ZEFSAII (Michael W. Deem and Ramdas Pophale) SiO2 
 PCOD8083798
Probable space group: C 2/M
;
_chemical_formula_sum "Si O2"
_cell_formula_units_Z 48
_cell_length_a 29.562312
_cell_length_b 8.679100
_cell_length_c 19.429382
_cell_angle_alpha 90.000000
_cell_angle_beta 148.402545
_cell_angle_gamma 90.000000
_cell_volume 2611.922718
_symmetry_space_group_name_H-M "C 2/M"
_symmetry_group_IT_number 12
_symmetry_cell_setting 'monoclinic'
loop_
_space_group_symop_operation_xyz
x,y,z
-x,y,-z
-x,-y,-z
x,-y,z
1/2+x,1/2+y,z
1/2-x,1/2+y,-z
1/2-x,1/2-y,-z
1/2+x,1/2-y,z
loop_
_atom_site_type_symbol
_atom_site_label
_atom_site_fract_x
_atom_site_fract_y
_atom_site_fract_z
Si Si1 0.258874 0.181628 0.086523
Si Si2 0.356328 0.179510 0.952239
Si Si3 0.030089 0.680165 0.110904
Si Si4 0.229106 0.681932 0.681486
Si Si5 0.596066 0.181469 0.623135
Si Si6 0.781025 0.316688 0.611417
O O1 0.175005 0.228647 0.021544
O O2 0.344762 0.244871 0.237113
O O3 0.262377 0.000000 0.085294
O O4 0.250000 0.250000 0.000000
O O5 0.309910 0.237106 0.822904
O O6 0.336359 0.000000 0.936343
O O7 0.458424 0.211495 0.076636
O O8 0.042820 0.500000 0.114908
O O9 0.121805 0.748130 0.252889
O O10 0.000000 0.757055 0.000000
O O11 0.244882 0.500000 0.700707
O O12 0.141423 0.722285 0.609411
O O13 0.220616 0.749533 0.593868
O O14 0.500000 0.256254 0.500000
O O15 0.588254 0.000000 0.622269
O O16 0.775164 0.500000 0.603418
O O17 0.750000 0.250000 0.500000
#
# Coordination Sequence:
#
# PCOD8083798 Si02
#       6
#     8   8   8   8   8   8
#     4  10  20  35  55  80 111 140 175 221 274 322
#     4  10  18  33  58  82 105 139 184 223 264 314
#     4   9  17  33  57  81 102 137 184 221 254 320
#     4  10  19  33  55  82 109 139 178 222 270 318
#     4   8  16  33  56  78 100 134 181 219 251 311
#     4  11  22  38  56  77 110 144 180 220 270 322
#
# _framework density 18.377267
#
# number of rings (size 3 to 8) (size 9 to 14) (size 15 to 20)
#    0.000    2.333    1.667    3.000    0.000    0.000 
#    3.000    4.167    0.000   17.000    0.000    0.000 
#    0.000    0.000    0.000    0.000    0.000    0.000 
#
# Total GULP energy -297544.528846 kJ/mol
# GULP energy per Si atom -12397.688702 kJ/mol
# Density = 1.833544 g / cm^3
# Si number density = 18.377267 Si / 1000 Ang^3
#
#
#
# Elastic Constant Matrix: (Units=GPa)
#
#
# Indices 1 2 3 4 5 6 
#
# 1 147.2282 33.2607 85.4823 0.0000 -13.0073 0.0000
# 2 33.2607 50.5144 28.0442 0.0000 2.4267 0.0000
# 3 85.4823 28.0442 128.5283 0.0000 3.0565 0.0000
# 4 0.0000 0.0000 0.0000 23.3573 0.0000 -4.2592
# 5 -13.0073 2.4267 3.0565 0.0000 33.9152 0.0000
# 6 0.0000 0.0000 0.0000 -4.2592 0.0000 34.5858
#
#
#
# Elastic Compliance Matrix: (Units=1/GPa)
#
#
# Indices 1 2 3 4 5 6 
#
# 1 0.012764 -0.004434 -0.007662 0.000000 0.005903 0.000000
# 2 -0.004434 0.024112 -0.002235 0.000000 -0.003224 0.000000
# 3 -0.007662 -0.002235 0.013459 0.000000 -0.003992 0.000000
# 4 0.000000 0.000000 0.000000 0.043797 0.000000 0.005394
# 5 0.005903 -0.003224 -0.003992 0.000000 0.032340 0.000000
# 6 0.000000 0.000000 0.000000 0.005394 0.000000 0.029578
#
#
# Mechanical properties :
#
#
# Convention : Reuss Voigt Hill
#
# Bulk Modulus (GPa) = 46.14286 68.87167 57.50727
# Shear Modulus (GPa) = 26.05028 30.33722 28.19375
#
# Velocity S-wave (km/s) = 3.76909 4.06741 3.92109
# Velocity P-wave (km/s) = 6.64113 7.72116 7.20142
#
# Compressibility (1/GPa) = 0.02167183
#
# Stress axis : x y z
#
# Youngs Moduli (GPa) = 78.34440 41.47333 74.29979
#
# Poissons Ratio (x) = 0.18390 0.56929
# Poissons Ratio (y) = 0.34740 0.16608
# Poissons Ratio (z) = 0.60028 0.09270
#
# Static dielectric constant tensor:
#      x y z
#    x 3.502700 0.000000 0.155320 
#    y 0.000000 3.207620 0.000000 
#    z 0.155320 0.000000 3.563350 
# 
# 
# High freq. dielectric constant tensor:
#      x y z
#    x 1.721880 0.000000 0.006770 
#    y 0.000000 1.695850 0.000000 
#    z 0.006770 0.000000 1.700840 
# 
# From -- ./inp_files/329124.got.cif
#   From: 2010.06.25/outbox.cif.g09.slc.cpg/sg12_165_cif.got.tgz:329124.got - 2010.06.28 00:19:55.
