data_PCOD8083082
_publ_section_title
;
Structure prediction by ZEFSAII (Michael W. Deem and Ramdas Pophale) SiO2 
 PCOD8083082
Probable space group: C 2/M
;
_chemical_formula_sum "Si O2"
_cell_formula_units_Z 64
_cell_length_a 28.547028
_cell_length_b 8.854476
_cell_length_c 14.171833
_cell_angle_alpha 90.000000
_cell_angle_beta 118.030017
_cell_angle_gamma 90.000000
_cell_volume 3162.013104
_symmetry_space_group_name_H-M "C 2/M"
_symmetry_group_IT_number 12
_symmetry_cell_setting 'monoclinic'
loop_
_space_group_symop_operation_xyz
x,y,z
-x,y,-z
-x,-y,-z
x,-y,z
1/2+x,1/2+y,z
1/2-x,1/2+y,-z
1/2-x,1/2-y,-z
1/2+x,1/2-y,z
loop_
_atom_site_type_symbol
_atom_site_label
_atom_site_fract_x
_atom_site_fract_y
_atom_site_fract_z
Si Si1 0.296711 0.819702 0.604679
Si Si2 0.383055 0.168202 0.978027
Si Si3 0.090899 0.177192 0.333687
Si Si4 0.042138 0.670130 0.114772
Si Si5 0.792439 0.822858 0.109388
Si Si6 0.410017 0.321532 0.180184
Si Si7 0.495950 0.678629 0.601830
Si Si8 0.279179 0.177150 0.797135
O O1 0.250000 0.750000 0.500000
O O2 0.353991 0.766830 0.620501
O O3 0.284401 0.753870 0.697693
O O4 0.294677 0.000000 0.597662
O O5 0.402721 0.164966 0.888824
O O6 0.324346 0.240255 0.911933
O O7 0.382048 0.000000 0.020115
O O8 0.420128 0.267560 0.082167
O O9 0.049732 0.223365 0.212163
O O10 0.060726 0.217907 0.403221
O O11 0.102867 0.000000 0.337823
O O12 0.025074 0.500000 0.130375
O O13 0.000000 0.737153 0.000000
O O14 0.851818 0.757847 0.153516
O O15 0.776616 0.788131 0.204108
O O16 0.791705 0.000000 0.088508
O O17 0.750000 0.750000 0.000000
O O18 0.412088 0.500000 0.186393
O O19 0.455173 0.253025 0.291061
O O20 0.500000 0.747294 0.500000
O O21 0.502700 0.500000 0.603729
O O22 0.289581 0.000000 0.796715
#
# Coordination Sequence:
#
# PCOD8083082 Si02
#       8
#     8   8   8   8   8   8   8   8
#     4  11  23  42  64  88 119 154 197 242 287 349
#     4  10  18  32  53  77 110 151 184 220 281 348
#     4  11  22  37  61  89 116 151 194 244 301 348
#     4  10  20  34  54  81 114 156 197 234 288 353
#     4  10  19  32  52  79 111 148 186 229 282 339
#     4  10  20  33  54  85 112 142 189 245 288 326
#     4   9  20  39  60  82 112 151 198 244 288 347
#     4   9  18  34  55  77 109 151 187 223 276 343
#
# _framework density 20.240269999999999
#
# number of rings (size 3 to 8) (size 9 to 14) (size 15 to 20)
#    0.000    2.000    2.500    1.500    0.000    1.750 
#    0.000    5.625    0.000    4.875    0.000    0.000 
#    0.000    0.000    0.000    0.000    0.000    0.000 
#
# Total GULP energy -396594.965044 kJ/mol
# GULP energy per Si atom -12393.592658 kJ/mol
# Density = 2.019420 g / cm^3
# Si number density = 20.240270 Si / 1000 Ang^3
#
#
#
# Elastic Constant Matrix: (Units=GPa)
#
#
# Indices 1 2 3 4 5 6 
#
# 1 97.5056 29.0952 48.7122 0.0000 -9.2173 0.0000
# 2 29.0952 42.1758 28.0191 0.0000 -0.9492 0.0000
# 3 48.7122 28.0191 131.1329 0.0000 -5.5117 0.0000
# 4 0.0000 0.0000 0.0000 26.3578 0.0000 2.8904
# 5 -9.2173 -0.9492 -5.5117 0.0000 35.3537 0.0000
# 6 0.0000 0.0000 0.0000 2.8904 0.0000 23.2471
#
#
#
# Elastic Compliance Matrix: (Units=1/GPa)
#
#
# Indices 1 2 3 4 5 6 
#
# 1 0.014652 -0.007585 -0.003694 0.000000 0.003040 0.000000
# 2 -0.007585 0.031561 -0.004000 0.000000 -0.001754 0.000000
# 3 -0.003694 -0.004000 0.009872 0.000000 0.000469 0.000000
# 4 0.000000 0.000000 0.000000 0.038464 0.000000 -0.004782
# 5 0.003040 -0.001754 0.000469 0.000000 0.029104 0.000000
# 6 0.000000 0.000000 0.000000 -0.004782 0.000000 0.043611
#
#
# Mechanical properties :
#
#
# Convention : Reuss Voigt Hill
#
# Bulk Modulus (GPa) = 39.17409 53.60746 46.39078
# Shear Modulus (GPa) = 24.23284 27.99090 26.11187
#
# Velocity S-wave (km/s) = 3.46390 3.72281 3.59569
# Velocity P-wave (km/s) = 5.94934 6.70985 6.34101
#
# Compressibility (1/GPa) = 0.02552708
#
# Stress axis : x y z
#
# Youngs Moduli (GPa) = 68.24869 31.68511 101.29149
#
# Poissons Ratio (x) = 0.24034 0.37421
# Poissons Ratio (y) = 0.51768 0.40512
# Poissons Ratio (z) = 0.25214 0.12673
#
# Static dielectric constant tensor:
#      x y z
#    x 4.060740 0.000000 -0.046050 
#    y 0.000000 3.326510 0.000000 
#    z -0.046050 0.000000 3.770380 
# 
# 
# High freq. dielectric constant tensor:
#      x y z
#    x 1.809440 0.000000 -0.000530 
#    y 0.000000 1.753150 0.000000 
#    z -0.000530 0.000000 1.785340 
# 
# From -- ./inp_files/249150.got.cif
#   From: 2010.06.25/outbox.cif.g09.slc.cpg/sg12_125_cif.got.tgz:249150.got - 2010.06.28 00:19:55.
