data_PCOD8083393
_publ_section_title
;
Structure prediction by ZEFSAII (Michael W. Deem and Ramdas Pophale) SiO2 
 PCOD8083393
Probable space group: C 2/M
;
_chemical_formula_sum "Si O2"
_cell_formula_units_Z 48
_cell_length_a 17.316905
_cell_length_b 16.129589
_cell_length_c 9.534764
_cell_angle_alpha 90.000000
_cell_angle_beta 91.805677
_cell_angle_gamma 90.000000
_cell_volume 2661.875986
_symmetry_space_group_name_H-M "C 2/M"
_symmetry_group_IT_number 12
_symmetry_cell_setting 'monoclinic'
loop_
_space_group_symop_operation_xyz
x,y,z
-x,y,-z
-x,-y,-z
x,-y,z
1/2+x,1/2+y,z
1/2-x,1/2+y,-z
1/2-x,1/2-y,-z
1/2+x,1/2-y,z
loop_
_atom_site_type_symbol
_atom_site_label
_atom_site_fract_x
_atom_site_fract_y
_atom_site_fract_z
Si Si1 0.995512 0.217372 0.343088
Si Si2 0.286070 0.707931 0.865724
Si Si3 0.146399 0.329296 0.674565
Si Si4 0.904245 0.500000 0.662576
Si Si5 0.359339 0.174263 0.648195
Si Si6 0.063427 0.902730 0.123558
Si Si7 0.069777 0.500000 0.663688
O O1 0.911016 0.251821 0.293459
O O2 0.000000 0.181669 0.500000
O O3 0.052004 0.296519 0.339563
O O4 0.023568 0.139674 0.254465
O O5 0.218974 0.661917 0.780007
O O6 0.309219 0.777625 0.756424
O O7 0.356490 0.645338 0.908248
O O8 0.250000 0.750000 0.000000
O O9 0.172205 0.319500 0.513172
O O10 0.109105 0.415847 0.713472
O O11 0.853965 0.579619 0.699424
O O12 0.929670 0.500000 0.503192
O O13 0.987709 0.500000 0.740452
O O14 0.081182 0.000000 0.153269
O O15 0.000000 0.892311 0.000000
#
# Coordination Sequence:
#
# PCOD8083393 Si02
#       7
#     8   8   8   4   8   8   4
#     4   9  17  32  58  84 105 133 170 213 259 310
#     4  11  23  37  54  76 106 141 179 217 264 307
#     4  10  18  32  57  83 111 131 169 215 265 311
#     4   9  14  30  53  83 111 132 171 202 257 317
#     4   9  18  33  54  82 108 142 169 208 255 316
#     4  10  22  40  57  71  99 142 183 217 257 310
#     4   9  16  26  55  87 108 134 160 212 262 315
#
# _framework density 18.032395999999999
#
# number of rings (size 3 to 8) (size 9 to 14) (size 15 to 20)
#    0.000    2.333    1.667    1.500    1.167    0.333 
#    1.500    0.000    1.833    1.000    0.000    0.000 
#    0.000    0.000    0.000    0.000    0.000    0.000 
#
# Total GULP energy -297344.684200 kJ/mol
# GULP energy per Si atom -12389.361842 kJ/mol
# Density = 1.799135 g / cm^3
# Si number density = 18.032396 Si / 1000 Ang^3
#
#
#
# Elastic Constant Matrix: (Units=GPa)
#
#
# Indices 1 2 3 4 5 6 
#
# 1 100.4973 47.8702 44.6213 0.0000 13.0510 0.0000
# 2 47.8702 129.3781 49.0011 0.0000 0.9322 0.0000
# 3 44.6213 49.0011 83.2724 0.0000 1.6985 0.0000
# 4 0.0000 0.0000 0.0000 17.4786 0.0000 -13.6334
# 5 13.0510 0.9322 1.6985 0.0000 30.0749 0.0000
# 6 0.0000 0.0000 0.0000 -13.6334 0.0000 124.1518
#
#
#
# Elastic Compliance Matrix: (Units=1/GPa)
#
#
# Indices 1 2 3 4 5 6 
#
# 1 0.014920 -0.003211 -0.005982 0.000000 -0.006037 0.000000
# 2 -0.003211 0.010637 -0.004566 0.000000 0.001322 0.000000
# 3 -0.005982 -0.004566 0.017866 0.000000 0.001729 0.000000
# 4 0.000000 0.000000 0.000000 0.062572 0.000000 0.006871
# 5 -0.006037 0.001322 0.001729 0.000000 0.035732 0.000000
# 6 0.000000 0.000000 0.000000 0.006871 0.000000 0.008809
#
#
# Mechanical properties :
#
#
# Convention : Reuss Voigt Hill
#
# Bulk Modulus (GPa) = 62.87338 66.23699 64.55518
# Shear Modulus (GPa) = 27.26936 45.78475 36.52705
#
# Velocity S-wave (km/s) = 3.89298 5.04434 4.50559
# Velocity P-wave (km/s) = 7.42628 8.41066 7.93375
#
# Compressibility (1/GPa) = 0.01590498
#
# Stress axis : x y z
#
# Youngs Moduli (GPa) = 67.02266 94.01041 55.97348
#
# Poissons Ratio (x) = 0.30190 0.33484
# Poissons Ratio (y) = 0.21523 0.25555
# Poissons Ratio (z) = 0.40094 0.42921
#
# Static dielectric constant tensor:
#      x y z
#    x 3.453090 0.000000 -0.003230 
#    y 0.000000 1.999910 0.000000 
#    z -0.003230 0.000000 3.278530 
# 
# 
# High freq. dielectric constant tensor:
#      x y z
#    x 1.699800 0.000000 0.005010 
#    y 0.000000 1.701880 0.000000 
#    z 0.005010 0.000000 1.681640 
# 
# From -- ./inp_files/61793.got.cif
#   From: 2010.06.25/outbox.cif.g09.slc.cpg/sg12_31_cif.got.tgz:61793.got - 2010.06.28 00:19:55.
