data_PCOD8083510
_publ_section_title
;
Structure prediction by ZEFSAII (Michael W. Deem and Ramdas Pophale) SiO2 
 PCOD8083510
Probable space group: C 2/M
;
_chemical_formula_sum "Si O2"
_cell_formula_units_Z 48
_cell_length_a 14.945386
_cell_length_b 16.664689
_cell_length_c 19.762596
_cell_angle_alpha 90.000000
_cell_angle_beta 33.194920
_cell_angle_gamma 90.000000
_cell_volume 2694.782789
_symmetry_space_group_name_H-M "C 2/M"
_symmetry_group_IT_number 12
_symmetry_cell_setting 'monoclinic'
loop_
_space_group_symop_operation_xyz
x,y,z
-x,y,-z
-x,-y,-z
x,-y,z
1/2+x,1/2+y,z
1/2-x,1/2+y,-z
1/2-x,1/2-y,-z
1/2+x,1/2-y,z
loop_
_atom_site_type_symbol
_atom_site_label
_atom_site_fract_x
_atom_site_fract_y
_atom_site_fract_z
Si Si1 0.131084 0.842487 0.967863
Si Si2 0.648667 0.761920 0.276653
Si Si3 0.576932 0.244284 0.795851
Si Si4 0.635944 0.688516 0.610593
Si Si5 0.446790 0.912184 0.821341
Si Si6 0.073776 0.410119 0.595415
O O1 0.227614 0.775545 0.863769
O O2 0.257954 0.906846 0.916858
O O3 0.000000 0.884630 0.000000
O O4 0.041226 0.800856 0.086914
O O5 0.745650 0.735075 0.282000
O O6 0.531564 0.688560 0.327056
O O7 0.549845 0.844094 0.357714
O O8 0.596677 0.283928 0.710730
O O9 0.494163 0.156551 0.844414
O O10 0.750000 0.750000 0.500000
O O11 0.736924 0.605085 0.546798
O O12 0.565309 0.903093 0.681859
O O13 0.469795 0.000000 0.840327
O O14 0.024267 0.500000 0.602570
#
# Coordination Sequence:
#
# PCOD8083510 Si02
#       6
#     8   8   8   8   8   8
#     4   9  18  33  55  80 101 132 174 216 258 308
#     4   9  19  33  54  81 100 139 178 209 255 315
#     4  11  19  33  57  77 104 137 177 216 251 311
#     4  10  18  33  50  77 103 137 180 205 254 308
#     4  10  19  33  53  77 105 137 170 213 263 307
#     4   9  18  35  53  75 109 137 167 219 265 299
#
# _framework density 17.812196
#
# number of rings (size 3 to 8) (size 9 to 14) (size 15 to 20)
#    0.000    2.333    5.000    0.500    0.000    3.000 
#    0.000    5.833    0.000    6.500    0.000    0.000 
#    0.000    0.000    0.000    0.000    0.000    0.000 
#
# Total GULP energy -297418.642346 kJ/mol
# GULP energy per Si atom -12392.443431 kJ/mol
# Density = 1.777166 g / cm^3
# Si number density = 17.812196 Si / 1000 Ang^3
#
#
#
# Elastic Constant Matrix: (Units=GPa)
#
#
# Indices 1 2 3 4 5 6 
#
# 1 109.1421 44.2676 31.8487 -0.0030 -19.5099 0.0011
# 2 44.2676 84.4523 34.0452 -0.0050 1.9026 0.0027
# 3 31.8487 34.0452 77.6047 -0.0090 -12.2755 0.0045
# 4 -0.0030 -0.0050 -0.0090 12.2480 0.0061 -5.9287
# 5 -19.5099 1.9026 -12.2755 0.0061 23.2331 -0.0031
# 6 0.0011 0.0027 0.0045 -5.9287 -0.0031 13.1387
#
#
#
# Elastic Compliance Matrix: (Units=1/GPa)
#
#
# Indices 1 2 3 4 5 6 
#
# 1 0.014772 -0.007769 -0.000645 -0.000006 0.012700 0.000001
# 2 -0.007769 0.019006 -0.007014 0.000006 -0.011787 -0.000001
# 3 -0.000645 -0.007014 0.017713 0.000005 0.009392 0.000000
# 4 -0.000006 0.000006 0.000005 0.104463 -0.000024 0.047138
# 5 0.012700 -0.011787 0.009392 -0.000024 0.059634 0.000001
# 6 0.000001 -0.000001 0.000000 0.047138 0.000001 0.097382
#
#
# Mechanical properties :
#
#
# Convention : Reuss Voigt Hill
#
# Bulk Modulus (GPa) = 48.46151 54.61357 51.53754
# Shear Modulus (GPa) = 14.25697 20.45980 17.35838
#
# Velocity S-wave (km/s) = 2.83221 3.39284 3.12512
# Velocity P-wave (km/s) = 6.16127 6.78791 6.48217
#
# Compressibility (1/GPa) = 0.02063493
#
# Stress axis : x y z
#
# Youngs Moduli (GPa) = 67.69582 52.61362 56.45481
#
# Poissons Ratio (x) = 0.40876 0.03642
# Poissons Ratio (y) = 0.52593 0.39598
# Poissons Ratio (z) = 0.04368 0.36904
#
# Static dielectric constant tensor:
#      x y z
#    x 3.437300 0.000000 -0.324110 
#    y 0.000000 3.359020 0.000010 
#    z -0.324110 0.000010 3.745130 
# 
# 
# High freq. dielectric constant tensor:
#      x y z
#    x 1.680300 0.000000 -0.011580 
#    y 0.000000 1.658290 0.000000 
#    z -0.011580 0.000000 1.698290 
# 
# From -- ./inp_files/144339.got.cif
#   From: 2010.06.25/outbox.cif.g09.slc.cpg/sg12_73_cif.got.tgz:144339.got - 2010.06.28 00:19:55.
