data_PCOD8083660
_publ_section_title
;
Structure prediction by ZEFSAII (Michael W. Deem and Ramdas Pophale) SiO2 
 PCOD8083660
Probable space group: C 2/M
;
_chemical_formula_sum "Si O2"
_cell_formula_units_Z 52
_cell_length_a 10.357127
_cell_length_b 16.917411
_cell_length_c 20.123702
_cell_angle_alpha 90.000000
_cell_angle_beta 45.976570
_cell_angle_gamma 90.000000
_cell_volume 2535.383132
_symmetry_space_group_name_H-M "C 2/M"
_symmetry_group_IT_number 12
_symmetry_cell_setting 'monoclinic'
loop_
_space_group_symop_operation_xyz
x,y,z
-x,y,-z
-x,-y,-z
x,-y,z
1/2+x,1/2+y,z
1/2-x,1/2+y,-z
1/2-x,1/2-y,-z
1/2+x,1/2-y,z
loop_
_atom_site_type_symbol
_atom_site_label
_atom_site_fract_x
_atom_site_fract_y
_atom_site_fract_z
Si Si1 0.906833 0.171890 0.317397
Si Si2 0.500000 0.799940 0.000000
Si Si3 0.899818 0.689592 0.676189
Si Si4 0.779380 0.906365 0.871482
Si Si5 0.334890 0.348079 0.994662
Si Si6 0.774048 0.910623 0.147764
Si Si7 0.647940 0.087113 0.502895
O O1 0.745823 0.209695 0.330188
O O2 0.829198 0.119798 0.405166
O O3 0.035615 0.234719 0.306290
O O4 0.028431 0.115112 0.227861
O O5 0.613625 0.853244 0.904237
O O6 0.386447 0.743814 0.989268
O O7 0.807547 0.631793 0.760057
O O8 0.077761 0.647584 0.583642
O O9 0.745045 0.871034 0.957946
O O10 0.747598 0.000000 0.878107
O O11 0.512742 0.402116 0.928193
O O12 0.205739 0.375071 0.101872
O O13 0.712381 0.000000 0.176564
O O14 0.500000 0.077808 0.500000
O O15 0.687034 0.000000 0.519728
#
# Coordination Sequence:
#
# PCOD8083660 Si02
#       7
#     8   4   8   8   8   8   8
#     4  11  23  39  62  90 123 160 204 248 308 370
#     4  10  23  38  55  82 116 154 202 256 309 364
#     4  11  22  38  62  90 122 159 202 253 304 366
#     4  12  23  38  60  85 120 163 208 255 311 369
#     4  10  20  36  56  83 112 154 201 249 302 364
#     4  10  18  33  55  84 113 146 199 254 299 345
#     4   9  19  37  63  94 121 150 200 259 306 356
#
# _framework density 20.509722
#
# number of rings (size 3 to 8) (size 9 to 14) (size 15 to 20)
#    0.000    1.692    1.538    5.769    0.000    1.231 
#    0.000    0.000    0.000    3.692    0.000    0.000 
#    0.000    0.000    0.000    0.000    0.000    0.000 
#
# Total GULP energy -322120.992698 kJ/mol
# GULP energy per Si atom -12389.268950 kJ/mol
# Density = 2.046304 g / cm^3
# Si number density = 20.509722 Si / 1000 Ang^3
#
#
#
# Elastic Constant Matrix: (Units=GPa)
#
#
# Indices 1 2 3 4 5 6 
#
# 1 57.0463 36.9714 21.4466 0.0020 -0.3882 0.0004
# 2 36.9714 142.2316 21.2943 0.0005 -5.5903 0.0004
# 3 21.4466 21.2943 101.5923 -0.0029 0.4279 -0.0014
# 4 0.0020 0.0005 -0.0029 -86.8748 -0.0004 -36.7903
# 5 -0.3882 -5.5903 0.4279 -0.0004 26.4569 0.0000
# 6 0.0004 0.0004 -0.0014 -36.7903 0.0000 -18.8034
#
#
#
# Elastic Compliance Matrix: (Units=1/GPa)
#
#
# Indices 1 2 3 4 5 6 
#
# 1 0.022304 -0.005288 -0.003597 0.000002 -0.000732 -0.000003
# 2 -0.005288 0.008577 -0.000689 -0.000001 0.001746 0.000001
# 3 -0.003597 -0.000689 0.010749 0.000000 -0.000372 0.000000
# 4 0.000002 -0.000001 0.000000 -0.067151 -0.000001 0.131386
# 5 -0.000732 0.001746 -0.000372 -0.000001 0.038162 0.000003
# 6 -0.000003 0.000001 0.000000 0.131386 0.000003 -0.310249
#
#
# Mechanical properties :
#
#
# Convention : Reuss Voigt Hill
#
# Bulk Modulus (GPa) = 44.47983 51.14387 47.81185
# Shear Modulus (GPa) = -18.45240 -1.10042 -9.77641
#
# Velocity S-wave (km/s) = -3.00274 -0.73328 -2.18565
# Velocity P-wave (km/s) = 3.11647 4.92683 4.12225
#
# Compressibility (1/GPa) = 0.02248210
#
# Stress axis : x y z
#
# Youngs Moduli (GPa) = 44.83498 116.59000 93.03565
#
# Poissons Ratio (x) = 0.61652 0.33465
# Poissons Ratio (y) = 0.23708 0.06409
# Poissons Ratio (z) = 0.16127 0.08031
#
# Static dielectric constant tensor:
#      x y z
#    x 3.970470 0.000000 0.140010 
#    y 0.000000 3.852550 0.000000 
#    z 0.140010 0.000000 4.100310 
# 
# 
# High freq. dielectric constant tensor:
#      x y z
#    x 1.780100 0.000000 0.000250 
#    y 0.000000 1.813450 0.000000 
#    z 0.000250 0.000000 1.810090 
# 
# From -- ./inp_files/306139.got.cif
#   From: 2010.06.25/outbox.cif.g09.slc.cpg/sg12_154_cif.got.tgz:306139.got - 2010.06.28 00:19:55.
