data_PCOD8083944
_publ_section_title
;
Structure prediction by ZEFSAII (Michael W. Deem and Ramdas Pophale) SiO2 
 PCOD8083944
Probable space group: C 2/M
;
_chemical_formula_sum "Si O2"
_cell_formula_units_Z 52
_cell_length_a 27.168974
_cell_length_b 13.553199
_cell_length_c 8.099442
_cell_angle_alpha 90.000000
_cell_angle_beta 65.485683
_cell_angle_gamma 90.000000
_cell_volume 2713.585996
_symmetry_space_group_name_H-M "C 2/M"
_symmetry_group_IT_number 12
_symmetry_cell_setting 'monoclinic'
loop_
_space_group_symop_operation_xyz
x,y,z
-x,y,-z
-x,-y,-z
x,-y,z
1/2+x,1/2+y,z
1/2-x,1/2+y,-z
1/2-x,1/2-y,-z
1/2+x,1/2-y,z
loop_
_atom_site_type_symbol
_atom_site_label
_atom_site_fract_x
_atom_site_fract_y
_atom_site_fract_z
Si Si1 0.911558 0.297331 0.856709
Si Si2 0.776271 0.886797 0.097369
Si Si3 0.000000 0.250130 0.500000
Si Si4 0.390872 0.389312 0.080448
Si Si5 0.939942 0.387899 0.135613
Si Si6 0.181990 0.754442 0.239548
Si Si7 0.909418 0.208769 0.390525
O O1 0.964573 0.319701 0.671383
O O2 0.857489 0.307346 0.825576
O O3 0.920025 0.185807 0.915048
O O4 0.904867 0.373187 0.017457
O O5 0.826190 0.876565 0.154481
O O6 0.727682 0.821226 0.239394
O O7 0.757922 0.000000 0.104830
O O8 0.791889 0.846598 0.893807
O O9 0.957618 0.183368 0.453165
O O10 0.408655 0.500000 0.007775
O O11 0.409415 0.368876 0.241944
O O12 0.936328 0.500000 0.202016
O O13 0.918058 0.320235 0.313013
O O14 0.000000 0.355468 0.000000
O O15 0.148721 0.797091 0.440136
#
# Coordination Sequence:
#
# PCOD8083944 Si02
#       7
#     8   8   4   8   8   8   8
#     4   9  18  34  53  73 105 136 172 211 249 307
#     4   9  18  35  55  75 105 136 169 213 262 309
#     4  10  18  34  52  72 104 138 164 212 262 290
#     4   9  19  35  54  74  99 137 173 211 261 308
#     4  10  19  33  51  72 102 142 174 202 247 301
#     4   9  19  33  54  81 102 135 171 212 261 299
#     4  10  20  34  54  76 106 135 173 215 249 308
#
# _framework density 19.162835000000001
#
# number of rings (size 3 to 8) (size 9 to 14) (size 15 to 20)
#    0.000    2.615    1.538    0.000    0.000    2.462 
#    0.000    7.692    0.000    0.000    0.000    0.000 
#    0.000    0.000    0.000    0.000    0.000    0.000 
#
# Total GULP energy -322343.295081 kJ/mol
# GULP energy per Si atom -12397.819042 kJ/mol
# Density = 1.911922 g / cm^3
# Si number density = 19.162835 Si / 1000 Ang^3
#
#
#
# Elastic Constant Matrix: (Units=GPa)
#
#
# Indices 1 2 3 4 5 6 
#
# 1 67.3644 22.4854 24.1528 0.0000 5.9963 0.0000
# 2 22.4854 74.2210 13.2931 0.0000 0.3612 0.0000
# 3 24.1528 13.2931 73.6674 0.0000 -1.0718 0.0000
# 4 0.0000 0.0000 0.0000 14.4650 0.0000 -0.3382
# 5 5.9963 0.3612 -1.0718 0.0000 30.9336 0.0000
# 6 0.0000 0.0000 0.0000 -0.3382 0.0000 20.5890
#
#
#
# Elastic Compliance Matrix: (Units=1/GPa)
#
#
# Indices 1 2 3 4 5 6 
#
# 1 0.018648 -0.004678 -0.005325 0.000000 -0.003745 0.000000
# 2 -0.004678 0.015099 -0.001181 0.000000 0.000690 0.000000
# 3 -0.005325 -0.001181 0.015556 0.000000 0.001585 0.000000
# 4 0.000000 0.000000 0.000000 0.069159 0.000000 0.001136
# 5 -0.003745 0.000690 0.001585 0.000000 0.033100 0.000000
# 6 0.000000 0.000000 0.000000 0.001136 0.000000 0.048588
#
#
# Mechanical properties :
#
#
# Convention : Reuss Voigt Hill
#
# Bulk Modulus (GPa) = 37.12337 37.23504 37.17921
# Shear Modulus (GPa) = 21.59867 23.55228 22.57547
#
# Velocity S-wave (km/s) = 3.36089 3.50960 3.43605
# Velocity P-wave (km/s) = 5.87158 5.99133 5.93176
#
# Compressibility (1/GPa) = 0.02693721
#
# Stress axis : x y z
#
# Youngs Moduli (GPa) = 53.62393 66.23158 64.28239
#
# Poissons Ratio (x) = 0.30981 0.34227
# Poissons Ratio (y) = 0.25084 0.07590
# Poissons Ratio (z) = 0.28552 0.07821
#
# Static dielectric constant tensor:
#      x y z
#    x 3.645250 0.000000 0.037050 
#    y 0.000000 3.217640 0.000000 
#    z 0.037050 0.000000 3.424390 
# 
# 
# High freq. dielectric constant tensor:
#      x y z
#    x 1.752770 0.000000 0.004080 
#    y 0.000000 1.715960 0.000000 
#    z 0.004080 0.000000 1.738870 
# 
# From -- ./inp_files/103952.got.cif
#   From: 2010.06.25/outbox.cif.g09.slc.cpg/sg12_52_cif.got.tgz:103952.got - 2010.06.28 00:19:55.
