data_PCOD8083797
_publ_section_title
;
Structure prediction by ZEFSAII (Michael W. Deem and Ramdas Pophale) SiO2 
 PCOD8083797
Probable space group: C 2/M
;
_chemical_formula_sum "Si O2"
_cell_formula_units_Z 64
_cell_length_a 15.368388
_cell_length_b 9.156863
_cell_length_c 23.893073
_cell_angle_alpha 90.000000
_cell_angle_beta 90.469291
_cell_angle_gamma 90.000000
_cell_volume 3362.269144
_symmetry_space_group_name_H-M "C 2/M"
_symmetry_group_IT_number 12
_symmetry_cell_setting 'monoclinic'
loop_
_space_group_symop_operation_xyz
x,y,z
-x,y,-z
-x,-y,-z
x,-y,z
1/2+x,1/2+y,z
1/2-x,1/2+y,-z
1/2-x,1/2-y,-z
1/2+x,1/2-y,z
loop_
_atom_site_type_symbol
_atom_site_label
_atom_site_fract_x
_atom_site_fract_y
_atom_site_fract_z
Si Si1 0.335641 0.828585 0.134196
Si Si2 0.640687 0.327913 0.137879
Si Si3 0.346866 0.166899 0.628144
Si Si4 0.152813 0.831400 0.638311
Si Si5 0.006447 0.173251 0.436919
Si Si6 0.496035 0.173152 0.063933
Si Si7 0.894411 0.330013 0.253218
Si Si8 0.596902 0.831649 0.248824
O O1 0.237472 0.789984 0.115680
O O2 0.404014 0.770327 0.088378
O O3 0.358175 0.761806 0.195124
O O4 0.349133 0.000000 0.139599
O O5 0.622528 0.500000 0.136727
O O6 0.574052 0.246692 0.097617
O O7 0.634588 0.272462 0.201268
O O8 0.246629 0.190266 0.609487
O O9 0.405712 0.268567 0.590202
O O10 0.354870 0.208370 0.693491
O O11 0.376960 0.000000 0.619534
O O12 0.154073 0.748242 0.696696
O O13 0.078194 0.769013 0.596955
O O14 0.135259 0.000000 0.651478
O O15 0.000000 0.232996 0.500000
O O16 0.010734 0.000000 0.436287
O O17 0.507057 0.000000 0.069787
O O18 0.500000 0.224452 0.000000
O O19 0.873173 0.500000 0.258100
O O20 0.996120 0.297606 0.257144
O O21 0.611531 0.000000 0.231312
#
# Coordination Sequence:
#
# PCOD8083797 Si02
#       8
#     8   8   8   8   8   8   8   8
#     4   9  19  36  55  80 112 144 177 219 272 328
#     4  11  22  35  56  84 114 143 177 226 276 320
#     4  10  21  37  57  83 111 142 180 229 277 320
#     4  10  21  36  55  81 113 141 177 229 277 324
#     4  10  22  39  56  77 109 148 187 229 277 330
#     4  10  21  40  62  79 105 150 193 226 270 327
#     4  10  18  33  58  81 109 145 179 218 268 330
#     4  10  19  34  57  82 112 144 178 219 269 333
#
# _framework density 19.034763999999999
#
# number of rings (size 3 to 8) (size 9 to 14) (size 15 to 20)
#    0.000    2.000    2.500    1.125    0.000    3.000 
#    0.000    1.875    0.000    0.000    0.000    0.000 
#    0.000    0.000    0.000    0.000    0.000    0.000 
#
# Total GULP energy -396852.124202 kJ/mol
# GULP energy per Si atom -12401.628881 kJ/mol
# Density = 1.899144 g / cm^3
# Si number density = 19.034764 Si / 1000 Ang^3
#
#
#
# Elastic Constant Matrix: (Units=GPa)
#
#
# Indices 1 2 3 4 5 6 
#
# 1 117.7279 28.7722 56.9600 0.0000 -11.4765 0.0000
# 2 28.7722 31.7256 28.1786 0.0000 -6.2187 0.0000
# 3 56.9600 28.1786 121.9336 0.0000 -11.7630 0.0000
# 4 0.0000 0.0000 0.0000 27.1659 0.0000 -1.8392
# 5 -11.4765 -6.2187 -11.7630 0.0000 13.3731 0.0000
# 6 0.0000 0.0000 0.0000 -1.8392 0.0000 22.9493
#
#
#
# Elastic Compliance Matrix: (Units=1/GPa)
#
#
# Indices 1 2 3 4 5 6 
#
# 1 0.012466 -0.007155 -0.003779 0.000000 0.004046 0.000000
# 2 -0.007155 0.045408 -0.006236 0.000000 0.009490 0.000000
# 3 -0.003779 -0.006236 0.011818 0.000000 0.004252 0.000000
# 4 0.000000 0.000000 0.000000 0.037012 0.000000 0.002966
# 5 0.004046 0.009490 0.004252 0.000000 0.086402 0.000000
# 6 0.000000 0.000000 0.000000 0.002966 0.000000 0.043812
#
#
# Mechanical properties :
#
#
# Convention : Reuss Voigt Hill
#
# Bulk Modulus (GPa) = 28.28760 55.46764 41.87762
# Shear Modulus (GPa) = 17.66516 23.19609 20.43062
#
# Velocity S-wave (km/s) = 3.04969 3.49466 3.27973
# Velocity P-wave (km/s) = 5.22438 6.74440 6.03246
#
# Compressibility (1/GPa) = 0.03535118
#
# Stress axis : x y z
#
# Youngs Moduli (GPa) = 80.21861 22.02238 84.61733
#
# Poissons Ratio (x) = 0.15758 0.31980
# Poissons Ratio (y) = 0.57400 0.52764
# Poissons Ratio (z) = 0.30318 0.13732
#
# Static dielectric constant tensor:
#      x y z
#    x 3.632020 0.000000 0.023830 
#    y 0.000000 3.260470 0.000000 
#    z 0.023830 0.000000 3.577870 
# 
# 
# High freq. dielectric constant tensor:
#      x y z
#    x 1.755450 0.000000 0.001990 
#    y 0.000000 1.718560 0.000000 
#    z 0.001990 0.000000 1.737400 
# 
# From -- ./inp_files/338858.got.cif
#   From: 2010.06.25/outbox.cif.g09.slc.cpg/sg12_170_cif.got.tgz:338858.got - 2010.06.28 00:19:55.
