data_PCOD8083020
_publ_section_title
;
Structure prediction by ZEFSAII (Michael W. Deem and Ramdas Pophale) SiO2 
 PCOD8083020
Probable space group: C 2/M
;
_chemical_formula_sum "Si O2"
_cell_formula_units_Z 36
_cell_length_a 14.883789
_cell_length_b 11.998692
_cell_length_c 11.936315
_cell_angle_alpha 90.000000
_cell_angle_beta 69.956580
_cell_angle_gamma 90.000000
_cell_volume 2002.550917
_symmetry_space_group_name_H-M "C 2/M"
_symmetry_group_IT_number 12
_symmetry_cell_setting 'monoclinic'
loop_
_space_group_symop_operation_xyz
x,y,z
-x,y,-z
-x,-y,-z
x,-y,z
1/2+x,1/2+y,z
1/2-x,1/2+y,-z
1/2-x,1/2-y,-z
1/2+x,1/2-y,z
loop_
_atom_site_type_symbol
_atom_site_label
_atom_site_fract_x
_atom_site_fract_y
_atom_site_fract_z
Si Si1 0.471730 0.129444 0.638606
Si Si2 0.655119 0.373181 0.021718
Si Si3 0.500000 0.214572 0.000000
Si Si4 0.624311 0.873165 0.755546
Si Si5 0.218353 0.254653 0.200528
O O1 0.500000 0.154449 0.500000
O O2 0.560713 0.166338 0.677661
O O3 0.379842 0.202597 0.706411
O O4 0.447054 0.000000 0.669239
O O5 0.620275 0.500000 0.035110
O O6 0.564427 0.292598 0.050786
O O7 0.704661 0.346930 0.119128
O O8 0.728701 0.354890 0.887593
O O9 0.437070 0.134969 0.104533
O O10 0.716241 0.792300 0.725950
O O11 0.658350 0.000000 0.724295
#
# Coordination Sequence:
#
# PCOD8083020 Si02
#       5
#     8   8   4   8   8
#     4  10  21  38  58  78 105 143 183 221 260 312
#     4  10  19  31  50  79 113 141 171 217 269 320
#     4  10  18  32  52  80 108 144 172 216 266 320
#     4  10  20  34  55  81 108 140 179 218 264 318
#     4  10  20  34  53  80 108 142 177 219 267 314
#
# _framework density 17.977070999999999
#
# number of rings (size 3 to 8) (size 9 to 14) (size 15 to 20)
#    0.000    2.000    2.222    2.000    0.000    0.889 
#    0.000    0.000    0.000    2.667    0.000    0.000 
#    0.000    0.000    0.000    0.000    0.000    0.000 
#
# Total GULP energy -223241.915803 kJ/mol
# GULP energy per Si atom -12402.328656 kJ/mol
# Density = 1.793615 g / cm^3
# Si number density = 17.977071 Si / 1000 Ang^3
#
#
#
# Elastic Constant Matrix: (Units=GPa)
#
#
# Indices 1 2 3 4 5 6 
#
# 1 138.2999 46.3947 55.2127 0.0000 14.2268 0.0000
# 2 46.3947 73.5961 33.1928 0.0000 1.3860 0.0000
# 3 55.2127 33.1928 72.8158 0.0000 9.5261 0.0000
# 4 0.0000 0.0000 0.0000 12.6087 0.0000 4.7618
# 5 14.2268 1.3860 9.5261 0.0000 26.6080 0.0000
# 6 0.0000 0.0000 0.0000 4.7618 0.0000 17.0734
#
#
#
# Elastic Compliance Matrix: (Units=1/GPa)
#
#
# Indices 1 2 3 4 5 6 
#
# 1 0.011609 -0.004403 -0.006309 0.000000 -0.003719 0.000000
# 2 -0.004403 0.018875 -0.005713 0.000000 0.003416 0.000000
# 3 -0.006309 -0.005713 0.021655 0.000000 -0.004082 0.000000
# 4 0.000000 0.000000 0.000000 0.088648 0.000000 -0.024724
# 5 -0.003719 0.003416 -0.004082 0.000000 0.040855 0.000000
# 6 0.000000 0.000000 0.000000 -0.024724 0.000000 0.065466
#
#
# Mechanical properties :
#
#
# Convention : Reuss Voigt Hill
#
# Bulk Modulus (GPa) = 51.83892 61.59024 56.71458
# Shear Modulus (GPa) = 17.45888 21.25213 19.35551
#
# Velocity S-wave (km/s) = 3.11975 3.44201 3.28484
# Velocity P-wave (km/s) = 6.47115 7.08036 6.78260
#
# Compressibility (1/GPa) = 0.01929052
#
# Stress axis : x y z
#
# Youngs Moduli (GPa) = 86.14101 52.97912 46.17822
#
# Poissons Ratio (x) = 0.23325 0.29134
# Poissons Ratio (y) = 0.37926 0.26381
# Poissons Ratio (z) = 0.54346 0.30266
#
# Static dielectric constant tensor:
#      x y z
#    x 3.508900 0.000000 0.162030 
#    y 0.000000 3.098160 0.000000 
#    z 0.162030 0.000000 3.107450 
# 
# 
# High freq. dielectric constant tensor:
#      x y z
#    x 1.712420 0.000000 0.011370 
#    y 0.000000 1.685130 0.000000 
#    z 0.011370 0.000000 1.673460 
# 
# From -- ./inp_files/139513.got.cif
#   From: 2010.06.25/outbox.cif.g09.slc.cpg/sg12_70_cif.got.tgz:139513.got - 2010.06.28 00:19:55.
