data_PCOD8083912
_publ_section_title
;
Structure prediction by ZEFSAII (Michael W. Deem and Ramdas Pophale) SiO2 
 PCOD8083912
Probable space group: C 2/M
;
_chemical_formula_sum "Si O2"
_cell_formula_units_Z 48
_cell_length_a 26.547122
_cell_length_b 13.364986
_cell_length_c 9.028178
_cell_angle_alpha 90.000000
_cell_angle_beta 44.235798
_cell_angle_gamma 90.000000
_cell_volume 2234.603949
_symmetry_space_group_name_H-M "C 2/M"
_symmetry_group_IT_number 12
_symmetry_cell_setting 'monoclinic'
loop_
_space_group_symop_operation_xyz
x,y,z
-x,y,-z
-x,-y,-z
x,-y,z
1/2+x,1/2+y,z
1/2-x,1/2+y,-z
1/2-x,1/2-y,-z
1/2+x,1/2-y,z
loop_
_atom_site_type_symbol
_atom_site_label
_atom_site_fract_x
_atom_site_fract_y
_atom_site_fract_z
Si Si1 0.719988 0.724992 0.904282
Si Si2 0.137526 0.385614 0.891476
Si Si3 0.501385 0.805673 0.665103
Si Si4 0.583709 0.611606 0.140347
Si Si5 0.859658 0.697983 0.440809
Si Si6 0.081682 0.888526 0.812395
O O1 0.694030 0.821288 0.866800
O O2 0.783187 0.673291 0.676356
O O3 0.750000 0.750000 0.000000
O O4 0.653097 0.651589 0.082844
O O5 0.159220 0.500000 0.869566
O O6 0.137466 0.362053 0.717602
O O7 0.057422 0.364729 0.117100
O O8 0.500000 0.845364 0.500000
O O9 0.485081 0.685459 0.698590
O O10 0.577834 0.833365 0.576404
O O11 0.560883 0.500000 0.240504
O O12 0.613707 0.609831 0.909418
O O13 0.869239 0.816807 0.390516
O O14 0.080677 0.000000 0.743376
O O15 0.000000 0.846307 0.000000
#
# Coordination Sequence:
#
# PCOD8083912 Si02
#       6
#     8   8   8   8   8   8
#     4  11  25  44  63  91 131 170 206 258 323 381
#     4  11  25  44  65  92 124 168 220 262 306 372
#     4  11  23  41  65  94 129 165 205 261 322 379
#     4  10  21  39  62  91 126 160 202 255 314 377
#     4  12  21  40  67  93 123 164 214 263 311 370
#     4  10  18  33  61  96 124 151 198 260 315 364
#
# _framework density 21.480316999999999
#
# number of rings (size 3 to 8) (size 9 to 14) (size 15 to 20)
#    0.000    1.167    5.000    3.000    0.000    4.000 
#    0.000    3.333    0.000    0.000    0.000    0.000 
#    0.000    0.000    0.000    0.000    0.000    0.000 
#
# Total GULP energy -297590.444529 kJ/mol
# GULP energy per Si atom -12399.601855 kJ/mol
# Density = 2.143143 g / cm^3
# Si number density = 21.480317 Si / 1000 Ang^3
#
#
#
# Elastic Constant Matrix: (Units=GPa)
#
#
# Indices 1 2 3 4 5 6 
#
# 1 142.3728 33.7580 8.9240 0.0000 1.8996 0.0000
# 2 33.7580 78.0829 17.4910 0.0000 2.4256 0.0000
# 3 8.9240 17.4910 59.6127 0.0000 -2.5567 0.0000
# 4 0.0000 0.0000 0.0000 6.5632 0.0000 -1.9527
# 5 1.8996 2.4256 -2.5567 0.0000 39.9761 0.0000
# 6 0.0000 0.0000 0.0000 -1.9527 0.0000 17.9306
#
#
#
# Elastic Compliance Matrix: (Units=1/GPa)
#
#
# Indices 1 2 3 4 5 6 
#
# 1 0.007829 -0.003334 -0.000202 0.000000 -0.000183 0.000000
# 2 -0.003334 0.015175 -0.003997 0.000000 -0.001018 0.000000
# 3 -0.000202 -0.003997 0.018038 0.000000 0.001406 0.000000
# 4 0.000000 0.000000 0.000000 0.157466 0.000000 0.017149
# 5 -0.000183 -0.001018 0.001406 0.000000 0.025175 0.000000
# 6 0.000000 0.000000 0.000000 0.017149 0.000000 0.057638
#
#
# Mechanical properties :
#
#
# Convention : Reuss Voigt Hill
#
# Bulk Modulus (GPa) = 38.49524 44.49050 41.49287
# Shear Modulus (GPa) = 16.39088 27.55368 21.97228
#
# Velocity S-wave (km/s) = 2.76536 3.58542 3.20176
# Velocity P-wave (km/s) = 5.30626 6.15610 5.74691
#
# Compressibility (1/GPa) = 0.02597724
#
# Stress axis : x y z
#
# Youngs Moduli (GPa) = 127.72309 65.89629 55.43776
#
# Poissons Ratio (x) = 0.21970 0.01118
# Poissons Ratio (y) = 0.42584 0.22159
# Poissons Ratio (z) = 0.02575 0.26340
#
# Static dielectric constant tensor:
#      x y z
#    x 4.061030 0.000000 -0.026350 
#    y 0.000000 3.866370 0.000000 
#    z -0.026350 0.000000 3.925350 
# 
# 
# High freq. dielectric constant tensor:
#      x y z
#    x 1.858050 0.000000 0.002530 
#    y 0.000000 1.824790 0.000000 
#    z 0.002530 0.000000 1.832860 
# 
# From -- ./inp_files/104925.got.cif
#   From: 2010.06.25/outbox.cif.g09.slc.cpg/sg12_53_cif.got.tgz:104925.got - 2010.06.28 00:19:55.
