data_PCOD8083384
_publ_section_title
;
Structure prediction by ZEFSAII (Michael W. Deem and Ramdas Pophale) SiO2 
 PCOD8083384
Probable space group: C 2/M
;
_chemical_formula_sum "Si O2"
_cell_formula_units_Z 48
_cell_length_a 20.536560
_cell_length_b 9.242175
_cell_length_c 14.839335
_cell_angle_alpha 90.000000
_cell_angle_beta 71.698439
_cell_angle_gamma 90.000000
_cell_volume 2674.073213
_symmetry_space_group_name_H-M "C 2/M"
_symmetry_group_IT_number 12
_symmetry_cell_setting 'monoclinic'
loop_
_space_group_symop_operation_xyz
x,y,z
-x,y,-z
-x,-y,-z
x,-y,z
1/2+x,1/2+y,z
1/2-x,1/2+y,-z
1/2-x,1/2-y,-z
1/2+x,1/2-y,z
loop_
_atom_site_type_symbol
_atom_site_label
_atom_site_fract_x
_atom_site_fract_y
_atom_site_fract_z
Si Si1 0.945734 0.328521 0.266172
Si Si2 0.290296 0.330988 0.559951
Si Si3 0.457676 0.828952 0.934687
Si Si4 0.695110 0.172132 0.962473
Si Si5 0.694569 0.170259 0.759669
Si Si6 0.556141 0.669122 0.548225
O O1 0.942567 0.500000 0.281177
O O2 0.874675 0.267658 0.255556
O O3 0.960162 0.255780 0.354870
O O4 0.007560 0.280897 0.173803
O O5 0.278992 0.500000 0.547979
O O6 0.250000 0.250000 0.500000
O O7 0.259759 0.285332 0.670403
O O8 0.369821 0.287756 0.523853
O O9 0.459739 0.000000 0.943931
O O10 0.500000 0.761077 0.000000
O O11 0.379410 0.775918 0.970997
O O12 0.705140 0.229812 0.855861
O O13 0.704394 0.000000 0.965535
O O14 0.750000 0.250000 0.000000
O O15 0.685080 0.000000 0.771082
O O16 0.500000 0.716134 0.500000
O O17 0.552034 0.500000 0.572157
#
# Coordination Sequence:
#
# PCOD8083384 Si02
#       6
#     8   8   8   8   8   8
#     4  10  18  32  57  82 100 130 180 224 254 296
#     4  10  19  33  54  78 102 134 177 217 255 305
#     4   9  16  30  55  81 102 132 175 217 255 302
#     4  10  20  35  54  79 110 139 169 211 262 311
#     4   9  17  31  54  78 100 133 175 214 255 305
#     4  10  22  37  51  74 111 145 168 206 267 321
#
# _framework density 17.950144999999999
#
# number of rings (size 3 to 8) (size 9 to 14) (size 15 to 20)
#    0.000    2.333    3.333    0.000    0.000    1.667 
#    0.000    4.167    0.000    1.000    0.000    0.000 
#    0.000    0.000    0.000    0.000    0.000    0.000 
#
# Total GULP energy -297586.515213 kJ/mol
# GULP energy per Si atom -12399.438134 kJ/mol
# Density = 1.790929 g / cm^3
# Si number density = 17.950145 Si / 1000 Ang^3
#
#
#
# Elastic Constant Matrix: (Units=GPa)
#
#
# Indices 1 2 3 4 5 6 
#
# 1 170.4729 39.0087 105.9042 0.0000 0.3507 0.0000
# 2 39.0087 26.4956 41.9826 0.0000 2.7370 0.0000
# 3 105.9042 41.9826 190.3499 0.0000 -3.9920 0.0000
# 4 0.0000 0.0000 0.0000 25.2018 0.0000 5.2067
# 5 0.3507 2.7370 -3.9920 0.0000 37.7413 0.0000
# 6 0.0000 0.0000 0.0000 5.2067 0.0000 24.6009
#
#
#
# Elastic Compliance Matrix: (Units=1/GPa)
#
#
# Indices 1 2 3 4 5 6 
#
# 1 0.010275 -0.009371 -0.003645 0.000000 0.000199 0.000000
# 2 -0.009371 0.067759 -0.009854 0.000000 -0.005869 0.000000
# 3 -0.003645 -0.009854 0.009492 0.000000 0.001752 0.000000
# 4 0.000000 0.000000 0.000000 0.041494 0.000000 -0.008782
# 5 0.000199 -0.005869 0.001752 0.000000 0.027105 0.000000
# 6 0.000000 0.000000 0.000000 -0.008782 0.000000 0.042508
#
#
# Mechanical properties :
#
#
# Convention : Reuss Voigt Hill
#
# Bulk Modulus (GPa) = 23.93246 84.56769 54.25008
# Shear Modulus (GPa) = 19.35721 30.87035 25.11378
#
# Velocity S-wave (km/s) = 3.28744 4.15153 3.74449
# Velocity P-wave (km/s) = 5.26986 8.37825 6.99880
#
# Compressibility (1/GPa) = 0.04178426
#
# Stress axis : x y z
#
# Youngs Moduli (GPa) = 97.32603 14.75819 105.35520
#
# Poissons Ratio (x) = 0.13831 0.38406
# Poissons Ratio (y) = 0.91209 1.03814
# Poissons Ratio (z) = 0.35479 0.14542
#
# Static dielectric constant tensor:
#      x y z
#    x 3.851600 0.000000 -0.659930 
#    y 0.000000 2.923230 0.000000 
#    z -0.659930 0.000000 4.263230 
# 
# 
# High freq. dielectric constant tensor:
#      x y z
#    x 1.699670 0.000000 -0.008100 
#    y 0.000000 1.652000 0.000000 
#    z -0.008100 0.000000 1.711910 
# 
# From -- ./inp_files/229820.got.cif
#   From: 2010.06.25/outbox.cif.g09.slc.cpg/sg12_115_cif.got.tgz:229820.got - 2010.06.28 00:19:55.
