data_PCOD8083529
_publ_section_title
;
Structure prediction by ZEFSAII (Michael W. Deem and Ramdas Pophale) SiO2 
 PCOD8083529
Probable space group: C 2/M
;
_chemical_formula_sum "Si O2"
_cell_formula_units_Z 52
_cell_length_a 20.918448
_cell_length_b 13.299841
_cell_length_c 25.383754
_cell_angle_alpha 90.000000
_cell_angle_beta 156.941722
_cell_angle_gamma 90.000000
_cell_volume 2765.979613
_symmetry_space_group_name_H-M "C 2/M"
_symmetry_group_IT_number 12
_symmetry_cell_setting 'monoclinic'
loop_
_space_group_symop_operation_xyz
x,y,z
-x,y,-z
-x,-y,-z
x,-y,z
1/2+x,1/2+y,z
1/2-x,1/2+y,-z
1/2-x,1/2-y,-z
1/2+x,1/2-y,z
loop_
_atom_site_type_symbol
_atom_site_label
_atom_site_fract_x
_atom_site_fract_y
_atom_site_fract_z
Si Si1 0.166771 0.617636 0.151835
Si Si2 0.838622 0.385351 0.653073
Si Si3 0.000000 0.256524 0.500000
Si Si4 0.845875 0.751129 0.759109
Si Si5 0.434557 0.615231 0.006960
Si Si6 0.998095 0.193230 0.612005
Si Si7 0.947930 0.613301 0.285735
O O1 0.158714 0.500000 0.150479
O O2 0.178433 0.660364 0.219012
O O3 0.325941 0.647921 0.236845
O O4 0.000000 0.660249 0.000000
O O5 0.849656 0.500000 0.683102
O O6 0.877797 0.300928 0.726935
O O7 0.661039 0.369340 0.490299
O O8 0.974826 0.367015 0.712429
O O9 0.826131 0.316267 0.369340
O O10 0.007958 0.184616 0.455500
O O11 0.989859 0.824364 0.886374
O O12 0.486179 0.500000 0.053495
O O13 0.500000 0.654832 0.000000
O O14 0.243332 0.631241 0.864754
O O15 0.980611 0.308611 0.617775
O O16 0.985761 0.500000 0.334476
#
# Coordination Sequence:
#
# PCOD8083529 Si02
#       7
#     8   8   4   8   8   8   8
#     4  10  19  30  49  78 106 132 168 214 259 305
#     4  10  21  35  52  75 104 140 176 211 256 310
#     4   8  18  30  48  76  98 122 160 202 250 302
#     4  10  18  33  52  74 104 136 168 208 257 307
#     4  10  20  35  56  79 103 135 175 218 262 307
#     4  10  18  34  54  74 103 137 170 211 262 312
#     4  10  21  36  54  76 101 134 178 219 256 308
#
# _framework density 18.799848000000001
#
# number of rings (size 3 to 8) (size 9 to 14) (size 15 to 20)
#    0.000    2.154    0.000    4.615    0.000    0.615 
#    0.000    8.462    0.000    1.846    0.000    0.000 
#    0.000    0.000    0.000    0.000    0.000    0.000 
#
# Total GULP energy -322126.589178 kJ/mol
# GULP energy per Si atom -12389.484199 kJ/mol
# Density = 1.875706 g / cm^3
# Si number density = 18.799848 Si / 1000 Ang^3
#
#
#
# Elastic Constant Matrix: (Units=GPa)
#
#
# Indices 1 2 3 4 5 6 
#
# 1 89.6103 42.4268 57.3645 -0.0010 14.4522 -0.0028
# 2 42.4268 93.1995 36.9330 -0.0026 -4.7231 -0.0035
# 3 57.3645 36.9330 104.8194 -0.0056 12.6026 -0.0131
# 4 -0.0010 -0.0026 -0.0056 24.5656 0.0022 -11.3290
# 5 14.4522 -4.7231 12.6026 0.0022 30.3115 0.0019
# 6 -0.0028 -0.0035 -0.0131 -11.3290 0.0019 9.7757
#
#
#
# Elastic Compliance Matrix: (Units=1/GPa)
#
#
# Indices 1 2 3 4 5 6 
#
# 1 0.020665 -0.006584 -0.008086 -0.000008 -0.007517 -0.000015
# 2 -0.006584 0.015039 -0.002479 -0.000001 0.006513 -0.000002
# 3 -0.008086 -0.002479 0.015181 0.000024 -0.002843 0.000046
# 4 -0.000008 -0.000001 0.000024 0.087440 -0.000019 0.101334
# 5 -0.007517 0.006513 -0.002843 -0.000019 0.038772 -0.000034
# 6 -0.000015 -0.000002 0.000046 0.101334 -0.000034 0.219731
#
#
# Mechanical properties :
#
#
# Convention : Reuss Voigt Hill
#
# Bulk Modulus (GPa) = 60.28616 62.34197 61.31407
# Shear Modulus (GPa) = 11.45070 22.99089 17.22080
#
# Velocity S-wave (km/s) = 2.47064 3.50083 3.02984
# Velocity P-wave (km/s) = 6.34632 7.04088 6.70260
#
# Compressibility (1/GPa) = 0.01658755
#
# Stress axis : x y z
#
# Youngs Moduli (GPa) = 48.39057 66.49240 65.87378
#
# Poissons Ratio (x) = 0.43779 0.53264
# Poissons Ratio (y) = 0.31861 0.16330
# Poissons Ratio (z) = 0.39127 0.16483
#
# Static dielectric constant tensor:
#      x y z
#    x 3.303220 0.000000 0.135650 
#    y 0.000000 3.343150 -0.000010 
#    z 0.135650 -0.000010 3.962280 
# 
# 
# High freq. dielectric constant tensor:
#      x y z
#    x 1.712900 0.000000 0.014280 
#    y 0.000000 1.719140 0.000000 
#    z 0.014280 0.000000 1.746510 
# 
# From -- ./inp_files/366479.got.cif
#   From: 2010.06.25/outbox.cif.g09.slc.cpg/sg12_184_cif.got.tgz:366479.got - 2010.06.28 00:19:55.
