data_PCOD8083507
_publ_section_title
;
Structure prediction by ZEFSAII (Michael W. Deem and Ramdas Pophale) SiO2 
 PCOD8083507
Probable space group: C 2/M
;
_chemical_formula_sum "Si O2"
_cell_formula_units_Z 56
_cell_length_a 9.293522
_cell_length_b 26.589572
_cell_length_c 22.618606
_cell_angle_alpha 90.000000
_cell_angle_beta 146.516587
_cell_angle_gamma 90.000000
_cell_volume 3083.592622
_symmetry_space_group_name_H-M "C 2/M"
_symmetry_group_IT_number 12
_symmetry_cell_setting 'monoclinic'
loop_
_space_group_symop_operation_xyz
x,y,z
-x,y,-z
-x,-y,-z
x,-y,z
1/2+x,1/2+y,z
1/2-x,1/2+y,-z
1/2-x,1/2-y,-z
1/2+x,1/2-y,z
loop_
_atom_site_type_symbol
_atom_site_label
_atom_site_fract_x
_atom_site_fract_y
_atom_site_fract_z
Si Si1 0.410487 0.940833 0.878768
Si Si2 0.266895 0.793469 0.626675
Si Si3 0.084261 0.940506 0.877825
Si Si4 0.266016 0.558019 0.306714
Si Si5 0.610239 0.710283 0.409247
Si Si6 0.459176 0.109000 0.305053
Si Si7 0.825027 0.399979 0.493628
O O1 0.197508 0.921663 0.853561
O O2 0.355896 0.917713 0.795184
O O3 0.374340 0.000000 0.864018
O O4 0.702902 0.927668 0.999023
O O5 0.372531 0.736995 0.648996
O O6 0.499940 0.831280 0.689432
O O7 0.000000 0.808548 0.500000
O O8 0.187262 0.796911 0.668915
O O9 0.833923 0.907753 0.809517
O O10 0.017345 0.000000 0.854475
O O11 0.191909 0.500000 0.285151
O O12 0.574182 0.564958 0.410628
O O13 0.158177 0.583812 0.328032
O O14 0.750000 0.750000 0.500000
O O15 0.757895 0.657889 0.457817
O O16 0.519967 0.092738 0.392528
O O17 0.000000 0.420484 0.500000
#
# Coordination Sequence:
#
# PCOD8083507 Si02
#       7
#     8   8   8   8   8   8   8
#     4   8  17  37  57  76 102 140 191 232 263 307
#     4  10  18  33  50  75 108 138 175 225 268 314
#     4   9  18  34  58  80 106 142 182 229 269 315
#     4  11  23  37  53  75 114 153 180 219 266 321
#     4  10  18  33  54  73 101 141 178 224 268 307
#     4  12  21  33  50  81 115 139 179 221 274 331
#     4  12  23  35  52  78 110 145 186 219 264 334
#
# _framework density 18.160634999999999
#
# number of rings (size 3 to 8) (size 9 to 14) (size 15 to 20)
#    0.000    1.714    4.286    3.857    0.000    2.571 
#    0.000    2.143    0.000    0.000    0.000    1.000 
#    0.000    0.000    0.000    0.000    0.000    0.000 
#
# Total GULP energy -347078.412371 kJ/mol
# GULP energy per Si atom -12395.657585 kJ/mol
# Density = 1.811930 g / cm^3
# Si number density = 18.160635 Si / 1000 Ang^3
#
#
#
# Elastic Constant Matrix: (Units=GPa)
#
#
# Indices 1 2 3 4 5 6 
#
# 1 121.8164 8.7546 33.5504 0.0000 9.1170 0.0001
# 2 8.7546 41.2016 11.0299 0.0000 5.1408 0.0000
# 3 33.5504 11.0299 59.9035 0.0003 10.1544 0.0000
# 4 0.0000 0.0000 0.0003 12.0037 0.0002 4.5824
# 5 9.1170 5.1408 10.1544 0.0002 27.8329 0.0000
# 6 0.0001 0.0000 0.0000 4.5824 0.0000 31.7840
#
#
#
# Elastic Compliance Matrix: (Units=1/GPa)
#
#
# Indices 1 2 3 4 5 6 
#
# 1 0.009760 -0.000541 -0.005161 0.000000 -0.001214 0.000000
# 2 -0.000541 0.025829 -0.003917 0.000000 -0.003165 0.000000
# 3 -0.005161 -0.003917 0.021208 -0.000001 -0.005323 0.000000
# 4 0.000000 0.000000 -0.000001 0.088160 0.000000 -0.012710
# 5 -0.001214 -0.003165 -0.005323 0.000000 0.038853 0.000000
# 6 0.000000 0.000000 0.000000 -0.012710 0.000000 0.033295
#
#
# Mechanical properties :
#
#
# Convention : Reuss Voigt Hill
#
# Bulk Modulus (GPa) = 26.62387 36.62125 31.62256
# Shear Modulus (GPa) = 20.09146 25.62988 22.86067
#
# Velocity S-wave (km/s) = 3.32975 3.76079 3.55181
# Velocity P-wave (km/s) = 5.42909 6.25036 5.85414
#
# Compressibility (1/GPa) = 0.03756027
#
# Stress axis : x y z
#
# Youngs Moduli (GPa) = 102.45618 38.71596 47.15286
#
# Poissons Ratio (x) = 0.02093 0.24336
# Poissons Ratio (y) = 0.05540 0.18468
# Poissons Ratio (z) = 0.52878 0.15163
#
# Static dielectric constant tensor:
#      x y z
#    x 4.079090 0.000000 -0.148720 
#    y 0.000000 3.292260 0.000000 
#    z -0.148720 0.000000 3.216820 
# 
# 
# High freq. dielectric constant tensor:
#      x y z
#    x 1.728740 0.000000 0.002480 
#    y 0.000000 1.684400 0.000000 
#    z 0.002480 0.000000 1.664250 
# 
# From -- ./inp_files/303069.got.cif
#   From: 2010.06.25/outbox.cif.g09.slc.cpg/sg12_152_cif.got.tgz:303069.got - 2010.06.28 00:19:55.
