data_PCOD8083633
_publ_section_title
;
Structure prediction by ZEFSAII (Michael W. Deem and Ramdas Pophale) SiO2 
 PCOD8083633
Probable space group: C 2/M
;
_chemical_formula_sum "Si O2"
_cell_formula_units_Z 64
_cell_length_a 19.981438
_cell_length_b 8.851153
_cell_length_c 24.988296
_cell_angle_alpha 90.000000
_cell_angle_beta 128.415929
_cell_angle_gamma 90.000000
_cell_volume 3462.690904
_symmetry_space_group_name_H-M "C 2/M"
_symmetry_group_IT_number 12
_symmetry_cell_setting 'monoclinic'
loop_
_space_group_symop_operation_xyz
x,y,z
-x,y,-z
-x,-y,-z
x,-y,z
1/2+x,1/2+y,z
1/2-x,1/2+y,-z
1/2-x,1/2-y,-z
1/2+x,1/2-y,z
loop_
_atom_site_type_symbol
_atom_site_label
_atom_site_fract_x
_atom_site_fract_y
_atom_site_fract_z
Si Si1 0.810466 0.673481 0.671931
Si Si2 0.443799 0.322047 0.923657
Si Si3 0.032056 0.676734 0.176083
Si Si4 0.415915 0.176250 0.210763
Si Si5 0.170354 0.178224 0.430924
Si Si6 0.751673 0.176492 0.819632
Si Si7 0.504435 0.179101 0.638967
Si Si8 0.164341 0.174635 0.677495
O O1 0.824092 0.500000 0.660283
O O2 0.877230 0.714480 0.751842
O O3 0.827137 0.781048 0.630298
O O4 0.714867 0.698960 0.646890
O O5 0.454091 0.500000 0.926347
O O6 0.477957 0.258656 0.885048
O O7 0.345542 0.275158 0.885361
O O8 0.500000 0.254170 0.000000
O O9 0.021644 0.500000 0.160342
O O10 0.956977 0.743953 0.177209
O O11 0.314784 0.212072 0.164991
O O12 0.463759 0.238133 0.287260
O O13 0.434796 0.000000 0.218711
O O14 0.250000 0.250000 0.500000
O O15 0.085872 0.243223 0.417665
O O16 0.172345 0.000000 0.439214
O O17 0.726699 0.270972 0.755447
O O18 0.746461 0.000000 0.801462
O O19 0.575618 0.232637 0.631313
O O20 0.494765 0.000000 0.630614
O O21 0.142978 0.000000 0.676244
#
# Coordination Sequence:
#
# PCOD8083633 Si02
#       8
#     8   8   8   8   8   8   8   8
#     4  10  20  36  57  83 116 147 182 234 284 331
#     4  10  21  35  50  73 109 147 184 230 283 335
#     4  10  18  33  55  79 106 138 180 228 278 331
#     4   8  15  29  52  77 101 133 175 223 270 323
#     4  12  25  40  60  85 116 152 190 230 277 334
#     4   9  17  31  51  74 102 143 186 225 277 336
#     4  10  19  36  58  82 115 150 184 225 278 335
#     4  10  19  32  54  85 115 142 180 233 283 327
#
# _framework density 18.482735000000002
#
# number of rings (size 3 to 8) (size 9 to 14) (size 15 to 20)
#    0.000    2.125    2.500    2.625    0.000    1.750 
#    0.000    1.875    0.000    3.750    0.000    0.000 
#    0.000    0.000    0.000    0.000    0.000    0.000 
#
# Total GULP energy -396755.681968 kJ/mol
# GULP energy per Si atom -12398.615062 kJ/mol
# Density = 1.844067 g / cm^3
# Si number density = 18.482735 Si / 1000 Ang^3
#
#
#
# Elastic Constant Matrix: (Units=GPa)
#
#
# Indices 1 2 3 4 5 6 
#
# 1 112.4567 31.3719 15.1170 0.0000 15.0785 0.0000
# 2 31.3719 71.6903 21.4632 0.0000 8.9213 0.0000
# 3 15.1170 21.4632 48.0678 0.0000 12.6764 0.0000
# 4 0.0000 0.0000 0.0000 24.3200 0.0000 -1.7439
# 5 15.0785 8.9213 12.6764 0.0000 26.8215 0.0000
# 6 0.0000 0.0000 0.0000 -1.7439 0.0000 30.3209
#
#
#
# Elastic Compliance Matrix: (Units=1/GPa)
#
#
# Indices 1 2 3 4 5 6 
#
# 1 0.010659 -0.003990 -0.000389 0.000000 -0.004481 0.000000
# 2 -0.003990 0.017713 -0.006503 0.000000 -0.000575 0.000000
# 3 -0.000389 -0.006503 0.026505 0.000000 -0.010146 0.000000
# 4 0.000000 0.000000 0.000000 0.041289 0.000000 0.002375
# 5 -0.004481 -0.000575 -0.010146 0.000000 0.044789 0.000000
# 6 0.000000 0.000000 0.000000 0.002375 0.000000 0.033117
#
#
# Mechanical properties :
#
#
# Convention : Reuss Voigt Hill
#
# Bulk Modulus (GPa) = 30.19856 40.90214 35.55035
# Shear Modulus (GPa) = 24.16935 27.24332 25.70634
#
# Velocity S-wave (km/s) = 3.62010 3.84342 3.73343
# Velocity P-wave (km/s) = 5.81788 6.47100 6.15311
#
# Compressibility (1/GPa) = 0.03311417
#
# Stress axis : x y z
#
# Youngs Moduli (GPa) = 93.82146 56.45421 37.72824
#
# Poissons Ratio (x) = 0.22527 0.01466
# Poissons Ratio (y) = 0.37437 0.24534
# Poissons Ratio (z) = 0.03646 0.36711
#
# Static dielectric constant tensor:
#      x y z
#    x 3.791590 0.000000 0.096430 
#    y 0.000000 3.265660 0.000000 
#    z 0.096430 0.000000 3.257440 
# 
# 
# High freq. dielectric constant tensor:
#      x y z
#    x 1.737740 0.000000 0.009970 
#    y 0.000000 1.704970 0.000000 
#    z 0.009970 0.000000 1.684490 
# 
# From -- ./inp_files/346297.got.cif
#   From: 2010.06.25/outbox.cif.g09.slc.cpg/sg12_174_cif.got.tgz:346297.got - 2010.06.28 00:19:55.
