data_PCOD8083848
_publ_section_title
;
Structure prediction by ZEFSAII (Michael W. Deem and Ramdas Pophale) SiO2 
 PCOD8083848
Probable space group: C 2/M
;
_chemical_formula_sum "Si O2"
_cell_formula_units_Z 56
_cell_length_a 30.296657
_cell_length_b 8.857999
_cell_length_c 11.765799
_cell_angle_alpha 90.000000
_cell_angle_beta 63.506677
_cell_angle_gamma 90.000000
_cell_volume 2825.974087
_symmetry_space_group_name_H-M "C 2/M"
_symmetry_group_IT_number 12
_symmetry_cell_setting 'monoclinic'
loop_
_space_group_symop_operation_xyz
x,y,z
-x,y,-z
-x,-y,-z
x,-y,z
1/2+x,1/2+y,z
1/2-x,1/2+y,-z
1/2-x,1/2-y,-z
1/2+x,1/2-y,z
loop_
_atom_site_type_symbol
_atom_site_label
_atom_site_fract_x
_atom_site_fract_y
_atom_site_fract_z
Si Si1 0.010667 0.321080 0.363835
Si Si2 0.441680 0.172745 0.072541
Si Si3 0.900168 0.678707 0.883580
Si Si4 0.683643 0.327131 0.521175
Si Si5 0.732177 0.324190 0.699949
Si Si6 0.573122 0.672854 0.682632
Si Si7 0.790124 0.678566 0.035850
O O1 0.012194 0.500000 0.368932
O O2 0.063229 0.258285 0.256805
O O3 0.000000 0.250158 0.500000
O O4 0.966835 0.277917 0.330357
O O5 0.420634 0.278967 0.194529
O O6 0.425212 0.000000 0.113277
O O7 0.500000 0.185092 0.000000
O O8 0.418666 0.239927 0.983650
O O9 0.904893 0.500000 0.881109
O O10 0.843879 0.729089 0.926650
O O11 0.699999 0.500000 0.482988
O O12 0.696025 0.281874 0.637255
O O13 0.712368 0.222315 0.399024
O O14 0.625983 0.304405 0.562217
O O15 0.731367 0.500000 0.731487
O O16 0.715216 0.232334 0.829099
O O17 0.555890 0.500000 0.695162
O O18 0.784199 0.500000 0.039757
O O19 0.750000 0.750000 0.000000
#
# Coordination Sequence:
#
# PCOD8083848 Si02
#       7
#     8   8   8   8   8   8   8
#     4  10  21  39  60  80 108 149 196 237 275 329
#     4  10  18  33  59  84 114 148 187 234 278 333
#     4   9  19  37  59  85 113 147 189 237 284 334
#     4   9  20  37  57  84 120 153 182 228 289 350
#     4  10  20  37  60  85 113 147 193 240 286 341
#     4  11  22  35  54  85 121 150 183 228 284 345
#     4  11  23  39  59  82 115 154 197 243 290 341
#
# _framework density 19.816175999999999
#
# number of rings (size 3 to 8) (size 9 to 14) (size 15 to 20)
#    0.000    2.000    1.429    2.143    0.000    3.429 
#    0.000    3.571    0.000    0.000    0.000    0.000 
#    0.000    0.000    0.000    0.000    0.000    0.000 
#
# Total GULP energy -347230.314288 kJ/mol
# GULP energy per Si atom -12401.082653 kJ/mol
# Density = 1.977107 g / cm^3
# Si number density = 19.816176 Si / 1000 Ang^3
#
#
#
# Elastic Constant Matrix: (Units=GPa)
#
#
# Indices 1 2 3 4 5 6 
#
# 1 119.6301 26.6034 63.9881 0.0000 -13.8867 0.0000
# 2 26.6034 43.2441 31.8893 0.0000 -6.8845 0.0000
# 3 63.9881 31.8893 138.3817 0.0000 -6.3091 0.0000
# 4 0.0000 0.0000 0.0000 27.2455 0.0000 -1.5912
# 5 -13.8867 -6.8845 -6.3091 0.0000 27.5241 0.0000
# 6 0.0000 0.0000 0.0000 -1.5912 0.0000 24.8051
#
#
#
# Elastic Compliance Matrix: (Units=1/GPa)
#
#
# Indices 1 2 3 4 5 6 
#
# 1 0.012057 -0.003349 -0.004613 0.000000 0.004188 0.000000
# 2 -0.003349 0.029656 -0.005077 0.000000 0.004564 0.000000
# 3 -0.004613 -0.005077 0.010475 0.000000 -0.001196 0.000000
# 4 0.000000 0.000000 0.000000 0.036841 0.000000 0.002363
# 5 0.004188 0.004564 -0.001196 0.000000 0.039312 0.000000
# 6 0.000000 0.000000 0.000000 0.002363 0.000000 0.040466
#
#
# Mechanical properties :
#
#
# Convention : Reuss Voigt Hill
#
# Bulk Modulus (GPa) = 38.30017 60.69085 49.49551
# Shear Modulus (GPa) = 24.55937 27.83329 26.19633
#
# Velocity S-wave (km/s) = 3.52427 3.75183 3.63983
# Velocity P-wave (km/s) = 5.99419 7.03290 6.53422
#
# Compressibility (1/GPa) = 0.02610954
#
# Stress axis : x y z
#
# Youngs Moduli (GPa) = 82.93762 33.72040 95.46817
#
# Poissons Ratio (x) = 0.11294 0.44035
# Poissons Ratio (y) = 0.27779 0.48471
# Poissons Ratio (z) = 0.38255 0.17120
#
# Static dielectric constant tensor:
#      x y z
#    x 3.595660 0.000000 -0.126810 
#    y 0.000000 3.406040 0.000000 
#    z -0.126810 0.000000 3.872270 
# 
# 
# High freq. dielectric constant tensor:
#      x y z
#    x 1.773300 0.000000 -0.010120 
#    y 0.000000 1.755000 0.000000 
#    z -0.010120 0.000000 1.779010 
# 
# From -- ./inp_files/187225.got.cif
#   From: 2010.06.25/outbox.cif.g09.slc.cpg/sg12_94_cif.got.tgz:187225.got - 2010.06.28 00:19:55.
