data_PCOD8083121
_publ_section_title
;
Structure prediction by ZEFSAII (Michael W. Deem and Ramdas Pophale) SiO2 
 PCOD8083121
Probable space group: C 2/M
;
_chemical_formula_sum "Si O2"
_cell_formula_units_Z 64
_cell_length_a 14.752564
_cell_length_b 9.309892
_cell_length_c 29.876841
_cell_angle_alpha 90.000000
_cell_angle_beta 60.509713
_cell_angle_gamma 90.000000
_cell_volume 3571.784496
_symmetry_space_group_name_H-M "C 2/M"
_symmetry_group_IT_number 12
_symmetry_cell_setting 'monoclinic'
loop_
_space_group_symop_operation_xyz
x,y,z
-x,y,-z
-x,-y,-z
x,-y,z
1/2+x,1/2+y,z
1/2-x,1/2+y,-z
1/2-x,1/2-y,-z
1/2+x,1/2-y,z
loop_
_atom_site_type_symbol
_atom_site_label
_atom_site_fract_x
_atom_site_fract_y
_atom_site_fract_z
Si Si1 0.035414 0.669412 0.190762
Si Si2 0.610862 0.831750 0.993737
Si Si3 0.170277 0.169500 0.745805
Si Si4 0.059763 0.669282 0.622749
Si Si5 0.315657 0.167134 0.926026
Si Si6 0.041320 0.669395 0.443526
Si Si7 0.728751 0.330574 0.631500
Si Si8 0.115086 0.670063 0.266976
O O1 0.014629 0.500000 0.196598
O O2 0.112093 0.714514 0.132452
O O3 0.085664 0.724483 0.224823
O O4 0.926987 0.749079 0.209219
O O5 0.707225 0.751708 0.946800
O O6 0.623422 0.000000 0.981172
O O7 0.500000 0.778028 0.000000
O O8 0.619727 0.796406 0.044498
O O9 0.184751 0.212827 0.690618
O O10 0.270318 0.226321 0.748725
O O11 0.154098 0.000000 0.755197
O O12 0.074698 0.500000 0.626060
O O13 0.164597 0.751227 0.608931
O O14 0.037497 0.709636 0.576876
O O15 0.967254 0.728751 0.676847
O O16 0.287271 0.000000 0.931145
O O17 0.050053 0.500000 0.446797
O O18 0.154418 0.728325 0.402491
O O19 0.000000 0.738466 0.500000
O O20 0.722106 0.500000 0.625865
O O21 0.115711 0.500000 0.269722
#
# Coordination Sequence:
#
# PCOD8083121 Si02
#       8
#     8   8   8   8   8   8   8   8
#     4  10  20  34  51  74 105 133 163 208 255 295
#     4   9  18  34  55  75 100 136 172 205 248 297
#     4  10  19  32  50  72  97 130 169 204 243 296
#     4  10  18  32  54  74  95 130 169 200 242 303
#     4   9  19  34  51  75 104 133 167 209 251 293
#     4   9  18  33  53  75  99 131 169 206 247 299
#     4  10  19  32  51  74  99 126 163 210 249 290
#     4   9  17  31  50  70  95 131 167 197 240 300
#
# _framework density 17.918213000000002
#
# number of rings (size 3 to 8) (size 9 to 14) (size 15 to 20)
#    0.000    2.500    2.500    0.000    0.000    2.250 
#    0.000    1.875    0.000    0.750    0.000    0.000 
#    0.000    0.000    0.000    0.000    0.000    0.000 
#
# Total GULP energy -396782.781184 kJ/mol
# GULP energy per Si atom -12399.461912 kJ/mol
# Density = 1.787743 g / cm^3
# Si number density = 17.918213 Si / 1000 Ang^3
#
#
#
# Elastic Constant Matrix: (Units=GPa)
#
#
# Indices 1 2 3 4 5 6 
#
# 1 110.9598 24.8510 20.3127 0.0000 -4.7463 0.0000
# 2 24.8510 23.5155 19.9915 0.0000 -5.6385 0.0000
# 3 20.3127 19.9915 92.4672 0.0000 -1.2349 0.0000
# 4 0.0000 0.0000 0.0000 13.9442 0.0000 -0.5415
# 5 -4.7463 -5.6385 -1.2349 0.0000 25.4498 0.0000
# 6 0.0000 0.0000 0.0000 -0.5415 0.0000 27.9229
#
#
#
# Elastic Compliance Matrix: (Units=1/GPa)
#
#
# Indices 1 2 3 4 5 6 
#
# 1 0.011817 -0.012770 0.000157 0.000000 -0.000618 0.000000
# 2 -0.012770 0.069173 -0.011985 0.000000 0.012363 0.000000
# 3 0.000157 -0.011985 0.013345 0.000000 -0.001979 0.000000
# 4 0.000000 0.000000 0.000000 0.071768 0.000000 0.001392
# 5 -0.000618 0.012363 -0.001979 0.000000 0.041821 0.000000
# 6 0.000000 0.000000 0.000000 0.001392 0.000000 0.035840
#
#
# Mechanical properties :
#
#
# Convention : Reuss Voigt Hill
#
# Bulk Modulus (GPa) = 22.15359 39.69478 30.92419
# Shear Modulus (GPa) = 16.23340 24.24919 20.24130
#
# Velocity S-wave (km/s) = 3.01320 3.68275 3.36467
# Velocity P-wave (km/s) = 4.94939 6.34704 5.69128
#
# Compressibility (1/GPa) = 0.04513941
#
# Stress axis : x y z
#
# Youngs Moduli (GPa) = 84.62315 14.45645 74.93438
#
# Poissons Ratio (x) = 0.18460 -0.01174
# Poissons Ratio (y) = 1.08060 0.89810
# Poissons Ratio (z) = -0.01325 0.17326
#
# Static dielectric constant tensor:
#      x y z
#    x 3.450780 0.000000 0.053720 
#    y 0.000000 2.960460 0.000000 
#    z 0.053720 0.000000 3.414120 
# 
# 
# High freq. dielectric constant tensor:
#      x y z
#    x 1.704860 0.000000 0.001110 
#    y 0.000000 1.659080 0.000000 
#    z 0.001110 0.000000 1.695280 
# 
# From -- ./inp_files/375032.got.cif
#   From: 2010.06.25/outbox.cif.g09.slc.cpg/sg12_188_cif.got.tgz:375032.got - 2010.06.28 00:19:55.
