data_PCOD8083851
_publ_section_title
;
Structure prediction by ZEFSAII (Michael W. Deem and Ramdas Pophale) SiO2 
 PCOD8083851
Probable space group: C 2/M
;
_chemical_formula_sum "Si O2"
_cell_formula_units_Z 64
_cell_length_a 19.795013
_cell_length_b 23.551393
_cell_length_c 12.302533
_cell_angle_alpha 90.000000
_cell_angle_beta 142.373364
_cell_angle_gamma 90.000000
_cell_volume 3501.564623
_symmetry_space_group_name_H-M "C 2/M"
_symmetry_group_IT_number 12
_symmetry_cell_setting 'monoclinic'
loop_
_space_group_symop_operation_xyz
x,y,z
-x,y,-z
-x,-y,-z
x,-y,z
1/2+x,1/2+y,z
1/2-x,1/2+y,-z
1/2-x,1/2-y,-z
1/2+x,1/2-y,z
loop_
_atom_site_type_symbol
_atom_site_label
_atom_site_fract_x
_atom_site_fract_y
_atom_site_fract_z
Si Si1 0.846229 0.729869 0.699395
Si Si2 0.741040 0.562106 0.712356
Si Si3 0.102740 0.433841 0.888486
Si Si4 0.083924 0.608355 0.200011
Si Si5 0.242692 0.761753 0.188553
Si Si6 0.092049 0.345548 0.696845
Si Si7 0.034962 0.752880 0.783810
Si Si8 0.910722 0.165506 0.470797
O O1 0.750000 0.750000 0.500000
O O2 0.834187 0.661940 0.683868
O O3 0.829421 0.761635 0.793103
O O4 0.968041 0.741265 0.808722
O O5 0.684496 0.500000 0.646032
O O6 0.836443 0.558271 0.741370
O O7 0.651486 0.609379 0.567963
O O8 0.800455 0.577161 0.901715
O O9 0.092822 0.500000 0.845781
O O10 0.136936 0.397514 0.826570
O O11 0.983141 0.411678 0.779210
O O12 0.000000 0.627475 0.000000
O O13 0.310587 0.819506 0.254120
O O14 0.327827 0.709131 0.304612
O O15 0.162491 0.758562 0.981715
O O16 0.031477 0.297952 0.693054
O O17 0.000000 0.371271 0.500000
O O18 0.976334 0.807356 0.655607
O O19 0.000000 0.143655 0.500000
#
# Coordination Sequence:
#
# PCOD8083851 Si02
#       8
#     8   8   8   8   8   8   8   8
#     4  12  21  35  56  89 123 149 189 239 288 356
#     4  10  21  38  58  85 118 149 191 246 299 349
#     4  10  22  37  60  88 115 153 199 243 295 353
#     4  10  18  33  59  85 116 148 186 240 298 350
#     4  12  23  37  57  86 118 158 191 241 288 353
#     4  12  22  38  57  83 118 158 194 240 293 347
#     4  12  22  37  59  85 118 156 193 236 291 352
#     4  12  23  37  56  86 117 155 195 234 291 349
#
# _framework density 18.277543000000001
#
# number of rings (size 3 to 8) (size 9 to 14) (size 15 to 20)
#    0.000    0.750    6.250    2.625    1.750    2.000 
#    0.000    0.000    0.000    0.000    0.000    0.000 
#    0.000    3.000    0.000    0.000    0.000    0.000 
#
# Total GULP energy -396659.391300 kJ/mol
# GULP energy per Si atom -12395.605978 kJ/mol
# Density = 1.823594 g / cm^3
# Si number density = 18.277543 Si / 1000 Ang^3
#
#
#
# Elastic Constant Matrix: (Units=GPa)
#
#
# Indices 1 2 3 4 5 6 
#
# 1 89.9743 26.3072 5.0592 0.0000 -2.4342 0.0000
# 2 26.3072 101.5948 34.8301 0.0000 -5.5233 0.0000
# 3 5.0592 34.8301 91.9039 0.0000 4.2301 0.0000
# 4 0.0000 0.0000 0.0000 23.0780 0.0000 1.2664
# 5 -2.4342 -5.5233 4.2301 0.0000 22.8184 0.0000
# 6 0.0000 0.0000 0.0000 1.2664 0.0000 21.5996
#
#
#
# Elastic Compliance Matrix: (Units=1/GPa)
#
#
# Indices 1 2 3 4 5 6 
#
# 1 0.012056 -0.003296 0.000568 0.000000 0.000383 0.000000
# 2 -0.003296 0.012509 -0.004723 0.000000 0.003552 0.000000
# 3 0.000568 -0.004723 0.012799 0.000000 -0.003455 0.000000
# 4 0.000000 0.000000 0.000000 0.043471 0.000000 -0.002549
# 5 0.000383 0.003552 -0.003455 0.000000 0.045365 0.000000
# 6 0.000000 0.000000 0.000000 -0.002549 0.000000 0.046447
#
#
# Mechanical properties :
#
#
# Convention : Reuss Voigt Hill
#
# Bulk Modulus (GPa) = 44.51918 46.20732 45.36325
# Shear Modulus (GPa) = 25.63639 27.98429 26.81034
#
# Velocity S-wave (km/s) = 3.74922 3.91714 3.83410
# Velocity P-wave (km/s) = 6.56904 6.76716 6.66884
#
# Compressibility (1/GPa) = 0.02246223
#
# Stress axis : x y z
#
# Youngs Moduli (GPa) = 82.94390 79.94523 78.13412
#
# Poissons Ratio (x) = 0.26347 -0.04436
# Poissons Ratio (y) = 0.27336 0.36900
# Poissons Ratio (z) = -0.04709 0.37755
#
# Static dielectric constant tensor:
#      x y z
#    x 3.655090 0.000000 -0.015100 
#    y 0.000000 3.252920 0.000000 
#    z -0.015100 0.000000 3.330270 
# 
# 
# High freq. dielectric constant tensor:
#      x y z
#    x 1.716710 0.000000 0.004220 
#    y 0.000000 1.690100 0.000000 
#    z 0.004220 0.000000 1.699930 
# 
# From -- ./inp_files/170182.got.cif
#   From: 2010.06.25/outbox.cif.g09.slc.cpg/sg12_86_cif.got.tgz:170182.got - 2010.06.28 00:19:55.
