data_PCOD8083069
_publ_section_title
;
Structure prediction by ZEFSAII (Michael W. Deem and Ramdas Pophale) SiO2 
 PCOD8083069
Probable space group: C 2/M
;
_chemical_formula_sum "Si O2"
_cell_formula_units_Z 56
_cell_length_a 19.290935
_cell_length_b 8.946333
_cell_length_c 28.717963
_cell_angle_alpha 90.000000
_cell_angle_beta 38.526406
_cell_angle_gamma 90.000000
_cell_volume 3087.116685
_symmetry_space_group_name_H-M "C 2/M"
_symmetry_group_IT_number 12
_symmetry_cell_setting 'monoclinic'
loop_
_space_group_symop_operation_xyz
x,y,z
-x,y,-z
-x,-y,-z
x,-y,z
1/2+x,1/2+y,z
1/2-x,1/2+y,-z
1/2-x,1/2-y,-z
1/2+x,1/2-y,z
loop_
_atom_site_type_symbol
_atom_site_label
_atom_site_fract_x
_atom_site_fract_y
_atom_site_fract_z
Si Si1 0.858598 0.673011 0.693391
Si Si2 0.363677 0.177283 0.206226
Si Si3 0.402650 0.825606 0.082178
Si Si4 0.155620 0.172526 0.203332
Si Si5 0.696433 0.174123 0.598592
Si Si6 0.395603 0.828320 0.453226
Si Si7 0.047987 0.174465 0.752489
O O1 0.824653 0.500000 0.711284
O O2 0.762414 0.766856 0.718424
O O3 0.878139 0.724067 0.736034
O O4 0.974055 0.698516 0.605066
O O5 0.402688 0.236900 0.134985
O O6 0.446677 0.245083 0.200548
O O7 0.364846 0.000000 0.208806
O O8 0.282961 0.793869 0.121164
O O9 0.427325 0.000000 0.072456
O O10 0.500000 0.748612 0.000000
O O11 0.074827 0.208885 0.202868
O O12 0.144322 0.000000 0.225328
O O13 0.629409 0.215292 0.587116
O O14 0.824600 0.225215 0.525313
O O15 0.643225 0.263528 0.668926
O O16 0.692028 0.000000 0.612874
O O17 0.361533 0.000000 0.479565
O O18 0.068646 0.000000 0.748378
#
# Coordination Sequence:
#
# PCOD8083069 Si02
#       7
#     8   8   8   8   8   8   8
#     4  10  18  32  53  76 103 135 174 217 260 307
#     4  10  21  35  53  77 105 137 174 212 257 311
#     4   8  15  32  57  81 103 131 169 210 252 303
#     4   9  18  31  52  79 103 135 176 212 250 303
#     4  10  19  31  49  74 103 136 174 217 261 305
#     4   9  18  31  48  74 103 134 172 215 263 308
#     4  11  21  34  51  74 107 141 174 215 261 306
#
# _framework density 18.139904000000001
#
# number of rings (size 3 to 8) (size 9 to 14) (size 15 to 20)
#    0.000    2.429    1.429    2.571    0.000    2.286 
#    0.000    1.429    0.000   15.000    0.000    0.000 
#    0.000    0.000    0.000    0.000    0.000    0.000 
#
# Total GULP energy -347181.813207 kJ/mol
# GULP energy per Si atom -12399.350472 kJ/mol
# Density = 1.809862 g / cm^3
# Si number density = 18.139904 Si / 1000 Ang^3
#
#
#
# Elastic Constant Matrix: (Units=GPa)
#
#
# Indices 1 2 3 4 5 6 
#
# 1 111.2739 40.1542 50.2491 -0.0001 -3.4603 0.0005
# 2 40.1542 71.4229 33.9584 -0.0001 -2.6937 0.0009
# 3 50.2491 33.9584 108.7091 0.0000 -8.3357 -0.0002
# 4 -0.0001 -0.0001 0.0000 17.2955 0.0000 0.3094
# 5 -3.4603 -2.6937 -8.3357 0.0000 18.6290 0.0006
# 6 0.0005 0.0009 -0.0002 0.3094 0.0006 29.6691
#
#
#
# Elastic Compliance Matrix: (Units=1/GPa)
#
#
# Indices 1 2 3 4 5 6 
#
# 1 0.012788 -0.005143 -0.004328 0.000000 -0.000305 0.000000
# 2 -0.005143 0.018512 -0.003390 0.000000 0.000205 0.000000
# 3 -0.004328 -0.003390 0.012591 0.000000 0.004340 0.000000
# 4 0.000000 0.000000 0.000000 0.057829 0.000000 -0.000603
# 5 -0.000305 0.000205 0.004340 0.000000 0.055595 -0.000001
# 6 0.000000 0.000000 0.000000 -0.000603 -0.000001 0.033711
#
#
# Mechanical properties :
#
#
# Convention : Reuss Voigt Hill
#
# Bulk Modulus (GPa) = 55.03728 60.01436 57.52582
# Shear Modulus (GPa) = 22.44134 24.25500 23.34817
#
# Velocity S-wave (km/s) = 3.52110 3.66062 3.59153
# Velocity P-wave (km/s) = 6.85107 7.14302 6.99857
#
# Compressibility (1/GPa) = 0.01816950
#
# Stress axis : x y z
#
# Youngs Moduli (GPa) = 78.20097 54.01915 79.42244
#
# Poissons Ratio (x) = 0.27783 0.34371
# Poissons Ratio (y) = 0.40220 0.26922
# Poissons Ratio (z) = 0.33843 0.18311
#
# Static dielectric constant tensor:
#      x y z
#    x 3.289640 0.000000 -0.124490 
#    y 0.000000 3.271640 0.000000 
#    z -0.124490 0.000000 3.446980 
# 
# 
# High freq. dielectric constant tensor:
#      x y z
#    x 1.688850 0.000000 -0.014070 
#    y 0.000000 1.697860 0.000000 
#    z -0.014070 0.000000 1.692710 
# 
# From -- ./inp_files/342348.got.cif
#   From: 2010.06.25/outbox.cif.g09.slc.cpg/sg12_172_cif.got.tgz:342348.got - 2010.06.28 00:19:55.
