data_PCOD8083433
_publ_section_title
;
Structure prediction by ZEFSAII (Michael W. Deem and Ramdas Pophale) SiO2 
 PCOD8083433
Probable space group: C 2/M
;
_chemical_formula_sum "Si O2"
_cell_formula_units_Z 64
_cell_length_a 18.120747
_cell_length_b 18.006210
_cell_length_c 14.666250
_cell_angle_alpha 90.000000
_cell_angle_beta 43.671752
_cell_angle_gamma 90.000000
_cell_volume 3304.436855
_symmetry_space_group_name_H-M "C 2/M"
_symmetry_group_IT_number 12
_symmetry_cell_setting 'monoclinic'
loop_
_space_group_symop_operation_xyz
x,y,z
-x,y,-z
-x,-y,-z
x,-y,z
1/2+x,1/2+y,z
1/2-x,1/2+y,-z
1/2-x,1/2-y,-z
1/2+x,1/2-y,z
loop_
_atom_site_type_symbol
_atom_site_label
_atom_site_fract_x
_atom_site_fract_y
_atom_site_fract_z
Si Si1 0.928871 0.414350 0.767806
Si Si2 0.161330 0.704356 0.023564
Si Si3 0.617239 0.833826 0.369705
Si Si4 0.735060 0.800247 0.761400
Si Si5 0.540092 0.289722 0.863813
Si Si6 0.109130 0.083957 0.664467
Si Si7 0.898209 0.913188 0.531100
Si Si8 0.655619 0.916896 0.510966
O O1 0.909412 0.500000 0.806390
O O2 0.885910 0.395845 0.705537
O O3 0.054381 0.390907 0.661872
O O4 0.862662 0.369858 0.900437
O O5 0.193726 0.671872 0.895997
O O6 0.250000 0.750000 0.000000
O O7 0.055627 0.754104 0.108127
O O8 0.500000 0.805223 0.500000
O O9 0.684598 0.763881 0.278549
O O10 0.675268 0.867529 0.404994
O O11 0.638285 0.768337 0.785705
O O12 0.795121 0.865198 0.653005
O O13 0.574078 0.362380 0.776973
O O14 0.500000 0.314817 0.000000
O O15 0.062649 0.105802 0.607024
O O16 0.235946 0.087917 0.529305
O O17 0.076100 0.000000 0.722505
O O18 0.000000 0.891732 0.500000
O O19 0.867230 0.000000 0.568016
O O20 0.629562 0.000000 0.500398
#
# Coordination Sequence:
#
# PCOD8083433 Si02
#       8
#     8   8   8   8   8   8   8   8
#     4  10  21  37  60  90 121 156 195 244 305 361
#     4  11  24  41  60  84 119 160 205 255 292 355
#     4  10  18  32  57  92 121 150 189 239 305 360
#     4  11  22  40  61  85 120 164 198 250 304 355
#     4  10  24  42  61  89 125 157 204 252 303 360
#     4  10  21  39  65  93 122 159 197 247 308 363
#     4  10  24  42  61  90 124 158 206 259 300 355
#     4   9  18  33  57  90 125 149 185 242 302 367
#
# _framework density 19.367899000000001
#
# number of rings (size 3 to 8) (size 9 to 14) (size 15 to 20)
#    0.000    1.875    2.500    0.750    3.500    4.750 
#    0.000    0.625    0.000    2.250    0.000    0.000 
#    0.000    0.000    0.000    0.000    0.000    0.000 
#
# Total GULP energy -396720.730097 kJ/mol
# GULP energy per Si atom -12397.522816 kJ/mol
# Density = 1.932382 g / cm^3
# Si number density = 19.367899 Si / 1000 Ang^3
#
#
#
# Elastic Constant Matrix: (Units=GPa)
#
#
# Indices 1 2 3 4 5 6 
#
# 1 114.9840 46.6421 45.6694 0.0000 -4.9591 0.0000
# 2 46.6421 105.7391 70.2581 0.0000 4.3016 0.0000
# 3 45.6694 70.2581 109.9465 0.0000 6.0551 0.0000
# 4 0.0000 0.0000 0.0000 40.7987 0.0000 3.2992
# 5 -4.9591 4.3016 6.0551 0.0000 24.1020 0.0000
# 6 0.0000 0.0000 0.0000 3.2992 0.0000 23.4537
#
#
#
# Elastic Compliance Matrix: (Units=1/GPa)
#
#
# Indices 1 2 3 4 5 6 
#
# 1 0.011290 -0.003265 -0.002802 0.000000 0.003610 0.000000
# 2 -0.003265 0.017382 -0.009677 0.000000 -0.001343 0.000000
# 3 -0.002802 -0.009677 0.016610 0.000000 -0.003022 0.000000
# 4 0.000000 0.000000 0.000000 0.024793 0.000000 -0.003488
# 5 0.003610 -0.001343 -0.003022 0.000000 0.043232 0.000000
# 6 0.000000 0.000000 0.000000 -0.003488 0.000000 0.043128
#
#
# Mechanical properties :
#
#
# Convention : Reuss Voigt Hill
#
# Bulk Modulus (GPa) = 72.50073 72.86762 72.68417
# Shear Modulus (GPa) = 25.97126 28.87756 27.42441
#
# Velocity S-wave (km/s) = 3.66586 3.86554 3.76702
# Velocity P-wave (km/s) = 7.44532 7.59129 7.51866
#
# Compressibility (1/GPa) = 0.01379296
#
# Stress axis : x y z
#
# Youngs Moduli (GPa) = 88.57505 57.52979 60.20596
#
# Poissons Ratio (x) = 0.18785 0.16869
# Poissons Ratio (y) = 0.28921 0.58264
# Poissons Ratio (z) = 0.24817 0.55674
#
# Static dielectric constant tensor:
#      x y z
#    x 3.645260 0.000000 -0.070840 
#    y 0.000000 3.399850 0.000000 
#    z -0.070840 0.000000 3.556720 
# 
# 
# High freq. dielectric constant tensor:
#      x y z
#    x 1.765250 0.000000 -0.002130 
#    y 0.000000 1.747040 0.000000 
#    z -0.002130 0.000000 1.752010 
# 
# From -- ./inp_files/226836.got.cif
#   From: 2010.06.25/outbox.cif.g09.slc.cpg/sg12_114_cif.got.tgz:226836.got - 2010.06.28 00:19:55.
