data_PCOD8083788
_publ_section_title
;
Structure prediction by ZEFSAII (Michael W. Deem and Ramdas Pophale) SiO2 
 PCOD8083788
Probable space group: C 2/M
;
_chemical_formula_sum "Si O2"
_cell_formula_units_Z 64
_cell_length_a 26.922973
_cell_length_b 15.044956
_cell_length_c 18.544901
_cell_angle_alpha 90.000000
_cell_angle_beta 24.196706
_cell_angle_gamma 90.000000
_cell_volume 3078.826517
_symmetry_space_group_name_H-M "C 2/M"
_symmetry_group_IT_number 12
_symmetry_cell_setting 'monoclinic'
loop_
_space_group_symop_operation_xyz
x,y,z
-x,y,-z
-x,-y,-z
x,-y,z
1/2+x,1/2+y,z
1/2-x,1/2+y,-z
1/2-x,1/2-y,-z
1/2+x,1/2-y,z
loop_
_atom_site_type_symbol
_atom_site_label
_atom_site_fract_x
_atom_site_fract_y
_atom_site_fract_z
Si Si1 0.264835 0.852831 0.142310
Si Si2 0.850969 0.772500 0.424034
Si Si3 0.022677 0.348510 0.361313
Si Si4 0.587917 0.644282 0.251782
Si Si5 0.505312 0.098154 0.750637
Si Si6 0.322365 0.403334 0.589421
Si Si7 0.302827 0.151924 0.746822
Si Si8 0.429995 0.400600 0.882032
O O1 0.179557 0.893067 0.191484
O O2 0.250127 0.893177 0.240659
O O3 0.234549 0.750658 0.184131
O O4 0.404037 0.871739 0.940935
O O5 0.750000 0.750000 0.500000
O O6 0.893841 0.674413 0.389763
O O7 0.795424 0.825518 0.566541
O O8 0.960191 0.832355 0.246392
O O9 0.060403 0.247966 0.294948
O O10 0.105431 0.386947 0.315151
O O11 0.049774 0.409385 0.256610
O O12 0.877905 0.352930 0.572847
O O13 0.462361 0.592958 0.426801
O O14 0.635378 0.626007 0.107378
O O15 0.555985 0.000000 0.705462
O O16 0.287166 0.500000 0.602987
O O17 0.174685 0.099581 0.917522
O O18 0.484992 0.500000 0.805484
#
# Coordination Sequence:
#
# PCOD8083788 Si02
#       8
#     8   8   8   8   8   8   8   8
#     4  11  20  35  58  93 133 168 195 240 299 374
#     4  11  24  46  67  84 114 157 205 266 327 370
#     4  10  19  35  57  88 126 176 209 241 290 363
#     4  10  18  33  57  88 131 172 202 234 297 368
#     4  12  24  38  60  89 120 158 206 254 315 380
#     4  11  22  38  63  95 127 160 205 251 305 370
#     4  10  19  34  60  86 129 175 211 238 294 363
#     4  11  22  38  63  93 123 162 213 261 306 370
#
# _framework density 20.787140999999998
#
# number of rings (size 3 to 8) (size 9 to 14) (size 15 to 20)
#    0.000    1.250    5.000    3.000    0.000    7.500 
#    0.000    1.875    0.000    1.500    0.000    2.625 
#    0.000    0.000    0.000    0.000    0.000    0.000 
#
# Total GULP energy -396483.926381 kJ/mol
# GULP energy per Si atom -12390.122699 kJ/mol
# Density = 2.073983 g / cm^3
# Si number density = 20.787141 Si / 1000 Ang^3
#
#
#
# Elastic Constant Matrix: (Units=GPa)
#
#
# Indices 1 2 3 4 5 6 
#
# 1 78.1799 35.9352 32.5182 0.0000 -5.3850 0.0000
# 2 35.9352 84.0923 36.5456 0.0000 -2.0309 0.0000
# 3 32.5182 36.5456 88.6123 0.0000 18.6838 0.0000
# 4 0.0000 0.0000 0.0000 -4.9056 0.0000 -5.0456
# 5 -5.3850 -2.0309 18.6838 0.0000 27.3741 0.0000
# 6 0.0000 0.0000 0.0000 -5.0456 0.0000 3.5167
#
#
#
# Elastic Compliance Matrix: (Units=1/GPa)
#
#
# Indices 1 2 3 4 5 6 
#
# 1 0.018125 -0.004864 -0.006215 0.000000 0.007447 0.000000
# 2 -0.004864 0.016696 -0.006028 0.000000 0.004396 0.000000
# 3 -0.006215 -0.006028 0.019162 0.000000 -0.014748 0.000000
# 4 0.000000 0.000000 0.000000 -0.082339 0.000000 -0.118138
# 5 0.007447 0.004396 -0.014748 0.000000 0.048388 0.000000
# 6 0.000000 0.000000 0.000000 -0.118138 0.000000 0.114859
#
#
# Mechanical properties :
#
#
# Convention : Reuss Voigt Hill
#
# Bulk Modulus (GPa) = 50.58680 51.20919 50.89799
# Shear Modulus (GPa) = 28.45845 14.92274 21.69060
#
# Velocity S-wave (km/s) = 3.70407 2.68224 3.23377
# Velocity P-wave (km/s) = 6.53314 5.85500 6.20335
#
# Compressibility (1/GPa) = 0.01976800
#
# Stress axis : x y z
#
# Youngs Moduli (GPa) = 55.17211 59.89432 52.18786
#
# Poissons Ratio (x) = 0.29135 0.32437
# Poissons Ratio (y) = 0.26838 0.31456
# Poissons Ratio (z) = 0.34292 0.36102
#
# Static dielectric constant tensor:
#      x y z
#    x 3.606620 0.000000 0.297440 
#    y 0.000000 3.872200 0.000000 
#    z 0.297440 0.000000 4.133870 
# 
# 
# High freq. dielectric constant tensor:
#      x y z
#    x 1.768890 0.000000 0.028270 
#    y 0.000000 1.822850 0.000000 
#    z 0.028270 0.000000 1.808940 
# 
# From -- ./inp_files/330353.got.cif
#   From: 2010.06.25/outbox.cif.g09.slc.cpg/sg12_166_cif.got.tgz:330353.got - 2010.06.28 00:19:55.
