data_PCOD8083022
_publ_section_title
;
Structure prediction by ZEFSAII (Michael W. Deem and Ramdas Pophale) SiO2 
 PCOD8083022
Probable space group: C 2/M
;
_chemical_formula_sum "Si O2"
_cell_formula_units_Z 60
_cell_length_a 23.870114
_cell_length_b 24.556024
_cell_length_c 9.103326
_cell_angle_alpha 90.000000
_cell_angle_beta 35.313358
_cell_angle_gamma 90.000000
_cell_volume 3084.440902
_symmetry_space_group_name_H-M "C 2/M"
_symmetry_group_IT_number 12
_symmetry_cell_setting 'monoclinic'
loop_
_space_group_symop_operation_xyz
x,y,z
-x,y,-z
-x,-y,-z
x,-y,z
1/2+x,1/2+y,z
1/2-x,1/2+y,-z
1/2-x,1/2-y,-z
1/2+x,1/2-y,z
loop_
_atom_site_type_symbol
_atom_site_label
_atom_site_fract_x
_atom_site_fract_y
_atom_site_fract_z
Si Si1 0.707585 0.138824 0.236591
Si Si2 0.802096 0.062935 0.812550
Si Si3 0.644316 0.269182 0.681492
Si Si4 0.261509 0.144652 0.288851
Si Si5 0.396263 0.850961 0.266665
Si Si6 0.401017 0.312875 0.916670
Si Si7 0.500000 0.392305 0.500000
Si Si8 0.604752 0.798615 0.224444
O O1 0.625261 0.122424 0.528907
O O2 0.678068 0.190833 0.201289
O O3 0.728232 0.086871 0.090820
O O4 0.797639 0.158192 0.140463
O O5 0.781933 0.092213 0.700169
O O6 0.910478 0.070542 0.642068
O O7 0.779980 0.000000 0.836428
O O8 0.750000 0.250000 0.500000
O O9 0.666973 0.315504 0.510628
O O10 0.592893 0.214820 0.731615
O O11 0.579842 0.292791 0.956657
O O12 0.310294 0.130229 0.340596
O O13 0.352317 0.171606 0.010229
O O14 0.500000 0.874996 0.000000
O O15 0.478774 0.356134 0.690556
O O16 0.402949 0.264724 0.794051
O O17 0.500000 0.821819 0.500000
#
# Coordination Sequence:
#
# PCOD8083022 Si02
#       8
#     8   8   8   8   8   8   4   8
#     4  10  21  33  55  81 113 153 197 241 284 341
#     4  10  23  44  66  81 106 150 201 257 304 337
#     4  10  18  32  52  80 126 163 191 217 276 351
#     4  10  20  38  57  81 118 160 197 237 281 355
#     4  11  20  33  56  87 125 160 188 229 287 351
#     4  11  18  33  51  85 121 158 186 226 280 352
#     4  10  23  36  64  92 116 142 195 246 294 356
#     4  11  19  30  49  82 122 155 195 226 273 340
#
# _framework density 19.452472
#
# number of rings (size 3 to 8) (size 9 to 14) (size 15 to 20)
#    0.000    1.600    6.000    1.400    0.000    3.200 
#    0.000    0.667    0.000   16.000    0.000    0.000 
#    0.000    0.000    0.000    0.000    0.000    0.000 
#
# Total GULP energy -371819.673527 kJ/mol
# GULP energy per Si atom -12393.989118 kJ/mol
# Density = 1.940820 g / cm^3
# Si number density = 19.452472 Si / 1000 Ang^3
#
#
#
# Elastic Constant Matrix: (Units=GPa)
#
#
# Indices 1 2 3 4 5 6 
#
# 1 60.7673 38.8110 26.1266 0.0000 15.4723 0.0000
# 2 38.8110 101.8120 34.7002 0.0000 11.0187 0.0000
# 3 26.1266 34.7002 127.0498 0.0000 17.6712 0.0000
# 4 0.0000 0.0000 0.0000 9.3025 0.0000 3.0258
# 5 15.4723 11.0187 17.6712 0.0000 29.2764 0.0000
# 6 0.0000 0.0000 0.0000 3.0258 0.0000 21.9325
#
#
#
# Elastic Compliance Matrix: (Units=1/GPa)
#
#
# Indices 1 2 3 4 5 6 
#
# 1 0.024417 -0.007774 -0.001648 0.000000 -0.008983 0.000000
# 2 -0.007774 0.013476 -0.002126 0.000000 0.000320 0.000000
# 3 -0.001648 -0.002126 0.009343 0.000000 -0.003968 0.000000
# 4 0.000000 0.000000 0.000000 0.112549 0.000000 -0.015527
# 5 -0.008983 0.000320 -0.003968 0.000000 0.041179 0.000000
# 6 0.000000 0.000000 0.000000 -0.015527 0.000000 0.047737
#
#
# Mechanical properties :
#
#
# Convention : Reuss Voigt Hill
#
# Bulk Modulus (GPa) = 41.42851 54.32276 47.87564
# Shear Modulus (GPa) = 17.86714 24.76836 21.31775
#
# Velocity S-wave (km/s) = 3.03397 3.57217 3.31401
# Velocity P-wave (km/s) = 5.79800 6.70823 6.26966
#
# Compressibility (1/GPa) = 0.02413796
#
# Stress axis : x y z
#
# Youngs Moduli (GPa) = 40.95452 74.20868 107.03725
#
# Poissons Ratio (x) = 0.57689 0.17645
# Poissons Ratio (y) = 0.31837 0.22760
# Poissons Ratio (z) = 0.06751 0.15779
#
# Static dielectric constant tensor:
#      x y z
#    x 3.414270 0.000000 0.128310 
#    y 0.000000 3.182980 0.000000 
#    z 0.128310 0.000000 4.154640 
# 
# 
# High freq. dielectric constant tensor:
#      x y z
#    x 1.751490 0.000000 0.005220 
#    y 0.000000 1.702290 0.000000 
#    z 0.005220 0.000000 1.780020 
# 
# From -- ./inp_files/99796.got.cif
#   From: 2010.06.25/outbox.cif.g09.slc.cpg/sg12_50_cif.got.tgz:99796.got - 2010.06.28 00:19:55.
