data_PCOD8083713
_publ_section_title
;
Structure prediction by ZEFSAII (Michael W. Deem and Ramdas Pophale) SiO2 
 PCOD8083713
Probable space group: C 2/M
;
_chemical_formula_sum "Si O2"
_cell_formula_units_Z 56
_cell_length_a 11.394908
_cell_length_b 16.560006
_cell_length_c 16.155669
_cell_angle_alpha 90.000000
_cell_angle_beta 108.291806
_cell_angle_gamma 90.000000
_cell_volume 2894.527481
_symmetry_space_group_name_H-M "C 2/M"
_symmetry_group_IT_number 12
_symmetry_cell_setting 'monoclinic'
loop_
_space_group_symop_operation_xyz
x,y,z
-x,y,-z
-x,-y,-z
x,-y,z
1/2+x,1/2+y,z
1/2-x,1/2+y,-z
1/2-x,1/2-y,-z
1/2+x,1/2-y,z
loop_
_atom_site_type_symbol
_atom_site_label
_atom_site_fract_x
_atom_site_fract_y
_atom_site_fract_z
Si Si1 0.222828 0.091352 0.288953
Si Si2 0.471744 0.408894 0.155865
Si Si3 0.907137 0.681825 0.230016
Si Si4 0.026207 0.739759 0.098504
Si Si5 0.646317 0.094094 0.341873
Si Si6 0.778465 0.835508 0.218943
Si Si7 0.861565 0.595161 0.477025
O O1 0.283389 0.131177 0.220610
O O2 0.273289 0.132372 0.385449
O O3 0.075143 0.099620 0.251087
O O4 0.266883 0.000000 0.296999
O O5 0.479326 0.500000 0.117914
O O6 0.500775 0.336645 0.097607
O O7 0.335561 0.399500 0.166278
O O8 0.887216 0.771639 0.262117
O O9 0.932174 0.690283 0.137133
O O10 0.020217 0.642070 0.302294
O O11 0.164373 0.713861 0.154152
O O12 0.000000 0.710703 0.000000
O O13 0.746925 0.119632 0.296815
O O14 0.695313 0.114919 0.444922
O O15 0.616304 0.000000 0.325198
O O16 0.867652 0.500000 0.466043
O O17 0.000000 0.631239 0.500000
#
# Coordination Sequence:
#
# PCOD8083713 Si02
#       7
#     8   8   8   8   8   8   8
#     4  10  18  33  56  83 113 147 188 227 269 321
#     4  10  21  37  59  82 111 148 182 224 273 327
#     4  10  19  33  57  81 109 142 180 225 276 324
#     4  10  22  39  62  81 106 142 185 225 275 336
#     4  10  19  34  59  83 107 146 194 231 262 313
#     4  10  21  38  57  80 115 148 179 216 284 339
#     4   9  16  28  52  84 111 142 188 235 267 306
#
# _framework density 19.346854
#
# number of rings (size 3 to 8) (size 9 to 14) (size 15 to 20)
#    0.000    2.143    2.857    0.857    0.000    2.571 
#    0.000    1.429    6.286   18.000    0.000    0.000 
#    0.000    0.000    0.000    0.000    0.000    0.000 
#
# Total GULP energy -346950.061792 kJ/mol
# GULP energy per Si atom -12391.073635 kJ/mol
# Density = 1.930282 g / cm^3
# Si number density = 19.346854 Si / 1000 Ang^3
#
#
#
# Elastic Constant Matrix: (Units=GPa)
#
#
# Indices 1 2 3 4 5 6 
#
# 1 90.1479 31.2570 40.1093 0.0000 -11.9429 0.0000
# 2 31.2570 74.8623 38.9225 0.0000 -6.3824 0.0000
# 3 40.1093 38.9225 108.0510 0.0000 -20.9952 0.0000
# 4 0.0000 0.0000 0.0000 20.0862 0.0000 -1.0802
# 5 -11.9429 -6.3824 -20.9952 0.0000 12.4941 0.0000
# 6 0.0000 0.0000 0.0000 -1.0802 0.0000 30.0358
#
#
#
# Elastic Compliance Matrix: (Units=1/GPa)
#
#
# Indices 1 2 3 4 5 6 
#
# 1 0.014657 -0.004201 -0.002409 0.000000 0.007817 0.000000
# 2 -0.004201 0.017685 -0.005696 0.000000 -0.004553 0.000000
# 3 -0.002409 -0.005696 0.016612 0.000000 0.022704 0.000000
# 4 0.000000 0.000000 0.000000 0.049882 0.000000 0.001794
# 5 0.007817 -0.004553 0.022704 0.000000 0.123336 0.000000
# 6 0.000000 0.000000 0.000000 0.001794 0.000000 0.033358
#
#
# Mechanical properties :
#
#
# Convention : Reuss Voigt Hill
#
# Bulk Modulus (GPa) = 41.07875 54.84875 47.96375
# Shear Modulus (GPa) = 17.34577 23.37471 20.36024
#
# Velocity S-wave (km/s) = 2.99752 3.47968 3.24756
# Velocity P-wave (km/s) = 5.76707 6.67503 6.23759
#
# Compressibility (1/GPa) = 0.02434349
#
# Stress axis : x y z
#
# Youngs Moduli (GPa) = 68.22839 56.54492 60.19667
#
# Poissons Ratio (x) = 0.23754 0.14499
# Poissons Ratio (y) = 0.28662 0.34287
# Poissons Ratio (z) = 0.16433 0.32207
#
# Static dielectric constant tensor:
#      x y z
#    x 3.616830 0.000000 -0.093370 
#    y 0.000000 3.593470 0.000000 
#    z -0.093370 0.000000 3.409540 
# 
# 
# High freq. dielectric constant tensor:
#      x y z
#    x 1.755830 0.000000 -0.008820 
#    y 0.000000 1.746800 0.000000 
#    z -0.008820 0.000000 1.729770 
# 
# From -- ./inp_files/206073.got.cif
#   From: 2010.06.25/outbox.cif.g09.slc.cpg/sg12_104_cif.got.tgz:206073.got - 2010.06.28 00:19:55.
