data_PCOD8083490
_publ_section_title
;
Structure prediction by ZEFSAII (Michael W. Deem and Ramdas Pophale) SiO2 
 PCOD8083490
Probable space group: C 2/M
;
_chemical_formula_sum "Si O2"
_cell_formula_units_Z 48
_cell_length_a 18.386174
_cell_length_b 13.688895
_cell_length_c 9.667603
_cell_angle_alpha 90.000000
_cell_angle_beta 112.174315
_cell_angle_gamma 90.000000
_cell_volume 2253.244153
_symmetry_space_group_name_H-M "C 2/M"
_symmetry_group_IT_number 12
_symmetry_cell_setting 'monoclinic'
loop_
_space_group_symop_operation_xyz
x,y,z
-x,y,-z
-x,-y,-z
x,-y,z
1/2+x,1/2+y,z
1/2-x,1/2+y,-z
1/2-x,1/2-y,-z
1/2+x,1/2-y,z
loop_
_atom_site_type_symbol
_atom_site_label
_atom_site_fract_x
_atom_site_fract_y
_atom_site_fract_z
Si Si1 0.654585 0.264827 0.173837
Si Si2 0.039803 0.721136 0.659685
Si Si3 0.079812 0.887125 0.356120
Si Si4 0.225362 0.894835 0.992101
Si Si5 0.902989 0.610569 0.054393
Si Si6 0.813113 0.823671 0.326521
O O1 0.609144 0.343718 0.231656
O O2 0.683872 0.310899 0.050144
O O3 0.729578 0.223493 0.311997
O O4 0.596940 0.175969 0.085985
O O5 0.033979 0.653243 0.790578
O O6 0.129481 0.737804 0.681317
O O7 0.000000 0.666654 0.500000
O O8 0.996081 0.825617 0.651323
O O9 0.150109 0.881941 0.518179
O O10 0.055028 0.000000 0.317914
O O11 0.318723 0.884260 0.067545
O O12 0.200153 0.000000 0.035010
O O13 0.199935 0.893879 0.813539
O O14 0.926561 0.500000 0.031321
#
# Coordination Sequence:
#
# PCOD8083490 Si02
#       6
#     8   8   8   8   8   8
#     4  11  20  39  61  92 122 153 195 257 310 337
#     4  10  21  39  60  85 122 166 199 240 294 358
#     4  11  25  39  58  91 130 160 194 242 307 366
#     4  10  18  32  64  92 114 150 203 251 297 350
#     4  10  20  38  62  87 112 156 212 250 290 353
#     4  10  19  39  62  84 121 161 202 239 291 356
#
# _framework density 21.302617999999999
#
# number of rings (size 3 to 8) (size 9 to 14) (size 15 to 20)
#    0.000    1.667    3.333    2.500    0.000    5.333 
#    0.000    2.500    0.000    1.000    0.000    0.000 
#    0.000    0.000    0.000    0.000    0.000    0.000 
#
# Total GULP energy -297523.707798 kJ/mol
# GULP energy per Si atom -12396.821158 kJ/mol
# Density = 2.125413 g / cm^3
# Si number density = 21.302618 Si / 1000 Ang^3
#
#
#
# Elastic Constant Matrix: (Units=GPa)
#
#
# Indices 1 2 3 4 5 6 
#
# 1 34.5822 7.0137 31.0609 0.0000 1.5155 0.0000
# 2 7.0137 128.7135 57.9105 0.0000 7.6985 0.0000
# 3 31.0609 57.9105 117.8415 0.0000 11.4900 0.0000
# 4 0.0000 0.0000 0.0000 30.0486 0.0000 -2.2992
# 5 1.5155 7.6985 11.4900 0.0000 32.7000 0.0000
# 6 0.0000 0.0000 0.0000 -2.2992 0.0000 19.6391
#
#
#
# Elastic Compliance Matrix: (Units=1/GPa)
#
#
# Indices 1 2 3 4 5 6 
#
# 1 0.038973 0.003173 -0.011994 0.000000 0.001661 0.000000
# 2 0.003173 0.010246 -0.005822 0.000000 -0.000514 0.000000
# 3 -0.011994 -0.005822 0.014828 0.000000 -0.003284 0.000000
# 4 0.000000 0.000000 0.000000 0.033580 0.000000 0.003931
# 5 0.001661 -0.000514 -0.003284 0.000000 0.031779 0.000000
# 6 0.000000 0.000000 0.000000 0.003931 0.000000 0.051379
#
#
# Mechanical properties :
#
#
# Convention : Reuss Voigt Hill
#
# Bulk Modulus (GPa) = 28.76619 52.56747 40.66683
# Shear Modulus (GPa) = 22.55726 28.82101 25.68914
#
# Velocity S-wave (km/s) = 3.25760 3.68221 3.47640
# Velocity P-wave (km/s) = 5.26139 6.54281 5.93677
#
# Compressibility (1/GPa) = 0.03476304
#
# Stress axis : x y z
#
# Youngs Moduli (GPa) = 25.65888 97.59668 67.43795
#
# Poissons Ratio (x) = -0.30970 0.80885
# Poissons Ratio (y) = -0.08142 0.39260
# Poissons Ratio (z) = 0.30775 0.56817
#
# Static dielectric constant tensor:
#      x y z
#    x 3.675840 0.000000 0.258240 
#    y 0.000000 3.775310 0.000000 
#    z 0.258240 0.000000 3.975870 
# 
# 
# High freq. dielectric constant tensor:
#      x y z
#    x 1.822300 0.000000 0.011330 
#    y 0.000000 1.826220 0.000000 
#    z 0.011330 0.000000 1.839990 
# 
# From -- ./inp_files/85933.got.cif
#   From: 2010.06.25/outbox.cif.g09.slc.cpg/sg12_43_cif.got.tgz:85933.got - 2010.06.28 00:19:55.
