data_PCOD8083218
_publ_section_title
;
Structure prediction by ZEFSAII (Michael W. Deem and Ramdas Pophale) SiO2 
 PCOD8083218
Probable space group: C 2/M
;
_chemical_formula_sum "Si O2"
_cell_formula_units_Z 48
_cell_length_a 15.105131
_cell_length_b 9.155969
_cell_length_c 20.545984
_cell_angle_alpha 90.000000
_cell_angle_beta 111.871261
_cell_angle_gamma 90.000000
_cell_volume 2637.027143
_symmetry_space_group_name_H-M "C 2/M"
_symmetry_group_IT_number 12
_symmetry_cell_setting 'monoclinic'
loop_
_space_group_symop_operation_xyz
x,y,z
-x,y,-z
-x,-y,-z
x,-y,z
1/2+x,1/2+y,z
1/2-x,1/2+y,-z
1/2-x,1/2-y,-z
1/2+x,1/2-y,z
loop_
_atom_site_type_symbol
_atom_site_label
_atom_site_fract_x
_atom_site_fract_y
_atom_site_fract_z
Si Si1 0.031007 0.173293 0.578168
Si Si2 0.052112 0.827892 0.080362
Si Si3 0.414371 0.673149 0.669804
Si Si4 0.738086 0.672523 0.676386
Si Si5 0.258843 0.827444 0.831853
Si Si6 0.945560 0.173084 0.179441
O O1 0.134784 0.231971 0.626802
O O2 0.000000 0.239211 0.500000
O O3 0.954308 0.222486 0.610847
O O4 0.035241 0.000000 0.576292
O O5 0.154046 0.750590 0.108688
O O6 0.986216 0.771407 0.121667
O O7 0.069308 0.000000 0.090098
O O8 0.000000 0.783014 0.000000
O O9 0.401795 0.500000 0.671510
O O10 0.312953 0.749159 0.650147
O O11 0.486578 0.732393 0.744735
O O12 0.746358 0.500000 0.669485
O O13 0.756860 0.717973 0.755868
O O14 0.161982 0.769423 0.839493
O O15 0.270226 0.000000 0.843070
O O16 0.943543 0.000000 0.182619
#
# Coordination Sequence:
#
# PCOD8083218 Si02
#       6
#     8   8   8   8   8   8
#     4   9  18  33  53  77 105 137 173 209 249 305
#     4  10  21  36  53  76 106 135 165 209 261 305
#     4  10  18  32  55  77  99 136 176 205 249 309
#     4  10  19  32  52  78 103 130 171 218 255 291
#     4  10  19  33  54  76  99 133 175 213 249 297
#     4   9  17  32  53  74  99 134 171 203 245 307
#
# _framework density 18.202316
#
# number of rings (size 3 to 8) (size 9 to 14) (size 15 to 20)
#    0.000    2.333    3.333    0.000    0.000    1.667 
#    0.000    2.500    0.000    1.000    0.000    0.000 
#    0.000    0.000    0.000    0.000    0.000    0.000 
#
# Total GULP energy -297622.169424 kJ/mol
# GULP energy per Si atom -12400.923726 kJ/mol
# Density = 1.816089 g / cm^3
# Si number density = 18.202316 Si / 1000 Ang^3
#
#
#
# Elastic Constant Matrix: (Units=GPa)
#
#
# Indices 1 2 3 4 5 6 
#
# 1 139.3659 23.8221 40.7730 0.0000 -2.9716 0.0000
# 2 23.8221 17.7821 18.9181 0.0000 2.7571 0.0000
# 3 40.7730 18.9181 112.1684 0.0000 -4.6954 0.0000
# 4 0.0000 0.0000 0.0000 10.6986 0.0000 0.7970
# 5 -2.9716 2.7571 -4.6954 0.0000 34.9429 0.0000
# 6 0.0000 0.0000 0.0000 0.7970 0.0000 27.8104
#
#
#
# Elastic Compliance Matrix: (Units=1/GPa)
#
#
# Indices 1 2 3 4 5 6 
#
# 1 0.009614 -0.011537 -0.001485 0.000000 0.001528 0.000000
# 2 -0.011537 0.084124 -0.010372 0.000000 -0.009013 0.000000
# 3 -0.001485 -0.010372 0.011297 0.000000 0.002210 0.000000
# 4 0.000000 0.000000 0.000000 0.093670 0.000000 -0.002684
# 5 0.001528 -0.009013 0.002210 0.000000 0.029756 0.000000
# 6 0.000000 0.000000 0.000000 -0.002684 0.000000 0.036035
#
#
# Mechanical properties :
#
#
# Convention : Reuss Voigt Hill
#
# Bulk Modulus (GPa) = 17.16818 48.48253 32.82536
# Shear Modulus (GPa) = 15.11946 27.07727 21.09836
#
# Velocity S-wave (km/s) = 2.88520 3.86109 3.40825
# Velocity P-wave (km/s) = 4.53338 6.82426 5.79319
#
# Compressibility (1/GPa) = 0.05824729
#
# Stress axis : x y z
#
# Youngs Moduli (GPa) = 104.00959 11.88720 88.52099
#
# Poissons Ratio (x) = 0.13715 0.13145
# Poissons Ratio (y) = 1.19999 0.91811
# Poissons Ratio (z) = 0.15445 0.12329
#
# Static dielectric constant tensor:
#      x y z
#    x 3.536100 0.000000 -0.064380 
#    y 0.000000 2.895900 0.000000 
#    z -0.064380 0.000000 3.493570 
# 
# 
# High freq. dielectric constant tensor:
#      x y z
#    x 1.722390 0.000000 -0.001700 
#    y 0.000000 1.660670 0.000000 
#    z -0.001700 0.000000 1.708110 
# 
# From -- ./inp_files/261620.got.cif
#   From: 2010.06.25/outbox.cif.g09.slc.cpg/sg12_131_cif.got.tgz:261620.got - 2010.06.28 00:19:55.
