data_PCOD8083593
_publ_section_title
;
Structure prediction by ZEFSAII (Michael W. Deem and Ramdas Pophale) SiO2 
 PCOD8083593
Probable space group: C 2/M
;
_chemical_formula_sum "Si O2"
_cell_formula_units_Z 64
_cell_length_a 19.973031
_cell_length_b 9.009370
_cell_length_c 24.278805
_cell_angle_alpha 90.000000
_cell_angle_beta 53.694779
_cell_angle_gamma 90.000000
_cell_volume 3520.732503
_symmetry_space_group_name_H-M "C 2/M"
_symmetry_group_IT_number 12
_symmetry_cell_setting 'monoclinic'
loop_
_space_group_symop_operation_xyz
x,y,z
-x,y,-z
-x,-y,-z
x,-y,z
1/2+x,1/2+y,z
1/2-x,1/2+y,-z
1/2-x,1/2-y,-z
1/2+x,1/2-y,z
loop_
_atom_site_type_symbol
_atom_site_label
_atom_site_fract_x
_atom_site_fract_y
_atom_site_fract_z
Si Si1 0.454311 0.323816 0.860014
Si Si2 0.973373 0.673967 0.074114
Si Si3 0.521529 0.672708 0.319626
Si Si4 0.301049 0.669778 0.172215
Si Si5 0.269272 0.826453 0.675487
Si Si6 0.854621 0.328311 0.820716
Si Si7 0.101247 0.172833 0.710097
Si Si8 0.559285 0.325725 0.423333
O O1 0.446397 0.500000 0.866791
O O2 0.462155 0.257543 0.917151
O O3 0.373068 0.260216 0.868227
O O4 0.534360 0.266646 0.786700
O O5 0.980325 0.500000 0.081566
O O6 0.879193 0.723305 0.129993
O O7 0.000000 0.718322 0.000000
O O8 0.544438 0.500000 0.299480
O O9 0.591843 0.768787 0.256371
O O10 0.431621 0.707132 0.335602
O O11 0.516650 0.715628 0.385924
O O12 0.333020 0.500000 0.160513
O O13 0.248291 0.709748 0.252217
O O14 0.242105 0.693027 0.147871
O O15 0.192463 0.760201 0.676599
O O16 0.350663 0.744894 0.614777
O O17 0.283061 0.000000 0.659106
O O18 0.876379 0.500000 0.818940
O O19 0.109079 0.000000 0.718076
O O20 0.500000 0.261700 0.500000
O O21 0.570728 0.500000 0.424354
#
# Coordination Sequence:
#
# PCOD8083593 Si02
#       8
#     8   8   8   8   8   8   8   8
#     4  10  19  35  57  81 110 146 183 218 270 331
#     4  11  24  39  56  82 115 147 182 227 274 322
#     4   9  17  31  51  74 101 141 183 218 269 328
#     4  10  20  35  56  82 111 143 181 228 275 328
#     4  10  18  33  54  78 105 133 176 226 271 321
#     4  10  19  32  53  83 113 137 174 231 279 317
#     4   8  15  29  51  76 100 128 170 221 262 312
#     4  10  21  35  50  73 108 145 181 223 272 326
#
# _framework density 18.178035999999999
#
# number of rings (size 3 to 8) (size 9 to 14) (size 15 to 20)
#    0.000    2.250    2.500    1.875    0.000    2.750 
#    0.000    1.875    0.000    0.000    0.000    0.000 
#    0.000    0.000    0.000    0.000    0.000    0.000 
#
# Total GULP energy -396756.115846 kJ/mol
# GULP energy per Si atom -12398.628620 kJ/mol
# Density = 1.813666 g / cm^3
# Si number density = 18.178036 Si / 1000 Ang^3
#
#
#
# Elastic Constant Matrix: (Units=GPa)
#
#
# Indices 1 2 3 4 5 6 
#
# 1 109.4511 29.3595 14.8817 0.0000 17.1395 -0.0003
# 2 29.3595 57.0791 20.6640 0.0001 11.0717 -0.0003
# 3 14.8817 20.6640 47.4605 0.0001 13.1216 0.0000
# 4 0.0000 0.0001 0.0001 23.4629 0.0000 -1.1826
# 5 17.1395 11.0717 13.1216 0.0000 26.9202 0.0000
# 6 -0.0003 -0.0003 0.0000 -1.1826 0.0000 30.6652
#
#
#
# Elastic Compliance Matrix: (Units=1/GPa)
#
#
# Indices 1 2 3 4 5 6 
#
# 1 0.011228 -0.004765 -0.000013 0.000000 -0.005182 0.000000
# 2 -0.004765 0.023368 -0.007930 0.000000 -0.002711 0.000000
# 3 -0.000013 -0.007930 0.027302 0.000000 -0.010038 0.000000
# 4 0.000000 0.000000 0.000000 0.042703 0.000000 0.001647
# 5 -0.005182 -0.002711 -0.010038 0.000000 0.046454 0.000000
# 6 0.000000 0.000000 0.000000 0.001647 0.000000 0.032674
#
#
# Mechanical properties :
#
#
# Convention : Reuss Voigt Hill
#
# Bulk Modulus (GPa) = 27.41193 38.20012 32.80603
# Shear Modulus (GPa) = 22.59307 26.14871 24.37089
#
# Velocity S-wave (km/s) = 3.52927 3.79684 3.66550
# Velocity P-wave (km/s) = 5.63206 6.34676 6.00006
#
# Compressibility (1/GPa) = 0.03648047
#
# Stress axis : x y z
#
# Youngs Moduli (GPa) = 89.06233 42.79448 36.62692
#
# Poissons Ratio (x) = 0.20393 0.00048
# Poissons Ratio (y) = 0.42441 0.29046
# Poissons Ratio (z) = 0.00116 0.33937
#
# Static dielectric constant tensor:
#      x y z
#    x 3.695010 0.000000 0.137330 
#    y 0.000000 3.221120 0.000000 
#    z 0.137330 0.000000 3.169560 
# 
# 
# High freq. dielectric constant tensor:
#      x y z
#    x 1.724560 0.000000 0.010780 
#    y 0.000000 1.694280 0.000000 
#    z 0.010780 0.000000 1.670810 
# 
# From -- ./inp_files/345951.got.cif
#   From: 2010.06.25/outbox.cif.g09.slc.cpg/sg12_173_cif.got.tgz:345951.got - 2010.06.28 00:19:55.
