data_PCOD8083900
_publ_section_title
;
Structure prediction by ZEFSAII (Michael W. Deem and Ramdas Pophale) SiO2 
 PCOD8083900
Probable space group: C 2/M
;
_chemical_formula_sum "Si O2"
_cell_formula_units_Z 36
_cell_length_a 11.358312
_cell_length_b 21.709685
_cell_length_c 7.835773
_cell_angle_alpha 90.000000
_cell_angle_beta 71.061089
_cell_angle_gamma 90.000000
_cell_volume 1827.588394
_symmetry_space_group_name_H-M "C 2/M"
_symmetry_group_IT_number 12
_symmetry_cell_setting 'monoclinic'
loop_
_space_group_symop_operation_xyz
x,y,z
-x,y,-z
-x,-y,-z
x,-y,z
1/2+x,1/2+y,z
1/2-x,1/2+y,-z
1/2-x,1/2-y,-z
1/2+x,1/2-y,z
loop_
_atom_site_type_symbol
_atom_site_label
_atom_site_fract_x
_atom_site_fract_y
_atom_site_fract_z
Si Si1 0.627064 0.500000 0.652215
Si Si2 0.000000 0.305048 0.000000
Si Si3 0.746639 0.633061 0.105736
Si Si4 0.522463 0.285978 0.300356
Si Si5 0.167370 0.000000 0.249270
Si Si6 0.876153 0.122072 0.167532
O O1 0.690910 0.500000 0.439036
O O2 0.478521 0.500000 0.718719
O O3 0.676097 0.559928 0.726174
O O4 0.037699 0.265224 0.147441
O O5 0.883318 0.347677 0.102301
O O6 0.645476 0.671986 0.259311
O O7 0.729998 0.560224 0.139815
O O8 0.728429 0.647992 0.912335
O O9 0.500000 0.257616 0.500000
O O10 0.404849 0.328568 0.302246
O O11 0.000000 0.108439 0.000000
#
# Coordination Sequence:
#
# PCOD8083900 Si02
#       6
#     4   4   8   8   4   8
#     4  11  18  33  61  99 121 143 201 270 312 346
#     4  12  26  45  58  85 132 176 204 238 298 380
#     4  11  23  41  64  89 125 165 204 251 309 366
#     4  11  22  40  66  94 119 157 208 263 305 350
#     4  11  21  35  62  95 120 154 202 254 314 360
#     4  10  18  33  60  92 122 150 196 254 316 352
#
# _framework density 19.698091000000002
#
# number of rings (size 3 to 8) (size 9 to 14) (size 15 to 20)
#    0.000    1.111    7.778    3.000    0.000    1.333 
#    4.000    0.000    0.000    1.333    0.000    0.000 
#    0.000    0.000    0.000    0.000    0.000    0.000 
#
# Total GULP energy -223198.592112 kJ/mol
# GULP energy per Si atom -12399.921784 kJ/mol
# Density = 1.965326 g / cm^3
# Si number density = 19.698091 Si / 1000 Ang^3
#
#
#
# Elastic Constant Matrix: (Units=GPa)
#
#
# Indices 1 2 3 4 5 6 
#
# 1 74.8478 36.4209 28.0522 0.0000 -3.5102 0.0000
# 2 36.4209 83.7502 28.5525 0.0000 -8.2277 0.0000
# 3 28.0522 28.5525 94.4817 0.0000 25.8933 0.0000
# 4 0.0000 0.0000 0.0000 4.5688 0.0000 0.0590
# 5 -3.5102 -8.2277 25.8933 0.0000 26.0985 0.0000
# 6 0.0000 0.0000 0.0000 0.0590 0.0000 4.4321
#
#
#
# Elastic Compliance Matrix: (Units=1/GPa)
#
#
# Indices 1 2 3 4 5 6 
#
# 1 0.018392 -0.005522 -0.005484 0.000000 0.006174 0.000000
# 2 -0.005522 0.017902 -0.007023 0.000000 0.011869 0.000000
# 3 -0.005484 -0.007023 0.020799 0.000000 -0.023587 0.000000
# 4 0.000000 0.000000 0.000000 0.218915 0.000000 -0.002912
# 5 0.006174 0.011869 -0.023587 0.000000 0.066290 0.000000
# 6 0.000000 0.000000 0.000000 -0.002912 0.000000 0.225664
#
#
# Mechanical properties :
#
#
# Convention : Reuss Voigt Hill
#
# Bulk Modulus (GPa) = 47.54072 48.79232 48.16652
# Shear Modulus (GPa) = 8.18287 17.69016 12.93651
#
# Velocity S-wave (km/s) = 2.04038 3.00002 2.56547
# Velocity P-wave (km/s) = 5.45325 6.06828 5.76897
#
# Compressibility (1/GPa) = 0.02103460
#
# Stress axis : x y z
#
# Youngs Moduli (GPa) = 54.37013 55.85901 48.07968
#
# Poissons Ratio (x) = 0.30847 0.26366
# Poissons Ratio (y) = 0.30025 0.33767
# Poissons Ratio (z) = 0.29816 0.39231
#
# Static dielectric constant tensor:
#      x y z
#    x 3.519590 0.000000 0.365270 
#    y 0.000000 3.575720 0.000000 
#    z 0.365270 0.000000 3.475260 
# 
# 
# High freq. dielectric constant tensor:
#      x y z
#    x 1.740850 0.000000 0.031710 
#    y 0.000000 1.768490 0.000000 
#    z 0.031710 0.000000 1.754750 
# 
# From -- ./inp_files/48434.got.cif
#   From: 2010.06.25/outbox.cif.g09.slc.cpg/sg12_25_cif.got.tgz:48434.got - 2010.06.28 00:19:55.
