data_PCOD8083291
_publ_section_title
;
Structure prediction by ZEFSAII (Michael W. Deem and Ramdas Pophale) SiO2 
 PCOD8083291
Probable space group: C 2/M
;
_chemical_formula_sum "Si O2"
_cell_formula_units_Z 56
_cell_length_a 15.179868
_cell_length_b 18.082909
_cell_length_c 21.563768
_cell_angle_alpha 90.000000
_cell_angle_beta 28.908685
_cell_angle_gamma 90.000000
_cell_volume 2861.416905
_symmetry_space_group_name_H-M "C 2/M"
_symmetry_group_IT_number 12
_symmetry_cell_setting 'monoclinic'
loop_
_space_group_symop_operation_xyz
x,y,z
-x,y,-z
-x,-y,-z
x,-y,z
1/2+x,1/2+y,z
1/2-x,1/2+y,-z
1/2-x,1/2-y,-z
1/2+x,1/2-y,z
loop_
_atom_site_type_symbol
_atom_site_label
_atom_site_fract_x
_atom_site_fract_y
_atom_site_fract_z
Si Si1 0.556361 0.580501 0.819890
Si Si2 0.052725 0.714230 0.794481
Si Si3 0.838495 0.807933 0.009755
Si Si4 0.146441 0.584011 0.569035
Si Si5 0.767286 0.916479 0.158171
Si Si6 0.192486 0.660695 0.415217
Si Si7 0.795817 0.085682 0.608336
O O1 0.470921 0.500000 0.871385
O O2 0.682801 0.597427 0.801611
O O3 0.690642 0.590649 0.679534
O O4 0.384933 0.636131 0.923882
O O5 0.199856 0.765087 0.668723
O O6 0.147287 0.633625 0.738841
O O7 0.869442 0.717218 0.865885
O O8 0.987812 0.741522 0.904170
O O9 0.872806 0.855753 0.050939
O O10 0.171118 0.500000 0.527951
O O11 0.175453 0.646983 0.499222
O O12 0.280715 0.599442 0.543748
O O13 0.945986 0.593665 0.720466
O O14 0.824958 0.000000 0.101673
O O15 0.000000 0.663463 0.500000
O O16 0.000000 0.109793 0.500000
O O17 0.758324 0.000000 0.648171
#
# Coordination Sequence:
#
# PCOD8083291 Si02
#       7
#     8   8   8   8   8   8   8
#     4  10  20  32  54  85 118 156 184 217 273 337
#     4  10  22  37  54  77 111 150 190 236 280 334
#     4  10  20  35  50  75 115 150 189 229 265 321
#     4  10  20  34  57  86 115 150 188 227 278 338
#     4  10  18  32  55  84 117 150 188 227 268 332
#     4  11  21  35  54  83 124 154 180 224 282 345
#     4  10  21  40  62  83 107 141 193 250 292 327
#
# _framework density 19.570723999999998
#
# number of rings (size 3 to 8) (size 9 to 14) (size 15 to 20)
#    0.000    1.857    2.857    1.714    0.000    2.857 
#    0.000    1.429    0.000    0.000    0.000    0.000 
#    0.000   41.143    0.000    0.000    0.000    0.000 
#
# Total GULP energy -346867.186728 kJ/mol
# GULP energy per Si atom -12388.113812 kJ/mol
# Density = 1.952618 g / cm^3
# Si number density = 19.570724 Si / 1000 Ang^3
#
#
#
# Elastic Constant Matrix: (Units=GPa)
#
#
# Indices 1 2 3 4 5 6 
#
# 1 69.5699 24.8783 30.7440 0.0089 1.4216 -0.0224
# 2 24.8783 87.4509 38.3133 0.0156 9.6068 -0.0252
# 3 30.7440 38.3133 101.1801 0.0219 -0.2478 -0.0507
# 4 0.0089 0.0156 0.0219 30.9332 -0.0215 3.7420
# 5 1.4216 9.6068 -0.2478 -0.0215 26.8680 0.0283
# 6 -0.0224 -0.0252 -0.0507 3.7420 0.0283 31.4466
#
#
#
# Elastic Compliance Matrix: (Units=1/GPa)
#
#
# Indices 1 2 3 4 5 6 
#
# 1 0.017294 -0.003162 -0.004057 -0.000001 0.000178 0.000003
# 2 -0.003162 0.014979 -0.004724 -0.000008 -0.005232 0.000008
# 3 -0.004057 -0.004724 0.012910 -0.000006 0.002023 0.000013
# 4 -0.000001 -0.000008 -0.000006 0.032800 0.000033 -0.003903
# 5 0.000178 -0.005232 0.002023 0.000033 0.039099 -0.000040
# 6 0.000003 0.000008 0.000013 -0.003903 -0.000040 0.032264
#
#
# Mechanical properties :
#
#
# Convention : Reuss Voigt Hill
#
# Bulk Modulus (GPa) = 46.95563 49.56356 48.25959
# Shear Modulus (GPa) = 27.72677 28.80060 28.26368
#
# Velocity S-wave (km/s) = 3.76805 3.84033 3.80436
# Velocity P-wave (km/s) = 6.55560 6.71152 6.63402
#
# Compressibility (1/GPa) = 0.02129670
#
# Stress axis : x y z
#
# Youngs Moduli (GPa) = 57.82352 66.76054 77.45986
#
# Poissons Ratio (x) = 0.21109 0.31426
# Poissons Ratio (y) = 0.18283 0.36592
# Poissons Ratio (z) = 0.23460 0.31538
#
# Static dielectric constant tensor:
#      x y z
#    x 3.317510 0.000000 -0.089410 
#    y 0.000000 3.762760 0.000050 
#    z -0.089410 0.000050 3.773670 
# 
# 
# High freq. dielectric constant tensor:
#      x y z
#    x 1.732030 0.000000 -0.010600 
#    y 0.000000 1.763670 0.000000 
#    z -0.010600 0.000000 1.775880 
# 
# From -- ./inp_files/157957.got.cif
#   From: 2010.06.25/outbox.cif.g09.slc.cpg/sg12_79_cif.got.tgz:157957.got - 2010.06.28 00:19:55.
