data_PCOD8083249
_publ_section_title
;
Structure prediction by ZEFSAII (Michael W. Deem and Ramdas Pophale) SiO2 
 PCOD8083249
Probable space group: C 2/M
;
_chemical_formula_sum "Si O2"
_cell_formula_units_Z 56
_cell_length_a 21.241927
_cell_length_b 18.226757
_cell_length_c 15.419087
_cell_angle_alpha 90.000000
_cell_angle_beta 29.423208
_cell_angle_gamma 90.000000
_cell_volume 2932.718481
_symmetry_space_group_name_H-M "C 2/M"
_symmetry_group_IT_number 12
_symmetry_cell_setting 'monoclinic'
loop_
_space_group_symop_operation_xyz
x,y,z
-x,y,-z
-x,-y,-z
x,-y,z
1/2+x,1/2+y,z
1/2-x,1/2+y,-z
1/2-x,1/2-y,-z
1/2+x,1/2-y,z
loop_
_atom_site_type_symbol
_atom_site_label
_atom_site_fract_x
_atom_site_fract_y
_atom_site_fract_z
Si Si1 0.017098 0.585927 0.700860
Si Si2 0.506499 0.417915 0.588037
Si Si3 0.268227 0.642750 0.949913
Si Si4 0.111126 0.330432 0.433891
Si Si5 0.419827 0.214132 0.249730
Si Si6 0.813780 0.225986 0.064101
Si Si7 0.659583 0.298960 0.492911
O O1 0.027220 0.500000 0.711870
O O2 0.104092 0.601942 0.510702
O O3 0.069970 0.634533 0.716575
O O4 0.869634 0.609066 0.860670
O O5 0.500000 0.382080 0.500000
O O6 0.558496 0.500000 0.518324
O O7 0.364190 0.418870 0.799700
O O8 0.609317 0.378262 0.526339
O O9 0.265651 0.704830 0.877829
O O10 0.336395 0.673926 0.954359
O O11 0.244394 0.321043 0.222575
O O12 0.085706 0.257090 0.518888
O O13 0.000000 0.343424 0.500000
O O14 0.374630 0.279324 0.367644
O O15 0.315231 0.205340 0.298192
O O16 0.555644 0.242246 0.050514
#
# Coordination Sequence:
#
# PCOD8083249 Si02
#       7
#     8   8   8   8   8   8   8
#     4  10  21  36  55  82 117 151 185 225 279 338
#     4  11  22  34  53  82 114 145 179 228 284 335
#     4  10  18  34  54  79 109 145 186 226 277 326
#     4  11  20  33  55  85 112 143 180 234 282 322
#     4   9  20  35  56  79 103 145 192 230 268 322
#     4  10  18  32  55  80 108 140 185 233 273 324
#     4  10  19  35  55  78 104 141 190 231 273 323
#
# _framework density 19.094912000000001
#
# number of rings (size 3 to 8) (size 9 to 14) (size 15 to 20)
#    0.000    1.857    2.857    2.571    0.000    1.429 
#    0.000    0.000    0.000    0.000    0.000   11.000 
#    0.000    0.000    0.000    0.000    0.000    0.000 
#
# Total GULP energy -347040.504514 kJ/mol
# GULP energy per Si atom -12394.303733 kJ/mol
# Density = 1.905145 g / cm^3
# Si number density = 19.094912 Si / 1000 Ang^3
#
#
#
# Elastic Constant Matrix: (Units=GPa)
#
#
# Indices 1 2 3 4 5 6 
#
# 1 44.6294 29.2654 22.0198 0.0002 -10.9513 -0.0001
# 2 29.2654 91.3656 26.1558 0.0002 -5.1392 -0.0002
# 3 22.0198 26.1558 100.1164 0.0006 -2.3595 -0.0004
# 4 0.0002 0.0002 0.0006 23.9421 -0.0004 0.3790
# 5 -10.9513 -5.1392 -2.3595 -0.0004 22.9430 0.0003
# 6 -0.0001 -0.0002 -0.0004 0.3790 0.0003 16.2255
#
#
#
# Elastic Compliance Matrix: (Units=1/GPa)
#
#
# Indices 1 2 3 4 5 6 
#
# 1 0.033864 -0.008685 -0.004856 0.000000 0.013720 0.000000
# 2 -0.008685 0.014184 -0.001823 0.000000 -0.001156 0.000000
# 3 -0.004856 -0.001823 0.011496 0.000000 -0.001544 0.000000
# 4 0.000000 0.000000 0.000000 0.041783 0.000001 -0.000976
# 5 0.013720 -0.001156 -0.001544 0.000001 0.049717 -0.000001
# 6 0.000000 0.000000 0.000000 -0.000976 -0.000001 0.061654
#
#
# Mechanical properties :
#
#
# Convention : Reuss Voigt Hill
#
# Bulk Modulus (GPa) = 34.70171 43.44370 39.07270
# Shear Modulus (GPa) = 19.76038 23.20016 21.48027
#
# Velocity S-wave (km/s) = 3.22040 3.48945 3.35762
# Velocity P-wave (km/s) = 5.66045 6.24787 5.96140
#
# Compressibility (1/GPa) = 0.02881703
#
# Stress axis : x y z
#
# Youngs Moduli (GPa) = 29.52945 70.50310 86.98581
#
# Poissons Ratio (x) = 0.61234 0.42238
# Poissons Ratio (y) = 0.25647 0.15854
# Poissons Ratio (z) = 0.14339 0.12849
#
# Static dielectric constant tensor:
#      x y z
#    x 3.500010 0.000000 -0.064730 
#    y 0.000000 3.272280 0.000000 
#    z -0.064730 0.000000 3.595700 
# 
# 
# High freq. dielectric constant tensor:
#      x y z
#    x 1.733170 0.000000 -0.002660 
#    y 0.000000 1.718600 0.000000 
#    z -0.002660 0.000000 1.745130 
# 
# From -- ./inp_files/145460.got.cif
#   From: 2010.06.25/outbox.cif.g09.slc.cpg/sg12_73_cif.got.tgz:145460.got - 2010.06.28 00:19:55.
