data_PCOD8083914
_publ_section_title
;
Structure prediction by ZEFSAII (Michael W. Deem and Ramdas Pophale) SiO2 
 PCOD8083914
Probable space group: C 2/M
;
_chemical_formula_sum "Si O2"
_cell_formula_units_Z 64
_cell_length_a 16.992430
_cell_length_b 11.965020
_cell_length_c 20.395113
_cell_angle_alpha 90.000000
_cell_angle_beta 53.222655
_cell_angle_gamma 90.000000
_cell_volume 3321.316701
_symmetry_space_group_name_H-M "C 2/M"
_symmetry_group_IT_number 12
_symmetry_cell_setting 'monoclinic'
loop_
_space_group_symop_operation_xyz
x,y,z
-x,y,-z
-x,-y,-z
x,-y,z
1/2+x,1/2+y,z
1/2-x,1/2+y,-z
1/2-x,1/2-y,-z
1/2+x,1/2-y,z
loop_
_atom_site_type_symbol
_atom_site_label
_atom_site_fract_x
_atom_site_fract_y
_atom_site_fract_z
Si Si1 0.174238 0.687123 0.259852
Si Si2 0.478859 0.877326 0.290597
Si Si3 0.386506 0.623142 0.119224
Si Si4 0.094446 0.673780 0.985631
Si Si5 0.309172 0.621713 0.845336
Si Si6 0.806404 0.629962 0.477362
Si Si7 0.895592 0.625882 0.571533
Si Si8 0.969028 0.767979 0.853493
O O1 0.274720 0.621187 0.199490
O O2 0.183035 0.810510 0.225661
O O3 0.153288 0.700499 0.347505
O O4 0.087333 0.622153 0.266934
O O5 0.402654 0.847972 0.385937
O O6 0.469818 0.792096 0.234666
O O7 0.457469 0.000000 0.272761
O O8 0.414008 0.500000 0.080842
O O9 0.400064 0.703139 0.050065
O O10 0.455028 0.652649 0.146925
O O11 0.196001 0.610384 0.924290
O O12 0.076208 0.679956 0.072460
O O13 0.000000 0.611032 0.000000
O O14 0.349163 0.500000 0.807977
O O15 0.375313 0.668360 0.871045
O O16 0.763774 0.500000 0.481037
O O17 0.750000 0.750000 0.500000
O O18 0.826141 0.623433 0.544048
O O19 0.911917 0.500000 0.591087
O O20 0.000000 0.679560 0.500000
#
# Coordination Sequence:
#
# PCOD8083914 Si02
#       8
#     8   8   8   8   8   8   8   8
#     4  10  20  36  56  83 110 136 188 235 269 325
#     4  10  20  37  58  81 112 146 182 229 280 330
#     4  10  20  34  56  82 109 140 178 230 282 325
#     4   9  20  37  55  79 106 138 190 236 267 318
#     4  10  21  37  55  76 112 153 180 219 279 340
#     4  10  22  39  60  87 119 152 188 235 289 340
#     4  10  18  33  62  87 107 142 188 237 280 321
#     4  10  21  35  54  84 112 140 179 226 277 340
#
# _framework density 19.269466000000001
#
# number of rings (size 3 to 8) (size 9 to 14) (size 15 to 20)
#    0.000    2.125    1.250    1.875    1.750    3.500 
#    0.000    8.125    0.000    0.750    0.000    0.000 
#    0.000    0.000    0.000    0.000    0.000    0.000 
#
# Total GULP energy -396452.510511 kJ/mol
# GULP energy per Si atom -12389.140953 kJ/mol
# Density = 1.922561 g / cm^3
# Si number density = 19.269466 Si / 1000 Ang^3
#
#
#
# Elastic Constant Matrix: (Units=GPa)
#
#
# Indices 1 2 3 4 5 6 
#
# 1 86.2036 31.8692 32.4967 0.0000 -2.1258 0.0000
# 2 31.8692 96.7176 25.6596 0.0000 3.2289 0.0000
# 3 32.4967 25.6596 112.8931 0.0000 9.1496 0.0000
# 4 0.0000 0.0000 0.0000 2.2490 0.0000 2.5996
# 5 -2.1258 3.2289 9.1496 0.0000 38.1149 0.0000
# 6 0.0000 0.0000 0.0000 2.5996 0.0000 9.9599
#
#
#
# Elastic Compliance Matrix: (Units=1/GPa)
#
#
# Indices 1 2 3 4 5 6 
#
# 1 0.014375 -0.003897 -0.003410 0.000000 0.001950 0.000000
# 2 -0.003897 0.012064 -0.001550 0.000000 -0.000867 0.000000
# 3 -0.003410 -0.001550 0.010399 0.000000 -0.002555 0.000000
# 4 0.000000 0.000000 0.000000 0.636732 0.000000 -0.166189
# 5 0.001950 -0.000867 -0.002555 0.000000 0.027032 0.000000
# 6 0.000000 0.000000 0.000000 -0.166189 0.000000 0.143778
#
#
# Mechanical properties :
#
#
# Convention : Reuss Voigt Hill
#
# Bulk Modulus (GPa) = 52.29241 52.87392 52.58316
# Shear Modulus (GPa) = 5.75727 23.78402 14.77064
#
# Velocity S-wave (km/s) = 1.73039 3.51705 2.77163
# Velocity P-wave (km/s) = 5.58468 6.63262 6.13108
#
# Compressibility (1/GPa) = 0.01912323
#
# Stress axis : x y z
#
# Youngs Moduli (GPa) = 69.56615 82.89387 96.16362
#
# Poissons Ratio (x) = 0.32304 0.32793
# Poissons Ratio (y) = 0.27110 0.14904
# Poissons Ratio (z) = 0.23723 0.12848
#
# Static dielectric constant tensor:
#      x y z
#    x 3.577080 0.000000 -0.096280 
#    y 0.000000 3.561750 0.000000 
#    z -0.096280 0.000000 3.635360 
# 
# 
# High freq. dielectric constant tensor:
#      x y z
#    x 1.746800 0.000000 -0.001330 
#    y 0.000000 1.738120 0.000000 
#    z -0.001330 0.000000 1.759180 
# 
# From -- ./inp_files/315694.got.cif
#   From: 2010.06.25/outbox.cif.g09.slc.cpg/sg12_158_cif.got.tgz:315694.got - 2010.06.28 00:19:55.
