data_PCOD8083469
_publ_section_title
;
Structure prediction by ZEFSAII (Michael W. Deem and Ramdas Pophale) SiO2 
 PCOD8083469
Probable space group: C 2/M
;
_chemical_formula_sum "Si O2"
_cell_formula_units_Z 56
_cell_length_a 17.298611
_cell_length_b 17.839128
_cell_length_c 10.865331
_cell_angle_alpha 90.000000
_cell_angle_beta 124.406539
_cell_angle_gamma 90.000000
_cell_volume 2766.352797
_symmetry_space_group_name_H-M "C 2/M"
_symmetry_group_IT_number 12
_symmetry_cell_setting 'monoclinic'
loop_
_space_group_symop_operation_xyz
x,y,z
-x,y,-z
-x,-y,-z
x,-y,z
1/2+x,1/2+y,z
1/2-x,1/2+y,-z
1/2-x,1/2-y,-z
1/2+x,1/2-y,z
loop_
_atom_site_type_symbol
_atom_site_label
_atom_site_fract_x
_atom_site_fract_y
_atom_site_fract_z
Si Si1 0.245507 0.811225 0.105453
Si Si2 0.524063 0.690601 0.320872
Si Si3 0.705790 0.082617 0.206993
Si Si4 0.351589 0.698971 0.337269
Si Si5 0.062943 0.085719 0.936281
Si Si6 0.550151 0.826094 0.175943
Si Si7 0.605554 0.917952 0.859690
O O1 0.272055 0.764500 0.253379
O O2 0.323499 0.874327 0.162943
O O3 0.250000 0.750000 0.000000
O O4 0.145842 0.852623 0.025343
O O5 0.433140 0.718849 0.313935
O O6 0.611730 0.688307 0.491620
O O7 0.500291 0.609934 0.238239
O O8 0.554415 0.743963 0.236916
O O9 0.805072 0.119257 0.260082
O O10 0.652497 0.136497 0.255860
O O11 0.721989 0.000000 0.278924
O O12 0.644023 0.074950 0.031161
O O13 0.099923 0.000000 0.948341
O O14 0.000000 0.088241 0.000000
O O15 0.493871 0.877113 0.222293
O O16 0.500000 0.818882 0.000000
O O17 0.590550 0.000000 0.788228
#
# Coordination Sequence:
#
# PCOD8083469 Si02
#       7
#     8   8   8   8   8   8   8
#     4  12  20  39  63  90 118 159 213 254 295 358
#     4  11  23  41  62  89 124 161 206 254 306 365
#     4  10  21  36  56  89 122 152 194 246 310 361
#     4  11  24  38  61  92 122 163 204 254 306 361
#     4  11  25  43  66  94 126 165 207 255 309 370
#     4  10  20  36  61  90 118 155 196 253 308 360
#     4  10  18  32  59  88 116 149 195 253 299 349
#
# _framework density 20.243259999999999
#
# number of rings (size 3 to 8) (size 9 to 14) (size 15 to 20)
#    0.000    1.286    4.286    1.286    4.000    4.571 
#    0.000    1.429    0.000    3.429    0.000    0.000 
#    0.000    0.000    0.000    0.000    0.000    0.000 
#
# Total GULP energy -347077.431066 kJ/mol
# GULP energy per Si atom -12395.622538 kJ/mol
# Density = 2.019719 g / cm^3
# Si number density = 20.243260 Si / 1000 Ang^3
#
#
#
# Elastic Constant Matrix: (Units=GPa)
#
#
# Indices 1 2 3 4 5 6 
#
# 1 68.3494 40.4502 12.8487 0.0000 1.9963 0.0000
# 2 40.4502 127.9766 31.6680 0.0000 2.1289 0.0000
# 3 12.8487 31.6680 77.2986 0.0000 2.3876 0.0000
# 4 0.0000 0.0000 0.0000 12.2257 0.0000 1.0680
# 5 1.9963 2.1289 2.3876 0.0000 21.2508 0.0000
# 6 0.0000 0.0000 0.0000 1.0680 0.0000 36.3791
#
#
#
# Elastic Compliance Matrix: (Units=1/GPa)
#
#
# Indices 1 2 3 4 5 6 
#
# 1 0.018059 -0.005515 -0.000710 0.000000 -0.001064 0.000000
# 2 -0.005515 0.010384 -0.003333 0.000000 -0.000148 0.000000
# 3 -0.000710 -0.003333 0.014458 0.000000 -0.001224 0.000000
# 4 0.000000 0.000000 0.000000 0.082005 0.000000 -0.002407
# 5 -0.001064 -0.000148 -0.001224 0.000000 0.047309 0.000000
# 6 0.000000 0.000000 0.000000 -0.002407 0.000000 0.027559
#
#
# Mechanical properties :
#
#
# Convention : Reuss Voigt Hill
#
# Bulk Modulus (GPa) = 42.04063 49.28428 45.66245
# Shear Modulus (GPa) = 22.04412 26.54830 24.29621
#
# Velocity S-wave (km/s) = 3.30352 3.62534 3.46817
# Velocity P-wave (km/s) = 5.94675 6.47480 6.21638
#
# Compressibility (1/GPa) = 0.02378651
#
# Stress axis : x y z
#
# Youngs Moduli (GPa) = 55.37458 96.30023 69.16546
#
# Poissons Ratio (x) = 0.53106 0.04908
# Poissons Ratio (y) = 0.30537 0.23053
# Poissons Ratio (z) = 0.03930 0.32097
#
# Static dielectric constant tensor:
#      x y z
#    x 3.692520 0.000000 0.133630 
#    y 0.000000 4.053550 0.000000 
#    z 0.133630 0.000000 3.534160 
# 
# 
# High freq. dielectric constant tensor:
#      x y z
#    x 1.792940 0.000000 0.008970 
#    y 0.000000 1.801930 0.000000 
#    z 0.008970 0.000000 1.753790 
# 
# From -- ./inp_files/157944.got.cif
#   From: 2010.06.25/outbox.cif.g09.slc.cpg/sg12_79_cif.got.tgz:157944.got - 2010.06.28 00:19:55.
