data_PCOD8083398
_publ_section_title
;
Structure prediction by ZEFSAII (Michael W. Deem and Ramdas Pophale) SiO2 
 PCOD8083398
Probable space group: C 2/M
;
_chemical_formula_sum "Si O2"
_cell_formula_units_Z 64
_cell_length_a 24.236282
_cell_length_b 8.891351
_cell_length_c 16.558687
_cell_angle_alpha 90.000000
_cell_angle_beta 68.801270
_cell_angle_gamma 90.000000
_cell_volume 3326.826516
_symmetry_space_group_name_H-M "C 2/M"
_symmetry_group_IT_number 12
_symmetry_cell_setting 'monoclinic'
loop_
_space_group_symop_operation_xyz
x,y,z
-x,y,-z
-x,-y,-z
x,-y,z
1/2+x,1/2+y,z
1/2-x,1/2+y,-z
1/2-x,1/2-y,-z
1/2+x,1/2-y,z
loop_
_atom_site_type_symbol
_atom_site_label
_atom_site_fract_x
_atom_site_fract_y
_atom_site_fract_z
Si Si1 0.866644 0.179284 0.245178
Si Si2 0.240203 0.321412 0.251645
Si Si3 0.905935 0.177234 0.397241
Si Si4 0.209209 0.677129 0.088440
Si Si5 0.361613 0.677045 0.591140
Si Si6 0.482733 0.678755 0.096209
Si Si7 0.912181 0.172636 0.846085
Si Si8 0.464773 0.327834 0.645104
O O1 0.804588 0.240216 0.243816
O O2 0.877508 0.243201 0.330141
O O3 0.918902 0.239554 0.159062
O O4 0.866330 0.000000 0.246547
O O5 0.237488 0.500000 0.256050
O O6 0.226714 0.262818 0.168399
O O7 0.193502 0.259899 0.340443
O O8 0.862471 0.212749 0.495070
O O9 0.970956 0.250939 0.379525
O O10 0.914661 0.000000 0.380401
O O11 0.216567 0.500000 0.079960
O O12 0.142656 0.723153 0.102487
O O13 0.250000 0.750000 0.000000
O O14 0.355523 0.500000 0.612036
O O15 0.423856 0.739134 0.595194
O O16 0.480486 0.500000 0.093780
O O17 0.531893 0.732181 0.133510
O O18 0.500000 0.746502 0.000000
O O19 0.926140 0.191094 0.745283
O O20 0.897162 0.000000 0.876127
O O21 0.477627 0.500000 0.617231
#
# Coordination Sequence:
#
# PCOD8083398 Si02
#       8
#     8   8   8   8   8   8   8   8
#     4   9  17  31  48  73 106 137 173 219 261 301
#     4  10  22  37  53  74 105 140 175 216 260 308
#     4   9  16  28  49  78 106 134 172 218 263 305
#     4  11  24  39  56  79 106 140 178 218 263 314
#     4  10  19  31  52  79 106 136 172 214 261 312
#     4   9  17  28  50  81 107 132 171 220 263 309
#     4  10  18  32  57  84 108 135 168 216 270 313
#     4   9  15  27  48  78 108 131 164 213 261 303
#
# _framework density 19.237551
#
# number of rings (size 3 to 8) (size 9 to 14) (size 15 to 20)
#    0.000    2.375    2.500    0.750    1.750    2.500 
#    0.000    0.000    0.000    3.375    0.000    0.000 
#    0.000    0.000    0.000    0.000    0.000    0.000 
#
# Total GULP energy -396706.842370 kJ/mol
# GULP energy per Si atom -12397.088824 kJ/mol
# Density = 1.919377 g / cm^3
# Si number density = 19.237551 Si / 1000 Ang^3
#
#
#
# Elastic Constant Matrix: (Units=GPa)
#
#
# Indices 1 2 3 4 5 6 
#
# 1 125.5777 15.7843 60.5898 0.0000 -15.8543 0.0000
# 2 15.7843 18.8241 18.5072 0.0000 -4.2893 0.0000
# 3 60.5898 18.5072 124.4265 0.0000 -6.9640 0.0000
# 4 0.0000 0.0000 0.0000 21.3669 0.0000 -6.7193
# 5 -15.8543 -4.2893 -6.9640 0.0000 32.3997 0.0000
# 6 0.0000 0.0000 0.0000 -6.7193 0.0000 17.1650
#
#
#
# Elastic Compliance Matrix: (Units=1/GPa)
#
#
# Indices 1 2 3 4 5 6 
#
# 1 0.011199 -0.003917 -0.004649 0.000000 0.003962 0.000000
# 2 -0.003917 0.064900 -0.007462 0.000000 0.005071 0.000000
# 3 -0.004649 -0.007462 0.011365 0.000000 -0.000820 0.000000
# 4 0.000000 0.000000 0.000000 0.053371 0.000000 0.020892
# 5 0.003962 0.005071 -0.000820 0.000000 0.033298 0.000000
# 6 0.000000 0.000000 0.000000 0.020892 0.000000 0.066437
#
#
# Mechanical properties :
#
#
# Convention : Reuss Voigt Hill
#
# Bulk Modulus (GPa) = 18.04812 50.95456 34.50134
# Shear Modulus (GPa) = 17.17657 25.78279 21.47968
#
# Velocity S-wave (km/s) = 2.99133 3.66489 3.34511
# Velocity P-wave (km/s) = 4.61875 6.66732 5.73524
#
# Compressibility (1/GPa) = 0.05540744
#
# Stress axis : x y z
#
# Youngs Moduli (GPa) = 89.29516 15.40843 87.99190
#
# Poissons Ratio (x) = 0.06035 0.40907
# Poissons Ratio (y) = 0.34976 0.65659
# Poissons Ratio (z) = 0.41513 0.11498
#
# Static dielectric constant tensor:
#      x y z
#    x 3.956650 0.000000 -0.063350 
#    y 0.000000 2.909980 0.000000 
#    z -0.063350 0.000000 3.799280 
# 
# 
# High freq. dielectric constant tensor:
#      x y z
#    x 1.760880 0.000000 0.001640 
#    y 0.000000 1.678900 0.000000 
#    z 0.001640 0.000000 1.763400 
# 
# From -- ./inp_files/288825.got.cif
#   From: 2010.06.25/outbox.cif.g09.slc.cpg/sg12_145_cif.got.tgz:288825.got - 2010.06.28 00:19:55.
