data_PCOD8083488
_publ_section_title
;
Structure prediction by ZEFSAII (Michael W. Deem and Ramdas Pophale) SiO2 
 PCOD8083488
Probable space group: C 2/M
;
_chemical_formula_sum "Si O2"
_cell_formula_units_Z 48
_cell_length_a 15.307879
_cell_length_b 23.891660
_cell_length_c 11.808941
_cell_angle_alpha 90.000000
_cell_angle_beta 149.714307
_cell_angle_gamma 90.000000
_cell_volume 2178.068900
_symmetry_space_group_name_H-M "C 2/M"
_symmetry_group_IT_number 12
_symmetry_cell_setting 'monoclinic'
loop_
_space_group_symop_operation_xyz
x,y,z
-x,y,-z
-x,-y,-z
x,-y,z
1/2+x,1/2+y,z
1/2-x,1/2+y,-z
1/2-x,1/2-y,-z
1/2+x,1/2-y,z
loop_
_atom_site_type_symbol
_atom_site_label
_atom_site_fract_x
_atom_site_fract_y
_atom_site_fract_z
Si Si1 0.555426 0.063528 0.684984
Si Si2 0.249711 0.360066 0.060069
Si Si3 0.551869 0.209074 0.183595
Si Si4 0.082360 0.173969 0.319092
Si Si5 0.195587 0.563307 0.203098
Si Si6 0.707990 0.561293 0.433945
O O1 0.500000 0.087345 0.500000
O O2 0.711512 0.100257 0.909195
O O3 0.400866 0.067154 0.602383
O O4 0.621386 0.000000 0.744228
O O5 0.091098 0.316597 0.892604
O O6 0.423840 0.325478 0.229828
O O7 0.285723 0.396857 0.212133
O O8 0.738280 0.181400 0.412417
O O9 0.559632 0.276034 0.205087
O O10 0.500000 0.193632 0.000000
O O11 0.092021 0.113986 0.262717
O O12 0.196312 0.500000 0.155426
O O13 0.294528 0.565695 0.432683
O O14 0.000000 0.584501 0.000000
O O15 0.632561 0.500000 0.313014
#
# Coordination Sequence:
#
# PCOD8083488 Si02
#       6
#     8   8   8   8   8   8
#     4  10  21  38  63  94 135 181 220 266 328 394
#     4  12  22  40  67  97 129 171 225 274 328 392
#     4  11  25  46  67  92 133 177 218 278 341 391
#     4  11  25  43  65  98 133 171 224 270 331 402
#     4  10  18  32  62  96 130 169 206 261 331 388
#     4  10  20  38  62  93 132 169 210 266 329 389
#
# _framework density 22.037870000000002
#
# number of rings (size 3 to 8) (size 9 to 14) (size 15 to 20)
#    0.000    1.333    3.333    2.500    0.000    5.333 
#    0.000    1.667    0.000    3.500    0.000    0.000 
#    0.000    0.000    0.000    0.000    0.000    0.000 
#
# Total GULP energy -297609.724763 kJ/mol
# GULP energy per Si atom -12400.405198 kJ/mol
# Density = 2.198771 g / cm^3
# Si number density = 22.037870 Si / 1000 Ang^3
#
#
#
# Elastic Constant Matrix: (Units=GPa)
#
#
# Indices 1 2 3 4 5 6 
#
# 1 84.1430 32.0702 44.4806 0.0000 8.1232 0.0000
# 2 32.0702 147.9824 34.4904 0.0000 11.8982 0.0000
# 3 44.4806 34.4904 66.8887 0.0000 17.7184 0.0000
# 4 0.0000 0.0000 0.0000 13.1097 0.0000 3.3218
# 5 8.1232 11.8982 17.7184 0.0000 40.9967 0.0000
# 6 0.0000 0.0000 0.0000 3.3218 0.0000 26.4034
#
#
#
# Elastic Compliance Matrix: (Units=1/GPa)
#
#
# Indices 1 2 3 4 5 6 
#
# 1 0.018687 -0.001353 -0.012255 0.000000 0.001987 0.000000
# 2 -0.001353 0.007791 -0.002924 0.000000 -0.000729 0.000000
# 3 -0.012255 -0.002924 0.026809 0.000000 -0.008310 0.000000
# 4 0.000000 0.000000 0.000000 0.078791 0.000000 -0.009913
# 5 0.001987 -0.000729 -0.008310 0.000000 0.027801 0.000000
# 6 0.000000 0.000000 0.000000 -0.009913 0.000000 0.039121
#
#
# Mechanical properties :
#
#
# Convention : Reuss Voigt Hill
#
# Bulk Modulus (GPa) = 49.45253 57.89961 53.67607
# Shear Modulus (GPa) = 20.93745 28.63349 24.78547
#
# Velocity S-wave (km/s) = 3.08566 3.60847 3.35726
# Velocity P-wave (km/s) = 5.93157 6.60993 6.27992
#
# Compressibility (1/GPa) = 0.02022141
#
# Stress axis : x y z
#
# Youngs Moduli (GPa) = 53.51316 128.35293 37.30102
#
# Poissons Ratio (x) = 0.17368 0.45713
# Poissons Ratio (y) = 0.07241 0.10908
# Poissons Ratio (z) = 0.65582 0.37535
#
# Static dielectric constant tensor:
#      x y z
#    x 3.782450 0.000000 0.052400 
#    y 0.000000 4.413000 0.000000 
#    z 0.052400 0.000000 3.650970 
# 
# 
# High freq. dielectric constant tensor:
#      x y z
#    x 1.854760 0.000000 0.008400 
#    y 0.000000 1.888930 0.000000 
#    z 0.008400 0.000000 1.839560 
# 
# From -- ./inp_files/149855.got.cif
#   From: 2010.06.25/outbox.cif.g09.slc.cpg/sg12_75_cif.got.tgz:149855.got - 2010.06.28 00:19:55.
