data_PCOD8083480
_publ_section_title
;
Structure prediction by ZEFSAII (Michael W. Deem and Ramdas Pophale) SiO2 
 PCOD8083480
Probable space group: C 2/M
;
_chemical_formula_sum "Si O2"
_cell_formula_units_Z 56
_cell_length_a 22.668100
_cell_length_b 13.457734
_cell_length_c 14.141668
_cell_angle_alpha 90.000000
_cell_angle_beta 38.436819
_cell_angle_gamma 90.000000
_cell_volume 2681.850211
_symmetry_space_group_name_H-M "C 2/M"
_symmetry_group_IT_number 12
_symmetry_cell_setting 'monoclinic'
loop_
_space_group_symop_operation_xyz
x,y,z
-x,y,-z
-x,-y,-z
x,-y,z
1/2+x,1/2+y,z
1/2-x,1/2+y,-z
1/2-x,1/2-y,-z
1/2+x,1/2-y,z
loop_
_atom_site_type_symbol
_atom_site_label
_atom_site_fract_x
_atom_site_fract_y
_atom_site_fract_z
Si Si1 0.561783 0.112332 0.702176
Si Si2 0.456340 0.884240 0.650838
Si Si3 0.245140 0.887598 0.640516
Si Si4 0.720518 0.797233 0.202929
Si Si5 0.402937 0.613607 0.892260
Si Si6 0.598922 0.613099 0.325727
Si Si7 0.950247 0.204367 0.161838
O O1 0.503620 0.158756 0.686365
O O2 0.673174 0.114406 0.540221
O O3 0.540837 0.180710 0.818694
O O4 0.528463 0.000000 0.767570
O O5 0.500000 0.835797 0.500000
O O6 0.345166 0.858534 0.788377
O O7 0.477691 0.000000 0.624172
O O8 0.287658 0.843119 0.683084
O O9 0.159488 0.823159 0.708116
O O10 0.210915 0.000000 0.703374
O O11 0.685568 0.682730 0.251865
O O12 0.826818 0.808082 0.029908
O O13 0.370154 0.500000 0.952235
O O14 0.418434 0.632798 0.762707
O O15 0.502058 0.632465 0.820810
O O16 0.500000 0.639806 0.500000
O O17 0.629412 0.500000 0.309109
O O18 0.000000 0.188611 0.000000
#
# Coordination Sequence:
#
# PCOD8083480 Si02
#       7
#     8   8   8   8   8   8   8
#     4  10  23  42  63  92 125 162 211 263 313 380
#     4  10  18  32  60  95 126 153 192 253 322 372
#     4  11  23  41  66  94 124 158 214 274 316 366
#     4  12  21  36  65  97 126 165 202 258 319 374
#     4  11  24  42  66  94 128 165 214 264 312 371
#     4  10  24  44  64  93 132 172 209 251 306 386
#     4  12  25  42  63  88 125 174 214 261 320 368
#
# _framework density 20.881105999999999
#
# number of rings (size 3 to 8) (size 9 to 14) (size 15 to 20)
#    0.000    1.143    2.857    3.857    2.000    0.857 
#    0.000    2.857    0.000    0.000    0.000    0.000 
#    0.000    0.000    0.000    0.000    0.000    0.000 
#
# Total GULP energy -347276.606199 kJ/mol
# GULP energy per Si atom -12402.735936 kJ/mol
# Density = 2.083358 g / cm^3
# Si number density = 20.881106 Si / 1000 Ang^3
#
#
#
# Elastic Constant Matrix: (Units=GPa)
#
#
# Indices 1 2 3 4 5 6 
#
# 1 87.8118 38.0852 5.9357 0.0000 -14.5239 0.0000
# 2 38.0852 114.7278 14.8949 0.0000 2.3999 0.0000
# 3 5.9357 14.8949 48.4024 0.0000 -3.4753 0.0000
# 4 0.0000 0.0000 0.0000 25.8151 0.0000 -5.3195
# 5 -14.5239 2.3999 -3.4753 0.0000 35.6744 0.0000
# 6 0.0000 0.0000 0.0000 -5.3195 0.0000 29.0490
#
#
#
# Elastic Compliance Matrix: (Units=1/GPa)
#
#
# Indices 1 2 3 4 5 6 
#
# 1 0.014583 -0.004999 0.000202 0.000000 0.006293 0.000000
# 2 -0.004999 0.010821 -0.002936 0.000000 -0.003049 0.000000
# 3 0.000202 -0.002936 0.021711 0.000000 0.002395 0.000000
# 4 0.000000 0.000000 0.000000 0.040256 0.000000 0.007372
# 5 0.006293 -0.003049 0.002395 0.000000 0.031032 0.000000
# 6 0.000000 0.000000 0.000000 0.007372 0.000000 0.035774
#
#
# Mechanical properties :
#
#
# Convention : Reuss Voigt Hill
#
# Bulk Modulus (GPa) = 31.59660 40.97485 36.28572
# Shear Modulus (GPa) = 27.74808 30.90944 29.32876
#
# Velocity S-wave (km/s) = 3.64931 3.85159 3.75181
# Velocity P-wave (km/s) = 5.73769 6.28054 6.01524
#
# Compressibility (1/GPa) = 0.03164898
#
# Stress axis : x y z
#
# Youngs Moduli (GPa) = 68.57132 92.41570 46.06010
#
# Poissons Ratio (x) = 0.46198 -0.00930
# Poissons Ratio (y) = 0.34279 0.13522
# Poissons Ratio (z) = -0.01384 0.27131
#
# Static dielectric constant tensor:
#      x y z
#    x 3.833380 0.000000 -0.033780 
#    y 0.000000 3.872260 0.000000 
#    z -0.033780 0.000000 3.646080 
# 
# 
# High freq. dielectric constant tensor:
#      x y z
#    x 1.818120 0.000000 -0.004400 
#    y 0.000000 1.824130 0.000000 
#    z -0.004400 0.000000 1.810540 
# 
# From -- ./inp_files/233685.got.cif
#   From: 2010.06.25/outbox.cif.g09.slc.cpg/sg12_117_cif.got.tgz:233685.got - 2010.06.28 00:19:55.
