data_PCOD8083174
_publ_section_title
;
Structure prediction by ZEFSAII (Michael W. Deem and Ramdas Pophale) SiO2 
 PCOD8083174
Probable space group: C 2/M
;
_chemical_formula_sum "Si O2"
_cell_formula_units_Z 48
_cell_length_a 33.461835
_cell_length_b 13.121846
_cell_length_c 15.410009
_cell_angle_alpha 90.000000
_cell_angle_beta 21.251091
_cell_angle_gamma 90.000000
_cell_volume 2452.463870
_symmetry_space_group_name_H-M "C 2/M"
_symmetry_group_IT_number 12
_symmetry_cell_setting 'monoclinic'
loop_
_space_group_symop_operation_xyz
x,y,z
-x,y,-z
-x,-y,-z
x,-y,z
1/2+x,1/2+y,z
1/2-x,1/2+y,-z
1/2-x,1/2-y,-z
1/2+x,1/2-y,z
loop_
_atom_site_type_symbol
_atom_site_label
_atom_site_fract_x
_atom_site_fract_y
_atom_site_fract_z
Si Si1 0.379501 0.382949 0.262412
Si Si2 0.130444 0.203466 0.538033
Si Si3 0.128239 0.381329 0.257113
Si Si4 0.236665 0.747723 0.893720
Si Si5 0.229714 0.387792 0.415956
Si Si6 0.085517 0.885883 0.102724
O O1 0.388413 0.500000 0.216444
O O2 0.345484 0.374717 0.432185
O O3 0.283771 0.338201 0.393461
O O4 0.500000 0.331689 0.000000
O O5 0.225404 0.195668 0.273057
O O6 0.131423 0.315823 0.580316
O O7 0.014566 0.181312 0.729158
O O8 0.154582 0.500000 0.221045
O O9 0.162678 0.313779 0.270377
O O10 0.000000 0.363804 0.500000
O O11 0.199424 0.343869 0.031037
O O12 0.135427 0.825972 0.084054
O O13 0.178629 0.500000 0.535896
O O14 0.324733 0.395103 0.152918
O O15 0.047047 0.000000 0.208632
#
# Coordination Sequence:
#
# PCOD8083174 Si02
#       6
#     8   8   8   8   8   8
#     4  10  18  32  54  80 110 148 190 227 270 322
#     4  11  20  32  56  84 111 142 184 234 274 311
#     4  10  21  40  62  80 109 148 180 218 276 343
#     4  10  22  37  56  87 112 138 184 230 273 324
#     4   9  19  34  52  77 108 148 192 227 267 322
#     4  10  19  34  55  81 112 145 183 225 270 322
#
# _framework density 19.572153
#
# number of rings (size 3 to 8) (size 9 to 14) (size 15 to 20)
#    0.000    2.000    1.667    2.500    0.000    2.000 
#    0.000    0.833    0.000    8.000    0.000    0.000 
#    0.000    0.000    0.000    0.000    0.000    0.000 
#
# Total GULP energy -297514.893543 kJ/mol
# GULP energy per Si atom -12396.453898 kJ/mol
# Density = 1.952761 g / cm^3
# Si number density = 19.572153 Si / 1000 Ang^3
#
#
#
# Elastic Constant Matrix: (Units=GPa)
#
#
# Indices 1 2 3 4 5 6 
#
# 1 83.0027 16.8023 24.6907 0.0000 -0.7144 0.0000
# 2 16.8023 76.2318 41.6396 0.0000 -11.0166 0.0000
# 3 24.6907 41.6396 52.5758 0.0000 -13.6876 0.0000
# 4 0.0000 0.0000 0.0000 27.0013 0.0000 -1.6338
# 5 -0.7144 -11.0166 -13.6876 0.0000 37.4902 0.0000
# 6 0.0000 0.0000 0.0000 -1.6338 0.0000 20.9086
#
#
#
# Elastic Compliance Matrix: (Units=1/GPa)
#
#
# Indices 1 2 3 4 5 6 
#
# 1 0.014230 0.000896 -0.008015 0.000000 -0.002392 0.000000
# 2 0.000896 0.023176 -0.018784 0.000000 -0.000031 0.000000
# 3 -0.008015 -0.018784 0.039985 0.000000 0.008926 0.000000
# 4 0.000000 0.000000 0.000000 0.037211 0.000000 0.002908
# 5 -0.002392 -0.000031 0.008926 0.000000 0.029878 0.000000
# 6 0.000000 0.000000 0.000000 0.002908 0.000000 0.048054
#
#
# Mechanical properties :
#
#
# Convention : Reuss Voigt Hill
#
# Bulk Modulus (GPa) = 39.08580 42.00838 40.54709
# Shear Modulus (GPa) = 19.77307 25.65854 22.71581
#
# Velocity S-wave (km/s) = 3.18192 3.62466 3.41048
# Velocity P-wave (km/s) = 5.78903 6.24720 6.02248
#
# Compressibility (1/GPa) = 0.02558474
#
# Stress axis : x y z
#
# Youngs Moduli (GPa) = 70.27383 43.14748 25.00957
#
# Poissons Ratio (x) = -0.03865 0.20045
# Poissons Ratio (y) = -0.06295 0.46978
# Poissons Ratio (z) = 0.56324 0.81049
#
# Static dielectric constant tensor:
#      x y z
#    x 3.764240 0.000000 -0.147860 
#    y 0.000000 3.770570 0.000000 
#    z -0.147860 0.000000 3.349100 
# 
# 
# High freq. dielectric constant tensor:
#      x y z
#    x 1.778440 0.000000 -0.010710 
#    y 0.000000 1.758750 0.000000 
#    z -0.010710 0.000000 1.735670 
# 
# From -- ./inp_files/251431.got.cif
#   From: 2010.06.25/outbox.cif.g09.slc.cpg/sg12_126_cif.got.tgz:251431.got - 2010.06.28 00:19:55.
