data_PCOD8083497
_publ_section_title
;
Structure prediction by ZEFSAII (Michael W. Deem and Ramdas Pophale) SiO2 
 PCOD8083497
Probable space group: C 2/M
;
_chemical_formula_sum "Si O2"
_cell_formula_units_Z 64
_cell_length_a 13.540087
_cell_length_b 26.321558
_cell_length_c 17.448810
_cell_angle_alpha 90.000000
_cell_angle_beta 33.461708
_cell_angle_gamma 90.000000
_cell_volume 3428.858171
_symmetry_space_group_name_H-M "C 2/M"
_symmetry_group_IT_number 12
_symmetry_cell_setting 'monoclinic'
loop_
_space_group_symop_operation_xyz
x,y,z
-x,y,-z
-x,-y,-z
x,-y,z
1/2+x,1/2+y,z
1/2-x,1/2+y,-z
1/2-x,1/2-y,-z
1/2+x,1/2-y,z
loop_
_atom_site_type_symbol
_atom_site_label
_atom_site_fract_x
_atom_site_fract_y
_atom_site_fract_z
Si Si1 0.414394 0.692617 0.687343
Si Si2 0.281035 0.249254 0.569530
Si Si3 0.294482 0.943195 0.649331
Si Si4 0.802667 0.243661 0.054640
Si Si5 0.209724 0.056286 0.870406
Si Si6 0.076319 0.311568 0.820689
Si Si7 0.396703 0.645983 0.302159
Si Si8 0.738527 0.359457 0.970903
O O1 0.515851 0.727501 0.557023
O O2 0.345884 0.730145 0.797698
O O3 0.248933 0.664238 0.752010
O O4 0.540321 0.651480 0.649282
O O5 0.250000 0.250000 0.500000
O O6 0.139761 0.286722 0.700483
O O7 0.242467 0.192395 0.627526
O O8 0.500000 0.947800 0.500000
O O9 0.275603 0.919935 0.747148
O O10 0.205420 0.907020 0.643244
O O11 0.206643 0.000000 0.702138
O O12 0.797559 0.183105 0.071873
O O13 0.750000 0.250000 0.000000
O O14 0.001468 0.268768 0.929623
O O15 0.265883 0.088218 0.908443
O O16 0.292619 0.000000 0.828060
O O17 0.000000 0.053524 0.000000
O O18 0.920616 0.351945 0.902852
O O19 0.571061 0.643162 0.136047
#
# Coordination Sequence:
#
# PCOD8083497 Si02
#       8
#     8   8   8   8   8   8   8   8
#     4  11  22  35  54  80 115 155 182 231 275 330
#     4  10  21  36  51  76 114 150 186 233 271 320
#     4  10  23  41  60  84 113 142 183 239 295 345
#     4  10  18  33  49  73 107 143 190 224 258 318
#     4  10  21  37  58  85 110 140 185 237 293 339
#     4  11  21  35  53  78 113 150 189 222 272 331
#     4  11  20  36  56  80 110 147 188 227 279 333
#     4  11  20  34  57  81 109 146 191 229 270 338
#
# _framework density 18.665106999999999
#
# number of rings (size 3 to 8) (size 9 to 14) (size 15 to 20)
#    0.000    1.500    5.000    3.000    0.000    6.000 
#    0.000    0.000    0.000    0.750    0.000    1.750 
#    0.000    8.000    0.000    0.000    0.000    0.000 
#
# Total GULP energy -396443.820296 kJ/mol
# GULP energy per Si atom -12388.869384 kJ/mol
# Density = 1.862262 g / cm^3
# Si number density = 18.665107 Si / 1000 Ang^3
#
#
#
# Elastic Constant Matrix: (Units=GPa)
#
#
# Indices 1 2 3 4 5 6 
#
# 1 88.4518 50.8749 28.6908 0.0024 -8.8897 -0.0017
# 2 50.8749 94.5052 29.4559 -0.0010 -3.2006 0.0008
# 3 28.6908 29.4559 105.6586 -0.0115 4.1811 0.0006
# 4 0.0024 -0.0010 -0.0115 25.4255 -0.0014 0.3021
# 5 -8.8897 -3.2006 4.1811 -0.0014 33.9392 0.0034
# 6 -0.0017 0.0008 0.0006 0.3021 0.0034 26.8418
#
#
#
# Elastic Compliance Matrix: (Units=1/GPa)
#
#
# Indices 1 2 3 4 5 6 
#
# 1 0.017386 -0.008433 -0.002531 -0.000003 0.004070 0.000001
# 2 -0.008433 0.015755 -0.002084 0.000000 -0.000466 -0.000001
# 3 -0.002531 -0.002084 0.010819 0.000005 -0.002192 0.000000
# 4 -0.000003 0.000000 0.000005 0.039336 0.000000 -0.000443
# 5 0.004070 -0.000466 -0.002192 0.000000 0.030757 -0.000004
# 6 0.000001 -0.000001 0.000000 -0.000443 -0.000004 0.037260
#
#
# Mechanical properties :
#
#
# Convention : Reuss Voigt Hill
#
# Bulk Modulus (GPa) = 55.97629 56.29543 56.13586
# Shear Modulus (GPa) = 27.26831 29.21425 28.24128
#
# Velocity S-wave (km/s) = 3.82635 3.96053 3.89402
# Velocity P-wave (km/s) = 7.04104 7.15127 7.09637
#
# Compressibility (1/GPa) = 0.01786471
#
# Stress axis : x y z
#
# Youngs Moduli (GPa) = 57.51792 63.47343 92.42577
#
# Poissons Ratio (x) = 0.53524 0.23395
# Poissons Ratio (y) = 0.48502 0.19260
# Poissons Ratio (z) = 0.14559 0.13227
#
# Static dielectric constant tensor:
#      x y z
#    x 3.504980 0.000000 -0.226520 
#    y 0.000000 3.691670 -0.000020 
#    z -0.226520 -0.000020 3.971890 
# 
# 
# High freq. dielectric constant tensor:
#      x y z
#    x 1.717210 0.000000 0.002680 
#    y 0.000000 1.682350 0.000000 
#    z 0.002680 0.000000 1.751170 
# 
# From -- ./inp_files/272819.got.cif
#   From: 2010.06.25/outbox.cif.g09.slc.cpg/sg12_137_cif.got.tgz:272819.got - 2010.06.28 00:19:55.
