data_PCOD8083859
_publ_section_title
;
Structure prediction by ZEFSAII (Michael W. Deem and Ramdas Pophale) SiO2 
 PCOD8083859
Probable space group: C 2/M
;
_chemical_formula_sum "Si O2"
_cell_formula_units_Z 64
_cell_length_a 14.985809
_cell_length_b 14.830580
_cell_length_c 16.697877
_cell_angle_alpha 90.000000
_cell_angle_beta 118.977976
_cell_angle_gamma 90.000000
_cell_volume 3246.469590
_symmetry_space_group_name_H-M "C 2/M"
_symmetry_group_IT_number 12
_symmetry_cell_setting 'monoclinic'
loop_
_space_group_symop_operation_xyz
x,y,z
-x,y,-z
-x,-y,-z
x,-y,z
1/2+x,1/2+y,z
1/2-x,1/2+y,-z
1/2-x,1/2-y,-z
1/2+x,1/2-y,z
loop_
_atom_site_type_symbol
_atom_site_label
_atom_site_fract_x
_atom_site_fract_y
_atom_site_fract_z
Si Si1 0.413606 0.900202 0.910193
Si Si2 0.617574 0.099454 0.570268
Si Si3 0.808558 0.604084 0.565845
Si Si4 0.111123 0.103521 0.576923
Si Si5 0.697132 0.757957 0.716682
Si Si6 0.867684 0.255705 0.134281
Si Si7 0.097529 0.708795 0.251789
Si Si8 0.736565 0.896760 0.017506
O O1 0.394476 0.863477 0.814778
O O2 0.308442 0.900396 0.912899
O O3 0.456691 0.000000 0.914257
O O4 0.500000 0.846840 0.000000
O O5 0.500000 0.094474 0.500000
O O6 0.678036 0.139292 0.519245
O O7 0.629256 0.161703 0.652563
O O8 0.659845 0.000000 0.609392
O O9 0.843592 0.500000 0.586391
O O10 0.689965 0.615354 0.537721
O O11 0.883214 0.661141 0.655160
O O12 0.150808 0.162097 0.668488
O O13 0.000000 0.137175 0.500000
O O14 0.105969 0.000000 0.603889
O O15 0.696975 0.760305 0.812239
O O16 0.810774 0.777119 0.730695
O O17 0.835488 0.168709 0.066512
O O18 0.987530 0.243757 0.205063
O O19 0.844636 0.349719 0.078059
O O20 0.762630 0.000000 0.000484
#
# Coordination Sequence:
#
# PCOD8083859 Si02
#       8
#     8   8   8   8   8   8   8   8
#     4  10  18  33  59  87 111 141 180 234 296 338
#     4  10  21  38  56  75 105 150 195 233 271 322
#     4   9  19  34  54  81 110 143 188 236 282 327
#     4   9  19  35  56  82 112 146 184 231 284 335
#     4  11  23  36  55  84 114 148 187 231 280 339
#     4  11  23  38  58  87 116 148 187 233 287 340
#     4  11  21  34  55  86 117 144 180 235 286 338
#     4  10  22  40  61  84 114 149 189 235 284 341
#
# _framework density 19.713722000000001
#
# number of rings (size 3 to 8) (size 9 to 14) (size 15 to 20)
#    0.000    1.875    2.500    1.500    0.000    5.000 
#    0.000    0.625    0.000    0.750    0.000    0.000 
#    0.000    0.000    0.000    0.000    0.000    0.000 
#
# Total GULP energy -396706.817115 kJ/mol
# GULP energy per Si atom -12397.088035 kJ/mol
# Density = 1.966885 g / cm^3
# Si number density = 19.713722 Si / 1000 Ang^3
#
#
#
# Elastic Constant Matrix: (Units=GPa)
#
#
# Indices 1 2 3 4 5 6 
#
# 1 73.1972 19.0423 18.1135 0.0000 9.7260 0.0000
# 2 19.0423 90.4321 32.2020 0.0000 2.5182 0.0000
# 3 18.1135 32.2020 71.6653 0.0000 3.8571 0.0000
# 4 0.0000 0.0000 0.0000 14.2411 0.0000 -1.0759
# 5 9.7260 2.5182 3.8571 0.0000 41.2770 0.0000
# 6 0.0000 0.0000 0.0000 -1.0759 0.0000 21.1330
#
#
#
# Elastic Compliance Matrix: (Units=1/GPa)
#
#
# Indices 1 2 3 4 5 6 
#
# 1 0.015329 -0.002167 -0.002727 0.000000 -0.003225 0.000000
# 2 -0.002167 0.013473 -0.005517 0.000000 0.000204 0.000000
# 3 -0.002727 -0.005517 0.017156 0.000000 -0.000624 0.000000
# 4 0.000000 0.000000 0.000000 0.070490 0.000000 0.003589
# 5 -0.003225 0.000204 -0.000624 0.000000 0.025032 0.000000
# 6 0.000000 0.000000 0.000000 0.003589 0.000000 0.047502
#
#
# Mechanical properties :
#
#
# Convention : Reuss Voigt Hill
#
# Bulk Modulus (GPa) = 39.78504 41.55671 40.67087
# Shear Modulus (GPa) = 22.91647 26.39268 24.65457
#
# Velocity S-wave (km/s) = 3.41319 3.66293 3.54026
# Velocity P-wave (km/s) = 5.97983 6.24622 6.11447
#
# Compressibility (1/GPa) = 0.02513508
#
# Stress axis : x y z
#
# Youngs Moduli (GPa) = 65.23663 74.22085 58.28935
#
# Poissons Ratio (x) = 0.16083 0.15896
# Poissons Ratio (y) = 0.14136 0.32160
# Poissons Ratio (z) = 0.17791 0.40951
#
# Static dielectric constant tensor:
#      x y z
#    x 3.769440 0.000000 0.165300 
#    y 0.000000 3.608300 0.000000 
#    z 0.165300 0.000000 3.687520 
# 
# 
# High freq. dielectric constant tensor:
#      x y z
#    x 1.765990 0.000000 0.002060 
#    y 0.000000 1.754800 0.000000 
#    z 0.002060 0.000000 1.768800 
# 
# From -- ./inp_files/270324.got.cif
#   From: 2010.06.25/outbox.cif.g09.slc.cpg/sg12_136_cif.got.tgz:270324.got - 2010.06.28 00:19:55.
