data_PCOD8083817
_publ_section_title
;
Structure prediction by ZEFSAII (Michael W. Deem and Ramdas Pophale) SiO2 
 PCOD8083817
Probable space group: C 2/M
;
_chemical_formula_sum "Si O2"
_cell_formula_units_Z 48
_cell_length_a 21.883570
_cell_length_b 13.672326
_cell_length_c 8.614300
_cell_angle_alpha 90.000000
_cell_angle_beta 115.588989
_cell_angle_gamma 90.000000
_cell_volume 2324.590418
_symmetry_space_group_name_H-M "C 2/M"
_symmetry_group_IT_number 12
_symmetry_cell_setting 'monoclinic'
loop_
_space_group_symop_operation_xyz
x,y,z
-x,y,-z
-x,-y,-z
x,-y,z
1/2+x,1/2+y,z
1/2-x,1/2+y,-z
1/2-x,1/2-y,-z
1/2+x,1/2-y,z
loop_
_atom_site_type_symbol
_atom_site_label
_atom_site_fract_x
_atom_site_fract_y
_atom_site_fract_z
Si Si1 0.295497 0.195738 0.210411
Si Si2 0.406574 0.704907 0.742124
Si Si3 0.346912 0.108456 0.561873
Si Si4 0.708215 0.386781 0.589683
Si Si5 0.147486 0.190928 0.978645
Si Si6 0.978340 0.887926 0.306704
O O1 0.336840 0.124715 0.367320
O O2 0.288974 0.307802 0.268775
O O3 0.336869 0.206241 0.093770
O O4 0.221705 0.146706 0.099801
O O5 0.402557 0.817521 0.686196
O O6 0.353940 0.636039 0.592952
O O7 0.481791 0.669590 0.783993
O O8 0.395307 0.702909 0.912846
O O9 0.275912 0.129491 0.566093
O O10 0.374158 0.000000 0.621945
O O11 0.702119 0.500000 0.642010
O O12 0.102137 0.124621 0.812089
O O13 0.000000 0.846802 0.500000
O O14 0.999168 0.000000 0.318826
#
# Coordination Sequence:
#
# PCOD8083817 Si02
#       6
#     8   8   8   8   8   8
#     4  10  20  38  57  85 123 155 192 240 299 344
#     4  11  20  38  59  86 123 154 194 242 297 346
#     4  10  19  35  60  85 113 151 198 240 288 348
#     4  10  18  33  58  85 115 154 194 238 290 351
#     4  11  22  36  58  84 120 157 191 241 294 350
#     4  11  25  42  61  87 119 159 199 238 293 357
#
# _framework density 20.648799
#
# number of rings (size 3 to 8) (size 9 to 14) (size 15 to 20)
#    0.000    1.500    3.333    4.000    0.000    4.667 
#    0.000    3.333    0.000    7.500    0.000    0.000 
#    0.000    0.000    0.000    0.000    0.000    0.000 
#
# Total GULP energy -297484.984716 kJ/mol
# GULP energy per Si atom -12395.207697 kJ/mol
# Density = 2.060180 g / cm^3
# Si number density = 20.648799 Si / 1000 Ang^3
#
#
#
# Elastic Constant Matrix: (Units=GPa)
#
#
# Indices 1 2 3 4 5 6 
#
# 1 85.4486 24.9297 27.1823 0.0000 -11.1682 0.0000
# 2 24.9297 90.3587 12.8823 0.0000 8.0590 0.0000
# 3 27.1823 12.8823 102.2379 0.0000 1.5005 0.0000
# 4 0.0000 0.0000 0.0000 13.2312 0.0000 0.0059
# 5 -11.1682 8.0590 1.5005 0.0000 34.0139 0.0000
# 6 0.0000 0.0000 0.0000 0.0059 0.0000 27.7198
#
#
#
# Elastic Compliance Matrix: (Units=1/GPa)
#
#
# Indices 1 2 3 4 5 6 
#
# 1 0.014802 -0.004119 -0.003505 0.000000 0.005991 0.000000
# 2 -0.004119 0.012652 -0.000436 0.000000 -0.004331 0.000000
# 3 -0.003505 -0.000436 0.010790 0.000000 -0.001523 0.000000
# 4 0.000000 0.000000 0.000000 0.075579 0.000000 -0.000016
# 5 0.005991 -0.004331 -0.001523 0.000000 0.032460 0.000000
# 6 0.000000 0.000000 0.000000 -0.000016 0.000000 0.036075
#
#
# Mechanical properties :
#
#
# Convention : Reuss Voigt Hill
#
# Bulk Modulus (GPa) = 45.19412 45.33709 45.26561
# Shear Modulus (GPa) = 24.28939 29.19638 26.74288
#
# Velocity S-wave (km/s) = 3.43346 3.76433 3.60270
# Velocity P-wave (km/s) = 6.13618 6.39512 6.26699
#
# Compressibility (1/GPa) = 0.02212677
#
# Stress axis : x y z
#
# Youngs Moduli (GPa) = 67.55679 79.04107 92.67751
#
# Poissons Ratio (x) = 0.32554 0.32479
# Poissons Ratio (y) = 0.27824 0.04037
# Poissons Ratio (z) = 0.23675 0.03443
#
# Static dielectric constant tensor:
#      x y z
#    x 3.660170 0.000000 -0.097110 
#    y 0.000000 3.556570 0.000000 
#    z -0.097110 0.000000 3.883780 
# 
# 
# High freq. dielectric constant tensor:
#      x y z
#    x 1.800140 0.000000 -0.008620 
#    y 0.000000 1.778090 0.000000 
#    z -0.008620 0.000000 1.820690 
# 
# From -- ./inp_files/85954.got.cif
#   From: 2010.06.25/outbox.cif.g09.slc.cpg/sg12_43_cif.got.tgz:85954.got - 2010.06.28 00:19:55.
