data_PCOD8083895
_publ_section_title
;
Structure prediction by ZEFSAII (Michael W. Deem and Ramdas Pophale) SiO2 
 PCOD8083895
Probable space group: C 2/M
;
_chemical_formula_sum "Si O2"
_cell_formula_units_Z 48
_cell_length_a 13.946543
_cell_length_b 20.132688
_cell_length_c 12.241418
_cell_angle_alpha 90.000000
_cell_angle_beta 45.151291
_cell_angle_gamma 90.000000
_cell_volume 2436.850053
_symmetry_space_group_name_H-M "C 2/M"
_symmetry_group_IT_number 12
_symmetry_cell_setting 'monoclinic'
loop_
_space_group_symop_operation_xyz
x,y,z
-x,y,-z
-x,-y,-z
x,-y,z
1/2+x,1/2+y,z
1/2-x,1/2+y,-z
1/2-x,1/2-y,-z
1/2+x,1/2-y,z
loop_
_atom_site_type_symbol
_atom_site_label
_atom_site_fract_x
_atom_site_fract_y
_atom_site_fract_z
Si Si1 0.377049 0.283572 0.333221
Si Si2 0.172480 0.762000 0.175198
Si Si3 0.577321 0.927822 0.696913
Si Si4 0.867688 0.325610 0.170361
Si Si5 0.793172 0.071481 0.339257
Si Si6 0.613700 0.871153 0.316886
O O1 0.250000 0.250000 0.500000
O O2 0.513087 0.275285 0.293231
O O3 0.393219 0.245349 0.206451
O O4 0.372143 0.362399 0.312548
O O5 0.242053 0.822121 0.187126
O O6 0.189858 0.697872 0.236941
O O7 0.250000 0.750000 0.000000
O O8 0.656322 0.882230 0.720054
O O9 0.671048 0.937969 0.518975
O O10 0.441098 0.894791 0.757561
O O11 0.543747 0.000000 0.776069
O O12 0.000000 0.347662 0.000000
O O13 0.728507 0.079266 0.270339
O O14 0.875389 0.000000 0.273684
O O15 0.500000 0.860397 0.500000
#
# Coordination Sequence:
#
# PCOD8083895 Si02
#       6
#     8   8   8   8   8   8
#     4  12  22  40  63  92 124 159 206 254 306 368
#     4  12  24  38  61  91 124 159 207 261 308 363
#     4  10  20  36  57  88 126 159 202 253 306 366
#     4  12  23  39  62  89 122 163 204 253 310 363
#     4  10  20  35  59  91 126 159 200 257 312 364
#     4  10  18  33  60  90 119 157 205 253 308 358
#
# _framework density 19.697559999999999
#
# number of rings (size 3 to 8) (size 9 to 14) (size 15 to 20)
#    0.000    1.000    6.667    1.500    0.000    2.333 
#    0.000    0.833    0.000    7.500    0.000    0.000 
#    0.000    0.000    0.000    0.000    0.000    0.000 
#
# Total GULP energy -297364.054056 kJ/mol
# GULP energy per Si atom -12390.168919 kJ/mol
# Density = 1.965273 g / cm^3
# Si number density = 19.697560 Si / 1000 Ang^3
#
#
#
# Elastic Constant Matrix: (Units=GPa)
#
#
# Indices 1 2 3 4 5 6 
#
# 1 144.0186 51.7326 31.9771 0.0018 2.0732 -0.0020
# 2 51.7326 151.6129 22.1363 0.0005 7.7174 -0.0009
# 3 31.9771 22.1363 44.2149 0.0023 -1.9716 -0.0039
# 4 0.0018 0.0005 0.0023 -4.8141 -0.0017 -12.1758
# 5 2.0732 7.7174 -1.9716 -0.0017 28.0978 0.0021
# 6 -0.0020 -0.0009 -0.0039 -12.1758 0.0021 19.5828
#
#
#
# Elastic Compliance Matrix: (Units=1/GPa)
#
#
# Indices 1 2 3 4 5 6 
#
# 1 0.008948 -0.002249 -0.005365 0.000000 -0.000419 0.000000
# 2 -0.002249 0.007821 -0.002385 0.000000 -0.002149 0.000000
# 3 -0.005365 -0.002385 0.027825 -0.000001 0.003003 0.000004
# 4 0.000000 0.000000 -0.000001 -0.080746 -0.000001 -0.050205
# 5 -0.000419 -0.002149 0.003003 -0.000001 0.036422 -0.000004
# 6 0.000000 0.000000 0.000004 -0.050205 -0.000004 0.019850
#
#
# Mechanical properties :
#
#
# Convention : Reuss Voigt Hill
#
# Bulk Modulus (GPa) = 40.65510 61.28204 50.96857
# Shear Modulus (GPa) = 103.48617 24.17332 63.82975
#
# Velocity S-wave (km/s) = 7.25614 3.50698 5.69871
# Velocity P-wave (km/s) = 9.53345 6.89765 8.32058
#
# Compressibility (1/GPa) = 0.02459716
#
# Stress axis : x y z
#
# Youngs Moduli (GPa) = 111.75085 127.86601 35.93950
#
# Poissons Ratio (x) = 0.28754 0.19280
# Poissons Ratio (y) = 0.25130 0.08571
# Poissons Ratio (z) = 0.59949 0.30495
#
# Static dielectric constant tensor:
#      x y z
#    x 3.643150 0.000000 0.112940 
#    y 0.000000 4.082690 0.000000 
#    z 0.112940 0.000000 3.414920 
# 
# 
# High freq. dielectric constant tensor:
#      x y z
#    x 1.767480 0.000000 0.017210 
#    y 0.000000 1.771330 0.000000 
#    z 0.017210 0.000000 1.741640 
# 
# From -- ./inp_files/147923.got.cif
#   From: 2010.06.25/outbox.cif.g09.slc.cpg/sg12_74_cif.got.tgz:147923.got - 2010.06.28 00:19:55.
