data_PCOD8083712
_publ_section_title
;
Structure prediction by ZEFSAII (Michael W. Deem and Ramdas Pophale) SiO2 
 PCOD8083712
Probable space group: C 2/M
;
_chemical_formula_sum "Si O2"
_cell_formula_units_Z 64
_cell_length_a 24.140252
_cell_length_b 8.706458
_cell_length_c 20.312616
_cell_angle_alpha 90.000000
_cell_angle_beta 127.530613
_cell_angle_gamma 90.000000
_cell_volume 3385.615784
_symmetry_space_group_name_H-M "C 2/M"
_symmetry_group_IT_number 12
_symmetry_cell_setting 'monoclinic'
loop_
_space_group_symop_operation_xyz
x,y,z
-x,y,-z
-x,-y,-z
x,-y,z
1/2+x,1/2+y,z
1/2-x,1/2+y,-z
1/2-x,1/2-y,-z
1/2+x,1/2-y,z
loop_
_atom_site_type_symbol
_atom_site_label
_atom_site_fract_x
_atom_site_fract_y
_atom_site_fract_z
Si Si1 0.897637 0.180423 0.948923
Si Si2 0.981053 0.679699 0.891671
Si Si3 0.880707 0.678075 0.453362
Si Si4 0.524059 0.678607 0.370823
Si Si5 0.261966 0.821835 0.658665
Si Si6 0.739344 0.178700 0.190233
Si Si7 0.909485 0.321955 0.705265
Si Si8 0.616724 0.178757 0.697382
O O1 0.929117 0.227580 0.901311
O O2 0.816895 0.230011 0.894308
O O3 0.904911 0.000000 0.964592
O O4 0.939681 0.266532 0.037693
O O5 0.971366 0.500000 0.900209
O O6 0.962070 0.716145 0.802796
O O7 0.893262 0.500000 0.477824
O O8 0.935907 0.775647 0.534071
O O9 0.801812 0.722698 0.416486
O O10 0.893946 0.718910 0.386979
O O11 0.507337 0.500000 0.360722
O O12 0.571311 0.717800 0.342435
O O13 0.451302 0.769218 0.312062
O O14 0.274926 0.780314 0.744045
O O15 0.330804 0.778394 0.668211
O O16 0.242408 0.000000 0.637339
O O17 0.816637 0.231658 0.225471
O O18 0.730446 0.000000 0.169493
O O19 0.914529 0.500000 0.688949
O O20 0.630018 0.000000 0.717626
#
# Coordination Sequence:
#
# PCOD8083712 Si02
#       8
#     8   8   8   8   8   8   8   8
#     4  11  20  30  50  83 117 146 178 220 268 319
#     4  10  19  34  54  78 109 147 184 222 269 320
#     4  10  21  37  58  82 107 138 177 228 278 320
#     4  12  25  38  55  79 106 145 186 224 270 326
#     4   9  18  34  55  80 108 141 179 221 272 323
#     4  10  18  33  56  83 112 143 180 224 270 323
#     4  10  21  38  57  77 108 148 184 224 270 322
#     4  10  21  38  59  83 108 138 179 231 278 319
#
# _framework density 18.903503000000001
#
# number of rings (size 3 to 8) (size 9 to 14) (size 15 to 20)
#    0.000    1.750    1.250    4.875    0.000    5.500 
#    0.000    0.000    0.000    0.750    0.000    0.000 
#    0.000    0.000    0.000    0.000    0.000    0.000 
#
# Total GULP energy -396949.925337 kJ/mol
# GULP energy per Si atom -12404.685167 kJ/mol
# Density = 1.886048 g / cm^3
# Si number density = 18.903503 Si / 1000 Ang^3
#
#
#
# Elastic Constant Matrix: (Units=GPa)
#
#
# Indices 1 2 3 4 5 6 
#
# 1 78.4696 14.9479 16.6037 0.0000 19.5469 0.0000
# 2 14.9479 63.2136 19.0128 0.0000 3.5125 0.0000
# 3 16.6037 19.0128 52.7363 0.0000 23.0066 0.0000
# 4 0.0000 0.0000 0.0000 25.9249 0.0000 8.1837
# 5 19.5469 3.5125 23.0066 0.0000 24.2779 0.0000
# 6 0.0000 0.0000 0.0000 8.1837 0.0000 29.2428
#
#
#
# Elastic Compliance Matrix: (Units=1/GPa)
#
#
# Indices 1 2 3 4 5 6 
#
# 1 0.016812 -0.004020 0.003082 0.000000 -0.015874 0.000000
# 2 -0.004020 0.019225 -0.009997 0.000000 0.009929 0.000000
# 3 0.003082 -0.009997 0.037586 0.000000 -0.036653 0.000000
# 4 0.000000 0.000000 0.000000 0.042311 0.000000 -0.011841
# 5 -0.015874 0.009929 -0.036653 0.000000 0.087268 0.000000
# 6 0.000000 0.000000 0.000000 -0.011841 0.000000 0.037510
#
#
# Mechanical properties :
#
#
# Convention : Reuss Voigt Hill
#
# Bulk Modulus (GPa) = 19.32280 32.83869 26.08074
# Shear Modulus (GPa) = 17.86774 25.47945 21.67360
#
# Velocity S-wave (km/s) = 3.07776 3.67532 3.38973
# Velocity P-wave (km/s) = 4.78269 5.95148 5.39881
#
# Compressibility (1/GPa) = 0.05175233
#
# Stress axis : x y z
#
# Youngs Moduli (GPa) = 59.48162 52.01541 26.60548
#
# Poissons Ratio (x) = 0.20911 -0.08199
# Poissons Ratio (y) = 0.23913 0.26597
# Poissons Ratio (z) = -0.18330 0.51999
#
# Static dielectric constant tensor:
#      x y z
#    x 3.308920 0.000000 0.262810 
#    y 0.000000 3.458650 0.000000 
#    z 0.262810 0.000000 3.537820 
# 
# 
# High freq. dielectric constant tensor:
#      x y z
#    x 1.714220 0.000000 0.026390 
#    y 0.000000 1.742220 0.000000 
#    z 0.026390 0.000000 1.730840 
# 
# From -- ./inp_files/324155.got.cif
#   From: 2010.06.25/outbox.cif.g09.slc.cpg/sg12_163_cif.got.tgz:324155.got - 2010.06.28 00:19:55.
