data_PCOD8083785
_publ_section_title
;
Structure prediction by ZEFSAII (Michael W. Deem and Ramdas Pophale) SiO2 
 PCOD8083785
Probable space group: C 2/M
;
_chemical_formula_sum "Si O2"
_cell_formula_units_Z 64
_cell_length_a 11.143840
_cell_length_b 19.398616
_cell_length_c 20.138382
_cell_angle_alpha 90.000000
_cell_angle_beta 127.593096
_cell_angle_gamma 90.000000
_cell_volume 3449.486609
_symmetry_space_group_name_H-M "C 2/M"
_symmetry_group_IT_number 12
_symmetry_cell_setting 'monoclinic'
loop_
_space_group_symop_operation_xyz
x,y,z
-x,y,-z
-x,-y,-z
x,-y,z
1/2+x,1/2+y,z
1/2-x,1/2+y,-z
1/2-x,1/2-y,-z
1/2+x,1/2-y,z
loop_
_atom_site_type_symbol
_atom_site_label
_atom_site_fract_x
_atom_site_fract_y
_atom_site_fract_z
Si Si1 0.629656 0.668075 0.161997
Si Si2 0.130916 0.811065 0.453066
Si Si3 0.251428 0.187093 0.839314
Si Si4 0.181067 0.578520 0.871991
Si Si5 0.695034 0.330384 0.614183
Si Si6 0.165947 0.576862 0.239019
Si Si7 0.782819 0.170938 0.026019
Si Si8 0.101324 0.799547 0.298330
O O1 0.653157 0.745011 0.143542
O O2 0.733102 0.612242 0.160939
O O3 0.458504 0.650697 0.085278
O O4 0.663441 0.663020 0.252981
O O5 0.250000 0.750000 0.500000
O O6 0.178445 0.858166 0.532227
O O7 0.142136 0.841033 0.381135
O O8 0.955273 0.791066 0.408486
O O9 0.308638 0.125402 0.814340
O O10 0.284441 0.158629 0.923784
O O11 0.077878 0.207814 0.769282
O O12 0.238227 0.500000 0.901574
O O13 0.005656 0.579783 0.793935
O O14 0.201984 0.621501 0.946384
O O15 0.725245 0.399773 0.664651
O O16 0.833211 0.277488 0.672387
O O17 0.213355 0.500000 0.234146
O O18 0.750000 0.250000 0.000000
#
# Coordination Sequence:
#
# PCOD8083785 Si02
#       8
#     8   8   8   8   8   8   8   8
#     4  11  21  34  60  84 114 157 190 241 294 342
#     4   9  18  31  55  88 122 145 182 234 287 343
#     4  11  21  36  59  86 116 146 198 248 292 345
#     4  11  25  42  58  82 116 158 201 239 290 353
#     4  10  18  33  57  86 121 150 186 236 290 345
#     4  11  23  39  59  82 116 157 195 238 291 354
#     4  11  23  36  58  88 115 148 196 246 296 348
#     4  10  18  33  57  88 116 148 189 237 291 334
#
# _framework density 18.553484999999998
#
# number of rings (size 3 to 8) (size 9 to 14) (size 15 to 20)
#    0.000    1.500    3.750    1.875    0.000    4.000 
#    0.000    4.375    0.000    0.000    0.000    1.750 
#    0.000    0.000    0.000    0.000    0.000    0.000 
#
# Total GULP energy -396513.963761 kJ/mol
# GULP energy per Si atom -12391.061368 kJ/mol
# Density = 1.851126 g / cm^3
# Si number density = 18.553485 Si / 1000 Ang^3
#
#
#
# Elastic Constant Matrix: (Units=GPa)
#
#
# Indices 1 2 3 4 5 6 
#
# 1 92.2224 36.0582 38.1077 0.0000 -17.6157 0.0000
# 2 36.0582 102.0482 27.1012 0.0000 -8.2453 0.0000
# 3 38.1077 27.1012 100.6382 0.0000 -26.2425 0.0000
# 4 0.0000 0.0000 0.0000 18.8757 0.0000 -0.4443
# 5 -17.6157 -8.2453 -26.2425 0.0000 41.0174 0.0000
# 6 0.0000 0.0000 0.0000 -0.4443 0.0000 24.1855
#
#
#
# Elastic Compliance Matrix: (Units=1/GPa)
#
#
# Indices 1 2 3 4 5 6 
#
# 1 0.014454 -0.003896 -0.003612 0.000000 0.003113 0.000000
# 2 -0.003896 0.011609 -0.001775 0.000000 -0.000475 0.000000
# 3 -0.003612 -0.001775 0.013544 0.000000 0.006757 0.000000
# 4 0.000000 0.000000 0.000000 0.053001 0.000000 0.000974
# 5 0.003113 -0.000475 0.006757 0.000000 0.029945 0.000000
# 6 0.000000 0.000000 0.000000 0.000974 0.000000 0.041365
#
#
# Mechanical properties :
#
#
# Convention : Reuss Voigt Hill
#
# Bulk Modulus (GPa) = 47.52633 55.27144 51.39888
# Shear Modulus (GPa) = 26.38547 29.72519 28.05533
#
# Velocity S-wave (km/s) = 3.77521 4.00701 3.89283
# Velocity P-wave (km/s) = 6.68389 7.15983 6.92595
#
# Compressibility (1/GPa) = 0.02104097
#
# Stress axis : x y z
#
# Youngs Moduli (GPa) = 69.18460 86.14011 73.83162
#
# Poissons Ratio (x) = 0.33564 0.26668
# Poissons Ratio (y) = 0.26957 0.13103
# Poissons Ratio (z) = 0.24990 0.15287
#
# Static dielectric constant tensor:
#      x y z
#    x 3.800920 0.000000 -0.277250 
#    y 0.000000 3.166670 0.000000 
#    z -0.277250 0.000000 3.953230 
# 
# 
# High freq. dielectric constant tensor:
#      x y z
#    x 1.737350 0.000000 -0.005860 
#    y 0.000000 1.673650 0.000000 
#    z -0.005860 0.000000 1.742170 
# 
# From -- ./inp_files/306176.got.cif
#   From: 2010.06.25/outbox.cif.g09.slc.cpg/sg12_154_cif.got.tgz:306176.got - 2010.06.28 00:19:55.
