data_PCOD8083515
_publ_section_title
;
Structure prediction by ZEFSAII (Michael W. Deem and Ramdas Pophale) SiO2 
 PCOD8083515
Probable space group: C 2/M
;
_chemical_formula_sum "Si O2"
_cell_formula_units_Z 56
_cell_length_a 24.593149
_cell_length_b 10.467771
_cell_length_c 12.377088
_cell_angle_alpha 90.000000
_cell_angle_beta 92.450333
_cell_angle_gamma 90.000000
_cell_volume 3183.387873
_symmetry_space_group_name_H-M "C 2/M"
_symmetry_group_IT_number 12
_symmetry_cell_setting 'monoclinic'
loop_
_space_group_symop_operation_xyz
x,y,z
-x,y,-z
-x,-y,-z
x,-y,z
1/2+x,1/2+y,z
1/2-x,1/2+y,-z
1/2-x,1/2-y,-z
1/2+x,1/2-y,z
loop_
_atom_site_type_symbol
_atom_site_label
_atom_site_fract_x
_atom_site_fract_y
_atom_site_fract_z
Si Si1 0.310921 0.643777 0.918731
Si Si2 0.893901 0.148059 0.753466
Si Si3 0.187879 0.789332 0.629151
Si Si4 0.536555 0.147926 0.342242
Si Si5 0.271357 0.641227 0.144648
Si Si6 0.296807 0.638161 0.602186
Si Si7 0.079613 0.645419 0.580141
O O1 0.288670 0.500000 0.893476
O O2 0.371625 0.656622 0.874743
O O3 0.273278 0.747378 0.854859
O O4 0.312003 0.669643 0.047463
O O5 0.943389 0.248601 0.744876
O O6 0.846539 0.204571 0.670058
O O7 0.911054 0.000000 0.727808
O O8 0.194611 0.864567 0.741652
O O9 0.238179 0.695487 0.617710
O O10 0.189010 0.877423 0.523339
O O11 0.129886 0.722086 0.631938
O O12 0.564053 0.187120 0.457846
O O13 0.471720 0.164501 0.345370
O O14 0.550602 0.000000 0.312418
O O15 0.244419 0.500000 0.127718
O O16 0.293730 0.500000 0.655639
O O17 0.098199 0.500000 0.579159
#
# Coordination Sequence:
#
# PCOD8083515 Si02
#       7
#     8   8   8   8   8   8   8
#     4   9  19  35  52  70  99 136 172 205 244 295
#     4  10  18  33  51  73 101 132 163 203 251 300
#     4  11  19  31  48  72 103 135 165 199 249 297
#     4   9  18  34  52  74  99 130 172 212 244 289
#     4  10  20  33  50  74 101 133 170 209 245 288
#     4  10  20  30  43  71 107 134 159 193 247 309
#     4   9  18  32  51  72 100 135 171 204 246 298
#
# _framework density 17.591322000000002
#
# number of rings (size 3 to 8) (size 9 to 14) (size 15 to 20)
#    0.000    2.286    2.857    1.714    0.000    1.143 
#    0.000    2.857    0.000    0.857    0.000    5.000 
#    0.000    0.000    0.000    0.000    0.000    0.000 
#
# Total GULP energy -346886.742895 kJ/mol
# GULP energy per Si atom -12388.812246 kJ/mol
# Density = 1.755128 g / cm^3
# Si number density = 17.591322 Si / 1000 Ang^3
#
#
#
# Elastic Constant Matrix: (Units=GPa)
#
#
# Indices 1 2 3 4 5 6 
#
# 1 79.0995 45.5022 18.5985 0.0000 -12.8459 0.0000
# 2 45.5022 91.3702 16.2621 0.0000 -14.3566 0.0000
# 3 18.5985 16.2621 79.9897 0.0000 -15.5017 0.0000
# 4 0.0000 0.0000 0.0000 18.8258 0.0000 1.0435
# 5 -12.8459 -14.3566 -15.5017 0.0000 22.2310 0.0000
# 6 0.0000 0.0000 0.0000 1.0435 0.0000 15.1513
#
#
#
# Elastic Compliance Matrix: (Units=1/GPa)
#
#
# Indices 1 2 3 4 5 6 
#
# 1 0.018470 -0.008231 -0.001830 0.000000 0.004081 0.000000
# 2 -0.008231 0.015933 -0.000293 0.000000 0.005329 0.000000
# 3 -0.001830 -0.000293 0.014736 0.000000 0.009029 0.000000
# 4 0.000000 0.000000 0.000000 0.053322 0.000000 -0.003672
# 5 0.004081 0.005329 0.009029 0.000000 0.057078 0.000000
# 6 0.000000 0.000000 0.000000 -0.003672 0.000000 0.066254
#
#
# Mechanical properties :
#
#
# Convention : Reuss Voigt Hill
#
# Bulk Modulus (GPa) = 35.17207 45.68723 40.42965
# Shear Modulus (GPa) = 19.53285 22.58142 21.05713
#
# Velocity S-wave (km/s) = 3.33583 3.58672 3.46355
# Velocity P-wave (km/s) = 5.90546 6.57119 6.24720
#
# Compressibility (1/GPa) = 0.02843165
#
# Stress axis : x y z
#
# Youngs Moduli (GPa) = 54.14040 62.76245 67.85891
#
# Poissons Ratio (x) = 0.51662 0.12420
# Poissons Ratio (y) = 0.44565 0.01986
# Poissons Ratio (z) = 0.09909 0.01837
#
# Static dielectric constant tensor:
#      x y z
#    x 3.065870 0.000000 -0.197170 
#    y 0.000000 3.258050 0.000000 
#    z -0.197170 0.000000 3.293890 
# 
# 
# High freq. dielectric constant tensor:
#      x y z
#    x 1.656530 0.000000 -0.022310 
#    y 0.000000 1.682970 0.000000 
#    z -0.022310 0.000000 1.667920 
# 
# From -- ./inp_files/173977.got.cif
#   From: 2010.06.25/outbox.cif.g09.slc.cpg/sg12_87_cif.got.tgz:173977.got - 2010.06.28 00:19:55.
