data_PCOD8083722
_publ_section_title
;
Structure prediction by ZEFSAII (Michael W. Deem and Ramdas Pophale) SiO2 
 PCOD8083722
Probable space group: C 2/M
;
_chemical_formula_sum "Si O2"
_cell_formula_units_Z 56
_cell_length_a 23.594020
_cell_length_b 8.600043
_cell_length_c 15.603687
_cell_angle_alpha 90.000000
_cell_angle_beta 116.325760
_cell_angle_gamma 90.000000
_cell_volume 2837.768473
_symmetry_space_group_name_H-M "C 2/M"
_symmetry_group_IT_number 12
_symmetry_cell_setting 'monoclinic'
loop_
_space_group_symop_operation_xyz
x,y,z
-x,y,-z
-x,-y,-z
x,-y,z
1/2+x,1/2+y,z
1/2-x,1/2+y,-z
1/2-x,1/2-y,-z
1/2+x,1/2-y,z
loop_
_atom_site_type_symbol
_atom_site_label
_atom_site_fract_x
_atom_site_fract_y
_atom_site_fract_z
Si Si1 0.030610 0.317576 0.755574
Si Si2 0.715646 0.319382 0.295965
Si Si3 0.109994 0.316657 0.329745
Si Si4 0.334226 0.318786 0.459963
Si Si5 0.934780 0.322114 0.406664
Si Si6 0.842415 0.319245 0.080521
Si Si7 0.240718 0.320372 0.132066
O O1 0.023618 0.500000 0.738467
O O2 0.054380 0.251189 0.680472
O O3 0.083067 0.276353 0.862868
O O4 0.961485 0.253210 0.734756
O O5 0.701997 0.500000 0.296469
O O6 0.651224 0.227396 0.274564
O O7 0.769197 0.271517 0.399609
O O8 0.736557 0.282602 0.213666
O O9 0.110981 0.500000 0.346256
O O10 0.137391 0.233551 0.431284
O O11 0.318833 0.500000 0.452014
O O12 0.382839 0.284565 0.416345
O O13 0.909756 0.500000 0.388126
O O14 0.000000 0.312019 0.500000
O O15 0.830295 0.500000 0.093959
O O16 0.804826 0.218474 0.124817
O O17 0.819165 0.280764 0.969082
O O18 0.241430 0.500000 0.159543
#
# Coordination Sequence:
#
# PCOD8083722 Si02
#       7
#     8   8   8   8   8   8   8
#     4   9  18  34  58  84 113 151 190 227 277 336
#     4  12  25  41  59  80 109 150 195 239 289 341
#     4  11  22  40  60  81 112 151 193 236 280 337
#     4  12  24  38  57  85 116 150 191 237 288 336
#     4  10  18  33  56  84 116 153 189 226 275 332
#     4   9  18  35  61  90 118 150 186 228 281 342
#     4  10  20  36  59  89 118 146 187 237 285 333
#
# _framework density 19.733816000000001
#
# number of rings (size 3 to 8) (size 9 to 14) (size 15 to 20)
#    0.000    1.571    1.429    4.714    0.000    2.000 
#    0.000    2.143    0.000    4.286    0.000    0.000 
#    0.000    0.000    0.000    0.000    0.000    0.000 
#
# Total GULP energy -347270.148919 kJ/mol
# GULP energy per Si atom -12402.505319 kJ/mol
# Density = 1.968890 g / cm^3
# Si number density = 19.733816 Si / 1000 Ang^3
#
#
#
# Elastic Constant Matrix: (Units=GPa)
#
#
# Indices 1 2 3 4 5 6 
#
# 1 94.4632 13.4037 36.5789 0.0000 13.2000 0.0000
# 2 13.4037 44.0909 16.9903 0.0000 0.5064 0.0000
# 3 36.5789 16.9903 83.9096 0.0000 23.1229 0.0000
# 4 0.0000 0.0000 0.0000 19.8434 0.0000 -14.3820
# 5 13.2000 0.5064 23.1229 0.0000 26.5503 0.0000
# 6 0.0000 0.0000 0.0000 -14.3820 0.0000 8.8818
#
#
#
# Elastic Compliance Matrix: (Units=1/GPa)
#
#
# Indices 1 2 3 4 5 6 
#
# 1 0.013000 -0.002170 -0.004550 0.000000 -0.002459 0.000000
# 2 -0.002170 0.025496 -0.005763 0.000000 0.005612 0.000000
# 3 -0.004550 -0.005763 0.018966 0.000000 -0.014146 0.000000
# 4 0.000000 0.000000 0.000000 -0.290284 0.000000 -0.470048
# 5 -0.002459 0.005612 -0.014146 0.000000 0.051099 0.000000
# 6 0.000000 0.000000 0.000000 -0.470048 0.000000 -0.648543
#
#
# Mechanical properties :
#
#
# Convention : Reuss Voigt Hill
#
# Bulk Modulus (GPa) = 30.77312 39.60105 35.18709
# Shear Modulus (GPa) = -6.29352 21.42116 7.56382
#
# Velocity S-wave (km/s) = -1.78777 3.29827 1.95991
# Velocity P-wave (km/s) = 3.37142 5.88354 4.79492
#
# Compressibility (1/GPa) = 0.03249589
#
# Stress axis : x y z
#
# Youngs Moduli (GPa) = 76.92581 39.22119 52.72600
#
# Poissons Ratio (x) = 0.08512 0.23989
# Poissons Ratio (y) = 0.16696 0.30385
# Poissons Ratio (z) = 0.35000 0.22603
#
# Static dielectric constant tensor:
#      x y z
#    x 3.804370 0.000000 0.147450 
#    y 0.000000 3.464220 0.000000 
#    z 0.147450 0.000000 3.645120 
# 
# 
# High freq. dielectric constant tensor:
#      x y z
#    x 1.771760 0.000000 0.010260 
#    y 0.000000 1.757090 0.000000 
#    z 0.010260 0.000000 1.766950 
# 
# From -- ./inp_files/237904.got.cif
#   From: 2010.06.25/outbox.cif.g09.slc.cpg/sg12_119_cif.got.tgz:237904.got - 2010.06.28 00:19:55.
