data_PCOD8083520
_publ_section_title
;
Structure prediction by ZEFSAII (Michael W. Deem and Ramdas Pophale) SiO2 
 PCOD8083520
Probable space group: C 2/M
;
_chemical_formula_sum "Si O2"
_cell_formula_units_Z 64
_cell_length_a 20.125440
_cell_length_b 17.607603
_cell_length_c 9.636087
_cell_angle_alpha 90.000000
_cell_angle_beta 95.714354
_cell_angle_gamma 90.000000
_cell_volume 3397.682517
_symmetry_space_group_name_H-M "C 2/M"
_symmetry_group_IT_number 12
_symmetry_cell_setting 'monoclinic'
loop_
_space_group_symop_operation_xyz
x,y,z
-x,y,-z
-x,-y,-z
x,-y,z
1/2+x,1/2+y,z
1/2-x,1/2+y,-z
1/2-x,1/2-y,-z
1/2+x,1/2-y,z
loop_
_atom_site_type_symbol
_atom_site_label
_atom_site_fract_x
_atom_site_fract_y
_atom_site_fract_z
Si Si1 0.806686 0.909693 0.248472
Si Si2 0.332728 0.090563 0.277118
Si Si3 0.450893 0.913162 0.860860
Si Si4 0.942549 0.156554 0.309782
Si Si5 0.071177 0.911607 0.391741
Si Si6 0.185707 0.590236 0.037052
Si Si7 0.282955 0.411677 0.553088
Si Si8 0.467651 0.826793 0.344924
O O1 0.878643 0.877193 0.215227
O O2 0.752230 0.880179 0.127067
O O3 0.786118 0.878391 0.397206
O O4 0.811979 0.000000 0.252200
O O5 0.276738 0.125188 0.369526
O O6 0.404839 0.117410 0.342479
O O7 0.332613 0.000000 0.277163
O O8 0.316699 0.122159 0.119977
O O9 0.378782 0.881415 0.891393
O O10 0.475965 0.861243 0.741838
O O11 0.446569 0.000000 0.807357
O O12 0.500000 0.907058 0.000000
O O13 0.934214 0.136231 0.468918
O O14 0.943806 0.245980 0.281638
O O15 0.013582 0.119010 0.274638
O O16 0.146503 0.898428 0.350890
O O17 0.059601 0.000000 0.422764
O O18 0.184346 0.500000 0.032356
O O19 0.267337 0.500000 0.536835
O O20 0.500000 0.815123 0.500000
#
# Coordination Sequence:
#
# PCOD8083520 Si02
#       8
#     8   8   8   8   8   8   8   8
#     4   9  17  32  57  84 106 135 179 227 265 314
#     4  10  20  36  54  75 108 144 178 221 274 322
#     4  10  20  38  60  79 102 145 195 227 263 323
#     4  10  18  33  51  79 115 138 178 219 274 321
#     4   9  15  31  58  81 106 142 181 222 270 324
#     4   9  18  34  58  81 102 137 184 230 268 313
#     4   8  16  29  52  83 106 130 174 228 272 311
#     4  12  24  35  52  81 114 146 177 229 275 318
#
# _framework density 18.836368
#
# number of rings (size 3 to 8) (size 9 to 14) (size 15 to 20)
#    0.000    2.375    2.500    2.625    1.750    1.000 
#    0.000    4.375    2.750    0.000    0.000    4.375 
#    0.000    0.000    0.000    0.000    0.000    0.000 
#
# Total GULP energy -396631.650544 kJ/mol
# GULP energy per Si atom -12394.739079 kJ/mol
# Density = 1.879350 g / cm^3
# Si number density = 18.836368 Si / 1000 Ang^3
#
#
#
# Elastic Constant Matrix: (Units=GPa)
#
#
# Indices 1 2 3 4 5 6 
#
# 1 119.7721 11.9743 36.2168 0.0000 22.7740 0.0000
# 2 11.9743 50.0613 16.9763 0.0000 0.3032 0.0000
# 3 36.2168 16.9763 52.8138 0.0000 5.5875 0.0000
# 4 0.0000 0.0000 0.0000 7.7749 0.0000 8.9310
# 5 22.7740 0.3032 5.5875 0.0000 26.8122 0.0000
# 6 0.0000 0.0000 0.0000 8.9310 0.0000 12.9747
#
#
#
# Elastic Compliance Matrix: (Units=1/GPa)
#
#
# Indices 1 2 3 4 5 6 
#
# 1 0.012314 -0.000390 -0.007375 0.000000 -0.008918 0.000000
# 2 -0.000390 0.022474 -0.007122 0.000000 0.001562 0.000000
# 3 -0.007375 -0.007122 0.026187 0.000000 0.000888 0.000000
# 4 0.000000 0.000000 0.000000 0.614516 0.000000 -0.422996
# 5 -0.008918 0.001562 0.000888 0.000000 0.044669 0.000000
# 6 0.000000 0.000000 0.000000 -0.422996 0.000000 0.368239
#
#
# Mechanical properties :
#
#
# Convention : Reuss Voigt Hill
#
# Bulk Modulus (GPa) = 32.05013 39.22023 35.63518
# Shear Modulus (GPa) = 4.43037 20.01103 12.22070
#
# Velocity S-wave (km/s) = 1.53530 3.26292 2.54988
# Velocity P-wave (km/s) = 4.49386 5.92134 5.25629
#
# Compressibility (1/GPa) = 0.03120112
#
# Stress axis : x y z
#
# Youngs Moduli (GPa) = 81.20775 44.49498 38.18652
#
# Poissons Ratio (x) = 0.01737 0.28164
# Poissons Ratio (y) = 0.03170 0.27195
# Poissons Ratio (z) = 0.59893 0.31688
#
# Static dielectric constant tensor:
#      x y z
#    x 3.804500 0.000000 0.192320 
#    y 0.000000 3.125040 0.000000 
#    z 0.192320 0.000000 3.231890 
# 
# 
# High freq. dielectric constant tensor:
#      x y z
#    x 1.756600 0.000000 0.006640 
#    y 0.000000 1.698940 0.000000 
#    z 0.006640 0.000000 1.696770 
# 
# From -- ./inp_files/87966.got.cif
#   From: 2010.06.25/outbox.cif.g09.slc.cpg/sg12_44_cif.got.tgz:87966.got - 2010.06.28 00:19:55.
