data_PCOD8083903
_publ_section_title
;
Structure prediction by ZEFSAII (Michael W. Deem and Ramdas Pophale) SiO2 
 PCOD8083903
Probable space group: C 2/M
;
_chemical_formula_sum "Si O2"
_cell_formula_units_Z 56
_cell_length_a 9.676143
_cell_length_b 26.182402
_cell_length_c 12.102348
_cell_angle_alpha 90.000000
_cell_angle_beta 67.205067
_cell_angle_gamma 90.000000
_cell_volume 2826.597693
_symmetry_space_group_name_H-M "C 2/M"
_symmetry_group_IT_number 12
_symmetry_cell_setting 'monoclinic'
loop_
_space_group_symop_operation_xyz
x,y,z
-x,y,-z
-x,-y,-z
x,-y,z
1/2+x,1/2+y,z
1/2-x,1/2+y,-z
1/2-x,1/2-y,-z
1/2+x,1/2-y,z
loop_
_atom_site_type_symbol
_atom_site_label
_atom_site_fract_x
_atom_site_fract_y
_atom_site_fract_z
Si Si1 0.357242 0.941457 0.286758
Si Si2 0.875075 0.055607 0.462579
Si Si3 0.650933 0.638279 0.675685
Si Si4 0.312887 0.350103 0.762591
Si Si5 0.574458 0.851541 0.254406
Si Si6 0.714788 0.804457 0.567000
Si Si7 0.853450 0.703281 0.993215
O O1 0.286688 0.946232 0.429698
O O2 0.239106 0.908362 0.249128
O O3 0.510919 0.909020 0.254752
O O4 0.384981 0.000000 0.231873
O O5 0.861661 0.078042 0.343257
O O6 0.000000 0.085284 0.500000
O O7 0.942564 0.000000 0.420262
O O8 0.484083 0.658734 0.749021
O O9 0.762410 0.649957 0.740221
O O10 0.712494 0.655283 0.537239
O O11 0.285490 0.311659 0.667387
O O12 0.217196 0.335522 0.898125
O O13 0.462886 0.816657 0.363945
O O14 0.597972 0.827481 0.128938
O O15 0.750000 0.750000 0.500000
O O16 0.750000 0.750000 0.000000
O O17 0.000000 0.728580 0.000000
#
# Coordination Sequence:
#
# PCOD8083903 Si02
#       7
#     8   8   8   8   8   8   8
#     4  10  20  40  66  93 127 174 219 266 330 389
#     4  10  18  33  60  95 133 171 205 251 322 398
#     4  12  23  37  61 100 135 162 208 269 334 381
#     4  11  24  43  67  94 131 173 224 272 311 406
#     4  11  26  43  63  96 134 170 220 279 320 399
#     4  11  24  40  63  90 130 173 215 267 337 390
#     4  12  28  49  69  90 129 173 228 262 321 389
#
# _framework density 19.811803999999999
#
# number of rings (size 3 to 8) (size 9 to 14) (size 15 to 20)
#    0.000    1.000    7.143    0.857    6.000    1.714 
#    0.000    2.857    0.000    0.000    0.000    3.000 
#    0.000    0.000    0.000    0.000    0.000    0.000 
#
# Total GULP energy -346883.184831 kJ/mol
# GULP energy per Si atom -12388.685173 kJ/mol
# Density = 1.976671 g / cm^3
# Si number density = 19.811804 Si / 1000 Ang^3
#
#
#
# Elastic Constant Matrix: (Units=GPa)
#
#
# Indices 1 2 3 4 5 6 
#
# 1 162.3678 39.4481 22.7570 0.0000 -1.6983 0.0000
# 2 39.4481 127.1410 36.6059 0.0000 0.0746 0.0000
# 3 22.7570 36.6059 77.9044 0.0000 -8.7397 0.0000
# 4 0.0000 0.0000 0.0000 17.3793 0.0000 -3.8349
# 5 -1.6983 0.0746 -8.7397 0.0000 25.9993 0.0000
# 6 0.0000 0.0000 0.0000 -3.8349 0.0000 25.3145
#
#
#
# Elastic Compliance Matrix: (Units=1/GPa)
#
#
# Indices 1 2 3 4 5 6 
#
# 1 0.006748 -0.001767 -0.001133 0.000000 0.000065 0.000000
# 2 -0.001767 0.009617 -0.004176 0.000000 -0.001547 0.000000
# 3 -0.001133 -0.004176 0.015715 0.000000 0.005221 0.000000
# 4 0.000000 0.000000 0.000000 0.059529 0.000000 0.009018
# 5 0.000065 -0.001547 0.005221 0.000000 0.040226 0.000000
# 6 0.000000 0.000000 0.000000 0.009018 0.000000 0.040869
#
#
# Mechanical properties :
#
#
# Convention : Reuss Voigt Hill
#
# Bulk Modulus (GPa) = 55.78397 62.78168 59.28282
# Shear Modulus (GPa) = 25.92905 31.64544 28.78725
#
# Velocity S-wave (km/s) = 3.62161 4.00096 3.81601
# Velocity P-wave (km/s) = 6.76063 7.28707 7.02878
#
# Compressibility (1/GPa) = 0.01792630
#
# Stress axis : x y z
#
# Youngs Moduli (GPa) = 148.19698 103.98349 63.63236
#
# Poissons Ratio (x) = 0.18378 0.07212
# Poissons Ratio (y) = 0.26192 0.26573
# Poissons Ratio (z) = 0.16797 0.43424
#
# Static dielectric constant tensor:
#      x y z
#    x 3.738910 0.000000 -0.013610 
#    y 0.000000 3.864580 0.000000 
#    z -0.013610 0.000000 3.743640 
# 
# 
# High freq. dielectric constant tensor:
#      x y z
#    x 1.779100 0.000000 -0.011840 
#    y 0.000000 1.773720 0.000000 
#    z -0.011840 0.000000 1.757370 
# 
# From -- ./inp_files/125187.got.cif
#   From: 2010.06.25/outbox.cif.g09.slc.cpg/sg12_63_cif.got.tgz:125187.got - 2010.06.28 00:19:55.
