data_PCOD8083935
_publ_section_title
;
Structure prediction by ZEFSAII (Michael W. Deem and Ramdas Pophale) SiO2 
 PCOD8083935
Probable space group: C 2/M
;
_chemical_formula_sum "Si O2"
_cell_formula_units_Z 40
_cell_length_a 26.775791
_cell_length_b 15.893096
_cell_length_c 5.120477
_cell_angle_alpha 90.000000
_cell_angle_beta 108.524627
_cell_angle_gamma 90.000000
_cell_volume 2066.118928
_symmetry_space_group_name_H-M "C 2/M"
_symmetry_group_IT_number 12
_symmetry_cell_setting 'monoclinic'
loop_
_space_group_symop_operation_xyz
x,y,z
-x,y,-z
-x,-y,-z
x,-y,z
1/2+x,1/2+y,z
1/2-x,1/2+y,-z
1/2-x,1/2-y,-z
1/2+x,1/2-y,z
loop_
_atom_site_type_symbol
_atom_site_label
_atom_site_fract_x
_atom_site_fract_y
_atom_site_fract_z
Si Si1 0.034095 0.597155 0.811355
Si Si2 0.848893 0.000000 0.561053
Si Si3 0.244090 0.339468 0.116689
Si Si4 0.144867 0.822534 0.526696
Si Si5 0.720309 0.500000 0.048261
Si Si6 0.632846 0.214285 0.018987
O O1 0.050503 0.500000 0.868027
O O2 0.086607 0.650848 0.875681
O O3 0.000000 0.613495 0.500000
O O4 0.000000 0.627549 0.000000
O O5 0.882928 0.085657 0.564913
O O6 0.801495 0.000000 0.279912
O O7 0.825498 0.000000 0.814984
O O8 0.292182 0.342695 0.407190
O O9 0.246113 0.413067 0.896191
O O10 0.250000 0.250000 0.000000
O O11 0.185846 0.341304 0.144570
O O12 0.135406 0.785924 0.799688
O O13 0.122054 0.759104 0.275980
#
# Coordination Sequence:
#
# PCOD8083935 Si02
#       6
#     8   4   8   8   4   8
#     4  10  22  41  61  82 112 145 188 245 290 329
#     4  10  18  34  50  72 114 146 186 206 262 316
#     4   9  19  33  50  76 116 146 183 229 268 325
#     4  10  20  34  53  83 112 152 180 227 265 340
#     4  10  20  30  48  72 102 158 186 214 262 320
#     4  11  21  34  58  81 109 144 191 225 290 330
#
# _framework density 19.359971000000002
#
# number of rings (size 3 to 8) (size 9 to 14) (size 15 to 20)
#    0.000    2.000    0.000    5.400    1.400    4.800 
#    0.000    0.000    2.200    0.000    0.000   14.000 
#    0.000    0.000    0.000    0.000    0.000    0.000 
#
# Total GULP energy -247782.776983 kJ/mol
# GULP energy per Si atom -12389.138849 kJ/mol
# Density = 1.931591 g / cm^3
# Si number density = 19.359971 Si / 1000 Ang^3
#
#
#
# Elastic Constant Matrix: (Units=GPa)
#
#
# Indices 1 2 3 4 5 6 
#
# 1 64.3780 31.6239 14.6848 0.0000 7.9741 0.0000
# 2 31.6239 116.6547 25.1853 0.0000 3.3965 0.0000
# 3 14.6848 25.1853 69.0131 0.0000 -11.7226 0.0000
# 4 0.0000 0.0000 0.0000 43.9779 0.0000 1.4483
# 5 7.9741 3.3965 -11.7226 0.0000 25.1338 0.0000
# 6 0.0000 0.0000 0.0000 1.4483 0.0000 28.5396
#
#
#
# Elastic Compliance Matrix: (Units=1/GPa)
#
#
# Indices 1 2 3 4 5 6 
#
# 1 0.019393 -0.004213 -0.003842 0.000000 -0.007375 0.000000
# 2 -0.004213 0.010446 -0.003181 0.000000 -0.001558 0.000000
# 3 -0.003842 -0.003181 0.018189 0.000000 0.010132 0.000000
# 4 0.000000 0.000000 0.000000 0.022777 0.000000 -0.001156
# 5 -0.007375 -0.001558 0.010132 0.000000 0.047063 0.000000
# 6 0.000000 0.000000 0.000000 -0.001156 0.000000 0.035098
#
#
# Mechanical properties :
#
#
# Convention : Reuss Voigt Hill
#
# Bulk Modulus (GPa) = 39.12700 43.67042 41.39871
# Shear Modulus (GPa) = 27.18047 31.43371 29.30709
#
# Velocity S-wave (km/s) = 3.75100 4.03382 3.89498
# Velocity P-wave (km/s) = 6.24613 6.65595 6.45429
#
# Compressibility (1/GPa) = 0.02555780
#
# Stress axis : x y z
#
# Youngs Moduli (GPa) = 51.56617 95.72626 54.97770
#
# Poissons Ratio (x) = 0.40329 0.21121
# Poissons Ratio (y) = 0.21725 0.17486
# Poissons Ratio (z) = 0.19810 0.30446
#
# Static dielectric constant tensor:
#      x y z
#    x 3.427220 0.000000 0.054270 
#    y 0.000000 4.557340 0.000000 
#    z 0.054270 0.000000 3.505200 
# 
# 
# High freq. dielectric constant tensor:
#      x y z
#    x 1.704510 0.000000 -0.016930 
#    y 0.000000 1.780250 0.000000 
#    z -0.016930 0.000000 1.750710 
# 
# From -- ./inp_files/24229.got.cif
#   From: 2010.06.25/outbox.cif.g09.slc.cpg/sg12_13_cif.got.tgz:24229.got - 2010.06.28 00:19:55.
