data_PCOD8083695
_publ_section_title
;
Structure prediction by ZEFSAII (Michael W. Deem and Ramdas Pophale) SiO2 
 PCOD8083695
Probable space group: C 2/M
;
_chemical_formula_sum "Si O2"
_cell_formula_units_Z 64
_cell_length_a 25.135217
_cell_length_b 9.005267
_cell_length_c 30.717360
_cell_angle_alpha 90.000000
_cell_angle_beta 152.518645
_cell_angle_gamma 90.000000
_cell_volume 3208.463672
_symmetry_space_group_name_H-M "C 2/M"
_symmetry_group_IT_number 12
_symmetry_cell_setting 'monoclinic'
loop_
_space_group_symop_operation_xyz
x,y,z
-x,y,-z
-x,-y,-z
x,-y,z
1/2+x,1/2+y,z
1/2-x,1/2+y,-z
1/2-x,1/2-y,-z
1/2+x,1/2-y,z
loop_
_atom_site_type_symbol
_atom_site_label
_atom_site_fract_x
_atom_site_fract_y
_atom_site_fract_z
Si Si1 0.621620 0.836599 0.616816
Si Si2 0.825258 0.173691 0.184565
Si Si3 0.971419 0.172283 0.369041
Si Si4 0.618181 0.338153 0.183309
Si Si5 0.564920 0.826167 0.225049
Si Si6 0.629686 0.161752 0.106880
Si Si7 0.327169 0.328426 0.428063
Si Si8 0.843198 0.822347 0.099979
O O1 0.605424 0.744376 0.648949
O O2 0.756360 0.853643 0.705473
O O3 0.589652 0.757564 0.546986
O O4 0.563958 0.000000 0.579206
O O5 0.930932 0.234548 0.292236
O O6 0.704908 0.215780 0.120351
O O7 0.822354 0.240526 0.133858
O O8 0.841238 0.000000 0.189893
O O9 0.107780 0.198692 0.478262
O O10 0.940492 0.000000 0.348061
O O11 0.556367 0.500000 0.139378
O O12 0.549902 0.218844 0.163278
O O13 0.633636 0.286971 0.145597
O O14 0.693217 0.782189 0.335450
O O15 0.472884 0.729463 0.184254
O O16 0.538578 0.000000 0.211131
O O17 0.677205 0.000000 0.157526
O O18 0.500000 0.139748 0.000000
O O19 0.331131 0.500000 0.416604
O O20 0.833278 0.000000 0.089077
O O21 0.750000 0.750000 0.000000
#
# Coordination Sequence:
#
# PCOD8083695 Si02
#       8
#     8   8   8   8   8   8   8   8
#     4  10  19  30  47  77 118 156 187 227 279 335
#     4   9  20  38  59  84 116 152 192 236 287 347
#     4  10  18  33  56  80 109 150 196 235 277 340
#     4  10  20  34  53  82 116 151 188 234 287 342
#     4  10  21  39  60  83 114 151 194 243 288 337
#     4  10  20  34  56  84 113 150 190 230 283 353
#     4   9  19  33  54  82 111 149 196 238 278 333
#     4  11  24  43  65  89 114 149 194 241 292 345
#
# _framework density 19.947241000000002
#
# number of rings (size 3 to 8) (size 9 to 14) (size 15 to 20)
#    0.000    2.125    1.250    1.875    1.750    3.750 
#    0.000    3.125    0.000    0.000    0.000    0.000 
#    0.000    0.000    0.000    0.000    0.000    0.000 
#
# Total GULP energy -396466.608701 kJ/mol
# GULP energy per Si atom -12389.581522 kJ/mol
# Density = 1.990184 g / cm^3
# Si number density = 19.947241 Si / 1000 Ang^3
#
#
#
# Elastic Constant Matrix: (Units=GPa)
#
#
# Indices 1 2 3 4 5 6 
#
# 1 131.8789 36.1452 67.5232 0.0003 -15.0904 0.0001
# 2 36.1452 73.9907 33.5137 0.0007 -6.2228 0.0009
# 3 67.5232 33.5137 118.4527 0.0007 -12.4006 0.0005
# 4 0.0003 0.0007 0.0007 20.9238 0.0003 3.7270
# 5 -15.0904 -6.2228 -12.4006 0.0003 34.7547 0.0001
# 6 0.0001 0.0009 0.0005 3.7270 0.0001 28.1855
#
#
#
# Elastic Compliance Matrix: (Units=1/GPa)
#
#
# Indices 1 2 3 4 5 6 
#
# 1 0.011457 -0.002921 -0.005442 0.000000 0.002510 0.000000
# 2 -0.002921 0.016300 -0.002881 0.000000 0.000622 0.000000
# 3 -0.005442 -0.002881 0.012526 0.000000 0.001591 0.000000
# 4 0.000000 0.000000 0.000000 0.048945 -0.000001 -0.006472
# 5 0.002510 0.000622 0.001591 -0.000001 0.030542 0.000000
# 6 0.000000 0.000000 0.000000 -0.006472 0.000000 0.036335
#
#
# Mechanical properties :
#
#
# Convention : Reuss Voigt Hill
#
# Bulk Modulus (GPa) = 56.19810 66.52071 61.35940
# Shear Modulus (GPa) = 27.09683 29.24882 28.17283
#
# Velocity S-wave (km/s) = 3.68968 3.83340 3.76222
# Velocity P-wave (km/s) = 6.81074 7.28107 7.04983
#
# Compressibility (1/GPa) = 0.01779420
#
# Stress axis : x y z
#
# Youngs Moduli (GPa) = 87.28589 61.35140 79.83442
#
# Poissons Ratio (x) = 0.17920 0.43443
# Poissons Ratio (y) = 0.25495 0.23004
# Poissons Ratio (z) = 0.47498 0.17678
#
# Static dielectric constant tensor:
#      x y z
#    x 3.501690 0.000000 0.062510 
#    y 0.000000 3.702090 0.000000 
#    z 0.062510 0.000000 3.153630 
# 
# 
# High freq. dielectric constant tensor:
#      x y z
#    x 1.754270 0.000000 -0.001160 
#    y 0.000000 1.767890 0.000000 
#    z -0.001160 0.000000 1.793080 
# 
# From -- ./inp_files/382422.got.cif
#   From: 2010.06.25/outbox.cif.g09.slc.cpg/sg12_192_cif.got.tgz:382422.got - 2010.06.28 00:19:55.
