data_PCOD8083881
_publ_section_title
;
Structure prediction by ZEFSAII (Michael W. Deem and Ramdas Pophale) SiO2 
 PCOD8083881
Probable space group: C 2/M
;
_chemical_formula_sum "Si O2"
_cell_formula_units_Z 48
_cell_length_a 9.529565
_cell_length_b 27.797167
_cell_length_c 8.775458
_cell_angle_alpha 90.000000
_cell_angle_beta 89.026392
_cell_angle_gamma 90.000000
_cell_volume 2324.238552
_symmetry_space_group_name_H-M "C 2/M"
_symmetry_group_IT_number 12
_symmetry_cell_setting 'monoclinic'
loop_
_space_group_symop_operation_xyz
x,y,z
-x,y,-z
-x,-y,-z
x,-y,z
1/2+x,1/2+y,z
1/2-x,1/2+y,-z
1/2-x,1/2-y,-z
1/2+x,1/2-y,z
loop_
_atom_site_type_symbol
_atom_site_label
_atom_site_fract_x
_atom_site_fract_y
_atom_site_fract_z
Si Si1 0.000000 0.660439 0.000000
Si Si2 0.343566 0.778503 0.745044
Si Si3 0.000000 0.332092 0.500000
Si Si4 0.967611 0.196701 0.176989
Si Si5 0.047269 0.897149 0.324998
Si Si6 0.600537 0.000000 0.646468
Si Si7 0.366651 0.103721 0.251989
Si Si8 0.424941 0.500000 0.657453
O O1 0.918562 0.693320 0.881361
O O2 0.112860 0.625408 0.916942
O O3 0.375523 0.799774 0.575903
O O4 0.177698 0.776567 0.779347
O O5 0.405235 0.724344 0.741472
O O6 0.958377 0.366000 0.364597
O O7 0.957734 0.141424 0.232298
O O8 0.000000 0.197267 0.000000
O O9 0.210400 0.886478 0.309366
O O10 0.028764 0.951315 0.254133
O O11 0.000000 0.895070 0.500000
O O12 0.500000 0.000000 0.500000
O O13 0.577441 0.951523 0.745977
O O14 0.764287 0.000000 0.602950
O O15 0.500000 0.500000 0.500000
#
# Coordination Sequence:
#
# PCOD8083881 Si02
#       8
#     4   8   4   8   8   4   8   4
#     4  10  22  41  58  80 124 161 198 234 302 354
#     4  11  25  40  60  86 119 160 199 245 295 355
#     4  10  22  37  58  84 124 151 202 244 294 346
#     4  12  25  40  61  87 122 158 203 242 301 356
#     4  10  21  38  64  87 117 154 202 244 299 350
#     4  10  18  33  59  93 118 148 199 249 299 346
#     4  10  20  37  60  86 120 158 195 248 297 353
#     4   8  18  38  60  85 118 156 190 240 302 350
#
# _framework density 20.651924999999999
#
# number of rings (size 3 to 8) (size 9 to 14) (size 15 to 20)
#    0.000    1.667    1.667    2.500    5.833    1.000 
#    0.000    0.417    0.000    1.000    0.000    0.000 
#    0.000    0.000    0.000    0.000    0.000    0.000 
#
# Total GULP energy -297422.071372 kJ/mol
# GULP energy per Si atom -12392.586307 kJ/mol
# Density = 2.060492 g / cm^3
# Si number density = 20.651925 Si / 1000 Ang^3
#
#
#
# Elastic Constant Matrix: (Units=GPa)
#
#
# Indices 1 2 3 4 5 6 
#
# 1 95.7620 40.7759 21.2943 0.0000 -22.1402 0.0000
# 2 40.7759 141.2417 30.4222 0.0000 -5.2660 0.0000
# 3 21.2943 30.4222 65.6878 0.0000 -25.3973 0.0000
# 4 0.0000 0.0000 0.0000 19.5109 0.0000 5.4761
# 5 -22.1402 -5.2660 -25.3973 0.0000 34.0784 0.0000
# 6 0.0000 0.0000 0.0000 5.4761 0.0000 31.2190
#
#
#
# Elastic Compliance Matrix: (Units=1/GPa)
#
#
# Indices 1 2 3 4 5 6 
#
# 1 0.014021 -0.003873 0.000757 0.000000 0.009075 0.000000
# 2 -0.003873 0.009043 -0.004728 0.000000 -0.004642 0.000000
# 3 0.000757 -0.004728 0.023987 0.000000 0.017638 0.000000
# 4 0.000000 0.000000 0.000000 0.053907 0.000000 -0.009456
# 5 0.009075 -0.004642 0.017638 0.000000 0.047668 0.000000
# 6 0.000000 0.000000 0.000000 -0.009456 0.000000 0.033690
#
#
# Mechanical properties :
#
#
# Convention : Reuss Voigt Hill
#
# Bulk Modulus (GPa) = 31.88236 54.18628 43.03432
# Shear Modulus (GPa) = 23.98560 30.97493 27.48026
#
# Velocity S-wave (km/s) = 3.41166 3.87700 3.65175
# Velocity P-wave (km/s) = 5.56693 6.80708 6.21800
#
# Compressibility (1/GPa) = 0.03136530
#
# Stress axis : x y z
#
# Youngs Moduli (GPa) = 71.31965 110.57945 41.68921
#
# Poissons Ratio (x) = 0.42823 -0.03156
# Poissons Ratio (y) = 0.27619 0.19709
# Poissons Ratio (z) = -0.05398 0.52277
#
# Static dielectric constant tensor:
#      x y z
#    x 3.687550 0.000000 -0.378360 
#    y 0.000000 0.375260 0.000000 
#    z -0.378360 0.000000 4.035020 
# 
# 
# High freq. dielectric constant tensor:
#      x y z
#    x 1.804330 0.000000 -0.022820 
#    y 0.000000 1.831870 0.000000 
#    z -0.022820 0.000000 1.791390 
# 
# From -- ./inp_files/42329.got.cif
#   From: 2010.06.25/outbox.cif.g09.slc.cpg/sg12_22_cif.got.tgz:42329.got - 2010.06.28 00:19:55.
