data_PCOD8083986
_publ_section_title
;
Structure prediction by ZEFSAII (Michael W. Deem and Ramdas Pophale) SiO2 
 PCOD8083986
Probable space group: C 2/M
;
_chemical_formula_sum "Si O2"
_cell_formula_units_Z 56
_cell_length_a 24.608504
_cell_length_b 18.889583
_cell_length_c 9.648889
_cell_angle_alpha 90.000000
_cell_angle_beta 41.156199
_cell_angle_gamma 90.000000
_cell_volume 2951.794154
_symmetry_space_group_name_H-M "C 2/M"
_symmetry_group_IT_number 12
_symmetry_cell_setting 'monoclinic'
loop_
_space_group_symop_operation_xyz
x,y,z
-x,y,-z
-x,-y,-z
x,-y,z
1/2+x,1/2+y,z
1/2-x,1/2+y,-z
1/2-x,1/2-y,-z
1/2+x,1/2-y,z
loop_
_atom_site_type_symbol
_atom_site_label
_atom_site_fract_x
_atom_site_fract_y
_atom_site_fract_z
Si Si1 0.407609 0.331753 0.126947
Si Si2 0.649445 0.180105 0.834202
Si Si3 0.009515 0.420672 0.145922
Si Si4 0.686440 0.581146 0.902199
Si Si5 0.669472 0.683678 0.440315
Si Si6 0.152487 0.657498 0.506942
Si Si7 0.407601 0.581196 0.635700
O O1 0.395949 0.255576 0.077527
O O2 0.386715 0.392388 0.057058
O O3 0.346813 0.341423 0.372420
O O4 0.500000 0.341144 0.000000
O O5 0.731805 0.182547 0.768517
O O6 0.670386 0.157360 0.636815
O O7 0.590322 0.124829 0.026901
O O8 0.021804 0.500000 0.178868
O O9 0.928642 0.387867 0.373155
O O10 0.000000 0.419342 0.000000
O O11 0.705151 0.500000 0.830506
O O12 0.769628 0.625433 0.722021
O O13 0.655668 0.590813 0.117207
O O14 0.636384 0.763344 0.482104
O O15 0.622826 0.631658 0.427411
O O16 0.500000 0.603911 0.500000
O O17 0.407586 0.500000 0.583066
#
# Coordination Sequence:
#
# PCOD8083986 Si02
#       7
#     8   8   8   8   8   8   8
#     4  11  20  35  58  86 118 150 188 239 293 340
#     4  10  18  34  54  87 121 146 186 241 285 337
#     4   9  18  30  51  82 118 155 184 224 285 349
#     4  11  22  37  58  81 114 152 192 245 292 339
#     4  11  20  36  61  85 112 155 191 240 286 343
#     4  10  18  36  56  85 119 147 191 238 291 340
#     4  10  24  43  57  79 116 153 192 237 291 348
#
# _framework density 18.971513000000002
#
# number of rings (size 3 to 8) (size 9 to 14) (size 15 to 20)
#    0.000    1.714    2.857    4.286    0.000    2.571 
#    0.000    0.000    0.000    0.000    0.000    3.000 
#    0.000    0.000    0.000    0.000    0.000    0.000 
#
# Total GULP energy -347261.088996 kJ/mol
# GULP energy per Si atom -12402.181750 kJ/mol
# Density = 1.892833 g / cm^3
# Si number density = 18.971513 Si / 1000 Ang^3
#
#
#
# Elastic Constant Matrix: (Units=GPa)
#
#
# Indices 1 2 3 4 5 6 
#
# 1 83.1746 55.7259 27.4025 0.0000 -17.8997 0.0000
# 2 55.7259 122.7221 40.9399 0.0000 3.2573 0.0000
# 3 27.4025 40.9399 61.9782 0.0000 -23.9050 0.0000
# 4 0.0000 0.0000 0.0000 31.4611 0.0000 -3.7017
# 5 -17.8997 3.2573 -23.9050 0.0000 26.3377 0.0000
# 6 0.0000 0.0000 0.0000 -3.7017 0.0000 31.0738
#
#
#
# Elastic Compliance Matrix: (Units=1/GPa)
#
#
# Indices 1 2 3 4 5 6 
#
# 1 0.025139 -0.015452 0.009876 0.000000 0.027960 0.000000
# 2 -0.015452 0.022924 -0.020701 0.000000 -0.032126 0.000000
# 3 0.009876 -0.020701 0.044649 0.000000 0.049797 0.000000
# 4 0.000000 0.000000 0.000000 0.032237 0.000000 0.003840
# 5 0.027960 -0.032126 0.049797 0.000000 0.106142 0.000000
# 6 0.000000 0.000000 0.000000 0.003840 0.000000 0.032639
#
#
# Mechanical properties :
#
#
# Convention : Reuss Voigt Hill
#
# Bulk Modulus (GPa) = 24.90179 57.33461 41.11820
# Shear Modulus (GPa) = 15.16673 27.36162 21.26418
#
# Velocity S-wave (km/s) = 2.83052 3.80181 3.35154
# Velocity P-wave (km/s) = 4.88230 7.03980 6.05787
#
# Compressibility (1/GPa) = 0.04015776
#
# Stress axis : x y z
#
# Youngs Moduli (GPa) = 39.77906 43.62332 22.39683
#
# Poissons Ratio (x) = 0.67406 -0.22120
# Poissons Ratio (y) = 0.61466 0.46364
# Poissons Ratio (z) = -0.39287 0.90306
#
# Static dielectric constant tensor:
#      x y z
#    x 3.259320 0.000000 -0.305260 
#    y 0.000000 3.647770 0.000000 
#    z -0.305260 0.000000 3.491240 
# 
# 
# High freq. dielectric constant tensor:
#      x y z
#    x 1.714450 0.000000 -0.030920 
#    y 0.000000 1.746760 0.000000 
#    z -0.030920 0.000000 1.734160 
# 
# From -- ./inp_files/98060.got.cif
#   From: 2010.06.25/outbox.cif.g09.slc.cpg/sg12_50_cif.got.tgz:98060.got - 2010.06.28 00:19:55.
