data_PCOD8083551
_publ_section_title
;
Structure prediction by ZEFSAII (Michael W. Deem and Ramdas Pophale) SiO2 
 PCOD8083551
Probable space group: C 2/M
;
_chemical_formula_sum "Si O2"
_cell_formula_units_Z 64
_cell_length_a 31.761413
_cell_length_b 9.091197
_cell_length_c 18.094612
_cell_angle_alpha 90.000000
_cell_angle_beta 40.786059
_cell_angle_gamma 90.000000
_cell_volume 3413.033354
_symmetry_space_group_name_H-M "C 2/M"
_symmetry_group_IT_number 12
_symmetry_cell_setting 'monoclinic'
loop_
_space_group_symop_operation_xyz
x,y,z
-x,y,-z
-x,-y,-z
x,-y,z
1/2+x,1/2+y,z
1/2-x,1/2+y,-z
1/2-x,1/2-y,-z
1/2+x,1/2-y,z
loop_
_atom_site_type_symbol
_atom_site_label
_atom_site_fract_x
_atom_site_fract_y
_atom_site_fract_z
Si Si1 0.278916 0.328489 0.690104
Si Si2 0.424968 0.327302 0.273383
Si Si3 0.037411 0.328949 0.338446
Si Si4 0.210593 0.827500 0.488355
Si Si5 0.141716 0.327798 0.932462
Si Si6 0.058460 0.824821 0.161765
Si Si7 0.903262 0.670205 0.584188
Si Si8 0.575538 0.665135 0.889314
O O1 0.293029 0.500000 0.666060
O O2 0.266959 0.270654 0.622101
O O3 0.217268 0.292542 0.822298
O O4 0.340571 0.258070 0.645288
O O5 0.435680 0.500000 0.251904
O O6 0.365102 0.286255 0.405036
O O7 0.490884 0.261444 0.219350
O O8 0.410155 0.267664 0.210789
O O9 0.039909 0.500000 0.312990
O O10 0.065850 0.229937 0.235456
O O11 0.081840 0.298158 0.350122
O O12 0.964082 0.280747 0.453584
O O13 0.250000 0.750000 0.500000
O O14 0.221592 0.000000 0.484154
O O15 0.129170 0.500000 0.960539
O O16 0.105227 0.276971 0.907787
O O17 0.117199 0.239578 0.036167
O O18 0.062090 0.000000 0.154648
O O19 0.889299 0.500000 0.589832
O O20 0.604650 0.500000 0.860907
O O21 0.500000 0.656607 0.000000
#
# Coordination Sequence:
#
# PCOD8083551 Si02
#       8
#     8   8   8   8   8   8   8   8
#     4  10  22  38  55  78 113 149 188 233 275 320
#     4   9  18  32  52  76 104 137 175 224 276 318
#     4   9  19  37  59  88 119 141 169 223 280 327
#     4  10  20  35  53  76 107 141 177 222 271 321
#     4  11  23  37  52  76 111 149 186 235 285 325
#     4  11  21  36  57  82 108 142 185 228 275 332
#     4   9  19  37  62  87 114 146 179 215 270 336
#     4  10  18  33  53  74 105 143 184 230 272 326
#
# _framework density 18.751646999999998
#
# number of rings (size 3 to 8) (size 9 to 14) (size 15 to 20)
#    0.000    2.125    1.250    3.000    0.000    3.750 
#    0.000    3.125    0.000    0.000    0.000    0.000 
#    0.000    0.000    0.000    0.000    0.000    0.000 
#
# Total GULP energy -396823.999362 kJ/mol
# GULP energy per Si atom -12400.749980 kJ/mol
# Density = 1.870897 g / cm^3
# Si number density = 18.751647 Si / 1000 Ang^3
#
#
#
# Elastic Constant Matrix: (Units=GPa)
#
#
# Indices 1 2 3 4 5 6 
#
# 1 106.2022 48.6575 65.8965 0.0093 -0.1463 -0.0025
# 2 48.6575 65.2950 58.0475 0.0393 1.2008 -0.0171
# 3 65.8965 58.0475 129.8401 0.0320 12.2550 -0.0196
# 4 0.0093 0.0393 0.0320 31.6232 -0.0250 -5.0938
# 5 -0.1463 1.2008 12.2550 -0.0250 33.0864 0.0166
# 6 -0.0025 -0.0171 -0.0196 -5.0938 0.0166 48.9974
#
#
#
# Elastic Compliance Matrix: (Units=1/GPa)
#
#
# Indices 1 2 3 4 5 6 
#
# 1 0.015921 -0.007533 -0.004917 0.000011 0.002165 -0.000003
# 2 -0.007533 0.029357 -0.009531 -0.000022 0.002431 0.000003
# 3 -0.004917 -0.009531 0.014950 -0.000005 -0.005213 0.000004
# 4 0.000011 -0.000022 -0.000005 0.032161 0.000025 0.003343
# 5 0.002165 0.002431 -0.005213 0.000025 0.032076 -0.000009
# 6 -0.000003 0.000003 0.000004 0.003343 -0.000009 0.020757
#
#
# Mechanical properties :
#
#
# Convention : Reuss Voigt Hill
#
# Bulk Modulus (GPa) = 61.47520 71.83781 66.65651
# Shear Modulus (GPa) = 25.69288 31.32379 28.50834
#
# Velocity S-wave (km/s) = 3.70559 4.09155 3.90335
# Velocity P-wave (km/s) = 7.15287 7.79194 7.47924
#
# Compressibility (1/GPa) = 0.01626672
#
# Stress axis : x y z
#
# Youngs Moduli (GPa) = 62.80952 34.06333 66.88861
#
# Poissons Ratio (x) = 0.25660 0.32888
# Poissons Ratio (y) = 0.47315 0.63751
# Poissons Ratio (z) = 0.30882 0.32466
#
# Static dielectric constant tensor:
#      x y z
#    x 3.273770 -0.000040 0.146240 
#    y -0.000040 3.299740 0.000030 
#    z 0.146240 0.000030 3.566020 
# 
# 
# High freq. dielectric constant tensor:
#      x y z
#    x 1.722610 0.000000 0.006610 
#    y 0.000000 1.713160 0.000000 
#    z 0.006610 0.000000 1.738430 
# 
# From -- ./inp_files/295576.got.cif
#   From: 2010.06.25/outbox.cif.g09.slc.cpg/sg12_148_cif.got.tgz:295576.got - 2010.06.28 00:19:55.
