data_PCOD8083345
_publ_section_title
;
Structure prediction by ZEFSAII (Michael W. Deem and Ramdas Pophale) SiO2 
 PCOD8083345
Probable space group: C 2/M
;
_chemical_formula_sum "Si O2"
_cell_formula_units_Z 56
_cell_length_a 19.631305
_cell_length_b 8.801195
_cell_length_c 16.930137
_cell_angle_alpha 90.000000
_cell_angle_beta 72.564107
_cell_angle_gamma 90.000000
_cell_volume 2790.767777
_symmetry_space_group_name_H-M "C 2/M"
_symmetry_group_IT_number 12
_symmetry_cell_setting 'monoclinic'
loop_
_space_group_symop_operation_xyz
x,y,z
-x,y,-z
-x,-y,-z
x,-y,z
1/2+x,1/2+y,z
1/2-x,1/2+y,-z
1/2-x,1/2-y,-z
1/2+x,1/2-y,z
loop_
_atom_site_type_symbol
_atom_site_label
_atom_site_fract_x
_atom_site_fract_y
_atom_site_fract_z
Si Si1 0.648429 0.821533 0.880881
Si Si2 0.882344 0.679962 0.935064
Si Si3 0.890432 0.820238 0.635940
Si Si4 0.471741 0.819047 0.190808
Si Si5 0.533720 0.820824 0.628955
Si Si6 0.677929 0.179521 0.490114
Si Si7 0.808386 0.176665 0.819926
O O1 0.595076 0.751406 0.834537
O O2 0.727604 0.784855 0.823084
O O3 0.634517 0.000000 0.891587
O O4 0.633087 0.751193 0.972898
O O5 0.881470 0.500000 0.938091
O O6 0.822071 0.733815 0.895651
O O7 0.958017 0.741711 0.877546
O O8 0.837701 0.745874 0.590746
O O9 0.860688 0.770376 0.731900
O O10 0.971267 0.758987 0.599617
O O11 0.888860 0.000000 0.624762
O O12 0.469304 0.756978 0.280834
O O13 0.469513 0.000000 0.194102
O O14 0.610917 0.776100 0.568459
O O15 0.520272 0.000000 0.628680
O O16 0.750000 0.250000 0.500000
O O17 0.687857 0.000000 0.481276
O O18 0.818020 0.000000 0.834699
#
# Coordination Sequence:
#
# PCOD8083345 Si02
#       7
#     8   8   8   8   8   8   8
#     4   9  18  31  52  81 112 148 190 237 284 334
#     4  10  18  32  56  83 109 143 192 241 283 331
#     4  11  23  39  61  86 118 158 197 237 286 343
#     4   9  17  31  55  83 110 141 185 236 280 330
#     4  10  21  39  63  87 114 152 195 238 286 343
#     4  11  25  42  64  92 120 149 187 236 291 349
#     4  10  21  35  54  80 114 153 189 229 283 344
#
# _framework density 20.066163
#
# number of rings (size 3 to 8) (size 9 to 14) (size 15 to 20)
#    0.000    2.000    1.429    2.143    2.000    5.143 
#    0.000    0.000    0.000    3.429    0.000    0.000 
#    0.000    0.000    0.000    0.000    0.000    0.000 
#
# Total GULP energy -347241.374640 kJ/mol
# GULP energy per Si atom -12401.477666 kJ/mol
# Density = 2.002049 g / cm^3
# Si number density = 20.066163 Si / 1000 Ang^3
#
#
#
# Elastic Constant Matrix: (Units=GPa)
#
#
# Indices 1 2 3 4 5 6 
#
# 1 149.3282 34.8230 46.4051 0.0000 10.8008 0.0000
# 2 34.8230 36.1001 26.2156 0.0000 -0.6296 0.0000
# 3 46.4051 26.2156 91.4338 0.0000 2.8279 0.0000
# 4 0.0000 0.0000 0.0000 20.5268 0.0000 4.0693
# 5 10.8008 -0.6296 2.8279 0.0000 38.4737 0.0000
# 6 0.0000 0.0000 0.0000 4.0693 0.0000 29.2599
#
#
#
# Elastic Compliance Matrix: (Units=1/GPa)
#
#
# Indices 1 2 3 4 5 6 
#
# 1 0.009370 -0.007182 -0.002617 0.000000 -0.002556 0.000000
# 2 -0.007182 0.040557 -0.008084 0.000000 0.003274 0.000000
# 3 -0.002617 -0.008084 0.014598 0.000000 -0.000471 0.000000
# 4 0.000000 0.000000 0.000000 0.050098 0.000000 -0.006967
# 5 -0.002556 0.003274 -0.000471 0.000000 0.026797 0.000000
# 6 0.000000 0.000000 0.000000 -0.006967 0.000000 0.035145
#
#
# Mechanical properties :
#
#
# Convention : Reuss Voigt Hill
#
# Bulk Modulus (GPa) = 34.77450 54.63883 44.70666
# Shear Modulus (GPa) = 22.53083 28.94664 25.73873
#
# Velocity S-wave (km/s) = 3.35450 3.80222 3.58536
# Velocity P-wave (km/s) = 5.68956 6.82381 6.28233
#
# Compressibility (1/GPa) = 0.02875670
#
# Stress axis : x y z
#
# Youngs Moduli (GPa) = 106.72735 24.65669 68.50459
#
# Poissons Ratio (x) = 0.17709 0.17928
# Poissons Ratio (y) = 0.76655 0.55382
# Poissons Ratio (z) = 0.27931 0.19933
#
# Static dielectric constant tensor:
#      x y z
#    x 3.769310 0.000000 0.026210 
#    y 0.000000 3.260770 0.000000 
#    z 0.026210 0.000000 3.876900 
# 
# 
# High freq. dielectric constant tensor:
#      x y z
#    x 1.798050 0.000000 0.000600 
#    y 0.000000 1.744300 0.000000 
#    z 0.000600 0.000000 1.795420 
# 
# From -- ./inp_files/275177.got.cif
#   From: 2010.06.25/outbox.cif.g09.slc.cpg/sg12_138_cif.got.tgz:275177.got - 2010.06.28 00:19:55.
