data_PCOD8083544
_publ_section_title
;
Structure prediction by ZEFSAII (Michael W. Deem and Ramdas Pophale) SiO2 
 PCOD8083544
Probable space group: C 2/M
;
_chemical_formula_sum "Si O2"
_cell_formula_units_Z 44
_cell_length_a 29.355651
_cell_length_b 10.075786
_cell_length_c 11.019979
_cell_angle_alpha 90.000000
_cell_angle_beta 48.331322
_cell_angle_gamma 90.000000
_cell_volume 2434.854574
_symmetry_space_group_name_H-M "C 2/M"
_symmetry_group_IT_number 12
_symmetry_cell_setting 'monoclinic'
loop_
_space_group_symop_operation_xyz
x,y,z
-x,y,-z
-x,-y,-z
x,-y,z
1/2+x,1/2+y,z
1/2-x,1/2+y,-z
1/2-x,1/2-y,-z
1/2+x,1/2-y,z
loop_
_atom_site_type_symbol
_atom_site_label
_atom_site_fract_x
_atom_site_fract_y
_atom_site_fract_z
Si Si1 0.910524 0.500000 0.211590
Si Si2 0.992956 0.283098 0.375488
Si Si3 0.873286 0.274873 0.445780
Si Si4 0.748963 0.852676 0.392219
Si Si5 0.413417 0.500000 0.279269
Si Si6 0.858055 0.000000 0.124104
Si Si7 0.027595 0.000000 0.228868
Si Si8 0.035827 0.500000 0.128165
O O1 0.879816 0.365065 0.313590
O O2 0.977925 0.500000 0.145230
O O3 0.908430 0.500000 0.067282
O O4 0.037020 0.368651 0.210210
O O5 0.000000 0.333437 0.500000
O O6 0.922438 0.309484 0.462533
O O7 0.012106 0.129523 0.334906
O O8 0.803386 0.304568 0.611446
O O9 0.879116 0.123483 0.398303
O O10 0.750000 0.750000 0.500000
O O11 0.814564 0.868007 0.207071
O O12 0.732793 0.000000 0.473151
O O13 0.406242 0.500000 0.148490
O O14 0.485326 0.500000 0.183133
O O15 0.900402 0.000000 0.930182
#
# Coordination Sequence:
#
# PCOD8083544 Si02
#       8
#     4   8   8   8   4   4   4   4
#     4   9  17  30  47  71 109 138 163 206 263 327
#     4  10  21  36  55  76 105 142 183 225 264 314
#     4  10  18  33  52  80 108 143 175 214 269 313
#     4  10  19  32  51  76 107 143 175 212 254 322
#     4  10  19  30  52  80 112 136 172 214 267 322
#     4  10  20  31  51  75 110 140 172 207 270 322
#     4  10  22  35  53  78 105 140 178 225 272 305
#     4   9  19  30  47  76 104 135 170 207 267 317
#
# _framework density 18.070893000000002
#
# number of rings (size 3 to 8) (size 9 to 14) (size 15 to 20)
#    0.545    1.636    2.727    0.818    2.545    0.000 
#    0.000    0.000    0.000    1.091    0.000    2.545 
#    0.000    0.000    0.000    0.000    0.000    0.000 
#
# Total GULP energy -272553.113665 kJ/mol
# GULP energy per Si atom -12388.777894 kJ/mol
# Density = 1.802976 g / cm^3
# Si number density = 18.070893 Si / 1000 Ang^3
#
#
#
# Elastic Constant Matrix: (Units=GPa)
#
#
# Indices 1 2 3 4 5 6 
#
# 1 86.8928 23.3533 47.8666 0.0000 -4.4840 0.0000
# 2 23.3533 113.0718 23.3626 0.0000 1.8613 0.0000
# 3 47.8666 23.3626 75.0558 0.0000 1.4711 0.0000
# 4 0.0000 0.0000 0.0000 5.0028 0.0000 -12.3002
# 5 -4.4840 1.8613 1.4711 0.0000 31.7931 0.0000
# 6 0.0000 0.0000 0.0000 -12.3002 0.0000 10.9436
#
#
#
# Elastic Compliance Matrix: (Units=1/GPa)
#
#
# Indices 1 2 3 4 5 6 
#
# 1 0.018273 -0.001502 -0.011248 0.000000 0.003186 0.000000
# 2 -0.001502 0.009581 -0.002011 0.000000 -0.000680 0.000000
# 3 -0.011248 -0.002011 0.021171 0.000000 -0.002448 0.000000
# 4 0.000000 0.000000 0.000000 -0.113352 0.000000 -0.127403
# 5 0.003186 -0.000680 -0.002448 0.000000 0.032056 0.000000
# 6 0.000000 0.000000 0.000000 -0.127403 0.000000 -0.051819
#
#
# Mechanical properties :
#
#
# Convention : Reuss Voigt Hill
#
# Bulk Modulus (GPa) = 51.27733 51.57614 51.42673
# Shear Modulus (GPa) = -104.02145 21.57710 -41.22217
#
# Velocity S-wave (km/s) = -7.59526 3.45922 -4.78131
# Velocity P-wave (km/s) = 6.96276 6.67517 1.40038
#
# Compressibility (1/GPa) = 0.01950180
#
# Stress axis : x y z
#
# Youngs Moduli (GPa) = 54.72573 104.37457 47.23465
#
# Poissons Ratio (x) = 0.15681 0.53131
# Poissons Ratio (y) = 0.08222 0.09498
# Poissons Ratio (z) = 0.61557 0.20988
#
# Static dielectric constant tensor:
#      x y z
#    x 3.509730 0.000000 -0.253490 
#    y 0.000000 3.425070 0.000000 
#    z -0.253490 0.000000 3.083930 
# 
# 
# High freq. dielectric constant tensor:
#      x y z
#    x 1.691240 0.000000 -0.019410 
#    y 0.000000 1.714980 0.000000 
#    z -0.019410 0.000000 1.653600 
# 
# From -- ./inp_files/109797.got.cif
#   From: 2010.06.25/outbox.cif.g09.slc.cpg/sg12_55_cif.got.tgz:109797.got - 2010.06.28 00:19:55.
