data_PCOD8083561
_publ_section_title
;
Structure prediction by ZEFSAII (Michael W. Deem and Ramdas Pophale) SiO2 
 PCOD8083561
Probable space group: C 2/M
;
_chemical_formula_sum "Si O2"
_cell_formula_units_Z 48
_cell_length_a 24.886066
_cell_length_b 17.217172
_cell_length_c 18.602418
_cell_angle_alpha 90.000000
_cell_angle_beta 161.714832
_cell_angle_gamma 90.000000
_cell_volume 2500.728773
_symmetry_space_group_name_H-M "C 2/M"
_symmetry_group_IT_number 12
_symmetry_cell_setting 'monoclinic'
loop_
_space_group_symop_operation_xyz
x,y,z
-x,y,-z
-x,-y,-z
x,-y,z
1/2+x,1/2+y,z
1/2-x,1/2+y,-z
1/2-x,1/2-y,-z
1/2+x,1/2-y,z
loop_
_atom_site_type_symbol
_atom_site_label
_atom_site_fract_x
_atom_site_fract_y
_atom_site_fract_z
Si Si1 0.684421 0.086905 0.270850
Si Si2 0.640171 0.911469 0.463650
Si Si3 0.020750 0.321418 0.180998
Si Si4 0.991126 0.836647 0.906950
Si Si5 0.867623 0.353937 0.391198
Si Si6 0.655890 0.327662 0.650450
O O1 0.667037 0.131921 0.323610
O O2 0.829871 0.125560 0.405929
O O3 0.744647 0.000000 0.364025
O O4 0.500000 0.089475 0.000000
O O5 0.541974 0.847987 0.290244
O O6 0.845257 0.901545 0.717795
O O7 0.580228 0.895092 0.468608
O O8 0.593196 0.000000 0.382539
O O9 0.052955 0.230269 0.207064
O O10 0.827713 0.341488 0.913817
O O11 0.000000 0.800445 0.000000
O O12 0.173881 0.876239 0.121288
O O13 0.877537 0.261307 0.412613
O O14 0.000000 0.384674 0.500000
O O15 0.500000 0.360883 0.500000
#
# Coordination Sequence:
#
# PCOD8083561 Si02
#       6
#     8   8   8   8   8   8
#     4   9  16  27  46  70  99 137 172 202 243 299
#     4  11  22  34  52  79 108 135 168 217 266 303
#     4  10  18  33  53  77 106 134 170 215 260 304
#     4   9  18  34  57  79 101 135 176 212 249 305
#     4   9  19  37  56  75  99 135 178 214 255 309
#     4   9  18  34  54  76 104 138 178 213 248 305
#
# _framework density 19.194403999999999
#
# number of rings (size 3 to 8) (size 9 to 14) (size 15 to 20)
#    0.000    2.500    0.000    4.500    0.000    4.333 
#    0.000    9.167    0.000    0.000    0.000    0.000 
#    0.000    0.000    0.000    0.000    0.000    0.000 
#
# Total GULP energy -297554.068955 kJ/mol
# GULP energy per Si atom -12398.086206 kJ/mol
# Density = 1.915072 g / cm^3
# Si number density = 19.194404 Si / 1000 Ang^3
#
#
#
# Elastic Constant Matrix: (Units=GPa)
#
#
# Indices 1 2 3 4 5 6 
#
# 1 116.3905 31.0369 45.5617 -0.0036 17.7329 -0.0021
# 2 31.0369 56.0891 19.6921 -0.0023 -5.2871 -0.0008
# 3 45.5617 19.6921 52.1805 -0.0050 11.6684 -0.0035
# 4 -0.0036 -0.0023 -0.0050 19.0591 -0.0033 0.1258
# 5 17.7329 -5.2871 11.6684 -0.0033 39.9022 -0.0021
# 6 -0.0021 -0.0008 -0.0035 0.1258 -0.0021 17.7076
#
#
#
# Elastic Compliance Matrix: (Units=1/GPa)
#
#
# Indices 1 2 3 4 5 6 
#
# 1 0.014354 -0.004916 -0.009743 -0.000001 -0.004181 -0.000001
# 2 -0.004916 0.023357 -0.006102 0.000001 0.007064 0.000000
# 3 -0.009743 -0.006102 0.031228 0.000005 -0.005611 0.000004
# 4 -0.000001 0.000001 0.000005 0.052471 0.000004 -0.000373
# 5 -0.004181 0.007064 -0.005611 0.000004 0.029496 0.000002
# 6 -0.000001 0.000000 0.000004 -0.000373 0.000002 0.056476
#
#
# Mechanical properties :
#
#
# Convention : Reuss Voigt Hill
#
# Bulk Modulus (GPa) = 36.47205 46.36019 41.41612
# Shear Modulus (GPa) = 19.37666 23.89172 21.63419
#
# Velocity S-wave (km/s) = 3.18070 3.53189 3.36089
# Velocity P-wave (km/s) = 5.70367 6.39044 6.05680
#
# Compressibility (1/GPa) = 0.02741825
#
# Stress axis : x y z
#
# Youngs Moduli (GPa) = 69.66908 42.81331 32.02209
#
# Poissons Ratio (x) = 0.21048 0.31198
# Poissons Ratio (y) = 0.34251 0.19539
# Poissons Ratio (z) = 0.67876 0.26123
#
# Static dielectric constant tensor:
#      x y z
#    x 3.615460 0.000000 0.175390 
#    y 0.000000 3.316130 0.000000 
#    z 0.175390 0.000000 3.383050 
# 
# 
# High freq. dielectric constant tensor:
#      x y z
#    x 1.746650 0.000000 0.007920 
#    y 0.000000 1.733760 0.000000 
#    z 0.007920 0.000000 1.722870 
# 
# From -- ./inp_files/104919.got.cif
#   From: 2010.06.25/outbox.cif.g09.slc.cpg/sg12_53_cif.got.tgz:104919.got - 2010.06.28 00:19:55.
