data_PCOD8083234
_publ_section_title
;
Structure prediction by ZEFSAII (Michael W. Deem and Ramdas Pophale) SiO2 
 PCOD8083234
Probable space group: C 2/M
;
_chemical_formula_sum "Si O2"
_cell_formula_units_Z 56
_cell_length_a 20.627785
_cell_length_b 8.858746
_cell_length_c 28.117375
_cell_angle_alpha 90.000000
_cell_angle_beta 145.212763
_cell_angle_gamma 90.000000
_cell_volume 2931.423667
_symmetry_space_group_name_H-M "C 2/M"
_symmetry_group_IT_number 12
_symmetry_cell_setting 'monoclinic'
loop_
_space_group_symop_operation_xyz
x,y,z
-x,y,-z
-x,-y,-z
x,-y,z
1/2+x,1/2+y,z
1/2-x,1/2+y,-z
1/2-x,1/2-y,-z
1/2+x,1/2-y,z
loop_
_atom_site_type_symbol
_atom_site_label
_atom_site_fract_x
_atom_site_fract_y
_atom_site_fract_z
Si Si1 0.967456 0.820384 0.243281
Si Si2 0.300046 0.321143 0.663619
Si Si3 0.745398 0.679175 0.945749
Si Si4 0.688279 0.821649 0.226817
Si Si5 0.079793 0.821554 0.680612
Si Si6 0.523042 0.179228 0.961696
Si Si7 0.572029 0.321185 0.497441
O O1 0.865872 0.760769 0.148605
O O2 0.951853 0.753004 0.286977
O O3 0.086137 0.761954 0.293626
O O4 0.963065 0.000000 0.242457
O O5 0.295035 0.500000 0.660798
O O6 0.297324 0.262625 0.715283
O O7 0.194056 0.257236 0.570566
O O8 0.744980 0.500000 0.950436
O O9 0.750000 0.750000 0.000000
O O10 0.854912 0.735873 0.982514
O O11 0.791973 0.774943 0.255089
O O12 0.573248 0.764081 0.132720
O O13 0.688232 0.000000 0.236746
O O14 0.993137 0.760789 0.588482
O O15 0.069824 0.000000 0.676319
O O16 0.518451 0.000000 0.961734
O O17 0.500000 0.248063 0.000000
O O18 0.500000 0.271140 0.500000
O O19 0.589239 0.500000 0.507551
#
# Coordination Sequence:
#
# PCOD8083234 Si02
#       7
#     8   8   8   8   8   8   8
#     4   9  19  34  51  75 106 141 174 205 253 311
#     4  11  22  34  51  76 107 138 171 209 252 309
#     4  10  19  33  53  76 105 139 174 211 254 305
#     4  10  18  32  55  79 102 133 175 219 260 300
#     4   9  17  32  55  76 100 135 173 212 253 306
#     4   9  17  29  51  82 105 126 171 228 264 291
#     4  10  19  35  57  81 102 128 171 215 260 306
#
# _framework density 19.103345999999998
#
# number of rings (size 3 to 8) (size 9 to 14) (size 15 to 20)
#    0.000    2.286    1.429    2.143    0.000    4.286 
#    0.000    0.714    0.000    7.714    0.000    0.000 
#    0.000    0.000    0.000    0.000    0.000    0.000 
#
# Total GULP energy -347227.014489 kJ/mol
# GULP energy per Si atom -12400.964803 kJ/mol
# Density = 1.905987 g / cm^3
# Si number density = 19.103346 Si / 1000 Ang^3
#
#
#
# Elastic Constant Matrix: (Units=GPa)
#
#
# Indices 1 2 3 4 5 6 
#
# 1 136.6770 18.6143 70.3248 0.0000 1.5688 0.0002
# 2 18.6143 20.8505 22.9793 0.0001 3.2127 0.0005
# 3 70.3248 22.9793 171.8899 0.0001 8.3349 0.0000
# 4 0.0000 0.0001 0.0001 20.1461 0.0000 -0.0647
# 5 1.5688 3.2127 8.3349 0.0000 42.5325 0.0000
# 6 0.0002 0.0005 0.0000 -0.0647 0.0000 19.5440
#
#
#
# Elastic Compliance Matrix: (Units=1/GPa)
#
#
# Indices 1 2 3 4 5 6 
#
# 1 0.009716 -0.005115 -0.003324 0.000000 0.000679 0.000000
# 2 -0.005115 0.059273 -0.005677 0.000000 -0.003176 -0.000001
# 3 -0.003324 -0.005677 0.007986 0.000000 -0.001013 0.000000
# 4 0.000000 0.000000 0.000000 0.049638 0.000000 0.000164
# 5 0.000679 -0.003176 -0.001013 0.000000 0.023925 0.000000
# 6 0.000000 -0.000001 0.000000 0.000164 0.000000 0.051167
#
#
# Mechanical properties :
#
#
# Convention : Reuss Voigt Hill
#
# Bulk Modulus (GPa) = 20.51622 61.47270 40.99446
# Shear Modulus (GPa) = 20.30996 30.94445 25.62721
#
# Velocity S-wave (km/s) = 3.26415 4.02910 3.66663
# Velocity P-wave (km/s) = 4.99692 7.34123 6.27945
#
# Compressibility (1/GPa) = 0.04874192
#
# Stress axis : x y z
#
# Youngs Moduli (GPa) = 102.92623 16.87105 125.22252
#
# Poissons Ratio (x) = 0.08629 0.41625
# Poissons Ratio (y) = 0.52646 0.71093
# Poissons Ratio (z) = 0.34214 0.09578
#
# Static dielectric constant tensor:
#      x y z
#    x 3.876460 0.000000 0.107220 
#    y 0.000000 3.003350 0.000000 
#    z 0.107220 0.000000 3.856520 
# 
# 
# High freq. dielectric constant tensor:
#      x y z
#    x 1.754910 0.000000 0.000910 
#    y 0.000000 1.689470 0.000000 
#    z 0.000910 0.000000 1.763450 
# 
# From -- ./inp_files/380733.got.cif
#   From: 2010.06.25/outbox.cif.g09.slc.cpg/sg12_191_cif.got.tgz:380733.got - 2010.06.28 00:19:55.
