data_PCOD8083133
_publ_section_title
;
Structure prediction by ZEFSAII (Michael W. Deem and Ramdas Pophale) SiO2 
 PCOD8083133
Probable space group: C 2/M
;
_chemical_formula_sum "Si O2"
_cell_formula_units_Z 56
_cell_length_a 19.292674
_cell_length_b 8.797136
_cell_length_c 21.854705
_cell_angle_alpha 90.000000
_cell_angle_beta 124.870436
_cell_angle_gamma 90.000000
_cell_volume 3043.190961
_symmetry_space_group_name_H-M "C 2/M"
_symmetry_group_IT_number 12
_symmetry_cell_setting 'monoclinic'
loop_
_space_group_symop_operation_xyz
x,y,z
-x,y,-z
-x,-y,-z
x,-y,z
1/2+x,1/2+y,z
1/2-x,1/2+y,-z
1/2-x,1/2-y,-z
1/2+x,1/2-y,z
loop_
_atom_site_type_symbol
_atom_site_label
_atom_site_fract_x
_atom_site_fract_y
_atom_site_fract_z
Si Si1 0.618713 0.321705 0.446217
Si Si2 0.009137 0.322271 0.807467
Si Si3 0.790479 0.176127 0.201290
Si Si4 0.039358 0.678340 0.684570
Si Si5 0.306592 0.180669 0.081028
Si Si6 0.671345 0.823160 0.250729
Si Si7 0.247710 0.178190 0.405668
O O1 0.604560 0.500000 0.444098
O O2 0.527585 0.240922 0.398156
O O3 0.667020 0.262989 0.530623
O O4 0.671621 0.275838 0.412576
O O5 0.012868 0.500000 0.818844
O O6 0.003639 0.280251 0.733421
O O7 0.925154 0.258536 0.798336
O O8 0.097025 0.257709 0.879612
O O9 0.773141 0.266806 0.130219
O O10 0.708358 0.200463 0.201970
O O11 0.870934 0.239644 0.279003
O O12 0.805178 0.000000 0.193352
O O13 0.052823 0.500000 0.682202
O O14 0.301797 0.000000 0.076075
O O15 0.250000 0.250000 0.000000
O O16 0.726500 0.729775 0.326754
O O17 0.672773 0.000000 0.271107
O O18 0.265125 0.000000 0.416211
#
# Coordination Sequence:
#
# PCOD8083133 Si02
#       7
#     8   8   8   8   8   8   8
#     4  10  19  31  49  75 105 139 182 228 272 317
#     4   8  16  31  54  79 101 134 178 214 254 307
#     4  10  21  35  55  81 110 141 174 215 266 321
#     4  10  18  32  54  76 104 140 181 227 266 314
#     4  10  20  37  60  84 109 139 175 217 260 312
#     4  10  19  35  55  77 107 142 178 219 265 319
#     4  10  20  31  48  76 107 140 177 225 275 316
#
# _framework density 18.401737000000001
#
# number of rings (size 3 to 8) (size 9 to 14) (size 15 to 20)
#    0.000    2.286    1.429    3.000    0.000    2.286 
#    0.000    2.143    0.000    8.571    0.000    0.000 
#    0.000    0.000    0.000    0.000    0.000    0.000 
#
# Total GULP energy -347187.340008 kJ/mol
# GULP energy per Si atom -12399.547857 kJ/mol
# Density = 1.835985 g / cm^3
# Si number density = 18.401737 Si / 1000 Ang^3
#
#
#
# Elastic Constant Matrix: (Units=GPa)
#
#
# Indices 1 2 3 4 5 6 
#
# 1 96.3257 35.2661 47.1503 0.0000 8.0520 0.0000
# 2 35.2661 70.9205 34.9579 0.0000 7.4146 0.0000
# 3 47.1503 34.9579 122.0075 0.0000 19.6405 0.0000
# 4 0.0000 0.0000 0.0000 34.1129 0.0000 1.8518
# 5 8.0520 7.4146 19.6405 0.0000 20.4935 0.0000
# 6 0.0000 0.0000 0.0000 1.8518 0.0000 23.1466
#
#
#
# Elastic Compliance Matrix: (Units=1/GPa)
#
#
# Indices 1 2 3 4 5 6 
#
# 1 0.014219 -0.005083 -0.004062 0.000000 0.000145 0.000000
# 2 -0.005083 0.018287 -0.002993 0.000000 -0.001750 0.000000
# 3 -0.004062 -0.002993 0.012052 0.000000 -0.008871 0.000000
# 4 0.000000 0.000000 0.000000 0.029442 0.000000 -0.002356
# 5 0.000145 -0.001750 -0.008871 0.000000 0.057874 0.000000
# 6 0.000000 0.000000 0.000000 -0.002356 0.000000 0.043391
#
#
# Mechanical properties :
#
#
# Convention : Reuss Voigt Hill
#
# Bulk Modulus (GPa) = 49.31004 58.22247 53.76626
# Shear Modulus (GPa) = 24.23643 27.00922 25.62282
#
# Velocity S-wave (km/s) = 3.63309 3.83528 3.73555
# Velocity P-wave (km/s) = 6.66736 7.16386 6.92006
#
# Compressibility (1/GPa) = 0.02027985
#
# Stress axis : x y z
#
# Youngs Moduli (GPa) = 70.33049 54.68511 82.97684
#
# Poissons Ratio (x) = 0.27799 0.33703
# Poissons Ratio (y) = 0.35752 0.24837
# Poissons Ratio (z) = 0.28566 0.16368
#
# Static dielectric constant tensor:
#      x y z
#    x 1.810170 0.000000 -1.006330 
#    y 0.000000 3.322720 0.000000 
#    z -1.006330 0.000000 2.324410 
# 
# 
# High freq. dielectric constant tensor:
#      x y z
#    x 1.702590 0.000000 0.018090 
#    y 0.000000 1.712800 0.000000 
#    z 0.018090 0.000000 1.701980 
# 
# From -- ./inp_files/313801.got.cif
#   From: 2010.06.25/outbox.cif.g09.slc.cpg/sg12_157_cif.got.tgz:313801.got - 2010.06.28 00:19:55.
