data_PCOD8083746
_publ_section_title
;
Structure prediction by ZEFSAII (Michael W. Deem and Ramdas Pophale) SiO2 
 PCOD8083746
Probable space group: C 2/M
;
_chemical_formula_sum "Si O2"
_cell_formula_units_Z 56
_cell_length_a 25.378466
_cell_length_b 9.434726
_cell_length_c 12.830661
_cell_angle_alpha 90.000000
_cell_angle_beta 73.108648
_cell_angle_gamma 90.000000
_cell_volume 2939.618238
_symmetry_space_group_name_H-M "C 2/M"
_symmetry_group_IT_number 12
_symmetry_cell_setting 'monoclinic'
loop_
_space_group_symop_operation_xyz
x,y,z
-x,y,-z
-x,-y,-z
x,-y,z
1/2+x,1/2+y,z
1/2-x,1/2+y,-z
1/2-x,1/2-y,-z
1/2+x,1/2-y,z
loop_
_atom_site_type_symbol
_atom_site_label
_atom_site_fract_x
_atom_site_fract_y
_atom_site_fract_z
Si Si1 0.313573 0.830481 0.142132
Si Si2 0.203947 0.661371 0.231101
Si Si3 0.490942 0.167797 0.765246
Si Si4 0.114143 0.334631 0.710194
Si Si5 0.450936 0.652559 0.601185
Si Si6 0.865628 0.339457 0.535658
Si Si7 0.376607 0.166334 0.904694
O O1 0.253115 0.766117 0.177197
O O2 0.347003 0.770221 0.222626
O O3 0.308266 0.000000 0.146265
O O4 0.344352 0.769811 0.021920
O O5 0.220410 0.500000 0.192771
O O6 0.189720 0.670846 0.362678
O O7 0.151765 0.710930 0.189246
O O8 0.551701 0.227795 0.758973
O O9 0.472134 0.231768 0.668276
O O10 0.441491 0.211480 0.873349
O O11 0.493746 0.000000 0.748842
O O12 0.109496 0.500000 0.733423
O O13 0.142627 0.302956 0.581934
O O14 0.500000 0.610844 0.500000
O O15 0.430766 0.500000 0.661758
O O16 0.404569 0.720493 0.557179
O O17 0.889895 0.500000 0.531185
O O18 0.373506 0.000000 0.917284
#
# Coordination Sequence:
#
# PCOD8083746 Si02
#       7
#     8   8   8   8   8   8   8
#     4  10  21  37  53  76 110 141 177 224 266 309
#     4  10  20  35  55  79 102 136 185 225 262 312
#     4  10  18  33  57  80 104 141 179 213 260 318
#     4   9  19  33  54  81 106 140 179 213 259 318
#     4  11  21  31  48  81 116 139 167 216 271 316
#     4  10  19  34  56  78 105 139 180 219 256 316
#     4   9  18  33  56  82 105 133 177 227 266 305
#
# _framework density 19.050093
#
# number of rings (size 3 to 8) (size 9 to 14) (size 15 to 20)
#    0.000    2.143    2.857    0.857    0.000    2.286 
#    0.000    5.000    0.000    0.000    0.000    2.000 
#    0.000    0.000    0.000    0.000    0.000    0.000 
#
# Total GULP energy -346881.951182 kJ/mol
# GULP energy per Si atom -12388.641114 kJ/mol
# Density = 1.900673 g / cm^3
# Si number density = 19.050093 Si / 1000 Ang^3
#
#
#
# Elastic Constant Matrix: (Units=GPa)
#
#
# Indices 1 2 3 4 5 6 
#
# 1 65.1960 14.5560 50.1862 0.0000 -3.4635 0.0000
# 2 14.5560 33.9490 11.7100 0.0000 -5.4351 0.0000
# 3 50.1862 11.7100 115.8655 0.0000 -11.8283 0.0000
# 4 0.0000 0.0000 0.0000 13.2000 0.0000 -6.8582
# 5 -3.4635 -5.4351 -11.8283 0.0000 30.7919 0.0000
# 6 0.0000 0.0000 0.0000 -6.8582 0.0000 21.7860
#
#
#
# Elastic Compliance Matrix: (Units=1/GPa)
#
#
# Indices 1 2 3 4 5 6 
#
# 1 0.024737 -0.007478 -0.010210 0.000000 -0.002460 0.000000
# 2 -0.007478 0.033357 0.000399 0.000000 0.005200 0.000000
# 3 -0.010210 0.000399 0.013429 0.000000 0.004081 0.000000
# 4 0.000000 0.000000 0.000000 0.090571 0.000000 0.028512
# 5 -0.002460 0.005200 0.004081 0.000000 0.034685 0.000000
# 6 0.000000 0.000000 0.000000 0.028512 0.000000 0.054877
#
#
# Mechanical properties :
#
#
# Convention : Reuss Voigt Hill
#
# Bulk Modulus (GPa) = 27.06756 40.87943 33.97350
# Shear Modulus (GPa) = 16.74767 22.39280 19.57023
#
# Velocity S-wave (km/s) = 2.96824 3.43223 3.20864
# Velocity P-wave (km/s) = 5.09772 6.10020 5.62135
#
# Compressibility (1/GPa) = 0.03694459
#
# Stress axis : x y z
#
# Youngs Moduli (GPa) = 40.42608 29.97849 74.46441
#
# Poissons Ratio (x) = 0.22418 0.76026
# Poissons Ratio (y) = 0.30231 -0.02969
# Poissons Ratio (z) = 0.41274 -0.01195
#
# Static dielectric constant tensor:
#      x y z
#    x 3.544360 0.000000 -0.102650 
#    y 0.000000 3.222090 0.000000 
#    z -0.102650 0.000000 3.825040 
# 
# 
# High freq. dielectric constant tensor:
#      x y z
#    x 1.732130 0.000000 -0.010960 
#    y 0.000000 1.708780 0.000000 
#    z -0.010960 0.000000 1.746090 
# 
# From -- ./inp_files/180724.got.cif
#   From: 2010.06.25/outbox.cif.g09.slc.cpg/sg12_91_cif.got.tgz:180724.got - 2010.06.28 00:19:55.
