data_PCOD8083728
_publ_section_title
;
Structure prediction by ZEFSAII (Michael W. Deem and Ramdas Pophale) SiO2 
 PCOD8083728
Probable space group: C 2/M
;
_chemical_formula_sum "Si O2"
_cell_formula_units_Z 64
_cell_length_a 24.894897
_cell_length_b 17.024372
_cell_length_c 23.288904
_cell_angle_alpha 90.000000
_cell_angle_beta 162.319711
_cell_angle_gamma 90.000000
_cell_volume 2997.663399
_symmetry_space_group_name_H-M "C 2/M"
_symmetry_group_IT_number 12
_symmetry_cell_setting 'monoclinic'
loop_
_space_group_symop_operation_xyz
x,y,z
-x,y,-z
-x,-y,-z
x,-y,z
1/2+x,1/2+y,z
1/2-x,1/2+y,-z
1/2-x,1/2-y,-z
1/2+x,1/2-y,z
loop_
_atom_site_type_symbol
_atom_site_label
_atom_site_fract_x
_atom_site_fract_y
_atom_site_fract_z
Si Si1 0.153058 0.195636 0.119812
Si Si2 0.355967 0.914208 0.401996
Si Si3 0.015127 0.592852 0.680289
Si Si4 0.900183 0.906798 0.045250
Si Si5 0.606847 0.336820 0.665067
Si Si6 0.176870 0.095018 0.542296
Si Si7 0.976179 0.409776 0.041195
Si Si8 0.290591 0.407354 0.554163
O O1 0.199277 0.137180 0.218288
O O2 0.082678 0.146043 0.994053
O O3 0.322856 0.248104 0.274445
O O4 0.000000 0.244316 0.000000
O O5 0.500000 0.923723 0.500000
O O6 0.440932 0.873058 0.544541
O O7 0.278917 0.000000 0.339959
O O8 0.995751 0.500000 0.657474
O O9 0.897525 0.625534 0.613485
O O10 0.220038 0.615613 0.895633
O O11 0.904160 0.000000 0.033672
O O12 0.056480 0.880917 0.246575
O O13 0.500000 0.367648 0.500000
O O14 0.475666 0.351977 0.584247
O O15 0.781910 0.383552 0.861712
O O16 0.363274 0.126002 0.758079
O O17 0.174283 0.123545 0.473863
O O18 0.146852 0.000000 0.520037
O O19 0.987792 0.500000 0.065575
O O20 0.000000 0.387146 0.000000
O O21 0.283444 0.500000 0.543185
#
# Coordination Sequence:
#
# PCOD8083728 Si02
#       8
#     8   8   8   8   8   8   8   8
#     4  12  25  37  56  88 126 170 212 253 307 362
#     4  10  18  33  56  87 121 159 211 258 302 355
#     4   9  17  31  55  84 121 158 194 251 304 343
#     4  10  20  37  61  89 123 164 210 255 296 348
#     4  12  25  40  60  88 128 164 196 250 315 370
#     4  10  22  41  68  95 121 156 199 249 309 376
#     4  10  20  38  65  94 117 144 193 251 315 386
#     4   9  19  36  59  92 123 154 201 252 303 358
#
# _framework density 21.349962999999999
#
# number of rings (size 3 to 8) (size 9 to 14) (size 15 to 20)
#    0.000    1.750    2.500    2.250    0.000    3.500 
#    0.000    4.375    0.000    1.500    0.000    0.000 
#    0.000    0.000    0.000    0.000    0.000    0.000 
#
# Total GULP energy -396444.739383 kJ/mol
# GULP energy per Si atom -12388.898106 kJ/mol
# Density = 2.130137 g / cm^3
# Si number density = 21.349963 Si / 1000 Ang^3
#
#
#
# Elastic Constant Matrix: (Units=GPa)
#
#
# Indices 1 2 3 4 5 6 
#
# 1 148.5866 22.8876 74.7214 0.0215 23.7343 -0.0268
# 2 22.8876 44.9158 29.9792 0.0078 5.4889 0.0201
# 3 74.7214 29.9792 153.9068 -0.0149 17.0547 0.0389
# 4 0.0215 0.0078 -0.0149 25.1368 0.0125 15.1108
# 5 23.7343 5.4889 17.0547 0.0125 33.7329 0.0326
# 6 -0.0268 0.0201 0.0389 15.1108 0.0326 31.3990
#
#
#
# Elastic Compliance Matrix: (Units=1/GPa)
#
#
# Indices 1 2 3 4 5 6 
#
# 1 0.009667 -0.001808 -0.003835 -0.000027 -0.004569 0.000032
# 2 -0.001808 0.026026 -0.004093 -0.000002 -0.000894 -0.000011
# 3 -0.003835 -0.004093 0.009305 0.000024 -0.001340 -0.000022
# 4 -0.000027 -0.000002 0.000024 0.055976 0.000012 -0.026939
# 5 -0.004569 -0.000894 -0.001340 0.000012 0.033682 -0.000043
# 6 0.000032 -0.000011 -0.000022 -0.026939 -0.000043 0.044813
#
#
# Mechanical properties :
#
#
# Convention : Reuss Voigt Hill
#
# Bulk Modulus (GPa) = 39.17466 66.95396 53.06431
# Shear Modulus (GPa) = 24.10230 32.70846 28.40538
#
# Velocity S-wave (km/s) = 3.36358 3.91834 3.65151
# Velocity P-wave (km/s) = 5.78563 7.20413 6.53349
#
# Compressibility (1/GPa) = 0.02552671
#
# Stress axis : x y z
#
# Youngs Moduli (GPa) = 103.44696 38.42294 107.46958
#
# Poissons Ratio (x) = 0.06947 0.41212
# Poissons Ratio (y) = 0.18704 0.43985
# Poissons Ratio (z) = 0.39670 0.15726
#
# Static dielectric constant tensor:
#      x y z
#    x 4.017320 -0.000050 0.110970 
#    y -0.000050 3.590060 -0.000210 
#    z 0.110970 -0.000210 4.219070 
# 
# 
# High freq. dielectric constant tensor:
#      x y z
#    x 1.833160 -0.000010 0.009610 
#    y -0.000010 1.802980 -0.000010 
#    z 0.009610 -0.000010 1.853910 
# 
# From -- ./inp_files/350029.got.cif
#   From: 2010.06.25/outbox.cif.g09.slc.cpg/sg12_176_cif.got.tgz:350029.got - 2010.06.28 00:19:55.
