data_PCOD8083204
_publ_section_title
;
Structure prediction by ZEFSAII (Michael W. Deem and Ramdas Pophale) SiO2 
 PCOD8083204
Probable space group: C 2/M
;
_chemical_formula_sum "Si O2"
_cell_formula_units_Z 40
_cell_length_a 26.493492
_cell_length_b 17.776599
_cell_length_c 6.452400
_cell_angle_alpha 90.000000
_cell_angle_beta 50.499888
_cell_angle_gamma 90.000000
_cell_volume 2344.847044
_symmetry_space_group_name_H-M "C 2/M"
_symmetry_group_IT_number 12
_symmetry_cell_setting 'monoclinic'
loop_
_space_group_symop_operation_xyz
x,y,z
-x,y,-z
-x,-y,-z
x,-y,z
1/2+x,1/2+y,z
1/2-x,1/2+y,-z
1/2-x,1/2-y,-z
1/2+x,1/2-y,z
loop_
_atom_site_type_symbol
_atom_site_label
_atom_site_fract_x
_atom_site_fract_y
_atom_site_fract_z
Si Si1 0.928012 0.778564 0.692021
Si Si2 0.686674 0.782188 0.276942
Si Si3 0.388176 0.584243 0.559554
Si Si4 0.148570 0.171920 0.727075
Si Si5 0.733675 0.585743 0.831708
O O1 0.877518 0.726352 0.697223
O O2 0.934833 0.860449 0.566405
O O3 0.000000 0.740919 0.500000
O O4 0.905179 0.788682 0.987280
O O5 0.680017 0.738018 0.509612
O O6 0.699186 0.870846 0.285688
O O7 0.750000 0.750000 0.000000
O O8 0.416430 0.500000 0.500223
O O9 0.386165 0.609657 0.326188
O O10 0.315285 0.589432 0.845360
O O11 0.203173 0.128887 0.716092
O O12 0.750507 0.500000 0.728139
#
# Coordination Sequence:
#
# PCOD8083204 Si02
#       5
#     8   8   8   8   8
#     4  10  22  35  49  72 102 137 177 211 247 298
#     4  11  19  34  54  78 102 132 171 213 249 301
#     4   9  18  31  48  74 106 135 167 204 248 304
#     4  10  18  32  55  72 105 133 171 205 257 298
#     4  10  19  31  50  80 107 129 163 213 258 300
#
# _framework density 17.058682000000001
#
# number of rings (size 3 to 8) (size 9 to 14) (size 15 to 20)
#    0.000    2.000    6.000    1.200    0.000    4.400 
#    0.000    1.000    0.000    0.600    0.000    1.400 
#    0.000    0.000    0.000    0.000    0.000    0.000 
#
# Total GULP energy -247950.375863 kJ/mol
# GULP energy per Si atom -12397.518793 kJ/mol
# Density = 1.701986 g / cm^3
# Si number density = 17.058682 Si / 1000 Ang^3
#
#
#
# Elastic Constant Matrix: (Units=GPa)
#
#
# Indices 1 2 3 4 5 6 
#
# 1 96.9947 34.7486 56.1357 0.0000 -8.6949 0.0000
# 2 34.7486 70.9346 34.3725 0.0000 -7.0356 0.0000
# 3 56.1357 34.3725 97.8141 0.0000 13.1058 0.0000
# 4 0.0000 0.0000 0.0000 14.0378 0.0000 -1.5383
# 5 -8.6949 -7.0356 13.1058 0.0000 29.9798 0.0000
# 6 0.0000 0.0000 0.0000 -1.5383 0.0000 18.0726
#
#
#
# Elastic Compliance Matrix: (Units=1/GPa)
#
#
# Indices 1 2 3 4 5 6 
#
# 1 0.018458 -0.002846 -0.010857 0.000000 0.009432 0.000000
# 2 -0.002846 0.018939 -0.005849 0.000000 0.006176 0.000000
# 3 -0.010857 -0.005849 0.020305 0.000000 -0.013398 0.000000
# 4 0.000000 0.000000 0.000000 0.071907 0.000000 0.006121
# 5 0.009432 0.006176 -0.013398 0.000000 0.043398 0.000000
# 6 0.000000 0.000000 0.000000 0.006121 0.000000 0.055853
#
#
# Mechanical properties :
#
#
# Convention : Reuss Voigt Hill
#
# Bulk Modulus (GPa) = 53.77074 57.36189 55.56632
# Shear Modulus (GPa) = 18.23731 21.78381 20.01056
#
# Velocity S-wave (km/s) = 3.27325 3.57738 3.42869
# Velocity P-wave (km/s) = 6.77311 7.12480 6.95118
#
# Compressibility (1/GPa) = 0.01859747
#
# Stress axis : x y z
#
# Youngs Moduli (GPa) = 54.17615 52.80230 49.24898
#
# Poissons Ratio (x) = 0.15026 0.53469
# Poissons Ratio (y) = 0.15417 0.28808
# Poissons Ratio (z) = 0.58819 0.30887
#
# Static dielectric constant tensor:
#      x y z
#    x 3.088290 0.000000 0.208740 
#    y 0.000000 3.407240 0.000000 
#    z 0.208740 0.000000 3.207440 
# 
# 
# High freq. dielectric constant tensor:
#      x y z
#    x 1.645650 0.000000 0.023370 
#    y 0.000000 1.641240 0.000000 
#    z 0.023370 0.000000 1.655900 
# 
# From -- ./inp_files/15116.got.cif
#   From: 2010.06.25/outbox.cif.g09.slc.cpg/sg12_8_cif.got.tgz:15116.got - 2010.06.28 00:19:55.
