data_PCOD8083013
_publ_section_title
;
Structure prediction by ZEFSAII (Michael W. Deem and Ramdas Pophale) SiO2 
 PCOD8083013
Probable space group: C 2/M
;
_chemical_formula_sum "Si O2"
_cell_formula_units_Z 56
_cell_length_a 23.839854
_cell_length_b 18.518401
_cell_length_c 9.521145
_cell_angle_alpha 90.000000
_cell_angle_beta 130.890302
_cell_angle_gamma 90.000000
_cell_volume 3177.587589
_symmetry_space_group_name_H-M "C 2/M"
_symmetry_group_IT_number 12
_symmetry_cell_setting 'monoclinic'
loop_
_space_group_symop_operation_xyz
x,y,z
-x,y,-z
-x,-y,-z
x,-y,z
1/2+x,1/2+y,z
1/2-x,1/2+y,-z
1/2-x,1/2-y,-z
1/2+x,1/2-y,z
loop_
_atom_site_type_symbol
_atom_site_label
_atom_site_fract_x
_atom_site_fract_y
_atom_site_fract_z
Si Si1 0.439876 0.585087 0.595855
Si Si2 0.296621 0.918030 0.876907
Si Si3 0.758389 0.583865 0.124529
Si Si4 0.098451 0.085154 0.777989
Si Si5 0.416108 0.916499 0.849844
Si Si6 0.688549 0.667319 0.508899
Si Si7 0.807383 0.334763 0.473024
O O1 0.428582 0.500000 0.598094
O O2 0.526924 0.606204 0.755515
O O3 0.412388 0.612909 0.398460
O O4 0.391089 0.627371 0.631462
O O5 0.376194 0.904562 0.934765
O O6 0.235503 0.864885 0.714173
O O7 0.269039 0.000000 0.803364
O O8 0.303892 0.904555 0.054856
O O9 0.757507 0.500000 0.167735
O O10 0.800288 0.629741 0.309633
O O11 0.674437 0.614929 0.969715
O O12 0.104579 0.000000 0.776218
O O13 0.376093 0.870982 0.664307
O O14 0.413965 0.000000 0.800736
O O15 0.500000 0.888347 0.000000
O O16 0.730886 0.653361 0.432267
O O17 0.674952 0.750990 0.515855
#
# Coordination Sequence:
#
# PCOD8083013 Si02
#       7
#     8   8   8   8   8   8   8
#     4   9  15  28  51  74  98 133 174 206 232 286
#     4   9  17  31  55  78  95 130 175 206 244 304
#     4  10  18  32  52  78 106 129 163 214 260 297
#     4   8  15  27  48  77 103 126 158 205 249 286
#     4   9  18  36  59  75  91 126 175 218 258 309
#     4  10  19  34  50  71 103 138 177 202 242 308
#     4  10  22  34  49  74 105 134 165 214 264 300
#
# _framework density 17.623432000000001
#
# number of rings (size 3 to 8) (size 9 to 14) (size 15 to 20)
#    0.000    2.714    1.429    1.714    0.000    2.286 
#    0.000    5.714    3.143    6.000    0.000    0.000 
#    0.000    0.000    0.000    0.000    0.000    0.000 
#
# Total GULP energy -347133.223756 kJ/mol
# GULP energy per Si atom -12397.615134 kJ/mol
# Density = 1.758332 g / cm^3
# Si number density = 17.623432 Si / 1000 Ang^3
#
#
#
# Elastic Constant Matrix: (Units=GPa)
#
#
# Indices 1 2 3 4 5 6 
#
# 1 122.2619 50.3542 56.8589 0.0000 16.6130 0.0000
# 2 50.3542 77.2644 48.5334 0.0000 1.9004 0.0000
# 3 56.8589 48.5334 99.2683 0.0000 2.6713 0.0000
# 4 0.0000 0.0000 0.0000 9.8572 0.0000 34.3347
# 5 16.6130 1.9004 2.6713 0.0000 28.0132 0.0000
# 6 0.0000 0.0000 0.0000 34.3347 0.0000 -355.1718
#
#
#
# Elastic Compliance Matrix: (Units=1/GPa)
#
#
# Indices 1 2 3 4 5 6 
#
# 1 0.013828 -0.005744 -0.004914 0.000000 -0.007342 0.000000
# 2 -0.005744 0.021070 -0.007082 0.000000 0.002653 0.000000
# 3 -0.004914 -0.007082 0.016302 0.000000 0.001840 0.000000
# 4 0.000000 0.000000 0.000000 0.075893 0.000000 0.007337
# 5 -0.007342 0.002653 0.001840 0.000000 0.039696 0.000000
# 6 0.000000 0.000000 0.000000 0.007337 0.000000 -0.002106
#
#
# Mechanical properties :
#
#
# Convention : Reuss Voigt Hill
#
# Bulk Modulus (GPa) = 63.62417 67.80973 65.71695
# Shear Modulus (GPa) = 24.34218 -53.92374 -14.79078
#
# Velocity S-wave (km/s) = 3.72053 -5.53752 -2.90015
# Velocity P-wave (km/s) = 7.39168 1.52480 5.11429
#
# Compressibility (1/GPa) = 0.01571730
#
# Stress axis : x y z
#
# Youngs Moduli (GPa) = 72.31588 47.46130 61.34324
#
# Poissons Ratio (x) = 0.27264 0.30147
# Poissons Ratio (y) = 0.41541 0.43445
# Poissons Ratio (z) = 0.35539 0.33614
#
# Static dielectric constant tensor:
#      x y z
#    x 3.511650 0.000000 0.131290 
#    y 0.000000 3.096380 0.000000 
#    z 0.131290 0.000000 3.071630 
# 
# 
# High freq. dielectric constant tensor:
#      x y z
#    x 1.690750 0.000000 0.004880 
#    y 0.000000 1.661190 0.000000 
#    z 0.004880 0.000000 1.655710 
# 
# From -- ./inp_files/98049.got.cif
#   From: 2010.06.25/outbox.cif.g09.slc.cpg/sg12_50_cif.got.tgz:98049.got - 2010.06.28 00:19:55.
