data_PCOD8083600
_publ_section_title
;
Structure prediction by ZEFSAII (Michael W. Deem and Ramdas Pophale) SiO2 
 PCOD8083600
Probable space group: C 2/M
;
_chemical_formula_sum "Si O2"
_cell_formula_units_Z 56
_cell_length_a 16.010556
_cell_length_b 15.947730
_cell_length_c 21.991088
_cell_angle_alpha 90.000000
_cell_angle_beta 150.718495
_cell_angle_gamma 90.000000
_cell_volume 2746.315876
_symmetry_space_group_name_H-M "C 2/M"
_symmetry_group_IT_number 12
_symmetry_cell_setting 'monoclinic'
loop_
_space_group_symop_operation_xyz
x,y,z
-x,y,-z
-x,-y,-z
x,-y,z
1/2+x,1/2+y,z
1/2-x,1/2+y,-z
1/2-x,1/2-y,-z
1/2+x,1/2-y,z
loop_
_atom_site_type_symbol
_atom_site_label
_atom_site_fract_x
_atom_site_fract_y
_atom_site_fract_z
Si Si1 0.320792 0.299844 0.393582
Si Si2 0.005052 0.595405 0.215700
Si Si3 0.674566 0.812723 0.000127
Si Si4 0.136182 0.597072 0.748330
Si Si5 0.006728 0.099681 0.226503
Si Si6 0.115667 0.198917 0.174457
Si Si7 0.198033 0.320960 0.514812
O O1 0.500000 0.350446 0.500000
O O2 0.179161 0.354237 0.338085
O O3 0.251647 0.266677 0.285379
O O4 0.368788 0.221112 0.466142
O O5 0.060068 0.500000 0.253865
O O6 0.924601 0.614520 0.099440
O O7 0.870271 0.617307 0.183659
O O8 0.540587 0.754929 0.953063
O O9 0.750000 0.750000 0.000000
O O10 0.826446 0.857760 0.134088
O O11 0.170280 0.500000 0.756973
O O12 0.297438 0.646479 0.823860
O O13 0.953672 0.620315 0.604419
O O14 0.057271 0.138453 0.193006
O O15 0.139910 0.120979 0.364498
O O16 0.986824 0.000000 0.206894
O O17 0.250000 0.250000 0.500000
#
# Coordination Sequence:
#
# PCOD8083600 Si02
#       7
#     8   8   8   8   8   8   8
#     4  10  18  33  54  80 110 154 201 232 277 337
#     4  10  21  35  55  83 116 150 188 237 291 336
#     4   9  19  37  59  79 109 152 200 229 274 343
#     4  11  21  34  56  90 125 151 182 237 300 345
#     4  10  20  35  59  86 113 151 196 243 284 334
#     4   9  19  34  55  86 118 151 192 234 285 347
#     4  11  21  35  56  84 118 154 189 233 288 354
#
# _framework density 20.390954000000001
#
# number of rings (size 3 to 8) (size 9 to 14) (size 15 to 20)
#    0.000    2.000    2.857    2.143    0.000    0.286 
#    0.000    5.000    0.000    7.714    0.000    1.000 
#    0.000    0.000    0.000    0.000    0.000    0.000 
#
# Total GULP energy -346991.450012 kJ/mol
# GULP energy per Si atom -12392.551786 kJ/mol
# Density = 2.034454 g / cm^3
# Si number density = 20.390954 Si / 1000 Ang^3
#
#
#
# Elastic Constant Matrix: (Units=GPa)
#
#
# Indices 1 2 3 4 5 6 
#
# 1 78.3191 48.0212 28.6990 0.0010 24.4215 0.0007
# 2 48.0212 102.0391 40.3914 -0.0054 19.6616 -0.0001
# 3 28.6990 40.3914 97.5551 -0.0210 27.2251 0.0014
# 4 0.0010 -0.0054 -0.0210 30.3430 0.0001 4.6962
# 5 24.4215 19.6616 27.2251 0.0001 29.3002 0.0027
# 6 0.0007 -0.0001 0.0014 4.6962 0.0027 32.3406
#
#
#
# Elastic Compliance Matrix: (Units=1/GPa)
#
#
# Indices 1 2 3 4 5 6 
#
# 1 0.021437 -0.007782 0.000600 -0.000002 -0.013203 0.000001
# 2 -0.007782 0.015009 -0.003948 0.000000 0.000083 0.000000
# 3 0.000600 -0.003948 0.014998 0.000010 -0.011787 -0.000001
# 4 -0.000002 0.000000 0.000010 0.033714 -0.000007 -0.004896
# 5 -0.013203 0.000083 -0.011787 -0.000007 0.056031 -0.000003
# 6 0.000001 0.000000 -0.000001 -0.004896 -0.000003 0.031632
#
#
# Mechanical properties :
#
#
# Convention : Reuss Voigt Hill
#
# Bulk Modulus (GPa) = 34.26467 56.90407 45.58437
# Shear Modulus (GPa) = 24.41293 29.11686 26.76490
#
# Velocity S-wave (km/s) = 3.46387 3.78290 3.62689
# Velocity P-wave (km/s) = 5.73047 6.85912 6.32004
#
# Compressibility (1/GPa) = 0.02918458
#
# Stress axis : x y z
#
# Youngs Moduli (GPa) = 46.64857 66.62480 66.67481
#
# Poissons Ratio (x) = 0.51848 -0.04003
# Poissons Ratio (y) = 0.36302 0.26325
# Poissons Ratio (z) = -0.02801 0.26305
#
# Static dielectric constant tensor:
#      x y z
#    x 3.402170 -0.000010 0.629180 
#    y -0.000010 3.697830 0.000010 
#    z 0.629180 0.000010 3.062630 
# 
# 
# High freq. dielectric constant tensor:
#      x y z
#    x 1.771240 0.000000 0.015420 
#    y 0.000000 1.792880 0.000000 
#    z 0.015420 0.000000 1.807920 
# 
# From -- ./inp_files/311756.got.cif
#   From: 2010.06.25/outbox.cif.g09.slc.cpg/sg12_156_cif.got.tgz:311756.got - 2010.06.28 00:19:55.
