data_PCOD8083941
_publ_section_title
;
Structure prediction by ZEFSAII (Michael W. Deem and Ramdas Pophale) SiO2 
 PCOD8083941
Probable space group: C 2/M
;
_chemical_formula_sum "Si O2"
_cell_formula_units_Z 64
_cell_length_a 18.090551
_cell_length_b 21.694493
_cell_length_c 20.413004
_cell_angle_alpha 90.000000
_cell_angle_beta 27.763471
_cell_angle_gamma 90.000000
_cell_volume 3731.889336
_symmetry_space_group_name_H-M "C 2/M"
_symmetry_group_IT_number 12
_symmetry_cell_setting 'monoclinic'
loop_
_space_group_symop_operation_xyz
x,y,z
-x,y,-z
-x,-y,-z
x,-y,z
1/2+x,1/2+y,z
1/2-x,1/2+y,-z
1/2-x,1/2-y,-z
1/2+x,1/2-y,z
loop_
_atom_site_type_symbol
_atom_site_label
_atom_site_fract_x
_atom_site_fract_y
_atom_site_fract_z
Si Si1 0.433943 0.329154 0.349461
Si Si2 0.998269 0.429781 0.428397
Si Si3 0.864000 0.069979 0.302008
Si Si4 0.617473 0.804305 0.668792
Si Si5 0.496566 0.638345 0.079897
Si Si6 0.740559 0.289458 0.172488
Si Si7 0.656542 0.844802 0.202184
Si Si8 0.069446 0.721745 0.852141
O O1 0.448809 0.385403 0.287182
O O2 0.414757 0.266441 0.323966
O O3 0.283239 0.333011 0.515319
O O4 0.595469 0.333350 0.265209
O O5 0.058612 0.500000 0.383135
O O6 0.822227 0.424388 0.537865
O O7 0.000000 0.401490 0.500000
O O8 0.119108 0.393032 0.288482
O O9 0.901770 0.088418 0.197059
O O10 0.922294 0.000000 0.267300
O O11 0.477769 0.845792 0.748183
O O12 0.620061 0.808244 0.744603
O O13 0.415086 0.704370 0.155958
O O14 0.500000 0.621985 0.000000
O O15 0.678463 0.638109 0.962350
O O16 0.670535 0.220671 0.227005
O O17 0.807222 0.306345 0.191918
O O18 0.886889 0.296821 0.007651
#
# Coordination Sequence:
#
# PCOD8083941 Si02
#       8
#     8   8   8   8   8   8   8   8
#     4  10  20  35  50  79 104 137 180 220 260 314
#     4  10  21  35  51  70 101 147 187 216 255 305
#     4  11  23  37  53  74 107 148 185 222 258 305
#     4  10  20  31  52  77 106 134 173 219 265 319
#     4  11  20  33  52  77 110 141 178 214 255 314
#     4   9  20  32  53  79 107 136 170 208 272 324
#     4  10  19  33  50  75 104 141 172 217 263 308
#     4  10  18  34  51  81 108 140 166 208 276 325
#
# _framework density 17.149491000000001
#
# number of rings (size 3 to 8) (size 9 to 14) (size 15 to 20)
#    0.000    1.875    5.000    0.750    1.750    2.750 
#    0.000    0.000    0.000    0.000    0.000    4.375 
#    0.000    0.000    0.000    0.000    0.000    0.000 
#
# Total GULP energy -396773.967524 kJ/mol
# GULP energy per Si atom -12399.186485 kJ/mol
# Density = 1.711046 g / cm^3
# Si number density = 17.149491 Si / 1000 Ang^3
#
#
#
# Elastic Constant Matrix: (Units=GPa)
#
#
# Indices 1 2 3 4 5 6 
#
# 1 103.5105 28.0259 42.9116 -0.0185 3.3405 0.0053
# 2 28.0259 52.7471 19.0291 -0.0195 4.9023 0.0061
# 3 42.9116 19.0291 64.2675 0.0230 1.7355 0.0028
# 4 -0.0185 -0.0195 0.0230 17.5166 -0.0174 4.8059
# 5 3.3405 4.9023 1.7355 -0.0174 37.4969 -0.0052
# 6 0.0053 0.0061 0.0028 4.8059 -0.0052 21.7156
#
#
#
# Elastic Compliance Matrix: (Units=1/GPa)
#
#
# Indices 1 2 3 4 5 6 
#
# 1 0.014314 -0.004627 -0.008180 0.000022 -0.000292 -0.000006
# 2 -0.004627 0.022956 -0.003642 0.000026 -0.002420 -0.000011
# 3 -0.008180 -0.003642 0.022095 -0.000044 0.000182 0.000010
# 4 0.000022 0.000026 -0.000044 0.060779 0.000023 -0.013451
# 5 -0.000292 -0.002420 0.000182 0.000023 0.027003 0.000002
# 6 -0.000006 -0.000011 0.000010 -0.013451 0.000002 0.049027
#
#
# Mechanical properties :
#
#
# Convention : Reuss Voigt Hill
#
# Bulk Modulus (GPa) = 37.78286 44.49536 41.13911
# Shear Modulus (GPa) = 21.01775 24.04971 22.53373
#
# Velocity S-wave (km/s) = 3.50460 3.74887 3.62879
# Velocity P-wave (km/s) = 6.20126 6.68884 6.44966
#
# Compressibility (1/GPa) = 0.02646703
#
# Stress axis : x y z
#
# Youngs Moduli (GPa) = 69.86120 43.56170 45.25932
#
# Poissons Ratio (x) = 0.20158 0.37020
# Poissons Ratio (y) = 0.32328 0.16483
# Poissons Ratio (z) = 0.57143 0.15865
#
# Static dielectric constant tensor:
#      x y z
#    x 3.257520 -0.000040 -0.146360 
#    y -0.000040 2.884620 0.000120 
#    z -0.146360 0.000120 3.299750 
# 
# 
# High freq. dielectric constant tensor:
#      x y z
#    x 1.661220 0.000000 -0.007140 
#    y 0.000000 1.616980 0.000010 
#    z -0.007140 0.000010 1.672790 
# 
# From -- ./inp_files/77517.got.cif
#   From: 2010.06.25/outbox.cif.g09.slc.cpg/sg12_39_cif.got.tgz:77517.got - 2010.06.28 00:19:55.
