data_PCOD8083920
_publ_section_title
;
Structure prediction by ZEFSAII (Michael W. Deem and Ramdas Pophale) SiO2 
 PCOD8083920
Probable space group: C 2/M
;
_chemical_formula_sum "Si O2"
_cell_formula_units_Z 44
_cell_length_a 22.336763
_cell_length_b 7.621203
_cell_length_c 16.434586
_cell_angle_alpha 90.000000
_cell_angle_beta 126.426763
_cell_angle_gamma 90.000000
_cell_volume 2251.082856
_symmetry_space_group_name_H-M "C 2/M"
_symmetry_group_IT_number 12
_symmetry_cell_setting 'monoclinic'
loop_
_space_group_symop_operation_xyz
x,y,z
-x,y,-z
-x,-y,-z
x,-y,z
1/2+x,1/2+y,z
1/2-x,1/2+y,-z
1/2-x,1/2-y,-z
1/2+x,1/2-y,z
loop_
_atom_site_type_symbol
_atom_site_label
_atom_site_fract_x
_atom_site_fract_y
_atom_site_fract_z
Si Si1 0.368629 0.800818 0.162658
Si Si2 0.121191 0.000000 0.951483
Si Si3 0.552181 0.500000 0.206365
Si Si4 0.822435 0.000000 0.822174
Si Si5 0.712570 0.303401 0.741452
Si Si6 0.539563 0.801908 0.316950
Si Si7 0.922227 0.703529 0.471276
O O1 0.351109 0.673155 0.073417
O O2 0.313762 0.761555 0.191932
O O3 0.452204 0.768184 0.262099
O O4 0.357234 0.000000 0.123127
O O5 0.032701 0.000000 0.891094
O O6 0.160086 0.000000 0.068946
O O7 0.601494 0.500000 0.166061
O O8 0.571264 0.671816 0.274665
O O9 0.776524 0.826278 0.761289
O O10 0.744996 0.500000 0.773933
O O11 0.645093 0.307820 0.623198
O O12 0.582155 0.767659 0.435539
O O13 0.553201 0.000000 0.297079
O O14 0.914731 0.500000 0.440610
O O15 0.000000 0.778358 0.500000
#
# Coordination Sequence:
#
# PCOD8083920 Si02
#       7
#     8   4   4   4   8   8   8
#     4  10  18  37  61  95 128 146 189 250 311 367
#     4  10  23  42  69  91 109 154 211 262 309 357
#     4  10  23  44  66  87 112 160 217 255 296 355
#     4  12  27  46  59  81 128 167 203 256 302 359
#     4  12  24  38  59  91 131 168 195 239 304 375
#     4   9  19  34  63  95 120 154 197 255 298 345
#     4  10  18  33  62  95 129 161 194 242 306 360
#
# _framework density 19.546147999999999
#
# number of rings (size 3 to 8) (size 9 to 14) (size 15 to 20)
#    0.000    1.636    4.545    0.273    1.273    2.545 
#    0.000    0.909    0.000    5.455    0.000    0.000 
#    0.000    0.000    0.000    0.000    0.000    0.000 
#
# Total GULP energy -272898.427579 kJ/mol
# GULP energy per Si atom -12404.473981 kJ/mol
# Density = 1.950166 g / cm^3
# Si number density = 19.546148 Si / 1000 Ang^3
#
#
#
# Elastic Constant Matrix: (Units=GPa)
#
#
# Indices 1 2 3 4 5 6 
#
# 1 44.9599 23.7120 1.4608 0.0000 0.8710 0.0000
# 2 23.7120 137.0993 28.4832 0.0000 -2.0135 0.0000
# 3 1.4608 28.4832 72.4840 0.0000 0.3138 0.0000
# 4 0.0000 0.0000 0.0000 18.0176 0.0000 -8.3346
# 5 0.8710 -2.0135 0.3138 0.0000 17.3127 0.0000
# 6 0.0000 0.0000 0.0000 -8.3346 0.0000 13.7090
#
#
#
# Elastic Compliance Matrix: (Units=1/GPa)
#
#
# Indices 1 2 3 4 5 6 
#
# 1 0.024639 -0.004558 0.001302 0.000000 -0.001793 0.000000
# 2 -0.004558 0.008802 -0.003373 0.000000 0.001314 0.000000
# 3 0.001302 -0.003373 0.015098 0.000000 -0.000731 0.000000
# 4 0.000000 0.000000 0.000000 0.077218 0.000000 0.046946
# 5 -0.001793 0.001314 -0.000731 0.000000 0.058017 0.000000
# 6 0.000000 0.000000 0.000000 0.046946 0.000000 0.101486
#
#
# Mechanical properties :
#
#
# Convention : Reuss Voigt Hill
#
# Bulk Modulus (GPa) = 28.34303 40.20611 34.27457
# Shear Modulus (GPa) = 16.11457 23.20033 19.65745
#
# Velocity S-wave (km/s) = 2.87442 3.44895 3.17471
# Velocity P-wave (km/s) = 5.05454 6.03944 5.56881
#
# Compressibility (1/GPa) = 0.03528204
#
# Stress axis : x y z
#
# Youngs Moduli (GPa) = 40.58685 113.60572 66.23202
#
# Poissons Ratio (x) = 0.51785 -0.08626
# Poissons Ratio (y) = 0.18501 0.22339
# Poissons Ratio (z) = -0.05286 0.38317
#
# Static dielectric constant tensor:
#      x y z
#    x 3.216970 0.000000 0.035380 
#    y 0.000000 3.792950 0.000000 
#    z 0.035380 0.000000 3.448300 
# 
# 
# High freq. dielectric constant tensor:
#      x y z
#    x 1.729010 0.000000 0.000590 
#    y 0.000000 1.773840 0.000000 
#    z 0.000590 0.000000 1.761310 
# 
# From -- ./inp_files/230582.got.cif
#   From: 2010.06.25/outbox.cif.g09.slc.cpg/sg12_116_cif.got.tgz:230582.got - 2010.06.28 00:19:55.
