data_PCOD8083968
_publ_section_title
;
Structure prediction by ZEFSAII (Michael W. Deem and Ramdas Pophale) SiO2 
 PCOD8083968
Probable space group: C 2/M
;
_chemical_formula_sum "Si O2"
_cell_formula_units_Z 28
_cell_length_a 16.494659
_cell_length_b 12.463482
_cell_length_c 8.667442
_cell_angle_alpha 90.000000
_cell_angle_beta 56.594716
_cell_angle_gamma 90.000000
_cell_volume 1487.491883
_symmetry_space_group_name_H-M "C 2/M"
_symmetry_group_IT_number 12
_symmetry_cell_setting 'monoclinic'
loop_
_space_group_symop_operation_xyz
x,y,z
-x,y,-z
-x,-y,-z
x,-y,z
1/2+x,1/2+y,z
1/2-x,1/2+y,-z
1/2-x,1/2-y,-z
1/2+x,1/2-y,z
loop_
_atom_site_type_symbol
_atom_site_label
_atom_site_fract_x
_atom_site_fract_y
_atom_site_fract_z
Si Si1 0.000000 0.762880 0.500000
Si Si2 0.051259 0.377625 0.174412
Si Si3 0.848394 0.120982 0.445462
Si Si4 0.856236 0.683969 0.228370
O O1 0.937136 0.686767 0.678607
O O2 0.927455 0.838083 0.483296
O O3 0.084860 0.500000 0.163963
O O4 0.939655 0.377259 0.236057
O O5 0.120339 0.319585 0.977463
O O6 0.849758 0.192159 0.288804
O O7 0.743802 0.123513 0.635560
O O8 0.873714 0.000000 0.370214
#
# Coordination Sequence:
#
# PCOD8083968 Si02
#       4
#     4   8   8   8
#     4  10  22  32  48  76 106 134 166 194 244 310
#     4  10  18  34  54  76 100 128 164 213 251 282
#     4  10  19  35  52  73 103 134 162 204 247 292
#     4   9  19  33  55  76  95 127 175 206 242 296
#
# _framework density 18.823632
#
# number of rings (size 3 to 8) (size 9 to 14) (size 15 to 20)
#    0.000    2.286    0.000    4.286    0.000    1.143 
#    0.000   14.286    0.000    0.000    0.000    0.000 
#    0.000    0.000    0.000    0.000    0.000    0.000 
#
# Total GULP energy -173633.764736 kJ/mol
# GULP energy per Si atom -12402.411767 kJ/mol
# Density = 1.878079 g / cm^3
# Si number density = 18.823632 Si / 1000 Ang^3
#
#
#
# Elastic Constant Matrix: (Units=GPa)
#
#
# Indices 1 2 3 4 5 6 
#
# 1 36.0688 33.4398 19.0923 0.0000 -8.7818 0.0000
# 2 33.4398 162.2761 67.1857 0.0000 9.8689 0.0000
# 3 19.0923 67.1857 115.7493 0.0000 0.8051 0.0000
# 4 0.0000 0.0000 0.0000 19.8657 0.0000 1.1437
# 5 -8.7818 9.8689 0.8051 0.0000 28.8129 0.0000
# 6 0.0000 0.0000 0.0000 1.1437 0.0000 21.8407
#
#
#
# Elastic Compliance Matrix: (Units=1/GPa)
#
#
# Indices 1 2 3 4 5 6 
#
# 1 0.040241 -0.008458 -0.001834 0.000000 0.015213 0.000000
# 2 -0.008458 0.010097 -0.004424 0.000000 -0.005913 0.000000
# 3 -0.001834 -0.004424 0.011505 0.000000 0.000635 0.000000
# 4 0.000000 0.000000 0.000000 0.050490 0.000000 -0.002644
# 5 0.015213 -0.005913 0.000635 0.000000 0.041351 0.000000
# 6 0.000000 0.000000 0.000000 -0.002644 0.000000 0.045925
#
#
# Mechanical properties :
#
#
# Convention : Reuss Voigt Hill
#
# Bulk Modulus (GPa) = 30.85418 61.50332 46.17875
# Shear Modulus (GPa) = 20.84677 27.06229 23.95453
#
# Velocity S-wave (km/s) = 3.33149 3.79578 3.57119
# Velocity P-wave (km/s) = 5.58795 7.20798 6.44904
#
# Compressibility (1/GPa) = 0.03241052
#
# Stress axis : x y z
#
# Youngs Moduli (GPa) = 24.85008 99.04306 86.91551
#
# Poissons Ratio (x) = 0.83774 0.15939
# Poissons Ratio (y) = 0.21019 0.38453
# Poissons Ratio (z) = 0.04557 0.43819
#
# Static dielectric constant tensor:
#      x y z
#    x 3.269500 0.000000 -0.024520 
#    y 0.000000 3.481890 0.000000 
#    z -0.024520 0.000000 3.546390 
# 
# 
# High freq. dielectric constant tensor:
#      x y z
#    x 1.714740 0.000000 -0.004840 
#    y 0.000000 1.735780 0.000000 
#    z -0.004840 0.000000 1.733580 
# 
# From -- ./inp_files/56254.got.cif
#   From: 2010.06.25/outbox.cif.g09.slc.cpg/sg12_29_cif.got.tgz:56254.got - 2010.06.28 00:19:55.
