data_PCOD8083513
_publ_section_title
;
Structure prediction by ZEFSAII (Michael W. Deem and Ramdas Pophale) SiO2 
 PCOD8083513
Probable space group: C 2/M
;
_chemical_formula_sum "Si O2"
_cell_formula_units_Z 64
_cell_length_a 30.275793
_cell_length_b 8.634153
_cell_length_c 30.836047
_cell_angle_alpha 90.000000
_cell_angle_beta 28.553452
_cell_angle_gamma 90.000000
_cell_volume 3852.851312
_symmetry_space_group_name_H-M "C 2/M"
_symmetry_group_IT_number 12
_symmetry_cell_setting 'monoclinic'
loop_
_space_group_symop_operation_xyz
x,y,z
-x,y,-z
-x,-y,-z
x,-y,z
1/2+x,1/2+y,z
1/2-x,1/2+y,-z
1/2-x,1/2-y,-z
1/2+x,1/2-y,z
loop_
_atom_site_type_symbol
_atom_site_label
_atom_site_fract_x
_atom_site_fract_y
_atom_site_fract_z
Si Si1 0.414029 0.682839 0.298206
Si Si2 0.773947 0.683448 0.580087
Si Si3 0.384416 0.681241 0.899717
Si Si4 0.924759 0.181476 0.619418
Si Si5 0.381824 0.181966 0.744506
Si Si6 0.618864 0.182491 0.430039
Si Si7 0.075106 0.316578 0.616851
Si Si8 0.269236 0.680186 0.914965
O O1 0.412420 0.500000 0.306255
O O2 0.329358 0.742004 0.341424
O O3 0.508825 0.733314 0.193007
O O4 0.403754 0.757543 0.353756
O O5 0.779194 0.500000 0.572600
O O6 0.802036 0.735980 0.604320
O O7 0.846267 0.751971 0.482761
O O8 0.371856 0.500000 0.919407
O O9 0.340040 0.727696 0.891944
O O10 0.334362 0.773930 0.981468
O O11 0.868187 0.230129 0.710760
O O12 0.864392 0.226031 0.629171
O O13 0.020072 0.276595 0.536145
O O14 0.946045 0.000000 0.600719
O O15 0.475698 0.243049 0.686136
O O16 0.295734 0.224801 0.849257
O O17 0.384141 0.000000 0.733794
O O18 0.622163 0.000000 0.418211
O O19 0.076249 0.500000 0.616306
O O20 0.274141 0.500000 0.899946
#
# Coordination Sequence:
#
# PCOD8083513 Si02
#       8
#     8   8   8   8   8   8   8   8
#     4  10  19  32  49  69  96 129 167 204 237 275
#     4   9  18  32  49  69  95 130 168 201 234 280
#     4   9  18  31  46  68  95 127 161 198 242 285
#     4  11  21  32  48  72  98 124 160 203 245 286
#     4  11  20  32  50  71  97 131 162 195 240 293
#     4  10  18  33  51  69  95 129 164 198 242 288
#     4  10  19  31  45  67  98 131 167 197 232 280
#     4  10  19  31  48  70  95 125 160 202 244 285
#
# _framework density 16.611073999999999
#
# number of rings (size 3 to 8) (size 9 to 14) (size 15 to 20)
#    0.000    2.000    2.500    3.375    0.000    1.500 
#    0.000    1.250    0.000    0.000    0.000    0.875 
#    0.000    7.000    0.000    0.000    0.000    0.000 
#
# Total GULP energy -396846.332904 kJ/mol
# GULP energy per Si atom -12401.447903 kJ/mol
# Density = 1.657327 g / cm^3
# Si number density = 16.611074 Si / 1000 Ang^3
#
#
#
# Elastic Constant Matrix: (Units=GPa)
#
#
# Indices 1 2 3 4 5 6 
#
# 1 114.5920 23.3765 58.4937 0.0403 6.9524 0.0003
# 2 23.3765 41.3117 19.5262 0.0380 4.0944 -0.0192
# 3 58.4937 19.5262 106.6126 0.0524 4.8472 -0.0047
# 4 0.0403 0.0380 0.0524 21.9629 -0.0359 7.3821
# 5 6.9524 4.0944 4.8472 -0.0359 23.3087 -0.0129
# 6 0.0003 -0.0192 -0.0047 7.3821 -0.0129 21.4908
#
#
#
# Elastic Compliance Matrix: (Units=1/GPa)
#
#
# Indices 1 2 3 4 5 6 
#
# 1 0.012854 -0.004160 -0.006208 -0.000003 -0.001812 -0.000005
# 2 -0.004160 0.028163 -0.002733 -0.000053 -0.003138 0.000041
# 3 -0.006208 -0.002733 0.013306 -0.000019 -0.000435 0.000007
# 4 -0.000003 -0.000053 -0.000019 0.051475 0.000084 -0.017682
# 5 -0.001812 -0.003138 -0.000435 0.000084 0.044085 -0.000005
# 6 -0.000005 0.000041 0.000007 -0.017682 -0.000005 0.052605
#
#
# Mechanical properties :
#
#
# Convention : Reuss Voigt Hill
#
# Bulk Modulus (GPa) = 35.56027 51.70100 43.63064
# Shear Modulus (GPa) = 21.00277 24.09382 22.54830
#
# Velocity S-wave (km/s) = 3.55967 3.81263 3.68832
# Velocity P-wave (km/s) = 6.19266 7.11151 6.66793
#
# Compressibility (1/GPa) = 0.02812127
#
# Stress axis : x y z
#
# Youngs Moduli (GPa) = 77.79593 35.50779 75.15219
#
# Poissons Ratio (x) = 0.14770 0.46656
# Poissons Ratio (y) = 0.32360 0.20540
# Poissons Ratio (z) = 0.48298 0.09705
#
# Static dielectric constant tensor:
#      x y z
#    x 3.202190 -0.000020 -0.012710 
#    y -0.000020 2.991300 0.000040 
#    z -0.012710 0.000040 3.123770 
# 
# 
# High freq. dielectric constant tensor:
#      x y z
#    x 1.623240 0.000000 0.011590 
#    y 0.000000 1.635810 0.000010 
#    z 0.011590 0.000010 1.626190 
# 
# From -- ./inp_files/384541.got.cif
#   From: 2010.06.25/outbox.cif.g09.slc.cpg/sg12_193_cif.got.tgz:384541.got - 2010.06.28 00:19:55.
