data_PCOD8083996
_publ_section_title
;
Structure prediction by ZEFSAII (Michael W. Deem and Ramdas Pophale) SiO2 
 PCOD8083996
Probable space group: C 2/M
;
_chemical_formula_sum "Si O2"
_cell_formula_units_Z 64
_cell_length_a 25.667574
_cell_length_b 15.107856
_cell_length_c 8.580003
_cell_angle_alpha 90.000000
_cell_angle_beta 75.294432
_cell_angle_gamma 90.000000
_cell_volume 3218.182983
_symmetry_space_group_name_H-M "C 2/M"
_symmetry_group_IT_number 12
_symmetry_cell_setting 'monoclinic'
loop_
_space_group_symop_operation_xyz
x,y,z
-x,y,-z
-x,-y,-z
x,-y,z
1/2+x,1/2+y,z
1/2-x,1/2+y,-z
1/2-x,1/2-y,-z
1/2+x,1/2-y,z
loop_
_atom_site_type_symbol
_atom_site_label
_atom_site_fract_x
_atom_site_fract_y
_atom_site_fract_z
Si Si1 0.120234 0.902150 0.267971
Si Si2 0.785404 0.897931 0.028823
Si Si3 0.346173 0.272242 0.198159
Si Si4 0.550748 0.342549 0.052693
Si Si5 0.999122 0.281334 0.334293
Si Si6 0.595332 0.098833 0.305921
Si Si7 0.672121 0.098847 0.967827
Si Si8 0.615711 0.753679 0.510685
O O1 0.177276 0.874243 0.148539
O O2 0.076449 0.907725 0.160987
O O3 0.104254 0.831934 0.411685
O O4 0.123304 0.000000 0.341346
O O5 0.794112 0.000000 0.071586
O O6 0.800183 0.835895 0.163804
O O7 0.724304 0.877598 0.030782
O O8 0.340852 0.272900 0.390916
O O9 0.404340 0.309199 0.101935
O O10 0.335817 0.170830 0.159506
O O11 0.527871 0.259805 0.164724
O O12 0.500000 0.387473 0.000000
O O13 0.032763 0.371231 0.344576
O O14 0.000000 0.227001 0.500000
O O15 0.935676 0.289955 0.349159
O O16 0.619940 0.102288 0.115720
O O17 0.631321 0.164373 0.387262
O O18 0.598094 0.000000 0.373214
O O19 0.678435 0.000000 0.889863
#
# Coordination Sequence:
#
# PCOD8083996 Si02
#       8
#     8   8   8   8   8   8   8   8
#     4  10  21  39  58  81 112 151 189 229 279 337
#     4   9  20  39  62  82 108 143 189 238 284 328
#     4  11  21  34  59  83 113 148 185 229 279 338
#     4  11  19  34  58  80 112 147 187 234 274 316
#     4  10  18  34  55  77 113 148 182 214 280 317
#     4  10  20  36  60  81 110 152 193 224 272 339
#     4  10  20  38  61  85 108 142 188 239 282 326
#     4  11  22  35  55  82 119 153 180 228 277 332
#
# _framework density 19.886997000000001
#
# number of rings (size 3 to 8) (size 9 to 14) (size 15 to 20)
#    0.000    1.750    5.000    1.125    0.000    3.500 
#    0.000    3.750    0.000    6.750    0.000    0.000 
#    0.000    0.000    0.000    0.000    0.000    0.000 
#
# Total GULP energy -396472.902576 kJ/mol
# GULP energy per Si atom -12389.778205 kJ/mol
# Density = 1.984173 g / cm^3
# Si number density = 19.886997 Si / 1000 Ang^3
#
#
#
# Elastic Constant Matrix: (Units=GPa)
#
#
# Indices 1 2 3 4 5 6 
#
# 1 79.0130 28.1545 18.8330 0.0000 7.4959 0.0000
# 2 28.1545 113.0045 41.4990 0.0000 12.5662 0.0000
# 3 18.8330 41.4990 71.8359 0.0000 20.9499 0.0000
# 4 0.0000 0.0000 0.0000 12.6332 0.0000 -4.5428
# 5 7.4959 12.5662 20.9499 0.0000 25.6409 0.0000
# 6 0.0000 0.0000 0.0000 -4.5428 0.0000 22.3549
#
#
#
# Elastic Compliance Matrix: (Units=1/GPa)
#
#
# Indices 1 2 3 4 5 6 
#
# 1 0.014177 -0.002744 -0.001727 0.000000 -0.001389 0.000000
# 2 -0.002744 0.011764 -0.006078 0.000000 0.000002 0.000000
# 3 -0.001727 -0.006078 0.022145 0.000000 -0.014610 0.000000
# 4 0.000000 0.000000 0.000000 0.085397 0.000000 0.017354
# 5 -0.001389 0.000002 -0.014610 0.000000 0.051343 0.000000
# 6 0.000000 0.000000 0.000000 0.017354 0.000000 0.048259
#
#
# Mechanical properties :
#
#
# Convention : Reuss Voigt Hill
#
# Bulk Modulus (GPa) = 37.04937 48.98072 43.01504
# Shear Modulus (GPa) = 18.99854 23.81693 21.40774
#
# Velocity S-wave (km/s) = 3.09419 3.46441 3.28452
# Velocity P-wave (km/s) = 5.60676 6.37854 6.00506
#
# Compressibility (1/GPa) = 0.02699102
#
# Stress axis : x y z
#
# Youngs Moduli (GPa) = 70.53621 85.00227 45.15657
#
# Poissons Ratio (x) = 0.23321 0.07797
# Poissons Ratio (y) = 0.19352 0.27444
# Poissons Ratio (z) = 0.12179 0.51661
#
# Static dielectric constant tensor:
#      x y z
#    x 3.780820 0.000000 -0.031010 
#    y 0.000000 3.566400 0.000000 
#    z -0.031010 0.000000 3.497370 
# 
# 
# High freq. dielectric constant tensor:
#      x y z
#    x 1.773100 0.000000 -0.004400 
#    y 0.000000 1.765930 0.000000 
#    z -0.004400 0.000000 1.760930 
# 
# From -- ./inp_files/104562.got.cif
#   From: 2010.06.25/outbox.cif.g09.slc.cpg/sg12_53_cif.got.tgz:104562.got - 2010.06.28 00:19:55.
