data_PCOD8083545
_publ_section_title
;
Structure prediction by ZEFSAII (Michael W. Deem and Ramdas Pophale) SiO2 
 PCOD8083545
Probable space group: C 2/M
;
_chemical_formula_sum "Si O2"
_cell_formula_units_Z 56
_cell_length_a 9.037491
_cell_length_b 26.662036
_cell_length_c 13.422318
_cell_angle_alpha 90.000000
_cell_angle_beta 109.093755
_cell_angle_gamma 90.000000
_cell_volume 3056.282047
_symmetry_space_group_name_H-M "C 2/M"
_symmetry_group_IT_number 12
_symmetry_cell_setting 'monoclinic'
loop_
_space_group_symop_operation_xyz
x,y,z
-x,y,-z
-x,-y,-z
x,-y,z
1/2+x,1/2+y,z
1/2-x,1/2+y,-z
1/2-x,1/2-y,-z
1/2+x,1/2-y,z
loop_
_atom_site_type_symbol
_atom_site_label
_atom_site_fract_x
_atom_site_fract_y
_atom_site_fract_z
Si Si1 0.441511 0.298183 0.375357
Si Si2 0.849619 0.288717 0.586080
Si Si3 0.368112 0.557873 0.888114
Si Si4 0.532612 0.940459 0.897422
Si Si5 0.661203 0.896054 0.497432
Si Si6 0.551257 0.605300 0.298229
Si Si7 0.261097 0.941399 0.694937
O O1 0.500000 0.314082 0.500000
O O2 0.251493 0.301108 0.336461
O O3 0.490180 0.241303 0.354837
O O4 0.505881 0.336736 0.307507
O O5 0.750000 0.250000 0.500000
O O6 0.879481 0.337636 0.527310
O O7 0.357726 0.500000 0.848650
O O8 0.202758 0.576468 0.896129
O O9 0.413633 0.595190 0.809256
O O10 0.500000 0.563207 0.000000
O O11 0.397508 0.918888 0.795394
O O12 0.524097 0.000000 0.900442
O O13 0.500000 0.918012 0.000000
O O14 0.500000 0.921797 0.500000
O O15 0.791707 0.907507 0.607823
O O16 0.723483 0.918485 0.409728
O O17 0.410058 0.569727 0.300345
O O18 0.283563 0.000000 0.691287
#
# Coordination Sequence:
#
# PCOD8083545 Si02
#       7
#     8   8   8   8   8   8   8
#     4  10  18  33  52  81 111 143 185 232 279 333
#     4  10  18  33  54  76 109 142 183 234 277 324
#     4  10  21  37  58  84 111 146 193 240 285 336
#     4   9  18  36  58  78 103 141 192 239 276 321
#     4  12  23  35  52  80 115 148 191 229 278 346
#     4  12  21  35  54  81 113 148 189 234 281 344
#     4  11  23  37  53  77 115 157 189 227 279 334
#
# _framework density 18.322915999999999
#
# number of rings (size 3 to 8) (size 9 to 14) (size 15 to 20)
#    0.000    1.429    4.286    3.857    0.000    4.286 
#    0.000    0.000    0.000    0.000    0.000    2.000 
#    0.000    0.000    0.000    0.000    0.000    0.000 
#
# Total GULP energy -347108.991214 kJ/mol
# GULP energy per Si atom -12396.749686 kJ/mol
# Density = 1.828121 g / cm^3
# Si number density = 18.322916 Si / 1000 Ang^3
#
#
#
# Elastic Constant Matrix: (Units=GPa)
#
#
# Indices 1 2 3 4 5 6 
#
# 1 138.9413 20.5819 53.3431 0.0000 -10.7294 0.0000
# 2 20.5819 56.1574 33.1471 0.0000 -5.5471 0.0000
# 3 53.3431 33.1471 95.4574 0.0000 -9.2120 0.0000
# 4 0.0000 0.0000 0.0000 13.5366 0.0000 -3.3626
# 5 -10.7294 -5.5471 -9.2120 0.0000 36.5262 0.0000
# 6 0.0000 0.0000 0.0000 -3.3626 0.0000 27.8291
#
#
#
# Elastic Compliance Matrix: (Units=1/GPa)
#
#
# Indices 1 2 3 4 5 6 
#
# 1 0.009243 -0.000351 -0.004905 0.000000 0.001424 0.000000
# 2 -0.000351 0.022489 -0.007475 0.000000 0.001427 0.000000
# 3 -0.004905 -0.007475 0.015953 0.000000 0.001447 0.000000
# 4 0.000000 0.000000 0.000000 0.076159 0.000000 0.009202
# 5 0.001424 0.001427 0.001447 0.000000 0.028378 0.000000
# 6 0.000000 0.000000 0.000000 0.009202 0.000000 0.037045
#
#
# Mechanical properties :
#
#
# Convention : Reuss Voigt Hill
#
# Bulk Modulus (GPa) = 45.00395 56.07781 50.54088
# Shear Modulus (GPa) = 22.50857 27.81067 25.15962
#
# Velocity S-wave (km/s) = 3.50871 3.90013 3.70959
# Velocity P-wave (km/s) = 6.40544 7.13814 6.78169
#
# Compressibility (1/GPa) = 0.02222027
#
# Stress axis : x y z
#
# Youngs Moduli (GPa) = 108.19392 44.46606 62.68602
#
# Poissons Ratio (x) = 0.01562 0.30751
# Poissons Ratio (y) = 0.03801 0.46859
# Poissons Ratio (z) = 0.53074 0.33239
#
# Static dielectric constant tensor:
#      x y z
#    x 4.130100 0.000000 0.000110 
#    y 0.000000 3.419470 0.000000 
#    z 0.000110 0.000000 3.193090 
# 
# 
# High freq. dielectric constant tensor:
#      x y z
#    x 1.743590 0.000000 -0.006360 
#    y 0.000000 1.687780 0.000000 
#    z -0.006360 0.000000 1.675260 
# 
# From -- ./inp_files/125328.got.cif
#   From: 2010.06.25/outbox.cif.g09.slc.cpg/sg12_63_cif.got.tgz:125328.got - 2010.06.28 00:19:55.
