data_PCOD8083240
_publ_section_title
;
Structure prediction by ZEFSAII (Michael W. Deem and Ramdas Pophale) SiO2 
 PCOD8083240
Probable space group: C 2/M
;
_chemical_formula_sum "Si O2"
_cell_formula_units_Z 64
_cell_length_a 18.845705
_cell_length_b 9.195039
_cell_length_c 21.130895
_cell_angle_alpha 90.000000
_cell_angle_beta 105.546542
_cell_angle_gamma 90.000000
_cell_volume 3527.738486
_symmetry_space_group_name_H-M "C 2/M"
_symmetry_group_IT_number 12
_symmetry_cell_setting 'monoclinic'
loop_
_space_group_symop_operation_xyz
x,y,z
-x,y,-z
-x,-y,-z
x,-y,z
1/2+x,1/2+y,z
1/2-x,1/2+y,-z
1/2-x,1/2-y,-z
1/2+x,1/2-y,z
loop_
_atom_site_type_symbol
_atom_site_label
_atom_site_fract_x
_atom_site_fract_y
_atom_site_fract_z
Si Si1 0.681483 0.334975 0.217046
Si Si2 0.633121 0.329789 0.866744
Si Si3 0.231817 0.171346 0.431245
Si Si4 0.933961 0.827258 0.279382
Si Si5 0.422562 0.329662 0.011939
Si Si6 0.700495 0.172660 0.095503
Si Si7 0.098293 0.827283 0.318419
Si Si8 0.675389 0.163030 0.666437
O O1 0.662530 0.500000 0.190387
O O2 0.674775 0.224121 0.158065
O O3 0.623906 0.276089 0.255155
O O4 0.762303 0.330151 0.265560
O O5 0.640440 0.500000 0.857685
O O6 0.597571 0.262536 0.794395
O O7 0.579393 0.296057 0.913234
O O8 0.716156 0.270107 0.897799
O O9 0.250000 0.250000 0.500000
O O10 0.153072 0.229844 0.386403
O O11 0.293855 0.211280 0.394368
O O12 0.229428 0.000000 0.442612
O O13 0.888662 0.772445 0.328825
O O14 0.016467 0.768466 0.310006
O O15 0.932565 0.000000 0.278033
O O16 0.411026 0.500000 0.995549
O O17 0.500000 0.276717 0.000000
O O18 0.353848 0.242894 0.968003
O O19 0.694367 0.000000 0.089274
O O20 0.103545 0.000000 0.319860
O O21 0.643528 0.000000 0.654846
#
# Coordination Sequence:
#
# PCOD8083240 Si02
#       8
#     8   8   8   8   8   8   8   8
#     4   9  17  32  54  76  98 133 176 213 251 303
#     4   9  19  34  52  77 103 131 171 216 260 308
#     4   9  18  35  56  80 107 141 179 214 251 299
#     4  10  18  32  55  79 106 135 168 216 266 306
#     4  10  22  38  56  75  97 133 180 220 257 315
#     4  11  21  34  52  75 106 134 165 214 266 316
#     4   8  17  32  54  79 105 135 173 218 256 295
#     4   9  18  33  52  78 110 136 169 213 255 304
#
# _framework density 18.141933000000002
#
# number of rings (size 3 to 8) (size 9 to 14) (size 15 to 20)
#    0.000    2.625    1.250    2.250    1.750    0.750 
#    0.000    5.000    0.000    3.750    0.000    0.000 
#    0.000    0.000    0.000    0.000    0.000    0.000 
#
# Total GULP energy -396696.388010 kJ/mol
# GULP energy per Si atom -12396.762125 kJ/mol
# Density = 1.810064 g / cm^3
# Si number density = 18.141933 Si / 1000 Ang^3
#
#
#
# Elastic Constant Matrix: (Units=GPa)
#
#
# Indices 1 2 3 4 5 6 
#
# 1 144.6169 34.8418 62.7692 0.0000 -6.3481 0.0000
# 2 34.8418 35.7249 31.1455 0.0000 -2.7738 0.0000
# 3 62.7692 31.1455 117.7902 0.0000 -5.9853 0.0000
# 4 0.0000 0.0000 0.0000 30.9825 0.0000 -0.5722
# 5 -6.3481 -2.7738 -5.9853 0.0000 19.7890 0.0000
# 6 0.0000 0.0000 0.0000 -0.5722 0.0000 23.7189
#
#
#
# Elastic Compliance Matrix: (Units=1/GPa)
#
#
# Indices 1 2 3 4 5 6 
#
# 1 0.010124 -0.006666 -0.003570 0.000000 0.001234 0.000000
# 2 -0.006666 0.040863 -0.007180 0.000000 0.001417 0.000000
# 3 -0.003570 -0.007180 0.012371 0.000000 0.001590 0.000000
# 4 0.000000 0.000000 0.000000 0.032291 0.000000 0.000779
# 5 0.001234 0.001417 0.001590 0.000000 0.051609 0.000000
# 6 0.000000 0.000000 0.000000 0.000779 0.000000 0.042179
#
#
# Mechanical properties :
#
#
# Convention : Reuss Voigt Hill
#
# Bulk Modulus (GPa) = 35.05572 61.73833 48.39702
# Shear Modulus (GPa) = 21.38771 26.18979 23.78875
#
# Velocity S-wave (km/s) = 3.43725 3.80360 3.62506
# Velocity P-wave (km/s) = 5.92604 7.30715 6.65253
#
# Compressibility (1/GPa) = 0.02852602
#
# Stress axis : x y z
#
# Youngs Moduli (GPa) = 98.77036 24.47199 80.83111
#
# Poissons Ratio (x) = 0.16313 0.28856
# Poissons Ratio (y) = 0.65841 0.58041
# Poissons Ratio (z) = 0.35260 0.17572
#
# Static dielectric constant tensor:
#      x y z
#    x 3.568920 0.000000 -0.047260 
#    y 0.000000 3.039210 0.000000 
#    z -0.047260 0.000000 3.358940 
# 
# 
# High freq. dielectric constant tensor:
#      x y z
#    x 1.706700 0.000000 -0.007010 
#    y 0.000000 1.670540 0.000000 
#    z -0.007010 0.000000 1.700940 
# 
# From -- ./inp_files/276532.got.cif
#   From: 2010.06.25/outbox.cif.g09.slc.cpg/sg12_139_cif.got.tgz:276532.got - 2010.06.28 00:19:55.
