data_PCOD8083541
_publ_section_title
;
Structure prediction by ZEFSAII (Michael W. Deem and Ramdas Pophale) SiO2 
 PCOD8083541
Probable space group: C 2/M
;
_chemical_formula_sum "Si O2"
_cell_formula_units_Z 52
_cell_length_a 9.322567
_cell_length_b 17.417855
_cell_length_c 20.405538
_cell_angle_alpha 90.000000
_cell_angle_beta 121.943102
_cell_angle_gamma 90.000000
_cell_volume 2811.693085
_symmetry_space_group_name_H-M "C 2/M"
_symmetry_group_IT_number 12
_symmetry_cell_setting 'monoclinic'
loop_
_space_group_symop_operation_xyz
x,y,z
-x,y,-z
-x,-y,-z
x,-y,z
1/2+x,1/2+y,z
1/2-x,1/2+y,-z
1/2-x,1/2-y,-z
1/2+x,1/2-y,z
loop_
_atom_site_type_symbol
_atom_site_label
_atom_site_fract_x
_atom_site_fract_y
_atom_site_fract_z
Si Si1 0.407946 0.188053 0.806188
Si Si2 0.446705 0.911799 0.256510
Si Si3 0.066705 0.783699 0.946339
Si Si4 0.132280 0.297568 0.398539
Si Si5 0.443628 0.411221 0.823376
Si Si6 0.000000 0.754670 0.500000
Si Si7 0.477712 0.688756 0.268621
O O1 0.481426 0.106142 0.799327
O O2 0.454020 0.212341 0.891344
O O3 0.504167 0.248807 0.783903
O O4 0.209113 0.188690 0.747059
O O5 0.547452 0.864032 0.335438
O O6 0.250062 0.889767 0.209278
O O7 0.474970 0.000000 0.280268
O O8 0.061649 0.858991 0.898559
O O9 0.250000 0.750000 0.000000
O O10 0.000000 0.810992 0.000000
O O11 0.335507 0.308767 0.448486
O O12 0.098872 0.213015 0.358082
O O13 0.047214 0.299725 0.449762
O O14 0.484860 0.500000 0.846923
O O15 0.478963 0.392971 0.754722
#
# Coordination Sequence:
#
# PCOD8083541 Si02
#       7
#     8   8   8   8   8   4   8
#     4  10  19  33  53  79 102 132 181 221 255 304
#     4  10  20  36  57  77 104 139 178 224 264 300
#     4  11  20  33  53  76 105 139 170 209 265 321
#     4  10  18  33  52  79 104 136 175 211 261 312
#     4  10  21  36  54  79 105 135 180 225 261 305
#     4  10  20  30  52  78 108 134 168 216 256 316
#     4  10  18  33  57  76 102 136 176 226 257 296
#
# _framework density 18.494195000000001
#
# number of rings (size 3 to 8) (size 9 to 14) (size 15 to 20)
#    0.000    1.846    0.000    9.231    0.000    0.923 
#    0.000    1.538    0.000    5.538    0.000    0.000 
#    0.000    0.000    0.000    0.000    0.000    0.000 
#
# Total GULP energy -322236.591429 kJ/mol
# GULP energy per Si atom -12393.715055 kJ/mol
# Density = 1.845210 g / cm^3
# Si number density = 18.494195 Si / 1000 Ang^3
#
#
#
# Elastic Constant Matrix: (Units=GPa)
#
#
# Indices 1 2 3 4 5 6 
#
# 1 108.6235 44.4304 36.0726 0.0000 8.5266 0.0000
# 2 44.4304 89.6324 51.0241 0.0000 6.1730 0.0000
# 3 36.0726 51.0241 104.1875 0.0000 4.6564 0.0000
# 4 0.0000 0.0000 0.0000 25.4725 0.0000 2.6071
# 5 8.5266 6.1730 4.6564 0.0000 39.4975 0.0000
# 6 0.0000 0.0000 0.0000 2.6071 0.0000 22.3698
#
#
#
# Elastic Compliance Matrix: (Units=1/GPa)
#
#
# Indices 1 2 3 4 5 6 
#
# 1 0.011858 -0.004812 -0.001677 0.000000 -0.001610 0.000000
# 2 -0.004812 0.017515 -0.006872 0.000000 -0.000888 0.000000
# 3 -0.001677 -0.006872 0.013551 0.000000 -0.000162 0.000000
# 4 0.000000 0.000000 0.000000 0.039732 0.000000 -0.004631
# 5 -0.001610 -0.000888 -0.000162 0.000000 0.025824 0.000000
# 6 0.000000 0.000000 0.000000 -0.004631 0.000000 0.045243
#
#
# Mechanical properties :
#
#
# Convention : Reuss Voigt Hill
#
# Bulk Modulus (GPa) = 61.72037 62.83307 62.27672
# Shear Modulus (GPa) = 26.90408 28.86238 27.88323
#
# Velocity S-wave (km/s) = 3.81823 3.95475 3.88709
# Velocity P-wave (km/s) = 7.27213 7.40957 7.34117
#
# Compressibility (1/GPa) = 0.01620211
#
# Stress axis : x y z
#
# Youngs Moduli (GPa) = 84.33300 57.09296 73.79410
#
# Poissons Ratio (x) = 0.27476 0.12373
# Poissons Ratio (y) = 0.40585 0.50711
# Poissons Ratio (z) = 0.14140 0.39234
#
# Static dielectric constant tensor:
#      x y z
#    x 3.641370 0.000000 -0.164680 
#    y 0.000000 3.378040 0.000000 
#    z -0.164680 0.000000 3.619580 
# 
# 
# High freq. dielectric constant tensor:
#      x y z
#    x 1.735700 0.000000 0.001230 
#    y 0.000000 1.682840 0.000000 
#    z 0.001230 0.000000 1.719160 
# 
# From -- ./inp_files/301185.got.cif
#   From: 2010.06.25/outbox.cif.g09.slc.cpg/sg12_151_cif.got.tgz:301185.got - 2010.06.28 00:19:55.
