data_PCOD8083846
_publ_section_title
;
Structure prediction by ZEFSAII (Michael W. Deem and Ramdas Pophale) SiO2 
 PCOD8083846
Probable space group: C 2/M
;
_chemical_formula_sum "Si O2"
_cell_formula_units_Z 56
_cell_length_a 8.916002
_cell_length_b 18.439771
_cell_length_c 20.805310
_cell_angle_alpha 90.000000
_cell_angle_beta 60.394753
_cell_angle_gamma 90.000000
_cell_volume 2974.023047
_symmetry_space_group_name_H-M "C 2/M"
_symmetry_group_IT_number 12
_symmetry_cell_setting 'monoclinic'
loop_
_space_group_symop_operation_xyz
x,y,z
-x,y,-z
-x,-y,-z
x,-y,z
1/2+x,1/2+y,z
1/2-x,1/2+y,-z
1/2-x,1/2-y,-z
1/2+x,1/2-y,z
loop_
_atom_site_type_symbol
_atom_site_label
_atom_site_fract_x
_atom_site_fract_y
_atom_site_fract_z
Si Si1 0.444204 0.799295 0.146101
Si Si2 0.709924 0.919390 0.742274
Si Si3 0.916684 0.331076 0.340443
Si Si4 0.704321 0.294156 0.714901
Si Si5 0.824656 0.328360 0.498612
Si Si6 0.392452 0.583209 0.356081
Si Si7 0.819532 0.216579 0.050778
O O1 0.324175 0.866678 0.190573
O O2 0.419385 0.731784 0.200767
O O3 0.646832 0.824892 0.111233
O O4 0.383438 0.777918 0.087617
O O5 0.590025 0.897397 0.707840
O O6 0.904385 0.913143 0.676338
O O7 0.663665 0.000000 0.774708
O O8 0.793898 0.264590 0.343561
O O9 0.865236 0.363125 0.420521
O O10 0.104780 0.296414 0.298181
O O11 0.652954 0.373329 0.699416
O O12 0.750000 0.250000 0.500000
O O13 0.693395 0.380734 0.563221
O O14 0.000000 0.320695 0.500000
O O15 0.328701 0.500000 0.362117
O O16 0.750000 0.250000 0.000000
O O17 0.000000 0.170565 0.000000
#
# Coordination Sequence:
#
# PCOD8083846 Si02
#       7
#     8   8   8   8   8   8   8
#     4  10  18  33  59  84 112 148 182 224 278 328
#     4  10  23  39  57  82 114 149 193 239 286 338
#     4  11  21  36  57  80 108 144 193 246 289 337
#     4  11  20  36  57  84 109 143 191 237 283 340
#     4  12  24  38  58  79 105 148 194 241 296 351
#     4  11  24  39  54  79 112 148 191 244 294 342
#     4   9  18  32  55  89 119 140 173 223 267 319
#
# _framework density 18.829713000000002
#
# number of rings (size 3 to 8) (size 9 to 14) (size 15 to 20)
#    0.000    1.429    2.857    4.286    2.000    1.429 
#    0.000    1.429    0.000    4.286    0.000    4.000 
#    0.000    0.000    0.000    0.000    0.000    0.000 
#
# Total GULP energy -346989.771026 kJ/mol
# GULP energy per Si atom -12392.491822 kJ/mol
# Density = 1.878686 g / cm^3
# Si number density = 18.829713 Si / 1000 Ang^3
#
#
#
# Elastic Constant Matrix: (Units=GPa)
#
#
# Indices 1 2 3 4 5 6 
#
# 1 108.9204 33.3218 42.9459 0.0000 -2.8252 0.0000
# 2 33.3218 112.0356 41.3324 0.0000 -0.1420 0.0000
# 3 42.9459 41.3324 108.8034 0.0000 1.2620 0.0000
# 4 0.0000 0.0000 0.0000 7.7338 0.0000 -8.9787
# 5 -2.8252 -0.1420 1.2620 0.0000 42.9687 0.0000
# 6 0.0000 0.0000 0.0000 -8.9787 0.0000 16.2168
#
#
#
# Elastic Compliance Matrix: (Units=1/GPa)
#
#
# Indices 1 2 3 4 5 6 
#
# 1 0.011271 -0.001984 -0.003705 0.000000 0.000843 0.000000
# 2 -0.001984 0.010731 -0.003293 0.000000 0.000002 0.000000
# 3 -0.003705 -0.003293 0.011911 0.000000 -0.000604 0.000000
# 4 0.000000 0.000000 0.000000 0.361974 0.000000 0.200412
# 5 0.000843 0.000002 -0.000604 0.000000 0.023346 0.000000
# 6 0.000000 0.000000 0.000000 0.200412 0.000000 0.172625
#
#
# Mechanical properties :
#
#
# Convention : Reuss Voigt Hill
#
# Bulk Modulus (GPa) = 62.70260 62.77332 62.73796
# Shear Modulus (GPa) = 8.12825 27.52781 17.82803
#
# Velocity S-wave (km/s) = 2.07992 3.82767 3.08035
# Velocity P-wave (km/s) = 6.25621 7.27630 6.78545
#
# Compressibility (1/GPa) = 0.01594830
#
# Stress axis : x y z
#
# Youngs Moduli (GPa) = 88.72614 93.18909 83.95469
#
# Poissons Ratio (x) = 0.18492 0.31102
# Poissons Ratio (y) = 0.17606 0.27648
# Poissons Ratio (z) = 0.32870 0.30689
#
# Static dielectric constant tensor:
#      x y z
#    x 3.828990 0.000000 -0.198880 
#    y 0.000000 3.256180 0.000000 
#    z -0.198880 0.000000 3.891560 
# 
# 
# High freq. dielectric constant tensor:
#      x y z
#    x 1.752250 0.000000 -0.003620 
#    y 0.000000 1.689480 0.000000 
#    z -0.003620 0.000000 1.742420 
# 
# From -- ./inp_files/300705.got.cif
#   From: 2010.06.25/outbox.cif.g09.slc.cpg/sg12_151_cif.got.tgz:300705.got - 2010.06.28 00:19:55.
