data_PCOD8083392
_publ_section_title
;
Structure prediction by ZEFSAII (Michael W. Deem and Ramdas Pophale) SiO2 
 PCOD8083392
Probable space group: C 2/M
;
_chemical_formula_sum "Si O2"
_cell_formula_units_Z 56
_cell_length_a 15.451818
_cell_length_b 9.210112
_cell_length_c 22.337793
_cell_angle_alpha 90.000000
_cell_angle_beta 69.931450
_cell_angle_gamma 90.000000
_cell_volume 2985.940182
_symmetry_space_group_name_H-M "C 2/M"
_symmetry_group_IT_number 12
_symmetry_cell_setting 'monoclinic'
loop_
_space_group_symop_operation_xyz
x,y,z
-x,y,-z
-x,-y,-z
x,-y,z
1/2+x,1/2+y,z
1/2-x,1/2+y,-z
1/2-x,1/2-y,-z
1/2+x,1/2-y,z
loop_
_atom_site_type_symbol
_atom_site_label
_atom_site_fract_x
_atom_site_fract_y
_atom_site_fract_z
Si Si1 0.791864 0.669985 0.576418
Si Si2 0.652675 0.171697 0.864919
Si Si3 0.144024 0.172604 0.213352
Si Si4 0.836022 0.333318 0.004988
Si Si5 0.462116 0.832486 0.864663
Si Si6 0.578994 0.829094 0.346052
Si Si7 0.625677 0.830700 0.569157
O O1 0.772967 0.500000 0.581703
O O2 0.847349 0.719662 0.621729
O O3 0.693421 0.749416 0.599129
O O4 0.851680 0.714759 0.504260
O O5 0.749521 0.224131 0.814094
O O6 0.640265 0.232430 0.935328
O O7 0.568148 0.223172 0.842881
O O8 0.648521 0.000000 0.869081
O O9 0.092537 0.229369 0.166938
O O10 0.096973 0.240750 0.282094
O O11 0.135258 0.000000 0.217625
O O12 0.806038 0.500000 0.018313
O O13 0.750000 0.250000 0.000000
O O14 0.923059 0.315951 0.940932
O O15 0.454892 0.000000 0.844578
O O16 0.478495 0.784596 0.393325
O O17 0.585162 0.000000 0.331456
O O18 0.640828 0.000000 0.575845
#
# Coordination Sequence:
#
# PCOD8083392 Si02
#       7
#     8   8   8   8   8   8   8
#     4   9  18  34  57  84 111 139 175 221 268 313
#     4   9  19  36  56  78 106 140 177 217 266 321
#     4  11  23  38  54  76 109 143 178 226 272 311
#     4  10  18  32  57  83 108 136 172 219 270 320
#     4  10  20  36  59  81 103 140 183 219 263 326
#     4  10  21  37  56  77 107 146 185 217 257 321
#     4   9  18  34  57  83 110 141 176 218 267 317
#
# _framework density 18.754562
#
# number of rings (size 3 to 8) (size 9 to 14) (size 15 to 20)
#    0.000    2.286    1.429    1.286    0.000    5.714 
#    0.000    6.429    0.000    6.000    0.000    0.000 
#    0.000    0.000    0.000    0.000    0.000    0.000 
#
# Total GULP energy -347208.208146 kJ/mol
# GULP energy per Si atom -12400.293148 kJ/mol
# Density = 1.871188 g / cm^3
# Si number density = 18.754562 Si / 1000 Ang^3
#
#
#
# Elastic Constant Matrix: (Units=GPa)
#
#
# Indices 1 2 3 4 5 6 
#
# 1 106.8525 29.3565 13.4496 0.0000 -11.0206 0.0000
# 2 29.3565 40.1820 23.6866 0.0000 -2.3963 0.0000
# 3 13.4496 23.6866 55.7396 0.0000 1.3177 0.0000
# 4 0.0000 0.0000 0.0000 24.9992 0.0000 1.5605
# 5 -11.0206 -2.3963 1.3177 0.0000 16.5695 0.0000
# 6 0.0000 0.0000 0.0000 1.5605 0.0000 32.5449
#
#
#
# Elastic Compliance Matrix: (Units=1/GPa)
#
#
# Indices 1 2 3 4 5 6 
#
# 1 0.012493 -0.009126 0.000700 0.000000 0.006934 0.000000
# 2 -0.009126 0.040465 -0.015016 0.000000 0.000976 0.000000
# 3 0.000700 -0.015016 0.024239 0.000000 -0.003634 0.000000
# 4 0.000000 0.000000 0.000000 0.040121 0.000000 -0.001924
# 5 0.006934 0.000976 -0.003634 0.000000 0.065394 0.000000
# 6 0.000000 0.000000 0.000000 -0.001924 0.000000 0.030819
#
#
# Mechanical properties :
#
#
# Convention : Reuss Voigt Hill
#
# Bulk Modulus (GPa) = 32.99171 37.30662 35.14917
# Shear Modulus (GPa) = 18.48292 23.90815 21.19554
#
# Velocity S-wave (km/s) = 3.14270 3.57430 3.36542
# Velocity P-wave (km/s) = 5.54962 6.08024 5.82098
#
# Compressibility (1/GPa) = 0.03031064
#
# Stress axis : x y z
#
# Youngs Moduli (GPa) = 80.04405 24.71301 41.25615
#
# Poissons Ratio (x) = 0.22554 -0.02887
# Poissons Ratio (y) = 0.73051 0.61952
# Poissons Ratio (z) = -0.05602 0.37110
#
# Static dielectric constant tensor:
#      x y z
#    x 3.751420 0.000000 -0.116890 
#    y 0.000000 3.266410 0.000000 
#    z -0.116890 0.000000 3.538790 
# 
# 
# High freq. dielectric constant tensor:
#      x y z
#    x 1.741810 0.000000 -0.002460 
#    y 0.000000 1.706050 0.000000 
#    z -0.002460 0.000000 1.727640 
# 
# From -- ./inp_files/338570.got.cif
#   From: 2010.06.25/outbox.cif.g09.slc.cpg/sg12_170_cif.got.tgz:338570.got - 2010.06.28 00:19:55.
