data_PCOD8083487
_publ_section_title
;
Structure prediction by ZEFSAII (Michael W. Deem and Ramdas Pophale) SiO2 
 PCOD8083487
Probable space group: C 2/M
;
_chemical_formula_sum "Si O2"
_cell_formula_units_Z 40
_cell_length_a 15.995218
_cell_length_b 17.420587
_cell_length_c 8.655341
_cell_angle_alpha 90.000000
_cell_angle_beta 128.354980
_cell_angle_gamma 90.000000
_cell_volume 1891.270297
_symmetry_space_group_name_H-M "C 2/M"
_symmetry_group_IT_number 12
_symmetry_cell_setting 'monoclinic'
loop_
_space_group_symop_operation_xyz
x,y,z
-x,y,-z
-x,-y,-z
x,-y,z
1/2+x,1/2+y,z
1/2-x,1/2+y,-z
1/2-x,1/2-y,-z
1/2+x,1/2-y,z
loop_
_atom_site_type_symbol
_atom_site_label
_atom_site_fract_x
_atom_site_fract_y
_atom_site_fract_z
Si Si1 0.115021 0.277817 0.209794
Si Si2 0.102155 0.857718 0.410854
Si Si3 0.696366 0.086575 0.486944
Si Si4 0.370583 0.662947 0.213667
Si Si5 0.712333 0.187482 0.785763
O O1 0.124863 0.229703 0.381203
O O2 0.142852 0.365475 0.286022
O O3 0.199745 0.244642 0.186497
O O4 0.000000 0.272117 0.000000
O O5 0.174020 0.912968 0.385122
O O6 0.138997 0.873898 0.628074
O O7 0.975584 0.870954 0.249064
O O8 0.665441 0.124252 0.615999
O O9 0.652937 0.000000 0.433573
O O10 0.379108 0.756313 0.249313
O O11 0.269088 0.641716 0.992086
#
# Coordination Sequence:
#
# PCOD8083487 Si02
#       5
#     8   8   8   8   8
#     4  11  19  36  59  83 108 149 202 240 267 330
#     4  10  19  35  59  88 110 142 192 241 281 328
#     4  11  23  39  54  81 123 160 184 222 287 356
#     4  10  18  32  62  89 109 133 192 250 287 310
#     4  10  19  35  60  87 109 147 196 241 278 328
#
# _framework density 21.149806000000002
#
# number of rings (size 3 to 8) (size 9 to 14) (size 15 to 20)
#    0.000    1.600    6.000    1.200    0.000    0.400 
#    0.000    5.000    0.000    2.400    0.000    0.000 
#    0.000    0.000    0.000    0.000    0.000    0.000 
#
# Total GULP energy -247837.670684 kJ/mol
# GULP energy per Si atom -12391.883534 kJ/mol
# Density = 2.110167 g / cm^3
# Si number density = 21.149806 Si / 1000 Ang^3
#
#
#
# Elastic Constant Matrix: (Units=GPa)
#
#
# Indices 1 2 3 4 5 6 
#
# 1 38.6838 -6.9678 1.2947 0.0000 -3.1039 0.0000
# 2 -6.9678 88.7335 17.3632 0.0000 -6.5537 0.0000
# 3 1.2947 17.3632 73.1601 0.0000 -8.7109 0.0000
# 4 0.0000 0.0000 0.0000 16.5324 0.0000 -2.2187
# 5 -3.1039 -6.5537 -8.7109 0.0000 24.4799 0.0000
# 6 0.0000 0.0000 0.0000 -2.2187 0.0000 15.3304
#
#
#
# Elastic Compliance Matrix: (Units=1/GPa)
#
#
# Indices 1 2 3 4 5 6 
#
# 1 0.026627 0.002492 -0.000607 0.000000 0.003827 0.000000
# 2 0.002492 0.012173 -0.002618 0.000000 0.002643 0.000000
# 3 -0.000607 -0.002618 0.014837 0.000000 0.004502 0.000000
# 4 0.000000 0.000000 0.000000 0.061685 0.000000 0.008928
# 5 0.003827 0.002643 0.004502 0.000000 0.043645 0.000000
# 6 0.000000 0.000000 0.000000 0.008928 0.000000 0.066522
#
#
# Mechanical properties :
#
#
# Convention : Reuss Voigt Hill
#
# Bulk Modulus (GPa) = 19.16787 24.88416 22.02602
# Shear Modulus (GPa) = 20.46289 23.86105 22.16197
#
# Velocity S-wave (km/s) = 3.11388 3.36250 3.24057
# Velocity P-wave (km/s) = 4.69157 5.18328 4.94355
#
# Compressibility (1/GPa) = 0.05217063
#
# Stress axis : x y z
#
# Youngs Moduli (GPa) = 37.55588 82.14899 67.39994
#
# Poissons Ratio (x) = -0.20474 0.04091
# Poissons Ratio (y) = -0.09360 0.17648
# Poissons Ratio (z) = 0.02280 0.21510
#
# Static dielectric constant tensor:
#      x y z
#    x 4.002310 0.000000 -0.088250 
#    y 0.000000 3.232440 0.000000 
#    z -0.088250 0.000000 3.862580 
# 
# 
# High freq. dielectric constant tensor:
#      x y z
#    x 1.828210 0.000000 -0.012920 
#    y 0.000000 1.765470 0.000000 
#    z -0.012920 0.000000 1.835490 
# 
# From -- ./inp_files/61372.got.cif
#   From: 2010.06.25/outbox.cif.g09.slc.cpg/sg12_31_cif.got.tgz:61372.got - 2010.06.28 00:19:55.
