data_PCOD8083988
_publ_section_title
;
Structure prediction by ZEFSAII (Michael W. Deem and Ramdas Pophale) SiO2 
 PCOD8083988
Probable space group: C 2/M
;
_chemical_formula_sum "Si O2"
_cell_formula_units_Z 56
_cell_length_a 32.287460
_cell_length_b 13.236754
_cell_length_c 9.574940
_cell_angle_alpha 90.000000
_cell_angle_beta 126.322822
_cell_angle_gamma 90.000000
_cell_volume 3297.013395
_symmetry_space_group_name_H-M "C 2/M"
_symmetry_group_IT_number 12
_symmetry_cell_setting 'monoclinic'
loop_
_space_group_symop_operation_xyz
x,y,z
-x,y,-z
-x,-y,-z
x,-y,z
1/2+x,1/2+y,z
1/2-x,1/2+y,-z
1/2-x,1/2-y,-z
1/2+x,1/2-y,z
loop_
_atom_site_type_symbol
_atom_site_label
_atom_site_fract_x
_atom_site_fract_y
_atom_site_fract_z
Si Si1 0.810975 0.118400 0.863860
Si Si2 0.450433 0.884440 0.987868
Si Si3 0.652351 0.786174 0.859508
Si Si4 0.705384 0.218723 0.673562
Si Si5 0.345919 0.226796 0.716767
Si Si6 0.781511 0.387427 0.795381
Si Si7 0.951132 0.615080 0.312262
O O1 0.749211 0.134108 0.733136
O O2 0.837580 0.165070 0.777563
O O3 0.824052 0.000000 0.900532
O O4 0.833237 0.177009 0.044942
O O5 0.403359 0.811542 0.856738
O O6 0.435178 0.000000 0.920097
O O7 0.500000 0.849210 0.000000
O O8 0.465323 0.873812 0.178741
O O9 0.675201 0.804747 0.753397
O O10 0.591652 0.803155 0.730135
O O11 0.673186 0.875161 0.001365
O O12 0.664058 0.230221 0.467731
O O13 0.732321 0.326223 0.748070
O O14 0.302983 0.150357 0.690279
O O15 0.762610 0.500000 0.741847
O O16 0.933796 0.500000 0.311861
O O17 0.000000 0.645982 0.500000
#
# Coordination Sequence:
#
# PCOD8083988 Si02
#       7
#     8   8   8   8   8   8   8
#     4  10  20  36  55  74 103 144 184 215 249 303
#     4  10  20  35  55  80 105 132 168 210 264 320
#     4  10  20  35  52  77 108 140 171 214 263 311
#     4  10  22  32  48  81 109 135 178 213 255 307
#     4  10  20  35  52  77 108 140 171 214 263 311
#     4  10  18  34  55  71 104 145 174 212 258 308
#     4  10  20  35  55  80 105 132 168 210 264 320
#
# _framework density 16.98507
#
# number of rings (size 3 to 8) (size 9 to 14) (size 15 to 20)
#    0.000    2.286    2.857    4.286    2.000    5.714 
#    0.000    0.000    0.000    0.857    0.000    0.000 
#    0.000    0.000    0.000    0.000    0.000    0.000 
#
# Total GULP energy -347123.626352 kJ/mol
# GULP energy per Si atom -12397.272370 kJ/mol
# Density = 1.694641 g / cm^3
# Si number density = 16.985070 Si / 1000 Ang^3
#
#
#
# Elastic Constant Matrix: (Units=GPa)
#
#
# Indices 1 2 3 4 5 6 
#
# 1 93.9409 32.2397 31.1135 0.0000 3.6073 0.0000
# 2 32.2397 96.6394 25.4978 0.0000 3.3614 0.0000
# 3 31.1135 25.4978 101.3472 0.0000 9.6235 0.0000
# 4 0.0000 0.0000 0.0000 10.3212 0.0000 2.2364
# 5 3.6073 3.3614 9.6235 0.0000 23.7940 0.0000
# 6 0.0000 0.0000 0.0000 2.2364 0.0000 13.0016
#
#
#
# Elastic Compliance Matrix: (Units=1/GPa)
#
#
# Indices 1 2 3 4 5 6 
#
# 1 0.012857 -0.003476 -0.003051 0.000000 -0.000224 0.000000
# 2 -0.003476 0.012028 -0.001921 0.000000 -0.000395 0.000000
# 3 -0.003051 -0.001921 0.011666 0.000000 -0.003984 0.000000
# 4 0.000000 0.000000 0.000000 0.100639 0.000000 -0.017311
# 5 -0.000224 -0.000395 -0.003984 0.000000 0.043729 0.000000
# 6 0.000000 0.000000 0.000000 -0.017311 0.000000 0.079892
#
#
# Mechanical properties :
#
#
# Convention : Reuss Voigt Hill
#
# Bulk Modulus (GPa) = 50.88327 52.18105 51.53216
# Shear Modulus (GPa) = 17.58958 22.96178 20.27568
#
# Velocity S-wave (km/s) = 3.22155 3.68078 3.45880
# Velocity P-wave (km/s) = 6.62273 6.98946 6.80857
#
# Compressibility (1/GPa) = 0.01965282
#
# Stress axis : x y z
#
# Youngs Moduli (GPa) = 77.77708 83.13796 85.72270
#
# Poissons Ratio (x) = 0.28902 0.26156
# Poissons Ratio (y) = 0.27039 0.16471
# Poissons Ratio (z) = 0.23732 0.15974
#
# Static dielectric constant tensor:
#      x y z
#    x 3.132870 0.000000 -0.063630 
#    y 0.000000 3.000140 0.000000 
#    z -0.063630 0.000000 3.232900 
# 
# 
# High freq. dielectric constant tensor:
#      x y z
#    x 1.649940 0.000000 -0.008790 
#    y 0.000000 1.630940 0.000000 
#    z -0.008790 0.000000 1.660740 
# 
# From -- ./inp_files/111316.got.cif
#   From: 2010.06.25/outbox.cif.g09.slc.cpg/sg12_56_cif.got.tgz:111316.got - 2010.06.28 00:19:55.
