data_PCOD8083346
_publ_section_title
;
Structure prediction by ZEFSAII (Michael W. Deem and Ramdas Pophale) SiO2 
 PCOD8083346
Probable space group: C 2/M
;
_chemical_formula_sum "Si O2"
_cell_formula_units_Z 60
_cell_length_a 22.505374
_cell_length_b 14.157889
_cell_length_c 11.453741
_cell_angle_alpha 90.000000
_cell_angle_beta 123.377143
_cell_angle_gamma 90.000000
_cell_volume 3047.569550
_symmetry_space_group_name_H-M "C 2/M"
_symmetry_group_IT_number 12
_symmetry_cell_setting 'monoclinic'
loop_
_space_group_symop_operation_xyz
x,y,z
-x,y,-z
-x,-y,-z
x,-y,z
1/2+x,1/2+y,z
1/2-x,1/2+y,-z
1/2-x,1/2-y,-z
1/2+x,1/2-y,z
loop_
_atom_site_type_symbol
_atom_site_label
_atom_site_fract_x
_atom_site_fract_y
_atom_site_fract_z
Si Si1 0.000000 0.160524 0.500000
Si Si2 0.372404 0.102989 0.386921
Si Si3 0.704342 0.108954 0.128865
Si Si4 0.967249 0.695618 0.667136
Si Si5 0.621895 0.797317 0.843535
Si Si6 0.158632 0.284569 0.298213
Si Si7 0.139091 0.895927 0.766813
Si Si8 0.745586 0.607539 0.419972
O O1 0.022748 0.216475 0.408520
O O2 0.070027 0.100312 0.608142
O O3 0.433384 0.113160 0.551367
O O4 0.376886 0.182970 0.294273
O O5 0.295764 0.111665 0.362258
O O6 0.382090 0.000000 0.339795
O O7 0.658812 0.173801 0.167946
O O8 0.789368 0.123198 0.232698
O O9 0.682526 0.000000 0.122028
O O10 0.682151 0.144996 0.975869
O O11 0.918519 0.714133 0.726706
O O12 0.044141 0.669305 0.804164
O O13 0.633026 0.683612 0.862047
O O14 0.214763 0.351076 0.424770
O O15 0.178845 0.174022 0.319473
O O16 0.146425 0.000000 0.833837
O O17 0.720837 0.500000 0.419496
#
# Coordination Sequence:
#
# PCOD8083346 Si02
#       8
#     4   8   8   8   8   8   8   8
#     4  10  19  38  59  88 114 144 185 238 297 340
#     4  10  18  32  56  83 110 144 192 244 288 331
#     4  11  24  39  57  85 117 157 194 228 282 351
#     4  10  20  36  58  83 114 148 190 241 290 336
#     4  11  21  38  57  81 118 151 192 234 284 339
#     4  10  21  36  55  80 119 151 187 239 284 335
#     4  10  21  37  60  87 115 148 189 237 289 337
#     4   9  19  34  57  83 109 145 190 238 294 341
#
# _framework density 19.687821
#
# number of rings (size 3 to 8) (size 9 to 14) (size 15 to 20)
#    0.000    1.867    2.667    2.200    3.733    2.667 
#    0.000    5.333    0.000    0.000    0.000    4.667 
#    0.000    0.000    0.000    0.000    0.000    0.000 
#
# Total GULP energy -371865.073853 kJ/mol
# GULP energy per Si atom -12395.502462 kJ/mol
# Density = 1.964301 g / cm^3
# Si number density = 19.687821 Si / 1000 Ang^3
#
#
#
# Elastic Constant Matrix: (Units=GPa)
#
#
# Indices 1 2 3 4 5 6 
#
# 1 108.4680 39.5908 42.9365 0.0000 5.1408 0.0000
# 2 39.5908 119.0263 28.2001 0.0000 2.7522 0.0000
# 3 42.9365 28.2001 58.2466 0.0000 10.8380 0.0000
# 4 0.0000 0.0000 0.0000 21.0423 0.0000 1.1658
# 5 5.1408 2.7522 10.8380 0.0000 22.0924 0.0000
# 6 0.0000 0.0000 0.0000 1.1658 0.0000 14.2876
#
#
#
# Elastic Compliance Matrix: (Units=1/GPa)
#
#
# Indices 1 2 3 4 5 6 
#
# 1 0.013666 -0.002400 -0.009217 0.000000 0.001641 0.000000
# 2 -0.002400 0.009939 -0.003210 0.000000 0.000895 0.000000
# 3 -0.009217 -0.003210 0.027559 0.000000 -0.010975 0.000000
# 4 0.000000 0.000000 0.000000 0.047739 0.000000 -0.003895
# 5 0.001641 0.000895 -0.010975 0.000000 0.050155 0.000000
# 6 0.000000 0.000000 0.000000 -0.003895 0.000000 0.070309
#
#
# Mechanical properties :
#
#
# Convention : Reuss Voigt Hill
#
# Bulk Modulus (GPa) = 46.48796 56.35509 51.42153
# Shear Modulus (GPa) = 19.51661 23.15203 21.33432
#
# Velocity S-wave (km/s) = 3.15191 3.43294 3.29543
# Velocity P-wave (km/s) = 6.07535 6.66333 6.37612
#
# Compressibility (1/GPa) = 0.02151094
#
# Stress axis : x y z
#
# Youngs Moduli (GPa) = 73.17351 100.60883 36.28551
#
# Poissons Ratio (x) = 0.24144 0.33446
# Poissons Ratio (y) = 0.17560 0.11647
# Poissons Ratio (z) = 0.67447 0.32292
#
# Static dielectric constant tensor:
#      x y z
#    x 3.663270 0.000000 0.205660 
#    y 0.000000 3.663400 0.000000 
#    z 0.205660 0.000000 3.319420 
# 
# 
# High freq. dielectric constant tensor:
#      x y z
#    x 1.766950 0.000000 0.009730 
#    y 0.000000 1.772160 0.000000 
#    z 0.009730 0.000000 1.738390 
# 
# From -- ./inp_files/176190.got.cif
#   From: 2010.06.25/outbox.cif.g09.slc.cpg/sg12_89_cif.got.tgz:176190.got - 2010.06.28 00:19:55.
