data_PCOD8083790
_publ_section_title
;
Structure prediction by ZEFSAII (Michael W. Deem and Ramdas Pophale) SiO2 
 PCOD8083790
Probable space group: C 2/M
;
_chemical_formula_sum "Si O2"
_cell_formula_units_Z 40
_cell_length_a 18.799706
_cell_length_b 19.694491
_cell_length_c 6.284527
_cell_angle_alpha 90.000000
_cell_angle_beta 119.997337
_cell_angle_gamma 90.000000
_cell_volume 2015.165410
_symmetry_space_group_name_H-M "C 2/M"
_symmetry_group_IT_number 12
_symmetry_cell_setting 'monoclinic'
loop_
_space_group_symop_operation_xyz
x,y,z
-x,y,-z
-x,-y,-z
x,-y,z
1/2+x,1/2+y,z
1/2-x,1/2+y,-z
1/2-x,1/2-y,-z
1/2+x,1/2-y,z
loop_
_atom_site_type_symbol
_atom_site_label
_atom_site_fract_x
_atom_site_fract_y
_atom_site_fract_z
Si Si1 0.377099 0.925827 0.765409
Si Si2 0.816465 0.199506 0.502804
Si Si3 0.580782 0.186849 0.481762
Si Si4 0.206979 0.073264 0.271565
Si Si5 0.712939 0.132286 0.989386
O O1 0.432457 0.870948 0.720583
O O2 0.290967 0.930331 0.523345
O O3 0.357828 0.905073 0.979339
O O4 0.420908 0.000000 0.826803
O O5 0.750000 0.250000 0.500000
O O6 0.902218 0.239863 0.599973
O O7 0.841320 0.137095 0.697881
O O8 0.776169 0.175391 0.222826
O O9 0.500000 0.190033 0.500000
O O10 0.662684 0.176747 0.744532
O O11 0.160769 0.000000 0.229646
O O12 0.227921 0.081556 0.053278
#
# Coordination Sequence:
#
# PCOD8083790 Si02
#       5
#     8   8   8   8   8
#     4   9  18  33  50  74 107 142 177 210 248 306
#     4  11  19  36  56  78 105 137 176 217 256 305
#     4  11  23  35  50  78 109 139 176 217 260 307
#     4   9  18  31  54  81 103 130 175 222 256 301
#     4  10  18  33  58  75 104 138 177 212 260 305
#
# _framework density 19.849485999999999
#
# number of rings (size 3 to 8) (size 9 to 14) (size 15 to 20)
#    0.000    2.000    6.000    1.200    0.000    2.800 
#    0.000    1.000    0.000    0.600    0.000    1.400 
#    0.000    0.000    0.000    0.000    0.000    0.000 
#
# Total GULP energy -247794.107550 kJ/mol
# GULP energy per Si atom -12389.705377 kJ/mol
# Density = 1.980431 g / cm^3
# Si number density = 19.849486 Si / 1000 Ang^3
#
#
#
# Elastic Constant Matrix: (Units=GPa)
#
#
# Indices 1 2 3 4 5 6 
#
# 1 73.1386 66.5630 16.4107 0.0000 -29.2660 0.0000
# 2 66.5630 180.9571 34.8174 0.0000 -34.9937 0.0000
# 3 16.4107 34.8174 69.6014 0.0000 -30.9879 0.0000
# 4 0.0000 0.0000 0.0000 -53.4809 0.0000 -8.3859
# 5 -29.2660 -34.9937 -30.9879 0.0000 30.2268 0.0000
# 6 0.0000 0.0000 0.0000 -8.3859 0.0000 16.4429
#
#
#
# Elastic Compliance Matrix: (Units=1/GPa)
#
#
# Indices 1 2 3 4 5 6 
#
# 1 0.030780 -0.007081 0.010860 0.000000 0.032738 0.000000
# 2 -0.007081 0.008751 -0.002299 0.000000 0.000918 0.000000
# 3 0.010860 -0.002299 0.030269 0.000000 0.038885 0.000000
# 4 0.000000 0.000000 0.000000 -0.017314 0.000000 -0.008830
# 5 0.032738 0.000918 0.038885 0.000000 0.105707 0.000000
# 6 0.000000 0.000000 0.000000 -0.008830 0.000000 0.056313
#
#
# Mechanical properties :
#
#
# Convention : Reuss Voigt Hill
#
# Bulk Modulus (GPa) = 13.74370 62.14214 37.94292
# Shear Modulus (GPa) = 21.20444 12.36482 16.78463
#
# Velocity S-wave (km/s) = 3.27197 2.49856 2.91107
# Velocity P-wave (km/s) = 4.60580 6.30067 5.51869
#
# Compressibility (1/GPa) = 0.07276063
#
# Stress axis : x y z
#
# Youngs Moduli (GPa) = 32.48869 114.27758 33.03668
#
# Poissons Ratio (x) = 0.80917 -0.35879
# Poissons Ratio (y) = 0.23004 0.07596
# Poissons Ratio (z) = -0.35284 0.26276
#
# Static dielectric constant tensor:
#      x y z
#    x 3.337770 0.000000 -0.696510 
#    y 0.000000 5.372540 0.000000 
#    z -0.696510 0.000000 4.178490 
# 
# 
# High freq. dielectric constant tensor:
#      x y z
#    x 1.723330 0.000000 -0.038770 
#    y 0.000000 1.786820 0.000000 
#    z -0.038770 0.000000 1.773270 
# 
# From -- ./inp_files/11397.got.cif
#   From: 2010.06.25/outbox.cif.g09.slc.cpg/sg12_6_cif.got.tgz:11397.got - 2010.06.28 00:19:55.
