data_PCOD8083127
_publ_section_title
;
Structure prediction by ZEFSAII (Michael W. Deem and Ramdas Pophale) SiO2 
 PCOD8083127
Probable space group: C 2/M
;
_chemical_formula_sum "Si O2"
_cell_formula_units_Z 64
_cell_length_a 14.781253
_cell_length_b 9.252239
_cell_length_c 29.758350
_cell_angle_alpha 90.000000
_cell_angle_beta 61.064331
_cell_angle_gamma 90.000000
_cell_volume 3561.690142
_symmetry_space_group_name_H-M "C 2/M"
_symmetry_group_IT_number 12
_symmetry_cell_setting 'monoclinic'
loop_
_space_group_symop_operation_xyz
x,y,z
-x,y,-z
-x,-y,-z
x,-y,z
1/2+x,1/2+y,z
1/2-x,1/2+y,-z
1/2-x,1/2-y,-z
1/2+x,1/2-y,z
loop_
_atom_site_type_symbol
_atom_site_label
_atom_site_fract_x
_atom_site_fract_y
_atom_site_fract_z
Si Si1 0.768909 0.328773 0.365848
Si Si2 0.456949 0.829088 0.810894
Si Si3 0.960238 0.170405 0.558379
Si Si4 0.184047 0.669735 0.074944
Si Si5 0.686650 0.171205 0.744679
Si Si6 0.958956 0.329409 0.377801
Si Si7 0.873805 0.329478 0.736203
Si Si8 0.889248 0.330881 0.006173
O O1 0.773936 0.500000 0.363388
O O2 0.656859 0.273114 0.408060
O O3 0.796783 0.269669 0.309851
O O4 0.852926 0.272362 0.381196
O O5 0.385784 0.767267 0.867860
O O6 0.574920 0.781136 0.789750
O O7 0.421786 0.771276 0.770942
O O8 0.450042 0.000000 0.812836
O O9 0.032051 0.248911 0.577183
O O10 0.000000 0.215313 0.500000
O O11 0.968010 0.000000 0.564567
O O12 0.205199 0.500000 0.074380
O O13 0.120122 0.703357 0.044717
O O14 0.294784 0.747590 0.052429
O O15 0.765723 0.249085 0.758399
O O16 0.703150 0.000000 0.742698
O O17 0.957119 0.500000 0.386618
O O18 0.052606 0.284903 0.322643
O O19 0.856177 0.500000 0.741499
O O20 0.875378 0.500000 0.019351
O O21 0.000000 0.278302 0.000000
#
# Coordination Sequence:
#
# PCOD8083127 Si02
#       8
#     8   8   8   8   8   8   8   8
#     4   9  17  32  53  73  97 132 166 196 245 306
#     4   9  18  33  52  74 103 136 171 204 246 308
#     4  10  21  36  53  75 103 131 164 211 258 298
#     4   9  18  33  52  75 102 135 172 210 250 301
#     4  10  18  32  54  75  97 134 173 201 242 308
#     4  10  19  33  54  74  96 130 169 204 243 300
#     4  10  19  32  50  74 100 128 164 209 251 288
#     4   9  18  33  53  75 103 136 171 213 259 298
#
# _framework density 17.968997999999999
#
# number of rings (size 3 to 8) (size 9 to 14) (size 15 to 20)
#    0.000    2.500    2.500    0.000    0.000    2.000 
#    0.000    4.375    0.000    0.000    0.000    0.000 
#    0.000    0.000    0.000    0.000    0.000    0.000 
#
# Total GULP energy -396774.991197 kJ/mol
# GULP energy per Si atom -12399.218475 kJ/mol
# Density = 1.792810 g / cm^3
# Si number density = 17.968998 Si / 1000 Ang^3
#
#
#
# Elastic Constant Matrix: (Units=GPa)
#
#
# Indices 1 2 3 4 5 6 
#
# 1 115.8791 23.3188 23.2839 0.0000 -9.1363 0.0000
# 2 23.3188 21.3384 19.7216 0.0000 -0.7521 0.0000
# 3 23.2839 19.7216 97.4947 0.0000 -10.2349 0.0000
# 4 0.0000 0.0000 0.0000 18.5434 0.0000 -0.0690
# 5 -9.1363 -0.7521 -10.2349 0.0000 27.7692 0.0000
# 6 0.0000 0.0000 0.0000 -0.0690 0.0000 26.8850
#
#
#
# Elastic Compliance Matrix: (Units=1/GPa)
#
#
# Indices 1 2 3 4 5 6 
#
# 1 0.011378 -0.012468 0.000169 0.000000 0.003468 0.000000
# 2 -0.012468 0.071519 -0.012188 0.000000 -0.006657 0.000000
# 3 0.000169 -0.012188 0.013163 0.000000 0.004577 0.000000
# 4 0.000000 0.000000 0.000000 0.053928 0.000000 0.000138
# 5 0.003468 -0.006657 0.004577 0.000000 0.038659 0.000000
# 6 0.000000 0.000000 0.000000 0.000138 0.000000 0.037196
#
#
# Mechanical properties :
#
#
# Convention : Reuss Voigt Hill
#
# Bulk Modulus (GPa) = 21.23827 40.81788 31.02807
# Shear Modulus (GPa) = 17.21096 25.86539 21.53818
#
# Velocity S-wave (km/s) = 3.09822 3.79812 3.46588
# Velocity P-wave (km/s) = 4.96424 6.48069 5.77248
#
# Compressibility (1/GPa) = 0.04708482
#
# Stress axis : x y z
#
# Youngs Moduli (GPa) = 87.88760 13.98228 75.97261
#
# Poissons Ratio (x) = 0.17433 -0.01282
# Poissons Ratio (y) = 1.09577 0.92599
# Poissons Ratio (z) = -0.01483 0.17042
#
# Static dielectric constant tensor:
#      x y z
#    x 3.474280 0.000000 -0.043650 
#    y 0.000000 2.962370 0.000000 
#    z -0.043650 0.000000 3.458090 
# 
# 
# High freq. dielectric constant tensor:
#      x y z
#    x 1.707760 0.000000 -0.001540 
#    y 0.000000 1.661230 0.000000 
#    z -0.001540 0.000000 1.697530 
# 
# From -- ./inp_files/335240.got.cif
#   From: 2010.06.25/outbox.cif.g09.slc.cpg/sg12_168_cif.got.tgz:335240.got - 2010.06.28 00:19:55.
