data_PCOD8083897
_publ_section_title
;
Structure prediction by ZEFSAII (Michael W. Deem and Ramdas Pophale) SiO2 
 PCOD8083897
Probable space group: C 2/M
;
_chemical_formula_sum "Si O2"
_cell_formula_units_Z 56
_cell_length_a 28.294607
_cell_length_b 13.603721
_cell_length_c 9.511130
_cell_angle_alpha 90.000000
_cell_angle_beta 52.834156
_cell_angle_gamma 90.000000
_cell_volume 2917.373177
_symmetry_space_group_name_H-M "C 2/M"
_symmetry_group_IT_number 12
_symmetry_cell_setting 'monoclinic'
loop_
_space_group_symop_operation_xyz
x,y,z
-x,y,-z
-x,-y,-z
x,-y,z
1/2+x,1/2+y,z
1/2-x,1/2+y,-z
1/2-x,1/2-y,-z
1/2+x,1/2-y,z
loop_
_atom_site_type_symbol
_atom_site_label
_atom_site_fract_x
_atom_site_fract_y
_atom_site_fract_z
Si Si1 0.335173 0.383412 0.681102
Si Si2 0.851330 0.607267 0.779407
Si Si3 0.734246 0.223994 0.683480
Si Si4 0.223701 0.885645 0.916188
Si Si5 0.132024 0.606420 0.941081
Si Si6 0.997279 0.615814 0.838669
Si Si7 0.555090 0.249048 0.501944
O O1 0.335847 0.500000 0.650619
O O2 0.288710 0.332392 0.659248
O O3 0.402256 0.341727 0.536754
O O4 0.315337 0.360351 0.876902
O O5 0.869678 0.500000 0.689749
O O6 0.792430 0.644775 0.809819
O O7 0.906753 0.676450 0.660924
O O8 0.832786 0.600840 0.975386
O O9 0.750000 0.250000 0.500000
O O10 0.706081 0.316583 0.818552
O O11 0.676282 0.158776 0.756332
O O12 0.216395 0.000000 0.889600
O O13 0.119157 0.500000 0.897110
O O14 0.068173 0.653663 0.084718
O O15 0.009492 0.500000 0.778671
O O16 0.038968 0.689620 0.674273
O O17 0.000000 0.634172 0.000000
O O18 0.500000 0.281257 0.500000
#
# Coordination Sequence:
#
# PCOD8083897 Si02
#       7
#     8   8   8   8   8   8   8
#     4  11  24  43  63  86 120 160 203 252 301 353
#     4  10  18  33  60  91 117 144 189 249 303 350
#     4  12  24  37  62  93 123 157 194 243 303 367
#     4  10  21  39  63  88 116 153 198 246 301 358
#     4  10  20  36  59  87 118 153 192 240 298 355
#     4  10  23  39  57  85 123 160 195 239 297 361
#     4  12  23  36  61  89 115 155 203 251 294 354
#
# _framework density 19.195352
#
# number of rings (size 3 to 8) (size 9 to 14) (size 15 to 20)
#    0.000    1.286    4.286    2.143    2.000    2.000 
#    0.000    0.000    0.000    0.429    0.000    0.000 
#    0.000    0.000    0.000    0.000    0.000    0.000 
#
# Total GULP energy -346915.691910 kJ/mol
# GULP energy per Si atom -12389.846140 kJ/mol
# Density = 1.915166 g / cm^3
# Si number density = 19.195352 Si / 1000 Ang^3
#
#
#
# Elastic Constant Matrix: (Units=GPa)
#
#
# Indices 1 2 3 4 5 6 
#
# 1 64.2223 48.8099 39.3438 0.0000 -6.5949 0.0000
# 2 48.8099 98.3610 66.7680 0.0000 -5.3226 0.0000
# 3 39.3438 66.7680 121.0051 0.0000 2.0361 0.0000
# 4 0.0000 0.0000 0.0000 31.7563 0.0000 -13.9555
# 5 -6.5949 -5.3226 2.0361 0.0000 34.1030 0.0000
# 6 0.0000 0.0000 0.0000 -13.9555 0.0000 21.3442
#
#
#
# Elastic Compliance Matrix: (Units=1/GPa)
#
#
# Indices 1 2 3 4 5 6 
#
# 1 0.025702 -0.010966 -0.002363 0.000000 0.003400 0.000000
# 2 -0.010966 0.021263 -0.008195 0.000000 0.001687 0.000000
# 3 -0.002363 -0.008195 0.013597 0.000000 -0.002548 0.000000
# 4 0.000000 0.000000 0.000000 0.044186 0.000000 0.028890
# 5 0.003400 0.001687 -0.002548 0.000000 0.030396 0.000000
# 6 0.000000 0.000000 0.000000 0.028890 0.000000 0.065741
#
#
# Mechanical properties :
#
#
# Convention : Reuss Voigt Hill
#
# Bulk Modulus (GPa) = 57.09982 65.93689 61.51835
# Shear Modulus (GPa) = 20.01836 26.01847 23.01842
#
# Velocity S-wave (km/s) = 3.23286 3.68565 3.46665
# Velocity P-wave (km/s) = 6.61411 7.24824 6.93842
#
# Compressibility (1/GPa) = 0.01751319
#
# Stress axis : x y z
#
# Youngs Moduli (GPa) = 38.90713 47.03108 73.54456
#
# Poissons Ratio (x) = 0.51575 0.17380
# Poissons Ratio (y) = 0.42666 0.60270
# Poissons Ratio (z) = 0.09194 0.38542
#
# Static dielectric constant tensor:
#      x y z
#    x 3.615420 0.000000 -0.201020 
#    y 0.000000 3.650110 0.000000 
#    z -0.201020 0.000000 3.408770 
# 
# 
# High freq. dielectric constant tensor:
#      x y z
#    x 1.741370 0.000000 -0.010910 
#    y 0.000000 1.744020 0.000000 
#    z -0.010910 0.000000 1.742370 
# 
# From -- ./inp_files/86361.got.cif
#   From: 2010.06.25/outbox.cif.g09.slc.cpg/sg12_44_cif.got.tgz:86361.got - 2010.06.28 00:19:55.
