data_PCOD8083166
_publ_section_title
;
Structure prediction by ZEFSAII (Michael W. Deem and Ramdas Pophale) SiO2 
 PCOD8083166
Probable space group: C 2/M
;
_chemical_formula_sum "Si O2"
_cell_formula_units_Z 64
_cell_length_a 20.807850
_cell_length_b 9.241313
_cell_length_c 24.676586
_cell_angle_alpha 90.000000
_cell_angle_beta 133.036773
_cell_angle_gamma 90.000000
_cell_volume 3468.273485
_symmetry_space_group_name_H-M "C 2/M"
_symmetry_group_IT_number 12
_symmetry_cell_setting 'monoclinic'
loop_
_space_group_symop_operation_xyz
x,y,z
-x,y,-z
-x,-y,-z
x,-y,z
1/2+x,1/2+y,z
1/2-x,1/2+y,-z
1/2-x,1/2-y,-z
1/2+x,1/2-y,z
loop_
_atom_site_type_symbol
_atom_site_label
_atom_site_fract_x
_atom_site_fract_y
_atom_site_fract_z
Si Si1 0.572002 0.671482 0.297305
Si Si2 0.580147 0.328697 0.581364
Si Si3 0.336620 0.338547 0.803817
Si Si4 0.182802 0.336090 0.996457
Si Si5 0.773739 0.329140 0.665385
Si Si6 0.747212 0.164106 0.154910
Si Si7 0.978005 0.159982 0.133051
Si Si8 0.565339 0.329729 0.694808
O O1 0.590344 0.500000 0.307683
O O2 0.666891 0.751003 0.346600
O O3 0.510583 0.713222 0.210879
O O4 0.521631 0.725438 0.322745
O O5 0.500000 0.264507 0.500000
O O6 0.572569 0.500000 0.582177
O O7 0.670211 0.289150 0.601316
O O8 0.573895 0.262698 0.639015
O O9 0.296613 0.500000 0.771992
O O10 0.300262 0.225825 0.739551
O O11 0.313314 0.277145 0.848789
O O12 0.441018 0.348035 0.861275
O O13 0.179457 0.500000 0.974776
O O14 0.086892 0.271442 0.932320
O O15 0.250000 0.250000 0.000000
O O16 0.217023 0.323039 0.076568
O O17 0.789530 0.500000 0.670187
O O18 0.848807 0.211240 0.220719
O O19 0.734352 0.000000 0.169224
O O20 0.934492 0.000000 0.113910
O O21 0.556132 0.500000 0.684935
#
# Coordination Sequence:
#
# PCOD8083166 Si02
#       8
#     8   8   8   8   8   8   8   8
#     4   9  18  33  55  78 104 143 184 220 263 318
#     4   9  17  30  53  83 108 137 178 219 261 314
#     4  10  20  34  54  79 104 136 175 217 264 319
#     4  11  23  36  52  73 102 138 178 223 270 321
#     4  10  18  32  54  79 110 141 175 221 264 314
#     4  10  20  35  54  76 101 135 179 221 264 312
#     4   9  19  35  51  71 103 138 176 217 263 318
#     4   9  16  31  54  77 103 137 179 221 260 311
#
# _framework density 18.452985000000002
#
# number of rings (size 3 to 8) (size 9 to 14) (size 15 to 20)
#    0.000    2.375    1.250    2.625    0.000    6.000 
#    0.000    3.750    0.000    1.500    0.000    0.000 
#    0.000    0.000    0.000    0.000    0.000    0.000 
#
# Total GULP energy -396636.426395 kJ/mol
# GULP energy per Si atom -12394.888325 kJ/mol
# Density = 1.841099 g / cm^3
# Si number density = 18.452985 Si / 1000 Ang^3
#
#
#
# Elastic Constant Matrix: (Units=GPa)
#
#
# Indices 1 2 3 4 5 6 
#
# 1 134.8222 48.9548 50.7883 0.0000 4.2452 0.0000
# 2 48.9548 66.6099 33.2878 0.0000 8.1971 0.0000
# 3 50.7883 33.2878 88.5213 0.0000 18.7890 0.0000
# 4 0.0000 0.0000 0.0000 14.8474 0.0000 3.9072
# 5 4.2452 8.1971 18.7890 0.0000 22.8320 0.0000
# 6 0.0000 0.0000 0.0000 3.9072 0.0000 33.0450
#
#
#
# Elastic Compliance Matrix: (Units=1/GPa)
#
#
# Indices 1 2 3 4 5 6 
#
# 1 0.011563 -0.006474 -0.005133 0.000000 0.004399 0.000000
# 2 -0.006474 0.022135 -0.003850 0.000000 -0.003574 0.000000
# 3 -0.005133 -0.003850 0.018409 0.000000 -0.012813 0.000000
# 4 0.000000 0.000000 0.000000 0.069515 0.000000 -0.008219
# 5 0.004399 -0.003574 -0.012813 0.000000 0.054807 0.000000
# 6 0.000000 0.000000 0.000000 -0.008219 0.000000 0.031234
#
#
# Mechanical properties :
#
#
# Convention : Reuss Voigt Hill
#
# Bulk Modulus (GPa) = 47.18866 61.77947 54.48406
# Shear Modulus (GPa) = 20.35461 24.60637 22.48049
#
# Velocity S-wave (km/s) = 3.32483 3.65562 3.49414
# Velocity P-wave (km/s) = 6.35352 7.16730 6.77264
#
# Compressibility (1/GPa) = 0.02119153
#
# Stress axis : x y z
#
# Youngs Moduli (GPa) = 86.48020 45.17675 54.31989
#
# Poissons Ratio (x) = 0.29249 0.27884
# Poissons Ratio (y) = 0.55991 0.20916
# Poissons Ratio (z) = 0.44394 0.17395
#
# Static dielectric constant tensor:
#      x y z
#    x 3.721250 0.000000 0.099320 
#    y 0.000000 3.213750 0.000000 
#    z 0.099320 0.000000 3.350950 
# 
# 
# High freq. dielectric constant tensor:
#      x y z
#    x 1.728910 0.000000 0.005160 
#    y 0.000000 1.694360 0.000000 
#    z 0.005160 0.000000 1.695380 
# 
# From -- ./inp_files/346217.got.cif
#   From: 2010.06.25/outbox.cif.g09.slc.cpg/sg12_174_cif.got.tgz:346217.got - 2010.06.28 00:19:55.
