data_PCOD8083651
_publ_section_title
;
Structure prediction by ZEFSAII (Michael W. Deem and Ramdas Pophale) SiO2 
 PCOD8083651
Probable space group: C 2/M
;
_chemical_formula_sum "Si O2"
_cell_formula_units_Z 64
_cell_length_a 9.011890
_cell_length_b 19.316427
_cell_length_c 19.583228
_cell_angle_alpha 90.000000
_cell_angle_beta 87.492141
_cell_angle_gamma 90.000000
_cell_volume 3405.734631
_symmetry_space_group_name_H-M "C 2/M"
_symmetry_group_IT_number 12
_symmetry_cell_setting 'monoclinic'
loop_
_space_group_symop_operation_xyz
x,y,z
-x,y,-z
-x,-y,-z
x,-y,z
1/2+x,1/2+y,z
1/2-x,1/2+y,-z
1/2-x,1/2-y,-z
1/2+x,1/2-y,z
loop_
_atom_site_type_symbol
_atom_site_label
_atom_site_fract_x
_atom_site_fract_y
_atom_site_fract_z
Si Si1 0.593372 0.206699 0.757910
Si Si2 0.592626 0.079184 0.204857
Si Si3 0.395336 0.319233 0.821814
Si Si4 0.877079 0.725948 0.548038
Si Si5 0.869251 0.580474 0.952938
Si Si6 0.898082 0.805461 0.367381
Si Si7 0.161433 0.816738 0.021772
Si Si8 0.916804 0.920454 0.260465
O O1 0.519787 0.130802 0.755187
O O2 0.512831 0.256192 0.814952
O O3 0.764081 0.199585 0.773352
O O4 0.589118 0.240330 0.683505
O O5 0.592906 0.100027 0.125308
O O6 0.753561 0.089509 0.233605
O O7 0.537850 0.000000 0.215518
O O8 0.330788 0.330054 0.897974
O O9 0.469541 0.391629 0.798237
O O10 0.750000 0.750000 0.500000
O O11 0.775873 0.685506 0.605454
O O12 0.000000 0.682204 0.500000
O O13 0.976271 0.789444 0.577672
O O14 0.839024 0.500000 0.961561
O O15 0.719323 0.617048 0.979555
O O16 0.000000 0.606343 0.000000
O O17 0.937261 0.877470 0.329871
O O18 0.250000 0.750000 0.000000
O O19 0.000000 0.800974 0.000000
O O20 0.954225 0.000000 0.275132
#
# Coordination Sequence:
#
# PCOD8083651 Si02
#       8
#     8   8   8   8   8   8   8   8
#     4  11  20  34  54  78 106 134 175 221 269 321
#     4  10  20  35  53  74 104 140 178 224 280 332
#     4  11  22  34  52  75 103 137 177 231 281 329
#     4   9  18  32  55  84 112 136 167 209 245 293
#     4  10  21  37  54  71  97 136 180 227 280 338
#     4  10  18  33  55  82 107 140 176 211 259 305
#     4  12  23  35  52  73 100 135 179 229 284 340
#     4  10  21  36  54  78 110 145 180 223 274 324
#
# _framework density 18.791834000000001
#
# number of rings (size 3 to 8) (size 9 to 14) (size 15 to 20)
#    0.000    1.625    0.000    7.125    0.000    1.250 
#    0.000    0.000    0.000    3.750    0.000    3.500 
#    0.000    0.000    0.000    0.000    0.000    0.000 
#
# Total GULP energy -396675.569214 kJ/mol
# GULP energy per Si atom -12396.111538 kJ/mol
# Density = 1.874906 g / cm^3
# Si number density = 18.791834 Si / 1000 Ang^3
#
#
#
# Elastic Constant Matrix: (Units=GPa)
#
#
# Indices 1 2 3 4 5 6 
#
# 1 103.1650 44.4869 33.0615 0.0000 -5.9588 0.0000
# 2 44.4869 103.8893 46.3153 0.0000 -13.6801 0.0000
# 3 33.0615 46.3153 96.2562 0.0000 -7.2495 0.0000
# 4 0.0000 0.0000 0.0000 19.3564 0.0000 -5.3843
# 5 -5.9588 -13.6801 -7.2495 0.0000 41.8383 0.0000
# 6 0.0000 0.0000 0.0000 -5.3843 0.0000 37.1643
#
#
#
# Elastic Compliance Matrix: (Units=1/GPa)
#
#
# Indices 1 2 3 4 5 6 
#
# 1 0.012225 -0.004285 -0.002139 0.000000 -0.000031 0.000000
# 2 -0.004285 0.014146 -0.005099 0.000000 0.003132 0.000000
# 3 -0.002139 -0.005099 0.013606 0.000000 0.000386 0.000000
# 4 0.000000 0.000000 0.000000 0.053832 0.000000 0.007799
# 5 -0.000031 0.003132 0.000386 0.000000 0.024988 0.000000
# 6 0.000000 0.000000 0.000000 0.007799 0.000000 0.028037
#
#
# Mechanical properties :
#
#
# Convention : Reuss Voigt Hill
#
# Bulk Modulus (GPa) = 59.06561 61.22642 60.14601
# Shear Modulus (GPa) = 28.48596 31.63493 30.06045
#
# Velocity S-wave (km/s) = 3.89764 4.10743 4.00391
# Velocity P-wave (km/s) = 7.19411 7.42608 7.31102
#
# Compressibility (1/GPa) = 0.01693033
#
# Stress axis : x y z
#
# Youngs Moduli (GPa) = 81.80037 70.69060 73.49557
#
# Poissons Ratio (x) = 0.30292 0.15723
# Poissons Ratio (y) = 0.35053 0.37475
# Poissons Ratio (z) = 0.17500 0.36045
#
# Static dielectric constant tensor:
#      x y z
#    x 4.609700 0.000000 -0.294850 
#    y 0.000000 3.360930 0.000000 
#    z -0.294850 0.000000 3.766050 
# 
# 
# High freq. dielectric constant tensor:
#      x y z
#    x 1.747340 0.000000 0.000350 
#    y 0.000000 1.708820 0.000000 
#    z 0.000350 0.000000 1.735020 
# 
# From -- ./inp_files/300806.got.cif
#   From: 2010.06.25/outbox.cif.g09.slc.cpg/sg12_151_cif.got.tgz:300806.got - 2010.06.28 00:19:55.
