data_PCOD8083315
_publ_section_title
;
Structure prediction by ZEFSAII (Michael W. Deem and Ramdas Pophale) SiO2 
 PCOD8083315
Probable space group: C 2/M
;
_chemical_formula_sum "Si O2"
_cell_formula_units_Z 64
_cell_length_a 19.586288
_cell_length_b 9.383590
_cell_length_c 24.127091
_cell_angle_alpha 90.000000
_cell_angle_beta 51.344387
_cell_angle_gamma 90.000000
_cell_volume 3462.817756
_symmetry_space_group_name_H-M "C 2/M"
_symmetry_group_IT_number 12
_symmetry_cell_setting 'monoclinic'
loop_
_space_group_symop_operation_xyz
x,y,z
-x,y,-z
-x,-y,-z
x,-y,z
1/2+x,1/2+y,z
1/2-x,1/2+y,-z
1/2-x,1/2-y,-z
1/2+x,1/2-y,z
loop_
_atom_site_type_symbol
_atom_site_label
_atom_site_fract_x
_atom_site_fract_y
_atom_site_fract_z
Si Si1 0.496074 0.335198 0.334931
Si Si2 0.406271 0.664823 0.268591
Si Si3 0.830571 0.834763 0.483481
Si Si4 0.180610 0.168525 0.996881
Si Si5 0.763986 0.838343 0.633930
Si Si6 0.014584 0.167591 0.884833
Si Si7 0.317611 0.667122 0.728318
Si Si8 0.821501 0.165803 0.129922
O O1 0.502837 0.500000 0.347405
O O2 0.478756 0.311655 0.278836
O O3 0.419583 0.269468 0.412355
O O4 0.589977 0.265452 0.299656
O O5 0.383064 0.500000 0.272164
O O6 0.319238 0.740091 0.333341
O O7 0.442842 0.731484 0.192904
O O8 0.750000 0.750000 0.500000
O O9 0.832456 0.816039 0.549050
O O10 0.820330 0.000000 0.471249
O O11 0.198750 0.203285 0.923381
O O12 0.188117 0.000000 0.004777
O O13 0.250000 0.250000 0.000000
O O14 0.083091 0.229202 0.058217
O O15 0.812171 0.798997 0.666123
O O16 0.729562 0.000000 0.652667
O O17 0.077721 0.204015 0.904930
O O18 0.003906 0.000000 0.883724
O O19 0.309911 0.500000 0.745566
O O20 0.240746 0.744344 0.799489
O O21 0.804842 0.000000 0.150346
#
# Coordination Sequence:
#
# PCOD8083315 Si02
#       8
#     8   8   8   8   8   8   8   8
#     4   9  19  33  52  78 104 138 182 219 259 316
#     4  10  18  32  56  80 101 137 184 220 254 310
#     4  10  19  33  53  76 104 138 178 221 264 313
#     4  10  22  38  57  83 112 141 176 218 265 314
#     4  10  20  33  52  80 109 137 172 221 272 312
#     4   9  18  34  58  81 104 140 183 220 255 307
#     4  10  21  36  54  79 111 142 174 217 269 319
#     4  10  20  37  59  81 105 140 183 221 258 308
#
# _framework density 18.482059
#
# number of rings (size 3 to 8) (size 9 to 14) (size 15 to 20)
#    0.000    2.250    2.500    0.375    1.750    2.500 
#    0.000    5.000    0.000    1.500    0.000    2.625 
#    0.000    0.000    0.000    0.000    0.000    0.000 
#
# Total GULP energy -396736.913862 kJ/mol
# GULP energy per Si atom -12398.028558 kJ/mol
# Density = 1.843999 g / cm^3
# Si number density = 18.482059 Si / 1000 Ang^3
#
#
#
# Elastic Constant Matrix: (Units=GPa)
#
#
# Indices 1 2 3 4 5 6 
#
# 1 134.7457 37.6764 53.2536 0.0000 -2.7375 -0.0001
# 2 37.6764 36.4706 29.4447 0.0000 0.8831 -0.0002
# 3 53.2536 29.4447 97.5304 0.0000 7.0548 0.0000
# 4 0.0000 0.0000 0.0000 24.0830 0.0000 -0.2836
# 5 -2.7375 0.8831 7.0548 0.0000 35.0605 0.0000
# 6 -0.0001 -0.0002 0.0000 -0.2836 0.0000 23.8189
#
#
#
# Elastic Compliance Matrix: (Units=1/GPa)
#
#
# Indices 1 2 3 4 5 6 
#
# 1 0.011384 -0.008831 -0.003684 0.000000 0.001853 0.000000
# 2 -0.008831 0.043167 -0.008201 0.000000 -0.000127 0.000000
# 3 -0.003684 -0.008201 0.014964 0.000000 -0.003092 0.000000
# 4 0.000000 0.000000 0.000000 0.041529 0.000000 0.000495
# 5 0.001853 -0.000127 -0.003092 0.000000 0.029292 0.000000
# 6 0.000000 0.000000 0.000000 0.000495 0.000000 0.041989
#
#
# Mechanical properties :
#
#
# Convention : Reuss Voigt Hill
#
# Bulk Modulus (GPa) = 35.60867 56.61067 46.10967
# Shear Modulus (GPa) = 21.44830 26.48396 23.96613
#
# Velocity S-wave (km/s) = 3.41030 3.78955 3.60491
# Velocity P-wave (km/s) = 5.90045 7.06004 6.50613
#
# Compressibility (1/GPa) = 0.02808305
#
# Stress axis : x y z
#
# Youngs Moduli (GPa) = 87.84038 23.16600 66.82613
#
# Poissons Ratio (x) = 0.20459 0.24618
# Poissons Ratio (y) = 0.77575 0.54803
# Poissons Ratio (z) = 0.32359 0.18998
#
# Static dielectric constant tensor:
#      x y z
#    x 3.543930 0.000000 0.032780 
#    y 0.000000 3.110380 0.000000 
#    z 0.032780 0.000000 3.678640 
# 
# 
# High freq. dielectric constant tensor:
#      x y z
#    x 1.724750 0.000000 0.007510 
#    y 0.000000 1.679820 0.000000 
#    z 0.007510 0.000000 1.729330 
# 
# From -- ./inp_files/343060.got.cif
#   From: 2010.06.25/outbox.cif.g09.slc.cpg/sg12_172_cif.got.tgz:343060.got - 2010.06.28 00:19:55.
