data_PCOD8083475
_publ_section_title
;
Structure prediction by ZEFSAII (Michael W. Deem and Ramdas Pophale) SiO2 
 PCOD8083475
Probable space group: C 2/M
;
_chemical_formula_sum "Si O2"
_cell_formula_units_Z 40
_cell_length_a 14.600640
_cell_length_b 11.277846
_cell_length_c 19.311653
_cell_angle_alpha 90.000000
_cell_angle_beta 28.788271
_cell_angle_gamma 90.000000
_cell_volume 1531.372282
_symmetry_space_group_name_H-M "C 2/M"
_symmetry_group_IT_number 12
_symmetry_cell_setting 'monoclinic'
loop_
_space_group_symop_operation_xyz
x,y,z
-x,y,-z
-x,-y,-z
x,-y,z
1/2+x,1/2+y,z
1/2-x,1/2+y,-z
1/2-x,1/2-y,-z
1/2+x,1/2-y,z
loop_
_atom_site_type_symbol
_atom_site_label
_atom_site_fract_x
_atom_site_fract_y
_atom_site_fract_z
Si Si1 0.213375 0.500000 0.841339
Si Si2 0.726053 0.758615 0.597403
Si Si3 0.221029 0.000000 0.363354
Si Si4 0.106012 0.635957 0.345928
Si Si5 0.006244 0.140854 0.147519
Si Si6 0.208718 0.749619 0.894318
O O1 0.206264 0.500000 0.763048
O O2 0.297659 0.618088 0.821578
O O3 0.000000 0.500000 0.000000
O O4 0.750000 0.750000 0.500000
O O5 0.707190 0.890257 0.639002
O O6 0.528544 0.688684 0.750600
O O7 0.919305 0.700094 0.500526
O O8 0.000000 0.000000 0.500000
O O9 0.065637 0.500000 0.385262
O O10 0.301363 0.679161 0.251875
O O11 0.138711 0.661734 0.242237
O O12 0.045371 0.000000 0.118094
O O13 0.177470 0.211729 0.995460
O O14 0.000000 0.765617 0.000000
#
# Coordination Sequence:
#
# PCOD8083475 Si02
#       6
#     4   8   4   8   8   8
#     4  10  18  32  60  90 130 149 202 262 309 361
#     4  12  26  39  59  88 128 169 214 259 313 376
#     4  12  24  42  66  90 123 169 216 268 316 379
#     4  10  20  37  63  89 120 157 204 256 311 374
#     4  10  20  37  64  93 125 159 205 257 313 374
#     4   9  17  32  59  96 121 151 199 263 308 363
#
# _framework density 26.120362
#
# number of rings (size 3 to 8) (size 9 to 14) (size 15 to 20)
#    0.000    1.600    0.000    7.800    2.800    4.000 
#    0.000    1.000    0.000    0.000    0.000    0.000 
#    0.000    0.000    0.000    0.000    0.000    0.000 
#
# Total GULP energy -247835.712021 kJ/mol
# GULP energy per Si atom -12391.785601 kJ/mol
# Density = 2.606091 g / cm^3
# Si number density = 26.120362 Si / 1000 Ang^3
#
#
#
# Elastic Constant Matrix: (Units=GPa)
#
#
# Indices 1 2 3 4 5 6 
#
# 1 55.9517 25.5814 23.4374 -0.0008 31.4136 0.0021
# 2 25.5814 148.5091 53.4088 -0.0123 29.3812 0.0105
# 3 23.4374 53.4088 183.0334 -0.0156 55.7515 0.0150
# 4 -0.0008 -0.0123 -0.0156 44.0897 0.0036 14.2231
# 5 31.4136 29.3812 55.7515 0.0036 45.0531 -0.0031
# 6 0.0021 0.0105 0.0150 14.2231 -0.0031 -7.3620
#
#
#
# Elastic Compliance Matrix: (Units=1/GPa)
#
#
# Indices 1 2 3 4 5 6 
#
# 1 0.031719 -0.001852 0.004570 -0.000003 -0.026564 0.000021
# 2 -0.001852 0.007995 -0.001446 -0.000001 -0.002133 0.000008
# 3 0.004570 -0.001446 0.009603 -0.000002 -0.014127 0.000020
# 4 -0.000003 -0.000001 -0.000002 0.013973 0.000006 0.026995
# 5 -0.026564 -0.002133 -0.014127 0.000006 0.059591 -0.000053
# 6 0.000021 0.000008 0.000020 0.026995 -0.000053 -0.083680
#
#
# Mechanical properties :
#
#
# Convention : Reuss Voigt Hill
#
# Bulk Modulus (GPa) = 19.28218 65.81662 42.54940
# Shear Modulus (GPa) = 92.69022 35.36060 64.02541
#
# Velocity S-wave (km/s) = 5.96346 3.68333 4.95630
# Velocity P-wave (km/s) = 7.40373 6.58342 7.00559
#
# Compressibility (1/GPa) = 0.05186135
#
# Stress axis : x y z
#
# Youngs Moduli (GPa) = 31.52690 125.08416 104.13029
#
# Poissons Ratio (x) = 0.23164 -0.47588
# Poissons Ratio (y) = 0.05838 0.15057
# Poissons Ratio (z) = -0.14408 0.18086
#
# Static dielectric constant tensor:
#      x y z
#    x 4.779430 -0.000010 0.220540 
#    y -0.000010 4.136670 0.000000 
#    z 0.220540 0.000000 5.351470 
# 
# 
# High freq. dielectric constant tensor:
#      x y z
#    x 2.049310 0.000000 0.013180 
#    y 0.000000 2.038210 0.000000 
#    z 0.013180 0.000000 2.082810 
# 
# From -- ./inp_files/315561.got.cif
#   From: 2010.06.25/outbox.cif.g09.slc.cpg/sg12_158_cif.got.tgz:315561.got - 2010.06.28 00:19:55.
