data_PCOD8083937
_publ_section_title
;
Structure prediction by ZEFSAII (Michael W. Deem and Ramdas Pophale) SiO2 
 PCOD8083937
Probable space group: C 2/M
;
_chemical_formula_sum "Si O2"
_cell_formula_units_Z 40
_cell_length_a 12.439867
_cell_length_b 26.434377
_cell_length_c 9.771567
_cell_angle_alpha 90.000000
_cell_angle_beta 47.634131
_cell_angle_gamma 90.000000
_cell_volume 2374.156583
_symmetry_space_group_name_H-M "C 2/M"
_symmetry_group_IT_number 12
_symmetry_cell_setting 'monoclinic'
loop_
_space_group_symop_operation_xyz
x,y,z
-x,y,-z
-x,-y,-z
x,-y,z
1/2+x,1/2+y,z
1/2-x,1/2+y,-z
1/2-x,1/2-y,-z
1/2+x,1/2-y,z
loop_
_atom_site_type_symbol
_atom_site_label
_atom_site_fract_x
_atom_site_fract_y
_atom_site_fract_z
Si Si1 0.573887 0.633451 0.703393
Si Si2 0.789770 0.263972 0.813735
Si Si3 0.837653 0.374934 0.678212
Si Si4 0.000000 0.814226 0.500000
Si Si5 0.000000 0.795177 0.000000
Si Si6 0.882350 0.943385 0.981454
O O1 0.735531 0.627093 0.629530
O O2 0.588352 0.652989 0.535723
O O3 0.478855 0.670064 0.883930
O O4 0.471742 0.583420 0.781525
O O5 0.855517 0.320180 0.735868
O O6 0.891084 0.220728 0.673537
O O7 0.750000 0.250000 0.000000
O O8 0.640351 0.260602 0.855900
O O9 0.764771 0.414154 0.847293
O O10 0.000000 0.393909 0.500000
O O11 0.837191 0.000000 0.975981
O O12 0.000000 0.943866 0.000000
#
# Coordination Sequence:
#
# PCOD8083937 Si02
#       6
#     8   8   8   4   4   8
#     4  10  19  35  50  77 102 134 172 214 245 308
#     4  11  20  32  48  73 102 139 170 205 253 298
#     4  10  19  32  50  76 107 129 167 221 251 294
#     4  12  22  32  55  76 105 142 176 204 260 304
#     4  10  18  34  51  68 110 132 171 214 250 292
#     4   9  16  32  56  75  98 135 169 209 262 304
#
# _framework density 16.848089000000002
#
# number of rings (size 3 to 8) (size 9 to 14) (size 15 to 20)
#    0.000    1.800    8.000    0.000    0.000    5.200 
#    0.000    0.500    0.000    0.000    0.000    1.400 
#    0.000    0.000    0.000    0.000    0.000    0.000 
#
# Total GULP energy -247782.098905 kJ/mol
# GULP energy per Si atom -12389.104945 kJ/mol
# Density = 1.680974 g / cm^3
# Si number density = 16.848089 Si / 1000 Ang^3
#
#
#
# Elastic Constant Matrix: (Units=GPa)
#
#
# Indices 1 2 3 4 5 6 
#
# 1 65.3262 35.6942 41.2612 0.0000 -8.8758 0.0000
# 2 35.6942 99.3120 48.7845 0.0000 -0.8665 0.0000
# 3 41.2612 48.7845 100.1705 0.0000 -8.0415 0.0000
# 4 0.0000 0.0000 0.0000 -4.0320 0.0000 -45.0376
# 5 -8.8758 -0.8665 -8.0415 0.0000 38.6848 0.0000
# 6 0.0000 0.0000 0.0000 -45.0376 0.0000 -62.8508
#
#
#
# Elastic Compliance Matrix: (Units=1/GPa)
#
#
# Indices 1 2 3 4 5 6 
#
# 1 0.022677 -0.004832 -0.006690 0.000000 0.003704 0.000000
# 2 -0.004832 0.014308 -0.005127 0.000000 -0.001854 0.000000
# 3 -0.006690 -0.005127 0.015360 0.000000 0.001543 0.000000
# 4 0.000000 0.000000 0.000000 0.035409 0.000000 -0.025374
# 5 0.003704 -0.001854 0.001543 0.000000 0.026979 0.000000
# 6 0.000000 0.000000 0.000000 -0.025374 0.000000 0.002272
#
#
# Mechanical properties :
#
#
# Convention : Reuss Voigt Hill
#
# Bulk Modulus (GPa) = 52.50251 57.36538 54.93394
# Shear Modulus (GPa) = 31.91806 3.63164 17.77485
#
# Velocity S-wave (km/s) = 4.35726 1.46976 3.25161
# Velocity P-wave (km/s) = 7.51959 6.08299 6.83912
#
# Compressibility (1/GPa) = 0.01904671
#
# Stress axis : x y z
#
# Youngs Moduli (GPa) = 44.09797 69.89053 65.10600
#
# Poissons Ratio (x) = 0.33768 0.43559
# Poissons Ratio (y) = 0.21306 0.33379
# Poissons Ratio (z) = 0.29503 0.35832
#
# Static dielectric constant tensor:
#      x y z
#    x 2.893110 0.000000 0.053930 
#    y 0.000000 3.554000 0.000000 
#    z 0.053930 0.000000 2.817390 
# 
# 
# High freq. dielectric constant tensor:
#      x y z
#    x 1.626890 0.000000 -0.017680 
#    y 0.000000 1.640620 0.000000 
#    z -0.017680 0.000000 1.646400 
# 
# From -- ./inp_files/52362.got.cif
#   From: 2010.06.25/outbox.cif.g09.slc.cpg/sg12_27_cif.got.tgz:52362.got - 2010.06.28 00:19:55.
