data_PCOD8083051
_publ_section_title
;
Structure prediction by ZEFSAII (Michael W. Deem and Ramdas Pophale) SiO2 
 PCOD8083051
Probable space group: C 2/M
;
_chemical_formula_sum "Si O2"
_cell_formula_units_Z 64
_cell_length_a 14.719072
_cell_length_b 8.879710
_cell_length_c 27.109635
_cell_angle_alpha 90.000000
_cell_angle_beta 104.501697
_cell_angle_gamma 90.000000
_cell_volume 3430.371433
_symmetry_space_group_name_H-M "C 2/M"
_symmetry_group_IT_number 12
_symmetry_cell_setting 'monoclinic'
loop_
_space_group_symop_operation_xyz
x,y,z
-x,y,-z
-x,-y,-z
x,-y,z
1/2+x,1/2+y,z
1/2-x,1/2+y,-z
1/2-x,1/2-y,-z
1/2+x,1/2-y,z
loop_
_atom_site_type_symbol
_atom_site_label
_atom_site_fract_x
_atom_site_fract_y
_atom_site_fract_z
Si Si1 0.464047 0.178388 0.922487
Si Si2 0.650396 0.821670 0.999577
Si Si3 0.714635 0.179132 0.741585
Si Si4 0.320202 0.322073 0.364153
Si Si5 0.389958 0.179836 0.808131
Si Si6 0.485355 0.825281 0.621140
Si Si7 0.507955 0.174855 0.733784
Si Si8 0.787292 0.676085 0.554146
O O1 0.385944 0.232883 0.951487
O O2 0.436596 0.239366 0.864891
O O3 0.464576 0.000000 0.923661
O O4 0.569598 0.232946 0.950155
O O5 0.663120 0.000000 0.999505
O O6 0.750000 0.750000 0.000000
O O7 0.730696 0.242020 0.688699
O O8 0.787435 0.248349 0.790035
O O9 0.613602 0.237749 0.746522
O O10 0.721465 0.000000 0.741060
O O11 0.309040 0.500000 0.355796
O O12 0.429091 0.278482 0.384039
O O13 0.269663 0.263144 0.406585
O O14 0.450276 0.248258 0.770819
O O15 0.381524 0.000000 0.806015
O O16 0.457940 0.793166 0.674532
O O17 0.396954 0.784337 0.575293
O O18 0.515434 0.000000 0.619902
O O19 0.512459 0.000000 0.745979
O O20 0.771937 0.500000 0.547267
O O21 0.750000 0.750000 0.500000
#
# Coordination Sequence:
#
# PCOD8083051 Si02
#       8
#     8   8   8   8   8   8   8   8
#     4   8  17  32  50  72 101 135 171 207 253 306
#     4   9  17  33  53  73  98 133 174 214 253 299
#     4  10  20  34  51  76 106 134 163 204 253 300
#     4  10  20  36  56  77 100 133 173 210 245 297
#     4  10  18  32  53  74  99 136 173 207 246 298
#     4   9  18  35  54  73  99 133 167 207 254 299
#     4   8  16  31  51  71  96 129 165 199 243 300
#     4  10  22  37  54  76 104 134 168 208 255 304
#
# _framework density 18.656872
#
# number of rings (size 3 to 8) (size 9 to 14) (size 15 to 20)
#    0.000    2.750    0.000    3.000    0.000    5.000 
#    0.000   11.875    0.000    0.000    0.000    0.000 
#    0.000    0.000    0.000    0.000    0.000    0.000 
#
# Total GULP energy -396704.397791 kJ/mol
# GULP energy per Si atom -12397.012431 kJ/mol
# Density = 1.861441 g / cm^3
# Si number density = 18.656872 Si / 1000 Ang^3
#
#
#
# Elastic Constant Matrix: (Units=GPa)
#
#
# Indices 1 2 3 4 5 6 
#
# 1 89.2604 22.5354 48.2963 0.0000 11.9820 0.0000
# 2 22.5354 37.0254 27.2676 0.0000 4.3196 0.0000
# 3 48.2963 27.2676 127.3791 0.0000 19.5082 0.0000
# 4 0.0000 0.0000 0.0000 23.1376 0.0000 4.7650
# 5 11.9820 4.3196 19.5082 0.0000 26.5236 0.0000
# 6 0.0000 0.0000 0.0000 4.7650 0.0000 29.7984
#
#
#
# Elastic Compliance Matrix: (Units=1/GPa)
#
#
# Indices 1 2 3 4 5 6 
#
# 1 0.015312 -0.005975 -0.004075 0.000000 -0.002947 0.000000
# 2 -0.005975 0.034395 -0.005244 0.000000 0.000954 0.000000
# 3 -0.004075 -0.005244 0.011388 0.000000 -0.005681 0.000000
# 4 0.000000 0.000000 0.000000 0.044691 0.000000 -0.007146
# 5 -0.002947 0.000954 -0.005681 0.000000 0.043057 0.000000
# 6 0.000000 0.000000 0.000000 -0.007146 0.000000 0.034702
#
#
# Mechanical properties :
#
#
# Convention : Reuss Voigt Hill
#
# Bulk Modulus (GPa) = 32.77782 49.98483 41.38132
# Shear Modulus (GPa) = 22.29132 26.26297 24.27715
#
# Velocity S-wave (km/s) = 3.46034 3.75598 3.61119
# Velocity P-wave (km/s) = 5.79415 6.75719 6.29412
#
# Compressibility (1/GPa) = 0.03050844
#
# Stress axis : x y z
#
# Youngs Moduli (GPa) = 65.30724 29.07370 87.80882
#
# Poissons Ratio (x) = 0.17370 0.35786
# Poissons Ratio (y) = 0.39018 0.46045
# Poissons Ratio (z) = 0.26616 0.15246
#
# Static dielectric constant tensor:
#      x y z
#    x 3.611420 0.000000 -0.061410 
#    y 0.000000 3.087530 0.000000 
#    z -0.061410 0.000000 3.670060 
# 
# 
# High freq. dielectric constant tensor:
#      x y z
#    x 1.732220 0.000000 0.004300 
#    y 0.000000 1.693570 0.000000 
#    z 0.004300 0.000000 1.726620 
# 
# From -- ./inp_files/359792.got.cif
#   From: 2010.06.25/outbox.cif.g09.slc.cpg/sg12_180_cif.got.tgz:359792.got - 2010.06.28 00:19:55.
