data_PCOD8083910
_publ_section_title
;
Structure prediction by ZEFSAII (Michael W. Deem and Ramdas Pophale) SiO2 
 PCOD8083910
Probable space group: C 2/M
;
_chemical_formula_sum "Si O2"
_cell_formula_units_Z 48
_cell_length_a 18.425370
_cell_length_b 13.531913
_cell_length_c 11.784080
_cell_angle_alpha 90.000000
_cell_angle_beta 47.738562
_cell_angle_gamma 90.000000
_cell_volume 2174.463120
_symmetry_space_group_name_H-M "C 2/M"
_symmetry_group_IT_number 12
_symmetry_cell_setting 'monoclinic'
loop_
_space_group_symop_operation_xyz
x,y,z
-x,y,-z
-x,-y,-z
x,-y,z
1/2+x,1/2+y,z
1/2-x,1/2+y,-z
1/2-x,1/2-y,-z
1/2+x,1/2-y,z
loop_
_atom_site_type_symbol
_atom_site_label
_atom_site_fract_x
_atom_site_fract_y
_atom_site_fract_z
Si Si1 0.901548 0.388290 0.770599
Si Si2 0.085279 0.262264 0.649715
Si Si3 0.751481 0.607113 0.125277
Si Si4 0.796771 0.289594 0.695924
Si Si5 0.593022 0.892506 0.843713
Si Si6 0.401879 0.386530 0.176053
O O1 0.942742 0.500000 0.740182
O O2 0.863216 0.375945 0.681214
O O3 0.982754 0.307339 0.716203
O O4 0.808537 0.371185 0.949677
O O5 0.161101 0.254165 0.467862
O O6 0.132879 0.333595 0.694124
O O7 0.074452 0.155726 0.722568
O O8 0.695427 0.500000 0.173055
O O9 0.686377 0.701186 0.228689
O O10 0.822737 0.596584 0.155806
O O11 0.684162 0.324395 0.797222
O O12 0.556379 0.000000 0.839803
O O13 0.500000 0.836821 0.000000
O O14 0.367783 0.500000 0.225126
O O15 0.500000 0.378704 0.000000
#
# Coordination Sequence:
#
# PCOD8083910 Si02
#       6
#     8   8   8   8   8   8
#     4  11  24  43  68  95 126 166 211 263 320 375
#     4  12  23  40  64  96 129 163 207 263 324 371
#     4  10  21  38  63  92 121 164 213 258 307 367
#     4  12  25  42  63  98 133 166 205 261 323 380
#     4  10  18  33  61  92 121 155 206 261 311 364
#     4  11  25  44  65  90 127 176 219 256 304 376
#
# _framework density 22.074414000000001
#
# number of rings (size 3 to 8) (size 9 to 14) (size 15 to 20)
#    0.000    1.000    3.333    4.000    0.000    4.000 
#    0.000    2.500    0.000    2.000    0.000    0.000 
#    0.000    0.000    0.000    0.000    0.000    0.000 
#
# Total GULP energy -297446.611580 kJ/mol
# GULP energy per Si atom -12393.608816 kJ/mol
# Density = 2.202417 g / cm^3
# Si number density = 22.074414 Si / 1000 Ang^3
#
#
#
# Elastic Constant Matrix: (Units=GPa)
#
#
# Indices 1 2 3 4 5 6 
#
# 1 83.9740 22.5338 17.8328 0.0000 10.5701 0.0000
# 2 22.5338 121.2079 45.1919 0.0000 0.5379 0.0000
# 3 17.8328 45.1919 102.1555 0.0000 18.6197 0.0000
# 4 0.0000 0.0000 0.0000 22.5637 0.0000 9.9670
# 5 10.5701 0.5379 18.6197 0.0000 26.3784 0.0000
# 6 0.0000 0.0000 0.0000 9.9670 0.0000 31.0821
#
#
#
# Elastic Compliance Matrix: (Units=1/GPa)
#
#
# Indices 1 2 3 4 5 6 
#
# 1 0.013233 -0.002294 -0.000387 0.000000 -0.004983 0.000000
# 2 -0.002294 0.010536 -0.005037 0.000000 0.004260 0.000000
# 3 -0.000387 -0.005037 0.013815 0.000000 -0.009494 0.000000
# 4 0.000000 0.000000 0.000000 0.051633 0.000000 -0.016557
# 5 -0.004983 0.004260 -0.009494 0.000000 0.046521 0.000000
# 6 0.000000 0.000000 0.000000 -0.016557 0.000000 0.037482
#
#
# Mechanical properties :
#
#
# Convention : Reuss Voigt Hill
#
# Bulk Modulus (GPa) = 45.14909 53.16160 49.15535
# Shear Modulus (GPa) = 25.50518 30.79008 28.14763
#
# Velocity S-wave (km/s) = 3.40283 3.73880 3.57476
# Velocity P-wave (km/s) = 5.99471 6.54013 6.27335
#
# Compressibility (1/GPa) = 0.02214884
#
# Stress axis : x y z
#
# Youngs Moduli (GPa) = 75.56652 94.91465 72.38378
#
# Poissons Ratio (x) = 0.21771 0.02803
# Poissons Ratio (y) = 0.17333 0.36459
# Poissons Ratio (z) = 0.02926 0.47807
#
# Static dielectric constant tensor:
#      x y z
#    x 3.913560 0.000000 0.270210 
#    y 0.000000 5.276720 0.000000 
#    z 0.270210 0.000000 3.956750 
# 
# 
# High freq. dielectric constant tensor:
#      x y z
#    x 1.859540 0.000000 0.018210 
#    y 0.000000 1.883160 0.000000 
#    z 0.018210 0.000000 1.857280 
# 
# From -- ./inp_files/167521.got.cif
#   From: 2010.06.25/outbox.cif.g09.slc.cpg/sg12_84_cif.got.tgz:167521.got - 2010.06.28 00:19:55.
