data_PCOD8083080
_publ_section_title
;
Structure prediction by ZEFSAII (Michael W. Deem and Ramdas Pophale) SiO2 
 PCOD8083080
Probable space group: C 2/M
;
_chemical_formula_sum "Si O2"
_cell_formula_units_Z 64
_cell_length_a 15.396826
_cell_length_b 11.976961
_cell_length_c 29.938751
_cell_angle_alpha 90.000000
_cell_angle_beta 38.124366
_cell_angle_gamma 90.000000
_cell_volume 3408.453494
_symmetry_space_group_name_H-M "C 2/M"
_symmetry_group_IT_number 12
_symmetry_cell_setting 'monoclinic'
loop_
_space_group_symop_operation_xyz
x,y,z
-x,y,-z
-x,-y,-z
x,-y,z
1/2+x,1/2+y,z
1/2-x,1/2+y,-z
1/2-x,1/2-y,-z
1/2+x,1/2-y,z
loop_
_atom_site_type_symbol
_atom_site_label
_atom_site_fract_x
_atom_site_fract_y
_atom_site_fract_z
Si Si1 0.623047 0.251021 0.826106
Si Si2 0.920954 0.871345 0.846131
Si Si3 0.105630 0.375160 0.279809
Si Si4 0.921343 0.767201 0.294669
Si Si5 0.744004 0.372263 0.306460
Si Si6 0.865660 0.628780 0.085152
Si Si7 0.259944 0.368141 0.439204
Si Si8 0.970822 0.262796 0.413688
O O1 0.472990 0.293956 0.866712
O O2 0.727634 0.357362 0.781457
O O3 0.693292 0.153970 0.767777
O O4 0.606347 0.204615 0.882758
O O5 0.768796 0.830865 0.889580
O O6 0.032149 0.857888 0.760788
O O7 0.914810 0.000000 0.863931
O O8 0.079676 0.500000 0.272225
O O9 0.056980 0.277373 0.266073
O O10 0.016756 0.361050 0.361221
O O11 0.858609 0.656659 0.297355
O O12 0.805849 0.826041 0.372114
O O13 0.701878 0.500000 0.325650
O O14 0.608201 0.300899 0.374457
O O15 0.844309 0.500000 0.108570
O O16 0.000000 0.643469 0.000000
O O17 0.254080 0.500000 0.441780
O O18 0.106244 0.318828 0.512918
O O19 0.370167 0.328189 0.431639
#
# Coordination Sequence:
#
# PCOD8083080 Si02
#       8
#     8   8   8   8   8   8   8   8
#     4  10  20  35  58  86 112 148 188 229 275 332
#     4  10  20  36  58  85 116 149 189 232 278 332
#     4  10  18  32  53  77 108 145 181 225 279 331
#     4  10  20  33  52  80 105 141 185 230 274 334
#     4  10  20  35  53  76 106 138 182 232 276 323
#     4  10  21  38  61  88 117 150 186 227 277 332
#     4  10  19  34  52  71 101 138 181 230 279 330
#     4   9  20  33  49  75 100 136 184 228 278 334
#
# _framework density 18.776844000000001
#
# number of rings (size 3 to 8) (size 9 to 14) (size 15 to 20)
#    0.000    2.125    1.250    2.250    0.000    1.000 
#    0.000    5.000    0.000    1.500    0.000    0.000 
#    0.000    0.000    0.000    0.000    0.000    0.000 
#
# Total GULP energy -396758.710682 kJ/mol
# GULP energy per Si atom -12398.709709 kJ/mol
# Density = 1.873411 g / cm^3
# Si number density = 18.776844 Si / 1000 Ang^3
#
#
#
# Elastic Constant Matrix: (Units=GPa)
#
#
# Indices 1 2 3 4 5 6 
#
# 1 103.8619 36.2721 46.3674 0.0000 -6.2980 0.0000
# 2 36.2721 102.9451 32.6658 0.0000 2.1714 0.0000
# 3 46.3674 32.6658 86.9250 0.0000 -1.5660 0.0000
# 4 0.0000 0.0000 0.0000 16.4530 0.0000 1.1807
# 5 -6.2980 2.1714 -1.5660 0.0000 19.2890 0.0000
# 6 0.0000 0.0000 0.0000 1.1807 0.0000 22.2999
#
#
#
# Elastic Compliance Matrix: (Units=1/GPa)
#
#
# Indices 1 2 3 4 5 6 
#
# 1 0.013641 -0.002966 -0.006084 0.000000 0.004294 0.000000
# 2 -0.002966 0.011722 -0.002868 0.000000 -0.002521 0.000000
# 3 -0.006084 -0.002868 0.015821 0.000000 -0.000379 0.000000
# 4 0.000000 0.000000 0.000000 0.061011 0.000000 -0.003230
# 5 0.004294 -0.002521 -0.000379 0.000000 0.053498 0.000000
# 6 0.000000 0.000000 0.000000 -0.003230 0.000000 0.045014
#
#
# Mechanical properties :
#
#
# Convention : Reuss Voigt Hill
#
# Bulk Modulus (GPa) = 57.64941 58.26029 57.95485
# Shear Modulus (GPa) = 21.70834 23.50350 22.60592
#
# Velocity S-wave (km/s) = 3.40387 3.54181 3.47353
# Velocity P-wave (km/s) = 6.79834 6.91528 6.85706
#
# Compressibility (1/GPa) = 0.01734623
#
# Stress axis : x y z
#
# Youngs Moduli (GPa) = 73.31071 85.30686 63.20861
#
# Poissons Ratio (x) = 0.25303 0.38457
# Poissons Ratio (y) = 0.21745 0.18131
# Poissons Ratio (z) = 0.44603 0.24469
#
# Static dielectric constant tensor:
#      x y z
#    x 3.532640 0.000000 -0.087850 
#    y 0.000000 3.204540 0.000000 
#    z -0.087850 0.000000 3.383210 
# 
# 
# High freq. dielectric constant tensor:
#      x y z
#    x 1.732840 0.000000 -0.008230 
#    y 0.000000 1.721260 0.000000 
#    z -0.008230 0.000000 1.718760 
# 
# From -- ./inp_files/361020.got.cif
#   From: 2010.06.25/outbox.cif.g09.slc.cpg/sg12_181_cif.got.tgz:361020.got - 2010.06.28 00:19:55.
