data_PCOD8083395
_publ_section_title
;
Structure prediction by ZEFSAII (Michael W. Deem and Ramdas Pophale) SiO2 
 PCOD8083395
Probable space group: C 2/M
;
_chemical_formula_sum "Si O2"
_cell_formula_units_Z 56
_cell_length_a 15.640236
_cell_length_b 15.050293
_cell_length_c 22.288560
_cell_angle_alpha 90.000000
_cell_angle_beta 25.794125
_cell_angle_gamma 90.000000
_cell_volume 2282.958714
_symmetry_space_group_name_H-M "C 2/M"
_symmetry_group_IT_number 12
_symmetry_cell_setting 'monoclinic'
loop_
_space_group_symop_operation_xyz
x,y,z
-x,y,-z
-x,-y,-z
x,-y,z
1/2+x,1/2+y,z
1/2-x,1/2+y,-z
1/2-x,1/2-y,-z
1/2+x,1/2-y,z
loop_
_atom_site_type_symbol
_atom_site_label
_atom_site_fract_x
_atom_site_fract_y
_atom_site_fract_z
Si Si1 0.062885 0.601334 0.271376
Si Si2 0.770182 0.404929 0.156925
Si Si3 0.565067 0.598328 0.039939
Si Si4 0.770801 0.851199 0.942210
Si Si5 0.349565 0.773471 0.198552
Si Si6 0.620621 0.242049 0.693865
Si Si7 0.394411 0.898887 0.503653
O O1 0.008063 0.500000 0.289614
O O2 0.901194 0.663064 0.339991
O O3 0.048546 0.617945 0.352008
O O4 0.286293 0.621813 0.108789
O O5 0.714926 0.500000 0.221807
O O6 0.658229 0.399653 0.163893
O O7 0.706804 0.321846 0.240131
O O8 0.000000 0.399229 0.000000
O O9 0.470041 0.500000 0.089283
O O10 0.685548 0.591508 0.026212
O O11 0.393827 0.671753 0.151067
O O12 0.902249 0.760991 0.860607
O O13 0.544104 0.832466 0.077687
O O14 0.251682 0.781040 0.326798
O O15 0.715209 0.330766 0.605888
O O16 0.500000 0.880228 0.500000
O O17 0.313397 0.000000 0.553317
#
# Coordination Sequence:
#
# PCOD8083395 Si02
#       7
#     8   8   8   8   8   8   8
#     4  10  20  37  61  84 109 147 190 235 282 334
#     4   9  19  32  50  78 117 161 182 212 276 331
#     4  10  18  32  57  83 114 152 186 228 282 330
#     4  10  18  34  55  86 122 143 185 234 269 340
#     4  10  19  34  52  87 126 147 184 229 271 347
#     4  11  20  36  64  86 110 151 187 234 292 329
#     4  10  24  44  61  81 109 144 196 246 287 339
#
# _framework density 24.529571000000001
#
# number of rings (size 3 to 8) (size 9 to 14) (size 15 to 20)
#    0.000    2.000    2.857    1.714    0.000    5.143 
#    2.571    0.000    0.000    5.143    0.000    0.000 
#    0.000    0.000    0.000    0.000    0.000    0.000 
#
# Total GULP energy -346959.433584 kJ/mol
# GULP energy per Si atom -12391.408342 kJ/mol
# Density = 2.447374 g / cm^3
# Si number density = 24.529571 Si / 1000 Ang^3
#
#
#
# Elastic Constant Matrix: (Units=GPa)
#
#
# Indices 1 2 3 4 5 6 
#
# 1 70.4093 43.3938 36.9044 -0.0061 46.3980 0.0009
# 2 43.3938 148.6222 31.8616 0.0050 20.3652 0.0038
# 3 36.9044 31.8616 72.5642 0.0389 29.1045 -0.0108
# 4 -0.0061 0.0050 0.0389 25.6762 0.0038 9.2602
# 5 46.3980 20.3652 29.1045 0.0038 43.4278 -0.0092
# 6 0.0009 0.0038 -0.0108 9.2602 -0.0092 26.4476
#
#
#
# Elastic Compliance Matrix: (Units=1/GPa)
#
#
# Indices 1 2 3 4 5 6 
#
# 1 0.057813 -0.008549 -0.003395 0.000042 -0.055482 -0.000036
# 2 -0.008549 0.008793 -0.002082 -0.000002 0.006406 0.000001
# 3 -0.003395 -0.002082 0.019934 -0.000036 -0.008755 0.000018
# 4 0.000042 -0.000002 -0.000036 0.044575 -0.000027 -0.015607
# 5 -0.055482 0.006406 -0.008755 -0.000027 0.085167 0.000036
# 6 -0.000036 0.000001 0.000018 -0.015607 0.000036 0.043275
#
#
# Mechanical properties :
#
#
# Convention : Reuss Voigt Hill
#
# Bulk Modulus (GPa) = 17.09818 57.32393 37.21106
# Shear Modulus (GPa) = 16.28101 31.07272 23.67687
#
# Velocity S-wave (km/s) = 2.57909 3.56300 3.11020
# Velocity P-wave (km/s) = 3.98177 6.35190 5.30100
#
# Compressibility (1/GPa) = 0.05848576
#
# Stress axis : x y z
#
# Youngs Moduli (GPa) = 17.29726 113.72324 50.16672
#
# Poissons Ratio (x) = 0.97227 0.17032
# Poissons Ratio (y) = 0.14788 0.10447
# Poissons Ratio (z) = 0.05873 0.23681
#
# Static dielectric constant tensor:
#      x y z
#    x 4.805550 -0.000040 0.685100 
#    y -0.000040 4.531560 0.000050 
#    z 0.685100 0.000050 4.187770 
# 
# 
# High freq. dielectric constant tensor:
#      x y z
#    x 1.982120 0.000000 0.037020 
#    y 0.000000 1.978420 0.000010 
#    z 0.037020 0.000010 1.937170 
# 
# From -- ./inp_files/316720.got.cif
#   From: 2010.06.25/outbox.cif.g09.slc.cpg/sg12_159_cif.got.tgz:316720.got - 2010.06.28 00:19:55.
