data_PCOD8083481
_publ_section_title
;
Structure prediction by ZEFSAII (Michael W. Deem and Ramdas Pophale) SiO2 
 PCOD8083481
Probable space group: C 2/M
;
_chemical_formula_sum "Si O2"
_cell_formula_units_Z 56
_cell_length_a 16.138434
_cell_length_b 22.419145
_cell_length_c 15.277111
_cell_angle_alpha 90.000000
_cell_angle_beta 27.028538
_cell_angle_gamma 90.000000
_cell_volume 2511.844296
_symmetry_space_group_name_H-M "C 2/M"
_symmetry_group_IT_number 12
_symmetry_cell_setting 'monoclinic'
loop_
_space_group_symop_operation_xyz
x,y,z
-x,y,-z
-x,-y,-z
x,-y,z
1/2+x,1/2+y,z
1/2-x,1/2+y,-z
1/2-x,1/2-y,-z
1/2+x,1/2-y,z
loop_
_atom_site_type_symbol
_atom_site_label
_atom_site_fract_x
_atom_site_fract_y
_atom_site_fract_z
Si Si1 0.453549 0.432676 0.830878
Si Si2 0.098975 0.175745 0.998610
Si Si3 0.354042 0.569828 0.737349
Si Si4 0.249132 0.622707 0.671006
Si Si5 0.630455 0.068006 0.616436
Si Si6 0.709571 0.746456 0.639955
Si Si7 0.006296 0.652091 0.398480
O O1 0.425636 0.500000 0.890658
O O2 0.407395 0.389541 0.953121
O O3 0.319115 0.420168 0.874095
O O4 0.661435 0.422442 0.606931
O O5 0.001239 0.226259 0.149745
O O6 0.311467 0.191667 0.786923
O O7 0.000000 0.172549 0.000000
O O8 0.344984 0.500000 0.722521
O O9 0.209298 0.606105 0.811320
O O10 0.555546 0.593931 0.529926
O O11 0.104344 0.593201 0.739878
O O12 0.248620 0.693365 0.656200
O O13 0.502538 0.103094 0.669415
O O14 0.566976 0.000000 0.674614
O O15 0.750000 0.750000 0.500000
O O16 0.835766 0.695884 0.561193
O O17 0.000000 0.620266 0.500000
#
# Coordination Sequence:
#
# PCOD8083481 Si02
#       7
#     8   8   8   8   8   8   8
#     4   9  18  37  64  95 134 171 214 276 338 399
#     4  12  25  44  68  97 135 177 224 276 333 399
#     4   9  17  31  59 101 133 169 223 266 326 400
#     4  10  18  32  61  91 134 174 215 273 324 392
#     4  10  19  38  65  94 129 171 220 277 338 396
#     4  12  24  45  65  97 140 174 225 271 331 398
#     4  12  25  44  69  97 133 175 221 281 336 391
#
# _framework density 22.294374999999999
#
# number of rings (size 3 to 8) (size 9 to 14) (size 15 to 20)
#    0.000    1.429    4.286    3.429    2.000    1.714 
#    0.000    1.429    0.000    0.000    0.000    3.000 
#    0.000    0.143    0.000    0.000    0.000    1.000 
#
# Total GULP energy -347105.914569 kJ/mol
# GULP energy per Si atom -12396.639806 kJ/mol
# Density = 2.224363 g / cm^3
# Si number density = 22.294375 Si / 1000 Ang^3
#
#
#
# Elastic Constant Matrix: (Units=GPa)
#
#
# Indices 1 2 3 4 5 6 
#
# 1 142.2979 50.8046 19.4668 0.0070 5.7952 -0.0151
# 2 50.8046 114.2667 1.7307 0.0105 3.5239 -0.0205
# 3 19.4668 1.7307 44.9444 0.0470 0.4328 -0.0566
# 4 0.0070 0.0105 0.0470 23.4406 -0.0327 5.9245
# 5 5.7952 3.5239 0.4328 -0.0327 29.0558 0.0347
# 6 -0.0151 -0.0205 -0.0566 5.9245 0.0347 39.7997
#
#
#
# Elastic Compliance Matrix: (Units=1/GPa)
#
#
# Indices 1 2 3 4 5 6 
#
# 1 0.008980 -0.003897 -0.003727 0.000006 -0.001263 -0.000004
# 2 -0.003897 0.010481 0.001289 -0.000009 -0.000513 0.000008
# 3 -0.003727 0.001289 0.023812 -0.000057 0.000232 0.000041
# 4 0.000006 -0.000009 -0.000057 0.044329 0.000059 -0.006599
# 5 -0.001263 -0.000513 0.000232 0.000059 0.034727 -0.000039
# 6 -0.000004 0.000008 0.000041 -0.006599 -0.000039 0.026108
#
#
# Mechanical properties :
#
#
# Convention : Reuss Voigt Hill
#
# Bulk Modulus (GPa) = 32.67694 49.50144 41.08919
# Shear Modulus (GPa) = 29.18692 33.75967 31.47330
#
# Velocity S-wave (km/s) = 3.62216 3.89558 3.76136
# Velocity P-wave (km/s) = 5.67294 6.51812 6.11016
#
# Compressibility (1/GPa) = 0.03060262
#
# Stress axis : x y z
#
# Youngs Moduli (GPa) = 111.35416 95.41449 41.99491
#
# Poissons Ratio (x) = 0.37187 0.15653
# Poissons Ratio (y) = 0.43399 -0.05415
# Poissons Ratio (z) = 0.41507 -0.12303
#
# Static dielectric constant tensor:
#      x y z
#    x 4.943620 -0.000340 0.133840 
#    y -0.000340 3.922630 0.000370 
#    z 0.133840 0.000370 3.824980 
# 
# 
# High freq. dielectric constant tensor:
#      x y z
#    x 1.899860 -0.000010 0.004220 
#    y -0.000010 1.867950 0.000050 
#    z 0.004220 0.000050 1.860680 
# 
# From -- ./inp_files/218641.got.cif
#   From: 2010.06.25/outbox.cif.g09.slc.cpg/sg12_110_cif.got.tgz:218641.got - 2010.06.28 00:19:55.
