data_PCOD8083906
_publ_section_title
;
Structure prediction by ZEFSAII (Michael W. Deem and Ramdas Pophale) SiO2 
 PCOD8083906
Probable space group: C 2/M
;
_chemical_formula_sum "Si O2"
_cell_formula_units_Z 40
_cell_length_a 14.398843
_cell_length_b 13.129882
_cell_length_c 13.073669
_cell_angle_alpha 90.000000
_cell_angle_beta 63.977381
_cell_angle_gamma 90.000000
_cell_volume 2221.070932
_symmetry_space_group_name_H-M "C 2/M"
_symmetry_group_IT_number 12
_symmetry_cell_setting 'monoclinic'
loop_
_space_group_symop_operation_xyz
x,y,z
-x,y,-z
-x,-y,-z
x,-y,z
1/2+x,1/2+y,z
1/2-x,1/2+y,-z
1/2-x,1/2-y,-z
1/2+x,1/2-y,z
loop_
_atom_site_type_symbol
_atom_site_label
_atom_site_fract_x
_atom_site_fract_y
_atom_site_fract_z
Si Si1 0.236305 0.735215 0.762640
Si Si2 0.191665 0.118602 0.452316
Si Si3 0.106879 0.273205 0.637864
Si Si4 0.894161 0.617776 0.775116
Si Si5 0.388392 0.117279 0.017410
O O1 0.312166 0.658352 0.663391
O O2 0.137849 0.763106 0.738135
O O3 0.296324 0.838034 0.762012
O O4 0.200063 0.681091 0.883787
O O5 0.106062 0.176691 0.561983
O O6 0.306412 0.144692 0.442281
O O7 0.167437 0.000000 0.468766
O O8 0.996007 0.324421 0.689338
O O9 0.906037 0.500000 0.741099
O O10 0.875888 0.633731 0.903566
O O11 0.374742 0.000000 0.056250
O O12 0.500000 0.156433 0.000000
#
# Coordination Sequence:
#
# PCOD8083906 Si02
#       5
#     8   8   8   8   8
#     4  10  20  35  55  87 114 140 183 235 275 323
#     4   9  18  37  58  78 112 149 185 228 276 328
#     4   9  20  36  56  83 113 145 189 223 278 325
#     4  11  22  36  57  85 113 147 187 228 276 332
#     4  10  18  33  61  85 107 145 184 225 278 328
#
# _framework density 18.009329999999999
#
# number of rings (size 3 to 8) (size 9 to 14) (size 15 to 20)
#    1.200    1.000    2.000    1.800    0.000    1.600 
#    0.000    4.000    0.000    1.800    0.000    0.000 
#    0.000    0.000    0.000    0.000    0.000    0.000 
#
# Total GULP energy -247896.298292 kJ/mol
# GULP energy per Si atom -12394.814915 kJ/mol
# Density = 1.796834 g / cm^3
# Si number density = 18.009330 Si / 1000 Ang^3
#
#
#
# Elastic Constant Matrix: (Units=GPa)
#
#
# Indices 1 2 3 4 5 6 
#
# 1 60.7859 47.5336 18.9272 0.0000 -8.7713 0.0000
# 2 47.5336 122.0892 68.8032 0.0000 0.0180 0.0000
# 3 18.9272 68.8032 99.4029 0.0000 -9.9167 0.0000
# 4 0.0000 0.0000 0.0000 31.1723 0.0000 0.8063
# 5 -8.7713 0.0180 -9.9167 0.0000 17.0154 0.0000
# 6 0.0000 0.0000 0.0000 0.8063 0.0000 28.3400
#
#
#
# Elastic Compliance Matrix: (Units=1/GPa)
#
#
# Indices 1 2 3 4 5 6 
#
# 1 0.028837 -0.015077 0.006827 0.000000 0.018860 0.000000
# 2 -0.015077 0.021867 -0.013847 0.000000 -0.015866 0.000000
# 3 0.006827 -0.013847 0.019852 0.000000 0.015103 0.000000
# 4 0.000000 0.000000 0.000000 0.032103 0.000000 -0.000913
# 5 0.018860 -0.015866 0.015103 0.000000 0.077311 0.000000
# 6 0.000000 0.000000 0.000000 -0.000913 0.000000 0.035312
#
#
# Mechanical properties :
#
#
# Convention : Reuss Voigt Hill
#
# Bulk Modulus (GPa) = 37.93696 61.42287 49.67992
# Shear Modulus (GPa) = 18.63830 25.10646 21.87238
#
# Velocity S-wave (km/s) = 3.22051 3.73779 3.48875
# Velocity P-wave (km/s) = 5.91099 7.26693 6.62375
#
# Compressibility (1/GPa) = 0.02635952
#
# Stress axis : x y z
#
# Youngs Moduli (GPa) = 34.67755 45.73134 50.37356
#
# Poissons Ratio (x) = 0.68950 -0.34388
# Poissons Ratio (y) = 0.52284 0.69754
# Poissons Ratio (z) = -0.23673 0.63326
#
# Static dielectric constant tensor:
#      x y z
#    x 3.043030 0.000000 0.079070 
#    y 0.000000 3.095230 0.000000 
#    z 0.079070 0.000000 3.339760 
# 
# 
# High freq. dielectric constant tensor:
#      x y z
#    x 1.676010 0.000000 0.004960 
#    y 0.000000 1.681410 0.000000 
#    z 0.004960 0.000000 1.705080 
# 
# From -- ./inp_files/164433.got.cif
#   From: 2010.06.25/outbox.cif.g09.slc.cpg/sg12_83_cif.got.tgz:164433.got - 2010.06.28 00:19:55.
