data_PCOD8083448
_publ_section_title
;
Structure prediction by ZEFSAII (Michael W. Deem and Ramdas Pophale) SiO2 
 PCOD8083448
Probable space group: C 2/M
;
_chemical_formula_sum "Si O2"
_cell_formula_units_Z 56
_cell_length_a 23.702677
_cell_length_b 11.336411
_cell_length_c 19.393000
_cell_angle_alpha 90.000000
_cell_angle_beta 147.017237
_cell_angle_gamma 90.000000
_cell_volume 2836.778894
_symmetry_space_group_name_H-M "C 2/M"
_symmetry_group_IT_number 12
_symmetry_cell_setting 'monoclinic'
loop_
_space_group_symop_operation_xyz
x,y,z
-x,y,-z
-x,-y,-z
x,-y,z
1/2+x,1/2+y,z
1/2-x,1/2+y,-z
1/2-x,1/2-y,-z
1/2+x,1/2-y,z
loop_
_atom_site_type_symbol
_atom_site_label
_atom_site_fract_x
_atom_site_fract_y
_atom_site_fract_z
Si Si1 0.173340 0.635708 0.061638
Si Si2 0.620180 0.368385 0.793127
Si Si3 0.218278 0.634308 0.265537
Si Si4 0.618420 0.869976 0.430822
Si Si5 0.990708 0.235865 0.193496
Si Si6 0.162653 0.868961 0.292151
Si Si7 0.948281 0.793113 0.518447
O O1 0.167167 0.500000 0.035003
O O2 0.277194 0.691923 0.134083
O O3 0.177573 0.653184 0.147222
O O4 0.069981 0.696242 0.928187
O O5 0.646209 0.500000 0.842175
O O6 0.590882 0.301551 0.832538
O O7 0.528631 0.373765 0.642840
O O8 0.185369 0.500000 0.257538
O O9 0.168672 0.747675 0.253594
O O10 0.343016 0.635426 0.396050
O O11 0.579891 0.811916 0.321149
O O12 0.742868 0.864704 0.556971
O O13 0.575712 0.818830 0.458788
O O14 0.573301 0.000000 0.383525
O O15 0.053869 0.130089 0.221857
O O16 0.167751 0.000000 0.259097
O O17 0.000000 0.751156 0.500000
#
# Coordination Sequence:
#
# PCOD8083448 Si02
#       7
#     8   8   8   8   8   8   8
#     4  10  21  36  56  82 116 149 186 239 286 338
#     4  10  20  34  55  83 114 146 186 239 288 337
#     4  10  21  37  60  90 117 149 193 239 288 338
#     4   9  20  36  55  82 115 150 190 238 287 342
#     4  11  21  36  57  81 111 154 195 232 281 344
#     4  10  22  41  61  84 116 150 192 243 291 341
#     4  10  18  32  58  86 115 146 187 239 291 337
#
# _framework density 19.7407
#
# number of rings (size 3 to 8) (size 9 to 14) (size 15 to 20)
#    0.000    2.000    1.429    2.143    0.000    2.571 
#    0.000    7.143    0.000    0.857    0.000    0.000 
#    0.000    0.000    0.000    0.000    0.000    0.000 
#
# Total GULP energy -346912.684938 kJ/mol
# GULP energy per Si atom -12389.738748 kJ/mol
# Density = 1.969577 g / cm^3
# Si number density = 19.740700 Si / 1000 Ang^3
#
#
#
# Elastic Constant Matrix: (Units=GPa)
#
#
# Indices 1 2 3 4 5 6 
#
# 1 63.0098 42.4121 40.2256 0.0000 2.2936 0.0000
# 2 42.4121 125.0772 39.9666 0.0000 -3.2040 0.0000
# 3 40.2256 39.9666 101.5871 0.0000 -11.7412 0.0000
# 4 0.0000 0.0000 0.0000 13.9343 0.0000 -2.1476
# 5 2.2936 -3.2040 -11.7412 0.0000 27.8488 0.0000
# 6 0.0000 0.0000 0.0000 -2.1476 0.0000 15.6827
#
#
#
# Elastic Compliance Matrix: (Units=1/GPa)
#
#
# Indices 1 2 3 4 5 6 
#
# 1 0.025659 -0.006155 -0.008478 0.000000 -0.006396 0.000000
# 2 -0.006155 0.010628 -0.001623 0.000000 0.001045 0.000000
# 3 -0.008478 -0.001623 0.014610 0.000000 0.006671 0.000000
# 4 0.000000 0.000000 0.000000 0.073313 0.000000 0.010040
# 5 -0.006396 0.001045 0.006671 0.000000 0.039368 0.000000
# 6 0.000000 0.000000 0.000000 0.010040 0.000000 0.065139
#
#
# Mechanical properties :
#
#
# Convention : Reuss Voigt Hill
#
# Bulk Modulus (GPa) = 54.39351 59.43142 56.91247
# Shear Modulus (GPa) = 18.70162 22.63115 20.66639
#
# Velocity S-wave (km/s) = 3.08127 3.38956 3.23908
# Velocity P-wave (km/s) = 6.34608 6.74464 6.54839
#
# Compressibility (1/GPa) = 0.01838455
#
# Stress axis : x y z
#
# Youngs Moduli (GPa) = 38.97300 94.09391 68.44525
#
# Poissons Ratio (x) = 0.57919 0.58025
# Poissons Ratio (y) = 0.23990 0.11108
# Poissons Ratio (z) = 0.33040 0.15271
#
# Static dielectric constant tensor:
#      x y z
#    x 3.510570 0.000000 0.087160 
#    y 0.000000 3.599010 0.000000 
#    z 0.087160 0.000000 3.671530 
# 
# 
# High freq. dielectric constant tensor:
#      x y z
#    x 1.763490 0.000000 0.005760 
#    y 0.000000 1.762650 0.000000 
#    z 0.005760 0.000000 1.775520 
# 
# From -- ./inp_files/174500.got.cif
#   From: 2010.06.25/outbox.cif.g09.slc.cpg/sg12_88_cif.got.tgz:174500.got - 2010.06.28 00:19:55.
