data_PCOD8083215
_publ_section_title
;
Structure prediction by ZEFSAII (Michael W. Deem and Ramdas Pophale) SiO2 
 PCOD8083215
Probable space group: C 2/M
;
_chemical_formula_sum "Si O2"
_cell_formula_units_Z 64
_cell_length_a 20.227710
_cell_length_b 8.993592
_cell_length_c 21.343523
_cell_angle_alpha 90.000000
_cell_angle_beta 63.803316
_cell_angle_gamma 90.000000
_cell_volume 3483.981914
_symmetry_space_group_name_H-M "C 2/M"
_symmetry_group_IT_number 12
_symmetry_cell_setting 'monoclinic'
loop_
_space_group_symop_operation_xyz
x,y,z
-x,y,-z
-x,-y,-z
x,-y,z
1/2+x,1/2+y,z
1/2-x,1/2+y,-z
1/2-x,1/2-y,-z
1/2+x,1/2-y,z
loop_
_atom_site_type_symbol
_atom_site_label
_atom_site_fract_x
_atom_site_fract_y
_atom_site_fract_z
Si Si1 0.323868 0.176475 0.443764
Si Si2 0.228292 0.174925 0.912944
Si Si3 0.751016 0.176662 0.232810
Si Si4 0.354790 0.325155 0.298880
Si Si5 0.854583 0.829012 0.934268
Si Si6 0.974036 0.323640 0.444231
Si Si7 0.479611 0.330347 0.794737
Si Si8 0.085653 0.323892 0.294730
O O1 0.250000 0.250000 0.500000
O O2 0.343030 0.234928 0.367099
O O3 0.390267 0.222284 0.462889
O O4 0.313855 0.000000 0.445412
O O5 0.215703 0.235459 0.847507
O O6 0.304077 0.237470 0.908231
O O7 0.239026 0.000000 0.904683
O O8 0.159932 0.219983 0.987235
O O9 0.797941 0.238457 0.271306
O O10 0.667533 0.234573 0.275660
O O11 0.754561 0.000000 0.233211
O O12 0.343564 0.500000 0.317239
O O13 0.434751 0.290163 0.236397
O O14 0.940152 0.804977 0.879001
O O15 0.831201 0.000000 0.936582
O O16 0.980904 0.500000 0.442409
O O17 0.000000 0.256939 0.500000
O O18 0.029194 0.256678 0.369226
O O19 0.469732 0.500000 0.776642
O O20 0.438662 0.226048 0.763211
O O21 0.083977 0.500000 0.296920
#
# Coordination Sequence:
#
# PCOD8083215 Si02
#       8
#     8   8   8   8   8   8   8   8
#     4  11  23  39  59  81 107 138 173 210 256 310
#     4   9  16  29  48  72 100 132 176 220 255 303
#     4   9  18  31  52  78 101 134 179 221 255 298
#     4  10  21  37  55  75 106 142 174 209 256 311
#     4   9  17  28  46  73 104 135 167 212 269 313
#     4   9  19  34  55  80 102 128 168 214 252 294
#     4  10  19  32  50  75 107 138 167 208 267 316
#     4  10  18  32  55  77  98 128 176 220 250 295
#
# _framework density 18.369785
#
# number of rings (size 3 to 8) (size 9 to 14) (size 15 to 20)
#    0.000    2.375    2.500    0.375    1.750    0.000 
#    0.000    1.875    0.000    5.625    0.000    0.000 
#    0.000    6.000    0.000    0.000    0.000    0.000 
#
# Total GULP energy -396641.618563 kJ/mol
# GULP energy per Si atom -12395.050580 kJ/mol
# Density = 1.832797 g / cm^3
# Si number density = 18.369785 Si / 1000 Ang^3
#
#
#
# Elastic Constant Matrix: (Units=GPa)
#
#
# Indices 1 2 3 4 5 6 
#
# 1 139.0785 28.0205 71.2674 0.0001 -4.6444 0.0002
# 2 28.0205 26.0413 28.8043 0.0000 -1.2579 0.0006
# 3 71.2674 28.8043 141.8094 0.0000 -15.4560 0.0000
# 4 0.0001 0.0000 0.0000 22.7013 0.0000 0.6447
# 5 -4.6444 -1.2579 -15.4560 0.0000 34.5168 0.0000
# 6 0.0002 0.0006 0.0000 0.6447 0.0000 18.4012
#
#
#
# Elastic Compliance Matrix: (Units=1/GPa)
#
#
# Indices 1 2 3 4 5 6 
#
# 1 0.010630 -0.007075 -0.003971 0.000000 -0.000606 0.000000
# 2 -0.007075 0.054502 -0.007782 0.000000 -0.002450 -0.000002
# 3 -0.003971 -0.007782 0.011080 0.000000 0.004143 0.000000
# 4 0.000000 0.000000 0.000000 0.044094 0.000000 -0.001545
# 5 -0.000606 -0.002450 0.004143 0.000000 0.030656 0.000000
# 6 0.000000 -0.000002 0.000000 -0.001545 0.000000 0.054398
#
#
# Mechanical properties :
#
#
# Convention : Reuss Voigt Hill
#
# Bulk Modulus (GPa) = 25.93626 62.56818 44.25222
# Shear Modulus (GPa) = 19.54119 27.04631 23.29375
#
# Velocity S-wave (km/s) = 3.26508 3.84125 3.56483
# Velocity P-wave (km/s) = 5.32579 7.33539 6.40983
#
# Compressibility (1/GPa) = 0.03855606
#
# Stress axis : x y z
#
# Youngs Moduli (GPa) = 94.07008 18.34781 90.25397
#
# Poissons Ratio (x) = 0.12981 0.35843
# Poissons Ratio (y) = 0.66553 0.70236
# Poissons Ratio (z) = 0.37359 0.14278
#
# Static dielectric constant tensor:
#      x y z
#    x 3.493730 0.000000 -0.079380 
#    y 0.000000 3.116790 0.000000 
#    z -0.079380 0.000000 3.835890 
# 
# 
# High freq. dielectric constant tensor:
#      x y z
#    x 1.700370 0.000000 -0.009760 
#    y 0.000000 1.680440 0.000000 
#    z -0.009760 0.000000 1.732100 
# 
# From -- ./inp_files/319889.got.cif
#   From: 2010.06.25/outbox.cif.g09.slc.cpg/sg12_160_cif.got.tgz:319889.got - 2010.06.28 00:19:55.
