data_PCOD8083572
_publ_section_title
;
Structure prediction by ZEFSAII (Michael W. Deem and Ramdas Pophale) SiO2 
 PCOD8083572
Probable space group: C 2/M
;
_chemical_formula_sum "Si O2"
_cell_formula_units_Z 48
_cell_length_a 5.155934
_cell_length_b 27.372083
_cell_length_c 22.363288
_cell_angle_alpha 90.000000
_cell_angle_beta 60.335381
_cell_angle_gamma 90.000000
_cell_volume 2742.453645
_symmetry_space_group_name_H-M "C 2/M"
_symmetry_group_IT_number 12
_symmetry_cell_setting 'monoclinic'
loop_
_space_group_symop_operation_xyz
x,y,z
-x,y,-z
-x,-y,-z
x,-y,z
1/2+x,1/2+y,z
1/2-x,1/2+y,-z
1/2-x,1/2-y,-z
1/2+x,1/2-y,z
loop_
_atom_site_type_symbol
_atom_site_label
_atom_site_fract_x
_atom_site_fract_y
_atom_site_fract_z
Si Si1 0.327275 0.054891 0.751245
Si Si2 0.686045 0.281365 0.921605
Si Si3 0.154974 0.054476 0.398852
Si Si4 0.592309 0.148462 0.201160
Si Si5 0.913130 0.141645 0.280194
Si Si6 0.594197 0.113334 0.427205
O O1 0.649578 0.055091 0.683641
O O2 0.357080 0.089242 0.807252
O O3 0.096847 0.082585 0.732262
O O4 0.215896 0.000000 0.779244
O O5 0.499243 0.241483 0.906116
O O6 0.749372 0.328512 0.874188
O O7 0.500000 0.299894 0.000000
O O8 0.298259 0.089588 0.432390
O O9 0.825695 0.070937 0.418288
O O10 0.138866 0.000000 0.427180
O O11 0.735177 0.169107 0.246830
O O12 0.245303 0.162412 0.242897
O O13 0.750329 0.151007 0.362684
O O14 0.500000 0.140553 0.500000
#
# Coordination Sequence:
#
# PCOD8083572 Si02
#       6
#     8   8   8   8   8   8
#     4   8  17  29  47  68  96 135 178 214 243 279
#     4  10  21  37  59  88 114 131 151 188 252 322
#     4  10  19  29  39  57  87 128 173 220 263 296
#     4  10  18  33  54  72 103 136 165 206 243 303
#     4   9  18  31  44  71  95 135 177 212 246 291
#     4  11  19  29  40  58  92 130 172 218 259 293
#
# _framework density 17.502573000000002
#
# number of rings (size 3 to 8) (size 9 to 14) (size 15 to 20)
#    1.000    1.333    1.667    2.000    0.000    3.333 
#    0.000    0.000    0.000    0.500    0.000    1.167 
#    0.000   13.333    0.000    0.000    0.000    0.000 
#
# Total GULP energy -297318.350186 kJ/mol
# GULP energy per Si atom -12388.264591 kJ/mol
# Density = 1.746274 g / cm^3
# Si number density = 17.502573 Si / 1000 Ang^3
#
#
#
# Elastic Constant Matrix: (Units=GPa)
#
#
# Indices 1 2 3 4 5 6 
#
# 1 104.0522 7.8617 34.1448 0.0000 3.4416 0.0000
# 2 7.8617 36.4343 48.6950 0.0000 9.7889 0.0000
# 3 34.1448 48.6950 123.2867 0.0000 15.4100 0.0000
# 4 0.0000 0.0000 0.0000 14.3385 0.0000 1.1054
# 5 3.4416 9.7889 15.4100 0.0000 21.9547 0.0000
# 6 0.0000 0.0000 0.0000 1.1054 0.0000 12.7860
#
#
#
# Elastic Compliance Matrix: (Units=1/GPa)
#
#
# Indices 1 2 3 4 5 6 
#
# 1 0.010782 0.003572 -0.004370 0.000000 -0.000215 0.000000
# 2 0.003572 0.061729 -0.023963 0.000000 -0.011263 0.000000
# 3 -0.004370 -0.023963 0.019035 0.000000 -0.001991 0.000000
# 4 0.000000 0.000000 0.000000 0.070210 0.000000 -0.006070
# 5 -0.000215 -0.011263 -0.001991 0.000000 0.052002 0.000000
# 6 0.000000 0.000000 0.000000 -0.006070 0.000000 0.078735
#
#
# Mechanical properties :
#
#
# Convention : Reuss Voigt Hill
#
# Bulk Modulus (GPa) = 23.79588 49.46403 36.62995
# Shear Modulus (GPa) = 14.04409 21.35395 17.69902
#
# Velocity S-wave (km/s) = 2.83574 3.49671 3.18342
# Velocity P-wave (km/s) = 4.93428 6.68019 5.87248
#
# Compressibility (1/GPa) = 0.04202409
#
# Stress axis : x y z
#
# Youngs Moduli (GPa) = 92.74880 16.19997 52.53488
#
# Poissons Ratio (x) = -0.05787 0.22958
# Poissons Ratio (y) = -0.33129 1.25887
# Poissons Ratio (z) = 0.40531 0.38819
#
# Static dielectric constant tensor:
#      x y z
#    x 3.328540 0.000000 0.064900 
#    y 0.000000 2.800350 0.000000 
#    z 0.064900 0.000000 3.238050 
# 
# 
# High freq. dielectric constant tensor:
#      x y z
#    x 1.695840 0.000000 0.002360 
#    y 0.000000 1.616900 0.000000 
#    z 0.002360 0.000000 1.662320 
# 
# From -- ./inp_files/355003.got.cif
#   From: 2010.06.25/outbox.cif.g09.slc.cpg/sg12_178_cif.got.tgz:355003.got - 2010.06.28 00:19:55.
