data_PCOD8083524
_publ_section_title
;
Structure prediction by ZEFSAII (Michael W. Deem and Ramdas Pophale) SiO2 
 PCOD8083524
Probable space group: C 2/M
;
_chemical_formula_sum "Si O2"
_cell_formula_units_Z 56
_cell_length_a 28.414262
_cell_length_b 22.020176
_cell_length_c 5.275849
_cell_angle_alpha 90.000000
_cell_angle_beta 68.207518
_cell_angle_gamma 90.000000
_cell_volume 3065.120767
_symmetry_space_group_name_H-M "C 2/M"
_symmetry_group_IT_number 12
_symmetry_cell_setting 'monoclinic'
loop_
_space_group_symop_operation_xyz
x,y,z
-x,y,-z
-x,-y,-z
x,-y,z
1/2+x,1/2+y,z
1/2-x,1/2+y,-z
1/2-x,1/2-y,-z
1/2+x,1/2-y,z
loop_
_atom_site_type_symbol
_atom_site_label
_atom_site_fract_x
_atom_site_fract_y
_atom_site_fract_z
Si Si1 0.059373 0.678523 0.131273
Si Si2 0.861308 0.927927 0.527363
Si Si3 0.870735 0.571407 0.008991
Si Si4 0.697131 0.427832 0.855815
Si Si5 0.970839 0.869840 0.308315
Si Si6 0.949866 0.729066 0.350250
Si Si7 0.689663 0.071598 0.370370
O O1 0.082070 0.713309 0.333523
O O2 0.998570 0.683957 0.252863
O O3 0.076427 0.608194 0.097100
O O4 0.082063 0.713339 0.838331
O O5 0.831533 0.904970 0.338384
O O6 0.915546 0.897354 0.418833
O O7 0.867954 0.000000 0.514094
O O8 0.831555 0.904951 0.835403
O O9 0.883607 0.500000 0.983414
O O10 0.839517 0.592055 0.318599
O O11 0.839389 0.591933 0.824737
O O12 0.699459 0.500000 0.851279
O O13 0.753858 0.400126 0.742430
O O14 0.968951 0.797425 0.312153
O O15 0.000000 0.893094 0.500000
O O16 0.000000 0.893078 0.000000
O O17 0.694898 0.000000 0.360490
#
# Coordination Sequence:
#
# PCOD8083524 Si02
#       7
#     8   8   8   8   8   8   8
#     4  10  18  33  52  71 101 130 169 221 241 298
#     4  10  21  33  51  80 108 136 165 201 258 307
#     4  10  19  30  48  81 108 130 164 207 262 303
#     4   9  17  33  51  73 106 140 171 197 238 310
#     4  12  21  36  55  76 104 129 175 219 246 293
#     4  10  19  35  51  71  93 131 184 214 241 287
#     4   9  17  30  50  74 106 138 166 203 244 300
#
# _framework density 18.270081000000001
#
# number of rings (size 3 to 8) (size 9 to 14) (size 15 to 20)
#    0.000    2.000    2.857    2.571    0.000    4.000 
#    0.000    2.857    0.000    0.000    0.000   20.000 
#    0.000    0.000    0.000    0.000    0.000    0.000 
#
# Total GULP energy -347060.345500 kJ/mol
# GULP energy per Si atom -12395.012339 kJ/mol
# Density = 1.822850 g / cm^3
# Si number density = 18.270081 Si / 1000 Ang^3
#
#
#
# Elastic Constant Matrix: (Units=GPa)
#
#
# Indices 1 2 3 4 5 6 
#
# 1 99.8999 37.3954 65.5147 0.0000 4.9600 0.0000
# 2 37.3954 33.9140 29.5570 0.0000 -6.0541 0.0000
# 3 65.5147 29.5570 151.0821 0.0000 33.0812 0.0000
# 4 0.0000 0.0000 0.0000 9.6170 0.0000 2.7151
# 5 4.9600 -6.0541 33.0812 0.0000 42.1703 0.0000
# 6 0.0000 0.0000 0.0000 2.7151 0.0000 5.9967
#
#
#
# Elastic Compliance Matrix: (Units=1/GPa)
#
#
# Indices 1 2 3 4 5 6 
#
# 1 0.020027 -0.017971 -0.004936 0.000000 -0.001064 0.000000
# 2 -0.017971 0.058428 -0.007169 0.000000 0.016125 0.000000
# 3 -0.004936 -0.007169 0.012388 0.000000 -0.010166 0.000000
# 4 0.000000 0.000000 0.000000 0.119223 0.000000 -0.053981
# 5 -0.001064 0.016125 -0.010166 0.000000 0.034129 0.000000
# 6 0.000000 0.000000 0.000000 -0.053981 0.000000 0.191199
#
#
# Mechanical properties :
#
#
# Convention : Reuss Voigt Hill
#
# Bulk Modulus (GPa) = 32.58146 61.09223 46.83685
# Shear Modulus (GPa) = 9.88584 21.71872 15.80228
#
# Velocity S-wave (km/s) = 2.32867 3.45158 2.94415
# Velocity P-wave (km/s) = 5.01021 7.02819 6.10318
#
# Compressibility (1/GPa) = 0.03069230
#
# Stress axis : x y z
#
# Youngs Moduli (GPa) = 49.93358 17.11505 80.72497
#
# Poissons Ratio (x) = 0.30757 0.39844
# Poissons Ratio (y) = 0.89734 0.57870
# Poissons Ratio (z) = 0.24646 0.12269
#
# Static dielectric constant tensor:
#      x y z
#    x 3.581560 0.000000 0.628350 
#    y 0.000000 2.987480 0.000000 
#    z 0.628350 0.000000 4.406210 
# 
# 
# High freq. dielectric constant tensor:
#      x y z
#    x 1.701000 0.000000 0.024700 
#    y 0.000000 1.662300 0.000000 
#    z 0.024700 0.000000 1.733380 
# 
# From -- ./inp_files/29134.got.cif
#   From: 2010.06.25/outbox.cif.g09.slc.cpg/sg12_15_cif.got.tgz:29134.got - 2010.06.28 00:19:55.
