data_PCOD8083884
_publ_section_title
;
Structure prediction by ZEFSAII (Michael W. Deem and Ramdas Pophale) SiO2 
 PCOD8083884
Probable space group: C 2/M
;
_chemical_formula_sum "Si O2"
_cell_formula_units_Z 56
_cell_length_a 18.484660
_cell_length_b 17.530249
_cell_length_c 9.209281
_cell_angle_alpha 90.000000
_cell_angle_beta 72.895841
_cell_angle_gamma 90.000000
_cell_volume 2852.196411
_symmetry_space_group_name_H-M "C 2/M"
_symmetry_group_IT_number 12
_symmetry_cell_setting 'monoclinic'
loop_
_space_group_symop_operation_xyz
x,y,z
-x,y,-z
-x,-y,-z
x,-y,z
1/2+x,1/2+y,z
1/2-x,1/2+y,-z
1/2-x,1/2-y,-z
1/2+x,1/2-y,z
loop_
_atom_site_type_symbol
_atom_site_label
_atom_site_fract_x
_atom_site_fract_y
_atom_site_fract_z
Si Si1 0.328985 0.911391 0.595260
Si Si2 0.885779 0.703469 0.350822
Si Si3 0.680550 0.639454 0.524458
Si Si4 0.736940 0.179690 0.798136
Si Si5 0.470451 0.725764 0.854248
Si Si6 0.320986 0.182111 0.868529
Si Si7 0.516897 0.413300 0.651811
O O1 0.388621 0.867082 0.459381
O O2 0.244514 0.890325 0.594925
O O3 0.345088 0.888073 0.752937
O O4 0.344881 0.000000 0.568766
O O5 0.835112 0.770877 0.448650
O O6 0.846191 0.680230 0.224067
O O7 0.972063 0.726109 0.277477
O O8 0.706823 0.629973 0.339059
O O9 0.607495 0.591216 0.613482
O O10 0.766970 0.265656 0.801245
O O11 0.724931 0.145813 0.967529
O O12 0.389191 0.765001 0.888246
O O13 0.470505 0.639321 0.791963
O O14 0.500000 0.722788 0.000000
O O15 0.500000 0.384396 0.500000
O O16 0.490125 0.500000 0.694143
#
# Coordination Sequence:
#
# PCOD8083884 Si02
#       7
#     8   8   8   8   8   8   8
#     4  11  22  37  59  88 116 147 196 249 301 344
#     4  10  19  38  59  86 113 151 194 237 283 355
#     4  10  18  37  61  88 114 156 192 239 284 352
#     4  10  18  33  60  83 115 145 197 236 281 333
#     4  11  23  38  61  85 115 156 202 237 295 352
#     4  11  21  35  57  90 115 152 194 248 283 345
#     4  10  22  37  58  91 126 156 190 237 292 355
#
# _framework density 19.633991999999999
#
# number of rings (size 3 to 8) (size 9 to 14) (size 15 to 20)
#    0.000    1.571    4.286    2.143    2.000    0.286 
#    0.000    5.000    0.000    7.714    0.000    0.000 
#    0.000    0.000    0.000    0.000    0.000    0.000 
#
# Total GULP energy -347099.984349 kJ/mol
# GULP energy per Si atom -12396.428012 kJ/mol
# Density = 1.958930 g / cm^3
# Si number density = 19.633992 Si / 1000 Ang^3
#
#
#
# Elastic Constant Matrix: (Units=GPa)
#
#
# Indices 1 2 3 4 5 6 
#
# 1 32.5896 11.1894 21.1233 0.0000 1.0324 0.0000
# 2 11.1894 111.7141 49.7612 0.0000 5.9821 0.0000
# 3 21.1233 49.7612 112.4576 0.0000 11.9446 0.0000
# 4 0.0000 0.0000 0.0000 22.2535 0.0000 2.3043
# 5 1.0324 5.9821 11.9446 0.0000 29.3061 0.0000
# 6 0.0000 0.0000 0.0000 2.3043 0.0000 12.8115
#
#
#
# Elastic Compliance Matrix: (Units=1/GPa)
#
#
# Indices 1 2 3 4 5 6 
#
# 1 0.035050 -0.000732 -0.006422 0.000000 0.001532 0.000000
# 2 -0.000732 0.011166 -0.004771 0.000000 -0.000309 0.000000
# 3 -0.006422 -0.004771 0.012629 0.000000 -0.003947 0.000000
# 4 0.000000 0.000000 0.000000 0.045789 0.000000 -0.008236
# 5 0.001532 -0.000309 -0.003947 0.000000 0.035740 0.000000
# 6 0.000000 0.000000 0.000000 -0.008236 0.000000 0.079536
#
#
# Mechanical properties :
#
#
# Convention : Reuss Voigt Hill
#
# Bulk Modulus (GPa) = 28.57539 46.76768 37.67153
# Shear Modulus (GPa) = 19.57509 24.52006 22.04757
#
# Velocity S-wave (km/s) = 3.16096 3.53775 3.35465
# Velocity P-wave (km/s) = 5.28279 6.36860 5.85093
#
# Compressibility (1/GPa) = 0.03499515
#
# Stress axis : x y z
#
# Youngs Moduli (GPa) = 28.53056 89.55521 79.18408
#
# Poissons Ratio (x) = 0.06555 0.50856
# Poissons Ratio (y) = 0.02088 0.37776
# Poissons Ratio (z) = 0.18324 0.42724
#
# Static dielectric constant tensor:
#      x y z
#    x 3.579510 0.000000 0.024780 
#    y 0.000000 3.295130 0.000000 
#    z 0.024780 0.000000 3.712440 
# 
# 
# High freq. dielectric constant tensor:
#      x y z
#    x 1.763710 0.000000 0.005640 
#    y 0.000000 1.730610 0.000000 
#    z 0.005640 0.000000 1.775610 
# 
# From -- ./inp_files/75846.got.cif
#   From: 2010.06.25/outbox.cif.g09.slc.cpg/sg12_38_cif.got.tgz:75846.got - 2010.06.28 00:19:55.
