data_PCOD8083509
_publ_section_title
;
Structure prediction by ZEFSAII (Michael W. Deem and Ramdas Pophale) SiO2 
 PCOD8083509
Probable space group: C 2/M
;
_chemical_formula_sum "Si O2"
_cell_formula_units_Z 56
_cell_length_a 14.025859
_cell_length_b 29.975999
_cell_length_c 14.019164
_cell_angle_alpha 90.000000
_cell_angle_beta 148.741052
_cell_angle_gamma 90.000000
_cell_volume 3058.542949
_symmetry_space_group_name_H-M "C 2/M"
_symmetry_group_IT_number 12
_symmetry_cell_setting 'monoclinic'
loop_
_space_group_symop_operation_xyz
x,y,z
-x,y,-z
-x,-y,-z
x,-y,z
1/2+x,1/2+y,z
1/2-x,1/2+y,-z
1/2-x,1/2-y,-z
1/2+x,1/2-y,z
loop_
_atom_site_type_symbol
_atom_site_label
_atom_site_fract_x
_atom_site_fract_y
_atom_site_fract_z
Si Si1 0.963515 0.252092 0.193563
Si Si2 0.330259 0.881736 0.584232
Si Si3 0.975884 0.447698 0.367952
Si Si4 0.449289 0.164674 0.065000
Si Si5 0.661173 0.618950 0.065693
Si Si6 0.970748 0.685768 0.367421
Si Si7 0.463521 0.345146 0.229625
O O1 0.030868 0.287081 0.169285
O O2 0.046074 0.202211 0.259784
O O3 0.007653 0.270576 0.336297
O O4 0.750000 0.250000 0.000000
O O5 0.361419 0.931108 0.565622
O O6 0.461210 0.872476 0.787949
O O7 0.384935 0.851749 0.539703
O O8 0.117839 0.869657 0.427559
O O9 0.956410 0.500000 0.337109
O O10 0.790921 0.423894 0.175845
O O11 0.000000 0.435101 0.500000
O O12 0.500000 0.154712 0.000000
O O13 0.227397 0.162957 0.878107
O O14 0.766728 0.665543 0.176838
O O15 0.500000 0.610217 0.000000
O O16 0.570037 0.621202 0.884687
O O17 0.000000 0.700669 0.500000
#
# Coordination Sequence:
#
# PCOD8083509 Si02
#       7
#     8   8   8   8   8   8   8
#     4   9  18  37  48  74 115 147 193 241 272 312
#     4  10  20  38  58  77 113 148 185 230 282 338
#     4  10  20  37  59  86 119 144 174 229 288 351
#     4  10  21  38  56  79 114 153 197 239 275 316
#     4  11  19  32  55  83 115 152 184 219 280 346
#     4  10  18  33  50  76 109 150 193 229 271 328
#     4  11  20  37  55  79 114 153 193 233 276 333
#
# _framework density 18.309372
#
# number of rings (size 3 to 8) (size 9 to 14) (size 15 to 20)
#    0.000    1.857    5.714    3.429    0.000    3.714 
#   10.286    0.714    0.000    0.429    0.000    1.000 
#    0.000    0.000    0.000    0.000    0.000    0.000 
#
# Total GULP energy -346954.149906 kJ/mol
# GULP energy per Si atom -12391.219639 kJ/mol
# Density = 1.826770 g / cm^3
# Si number density = 18.309372 Si / 1000 Ang^3
#
#
#
# Elastic Constant Matrix: (Units=GPa)
#
#
# Indices 1 2 3 4 5 6 
#
# 1 96.4848 34.2795 30.7895 0.0003 -11.1842 0.0003
# 2 34.2795 94.3221 32.4125 0.0000 -7.4762 0.0000
# 3 30.7895 32.4125 79.5915 0.0006 0.2510 0.0006
# 4 0.0003 0.0000 0.0006 41.2479 0.0004 15.2034
# 5 -11.1842 -7.4762 0.2510 0.0004 34.0501 0.0003
# 6 0.0003 0.0000 0.0006 15.2034 0.0003 29.9284
#
#
#
# Elastic Compliance Matrix: (Units=1/GPa)
#
#
# Indices 1 2 3 4 5 6 
#
# 1 0.013127 -0.003178 -0.003795 0.000000 0.003642 0.000000
# 2 -0.003178 0.013358 -0.004217 0.000000 0.001920 0.000000
# 3 -0.003795 -0.004217 0.015757 0.000000 -0.002289 0.000000
# 4 0.000000 0.000000 0.000000 0.029829 0.000000 -0.015153
# 5 0.003642 0.001920 -0.002289 0.000000 0.031003 0.000000
# 6 0.000000 0.000000 0.000000 -0.015153 0.000000 0.041111
#
#
# Mechanical properties :
#
#
# Convention : Reuss Voigt Hill
#
# Bulk Modulus (GPa) = 50.34751 51.70685 51.02718
# Shear Modulus (GPa) = 28.87101 32.57306 30.72204
#
# Velocity S-wave (km/s) = 3.97526 4.22244 4.10071
# Velocity P-wave (km/s) = 6.97339 7.21623 7.09585
#
# Compressibility (1/GPa) = 0.01986196
#
# Stress axis : x y z
#
# Youngs Moduli (GPa) = 76.18105 74.86122 63.46482
#
# Poissons Ratio (x) = 0.23789 0.24087
# Poissons Ratio (y) = 0.24208 0.26761
# Poissons Ratio (z) = 0.28913 0.31566
#
# Static dielectric constant tensor:
#      x y z
#    x 3.245880 0.000000 0.035360 
#    y 0.000000 3.310110 0.000000 
#    z 0.035360 0.000000 3.510360 
# 
# 
# High freq. dielectric constant tensor:
#      x y z
#    x 1.686940 0.000000 0.001810 
#    y 0.000000 1.681680 0.000000 
#    z 0.001810 0.000000 1.719120 
# 
# From -- ./inp_files/219377.got.cif
#   From: 2010.06.25/outbox.cif.g09.slc.cpg/sg12_110_cif.got.tgz:219377.got - 2010.06.28 00:19:55.
