data_PCOD8083955
_publ_section_title
;
Structure prediction by ZEFSAII (Michael W. Deem and Ramdas Pophale) SiO2 
 PCOD8083955
Probable space group: C 2/M
;
_chemical_formula_sum "Si O2"
_cell_formula_units_Z 56
_cell_length_a 10.061615
_cell_length_b 17.011281
_cell_length_c 17.498264
_cell_angle_alpha 90.000000
_cell_angle_beta 105.242300
_cell_angle_gamma 90.000000
_cell_volume 2889.662853
_symmetry_space_group_name_H-M "C 2/M"
_symmetry_group_IT_number 12
_symmetry_cell_setting 'monoclinic'
loop_
_space_group_symop_operation_xyz
x,y,z
-x,y,-z
-x,-y,-z
x,-y,z
1/2+x,1/2+y,z
1/2-x,1/2+y,-z
1/2-x,1/2-y,-z
1/2+x,1/2-y,z
loop_
_atom_site_type_symbol
_atom_site_label
_atom_site_fract_x
_atom_site_fract_y
_atom_site_fract_z
Si Si1 0.320104 0.329076 0.144056
Si Si2 0.849905 0.410276 0.002717
Si Si3 0.138269 0.339678 0.255480
Si Si4 0.341602 0.143891 0.168872
Si Si5 0.111590 0.153162 0.248218
Si Si6 0.689782 0.321328 0.584246
Si Si7 0.885926 0.825176 0.586971
O O1 0.212526 0.363806 0.188611
O O2 0.326819 0.235144 0.145118
O O3 0.467688 0.366340 0.185896
O O4 0.269648 0.357932 0.053767
O O5 0.833821 0.500000 0.973335
O O6 0.829116 0.406026 0.090220
O O7 0.000000 0.377528 0.000000
O O8 0.133295 0.245853 0.260099
O O9 0.224618 0.373426 0.341211
O O10 0.986062 0.375282 0.231744
O O11 0.227758 0.115202 0.212199
O O12 0.119051 0.120065 0.337191
O O13 0.780732 0.245713 0.580657
O O14 0.544053 0.295186 0.600482
O O15 0.660989 0.368133 0.499704
#
# Coordination Sequence:
#
# PCOD8083955 Si02
#       7
#     8   8   8   8   8   8   8
#     4  10  18  34  53  73 101 131 171 206 247 298
#     4  11  23  38  55  76 102 130 166 211 258 307
#     4   9  16  28  46  69  97 134 171 203 241 293
#     4  10  20  34  52  74 101 132 171 210 248 300
#     4   9  18  28  46  71  96 132 167 208 245 290
#     4   9  16  24  38  62  98 139 167 200 246 296
#     4   9  16  25  37  62 100 136 168 199 247 299
#
# _framework density 19.379424
#
# number of rings (size 3 to 8) (size 9 to 14) (size 15 to 20)
#    0.000    2.429    2.857    0.429    6.000    0.571 
#    0.000    1.429    0.000    0.000    0.000    0.000 
#    0.000    6.857    0.000    0.000    0.000    0.000 
#
# Total GULP energy -346932.404689 kJ/mol
# GULP energy per Si atom -12390.443025 kJ/mol
# Density = 1.933532 g / cm^3
# Si number density = 19.379424 Si / 1000 Ang^3
#
#
#
# Elastic Constant Matrix: (Units=GPa)
#
#
# Indices 1 2 3 4 5 6 
#
# 1 150.0227 12.0127 68.2059 0.0000 1.9832 0.0000
# 2 12.0127 16.5770 11.8114 0.0000 4.6144 0.0000
# 3 68.2059 11.8114 166.0706 0.0000 9.5492 0.0000
# 4 0.0000 0.0000 0.0000 2.0298 0.0000 -1.4899
# 5 1.9832 4.6144 9.5492 0.0000 40.0596 0.0000
# 6 0.0000 0.0000 0.0000 -1.4899 0.0000 7.7642
#
#
#
# Elastic Compliance Matrix: (Units=1/GPa)
#
#
# Indices 1 2 3 4 5 6 
#
# 1 0.008447 -0.004048 -0.003228 0.000000 0.000818 0.000000
# 2 -0.004048 0.067108 -0.002714 0.000000 -0.006883 0.000000
# 3 -0.003228 -0.002714 0.007618 0.000000 -0.001343 0.000000
# 4 0.000000 0.000000 0.000000 0.573440 0.000000 0.110041
# 5 0.000818 -0.006883 -0.001343 0.000000 0.026035 0.000000
# 6 0.000000 0.000000 0.000000 0.110041 0.000000 0.149913
#
#
# Mechanical properties :
#
#
# Convention : Reuss Voigt Hill
#
# Bulk Modulus (GPa) = 15.82513 57.41446 36.61980
# Shear Modulus (GPa) = 5.72340 26.01339 15.86840
#
# Velocity S-wave (km/s) = 1.72039 3.66774 2.86462
# Velocity P-wave (km/s) = 3.48282 6.90125 5.46614
#
# Compressibility (1/GPa) = 0.06319064
#
# Stress axis : x y z
#
# Youngs Moduli (GPa) = 118.39006 14.90125 131.27400
#
# Poissons Ratio (x) = 0.06033 0.42377
# Poissons Ratio (y) = 0.47930 0.35634
# Poissons Ratio (z) = 0.38218 0.04045
#
# Static dielectric constant tensor:
#      x y z
#    x 3.812780 0.000000 0.023220 
#    y 0.000000 2.670310 0.000000 
#    z 0.023220 0.000000 4.238410 
# 
# 
# High freq. dielectric constant tensor:
#      x y z
#    x 1.771610 0.000000 0.003720 
#    y 0.000000 1.660970 0.000000 
#    z 0.003720 0.000000 1.784240 
# 
# From -- ./inp_files/257673.got.cif
#   From: 2010.06.25/outbox.cif.g09.slc.cpg/sg12_129_cif.got.tgz:257673.got - 2010.06.28 00:19:55.
