data_PCOD8083101
_publ_section_title
;
Structure prediction by ZEFSAII (Michael W. Deem and Ramdas Pophale) SiO2 
 PCOD8083101
Probable space group: C 2/M
;
_chemical_formula_sum "Si O2"
_cell_formula_units_Z 56
_cell_length_a 10.087037
_cell_length_b 18.951543
_cell_length_c 21.863467
_cell_angle_alpha 90.000000
_cell_angle_beta 48.227570
_cell_angle_gamma 90.000000
_cell_volume 3117.077807
_symmetry_space_group_name_H-M "C 2/M"
_symmetry_group_IT_number 12
_symmetry_cell_setting 'monoclinic'
loop_
_space_group_symop_operation_xyz
x,y,z
-x,y,-z
-x,-y,-z
x,-y,z
1/2+x,1/2+y,z
1/2-x,1/2+y,-z
1/2-x,1/2-y,-z
1/2+x,1/2-y,z
loop_
_atom_site_type_symbol
_atom_site_label
_atom_site_fract_x
_atom_site_fract_y
_atom_site_fract_z
Si Si1 0.977697 0.583489 0.349223
Si Si2 0.123292 0.916076 0.762607
Si Si3 0.508402 0.688252 0.097592
Si Si4 0.212732 0.687952 0.091544
Si Si5 0.441094 0.916796 0.223422
Si Si6 0.875155 0.084185 0.483662
Si Si7 0.945676 0.083590 0.693362
O O1 0.969889 0.500000 0.350844
O O2 0.933257 0.611298 0.295199
O O3 0.826687 0.611416 0.442471
O O4 0.172938 0.608802 0.309089
O O5 0.023092 0.888208 0.733235
O O6 0.038306 0.880397 0.848296
O O7 0.107631 0.000000 0.776687
O O8 0.338973 0.711441 0.108965
O O9 0.567415 0.751344 0.124096
O O10 0.673463 0.669360 0.003357
O O11 0.108654 0.616572 0.138130
O O12 0.258962 0.892897 0.247100
O O13 0.469201 0.000000 0.211927
O O14 0.943324 0.115248 0.398023
O O15 0.000000 0.112154 0.500000
O O16 0.883195 0.000000 0.479730
O O17 0.961631 0.000000 0.685851
#
# Coordination Sequence:
#
# PCOD8083101 Si02
#       7
#     8   8   8   8   8   8   8
#     4   9  16  27  47  73 105 137 170 213 254 301
#     4  10  20  34  51  78 111 138 169 216 267 305
#     4  10  22  39  56  77 104 135 173 215 257 312
#     4  10  22  38  57  78 102 135 174 214 258 311
#     4  10  18  32  53  80 106 135 175 215 256 305
#     4   9  14  24  43  70 105 141 173 207 252 303
#     4   9  18  29  46  75 110 141 171 211 258 306
#
# _framework density 17.965544999999999
#
# number of rings (size 3 to 8) (size 9 to 14) (size 15 to 20)
#    0.000    2.429    2.857    0.000    2.000    1.143 
#    0.000    4.286    0.000    2.571    0.000    6.000 
#    0.000    0.000    0.000    0.000    0.000    0.000 
#
# Total GULP energy -347125.099779 kJ/mol
# GULP energy per Si atom -12397.324992 kJ/mol
# Density = 1.792465 g / cm^3
# Si number density = 17.965545 Si / 1000 Ang^3
#
#
#
# Elastic Constant Matrix: (Units=GPa)
#
#
# Indices 1 2 3 4 5 6 
#
# 1 146.3548 28.8267 52.9137 -0.0003 -3.5215 -0.0002
# 2 28.8267 35.2915 35.8025 -0.0001 -3.2466 -0.0003
# 3 52.9137 35.8025 104.4730 0.0003 -7.5480 0.0000
# 4 -0.0003 -0.0001 0.0003 7.8280 0.0011 -0.3093
# 5 -3.5215 -3.2466 -7.5480 0.0011 31.8348 0.0001
# 6 -0.0002 -0.0003 0.0000 -0.3093 0.0001 18.4955
#
#
#
# Elastic Compliance Matrix: (Units=1/GPa)
#
#
# Indices 1 2 3 4 5 6 
#
# 1 0.008728 -0.004059 -0.003042 0.000000 -0.000170 0.000000
# 2 -0.004059 0.045350 -0.013414 0.000001 0.000996 0.000001
# 3 -0.003042 -0.013414 0.015858 -0.000001 0.002055 0.000000
# 4 0.000000 0.000001 -0.000001 0.127830 -0.000004 0.002138
# 5 -0.000170 0.000996 0.002055 -0.000004 0.031982 0.000000
# 6 0.000000 0.000001 0.000000 0.002138 0.000000 0.054103
#
#
# Mechanical properties :
#
#
# Convention : Reuss Voigt Hill
#
# Bulk Modulus (GPa) = 34.59344 57.91167 46.25255
# Shear Modulus (GPa) = 14.94697 22.87009 18.90853
#
# Velocity S-wave (km/s) = 2.88754 3.57178 3.24773
# Velocity P-wave (km/s) = 5.51492 7.02246 6.31385
#
# Compressibility (1/GPa) = 0.02890721
#
# Stress axis : x y z
#
# Youngs Moduli (GPa) = 114.57634 22.05062 63.06037
#
# Poissons Ratio (x) = 0.08950 0.19182
# Poissons Ratio (y) = 0.46504 0.84588
# Poissons Ratio (z) = 0.34852 0.29578
#
# Static dielectric constant tensor:
#      x y z
#    x 3.663720 0.000000 -0.044090 
#    y 0.000000 2.777660 0.000000 
#    z -0.044090 0.000000 3.488110 
# 
# 
# High freq. dielectric constant tensor:
#      x y z
#    x 1.711230 0.000000 -0.005620 
#    y 0.000000 1.635990 0.000000 
#    z -0.005620 0.000000 1.704840 
# 
# From -- ./inp_files/257681.got.cif
#   From: 2010.06.25/outbox.cif.g09.slc.cpg/sg12_129_cif.got.tgz:257681.got - 2010.06.28 00:19:55.
