data_PCOD8083684
_publ_section_title
;
Structure prediction by ZEFSAII (Michael W. Deem and Ramdas Pophale) SiO2 
 PCOD8083684
Probable space group: C 2/M
;
_chemical_formula_sum "Si O2"
_cell_formula_units_Z 56
_cell_length_a 30.016859
_cell_length_b 8.825518
_cell_length_c 12.475765
_cell_angle_alpha 90.000000
_cell_angle_beta 74.139467
_cell_angle_gamma 90.000000
_cell_volume 3179.186543
_symmetry_space_group_name_H-M "C 2/M"
_symmetry_group_IT_number 12
_symmetry_cell_setting 'monoclinic'
loop_
_space_group_symop_operation_xyz
x,y,z
-x,y,-z
-x,-y,-z
x,-y,z
1/2+x,1/2+y,z
1/2-x,1/2+y,-z
1/2-x,1/2-y,-z
1/2+x,1/2-y,z
loop_
_atom_site_type_symbol
_atom_site_label
_atom_site_fract_x
_atom_site_fract_y
_atom_site_fract_z
Si Si1 0.389828 0.178231 0.607366
Si Si2 0.294491 0.324493 0.349877
Si Si3 0.954894 0.179931 0.733912
Si Si4 0.200818 0.823794 0.405647
Si Si5 0.948290 0.321741 0.362875
Si Si6 0.045481 0.822421 0.025908
Si Si7 0.893658 0.176177 0.208220
O O1 0.412117 0.259026 0.694395
O O2 0.336702 0.230209 0.636362
O O3 0.416095 0.229635 0.482368
O O4 0.392327 0.000000 0.622450
O O5 0.281112 0.500000 0.347790
O O6 0.251931 0.225790 0.333392
O O7 0.305348 0.282841 0.465522
O O8 0.339632 0.281345 0.251149
O O9 0.002725 0.240473 0.653643
O O10 0.955237 0.000000 0.729556
O O11 0.948086 0.244257 0.859308
O O12 0.193645 0.000000 0.387529
O O13 0.956718 0.500000 0.357208
O O14 0.924275 0.273853 0.268569
O O15 0.090306 0.786905 0.923362
O O16 0.037251 0.000000 0.043304
O O17 0.000000 0.749945 0.000000
O O18 0.901678 0.000000 0.232171
#
# Coordination Sequence:
#
# PCOD8083684 Si02
#       7
#     8   8   8   8   8   8   8
#     4  11  23  37  52  74 109 143 174 216 264 310
#     4   9  18  31  51  79 108 137 169 210 262 312
#     4  11  22  36  55  76 103 141 182 217 256 311
#     4  10  19  32  53  79 106 136 174 212 257 317
#     4  11  22  34  50  76 109 142 173 212 262 308
#     4   9  17  32  55  79 103 134 175 222 260 295
#     4  10  18  33  56  79 106 139 176 213 256 311
#
# _framework density 17.614568999999999
#
# number of rings (size 3 to 8) (size 9 to 14) (size 15 to 20)
#    0.000    1.857    2.857    2.143    0.000    4.571 
#    0.000    2.143    0.000    0.857    0.000    0.000 
#    0.000    0.000    0.000    0.000    0.000    0.000 
#
# Total GULP energy -347282.484516 kJ/mol
# GULP energy per Si atom -12402.945876 kJ/mol
# Density = 1.757448 g / cm^3
# Si number density = 17.614569 Si / 1000 Ang^3
#
#
#
# Elastic Constant Matrix: (Units=GPa)
#
#
# Indices 1 2 3 4 5 6 
#
# 1 127.1083 36.9256 52.8715 0.0000 -5.8193 0.0000
# 2 36.9256 53.7654 26.3506 0.0000 2.4162 0.0000
# 3 52.8715 26.3506 73.9071 0.0000 -1.9758 0.0000
# 4 0.0000 0.0000 0.0000 16.9150 0.0000 0.0046
# 5 -5.8193 2.4162 -1.9758 0.0000 30.1509 0.0000
# 6 0.0000 0.0000 0.0000 0.0046 0.0000 34.2429
#
#
#
# Elastic Compliance Matrix: (Units=1/GPa)
#
#
# Indices 1 2 3 4 5 6 
#
# 1 0.012370 -0.005204 -0.006931 0.000000 0.002350 0.000000
# 2 -0.005204 0.024893 -0.005241 0.000000 -0.003343 0.000000
# 3 -0.006931 -0.005241 0.020368 0.000000 0.000417 0.000000
# 4 0.000000 0.000000 0.000000 0.059119 0.000000 -0.000008
# 5 0.002350 -0.003343 0.000417 0.000000 0.033915 0.000000
# 6 0.000000 0.000000 0.000000 -0.000008 0.000000 0.029203
#
#
# Mechanical properties :
#
#
# Convention : Reuss Voigt Hill
#
# Bulk Modulus (GPa) = 43.71015 54.11956 48.91485
# Shear Modulus (GPa) = 22.49748 25.50395 24.00072
#
# Velocity S-wave (km/s) = 3.57768 3.80924 3.69528
# Velocity P-wave (km/s) = 6.47573 7.08083 6.78503
#
# Compressibility (1/GPa) = 0.02287798
#
# Stress axis : x y z
#
# Youngs Moduli (GPa) = 80.84341 40.17257 49.09560
#
# Poissons Ratio (x) = 0.20907 0.34026
# Poissons Ratio (y) = 0.42073 0.25733
# Poissons Ratio (z) = 0.56029 0.21056
#
# Static dielectric constant tensor:
#      x y z
#    x 3.296760 0.000000 -0.093610 
#    y 0.000000 3.160280 0.000000 
#    z -0.093610 0.000000 3.302720 
# 
# 
# High freq. dielectric constant tensor:
#      x y z
#    x 1.682140 0.000000 -0.009030 
#    y 0.000000 1.674580 0.000000 
#    z -0.009030 0.000000 1.664190 
# 
# From -- ./inp_files/186401.got.cif
#   From: 2010.06.25/outbox.cif.g09.slc.cpg/sg12_94_cif.got.tgz:186401.got - 2010.06.28 00:19:55.
