data_PCOD8083838
_publ_section_title
;
Structure prediction by ZEFSAII (Michael W. Deem and Ramdas Pophale) SiO2 
 PCOD8083838
Probable space group: C 2/M
;
_chemical_formula_sum "Si O2"
_cell_formula_units_Z 48
_cell_length_a 16.624659
_cell_length_b 19.784303
_cell_length_c 14.060355
_cell_angle_alpha 90.000000
_cell_angle_beta 36.107236
_cell_angle_gamma 90.000000
_cell_volume 2725.241823
_symmetry_space_group_name_H-M "C 2/M"
_symmetry_group_IT_number 12
_symmetry_cell_setting 'monoclinic'
loop_
_space_group_symop_operation_xyz
x,y,z
-x,y,-z
-x,-y,-z
x,-y,z
1/2+x,1/2+y,z
1/2-x,1/2+y,-z
1/2-x,1/2-y,-z
1/2+x,1/2-y,z
loop_
_atom_site_type_symbol
_atom_site_label
_atom_site_fract_x
_atom_site_fract_y
_atom_site_fract_z
Si Si1 0.346473 0.275703 0.823540
Si Si2 0.985122 0.643136 0.718454
Si Si3 0.741986 0.924543 0.173192
Si Si4 0.242610 0.578551 0.390594
Si Si5 0.979273 0.156129 0.853806
Si Si6 0.932014 0.698528 0.969332
O O1 0.446317 0.213619 0.700203
O O2 0.434117 0.337436 0.785119
O O3 0.250000 0.250000 0.000000
O O4 0.233971 0.296913 0.851858
O O5 0.141037 0.623017 0.551522
O O6 0.890404 0.584551 0.766036
O O7 0.961461 0.647338 0.854420
O O8 0.699311 0.912384 0.322761
O O9 0.798287 0.000000 0.105306
O O10 0.860404 0.873763 0.032099
O O11 0.240311 0.500000 0.423485
O O12 0.392167 0.607852 0.264981
O O13 0.005366 0.230480 0.872480
O O14 0.000000 0.669618 0.000000
#
# Coordination Sequence:
#
# PCOD8083838 Si02
#       6
#     8   8   8   8   8   8
#     4   8  16  32  54  74  98 132 170 209 260 303
#     4  10  19  35  49  73 111 135 167 216 258 299
#     4  11  19  32  52  74 104 147 175 199 247 312
#     4  11  23  32  48  80 111 140 172 203 251 315
#     4  10  18  34  53  77 109 135 169 212 252 308
#     4  10  18  33  59  80  97 130 175 223 259 298
#
# _framework density 17.613116000000002
#
# number of rings (size 3 to 8) (size 9 to 14) (size 15 to 20)
#    0.000    2.333    5.000    3.000    0.000    5.333 
#    0.000    0.000    0.000    2.000    0.000    1.167 
#    0.000    0.000    0.000    0.000    0.000    0.000 
#
# Total GULP energy -297431.176643 kJ/mol
# GULP energy per Si atom -12392.965693 kJ/mol
# Density = 1.757303 g / cm^3
# Si number density = 17.613116 Si / 1000 Ang^3
#
#
#
# Elastic Constant Matrix: (Units=GPa)
#
#
# Indices 1 2 3 4 5 6 
#
# 1 121.6288 26.4077 18.4120 -0.0001 -1.9654 -0.0001
# 2 26.4077 64.5228 20.7936 -0.0001 7.4710 -0.0001
# 3 18.4120 20.7936 55.2847 -0.0007 -5.9465 0.0000
# 4 -0.0001 -0.0001 -0.0007 26.0738 0.0002 -3.8776
# 5 -1.9654 7.4710 -5.9465 0.0002 13.8156 0.0001
# 6 -0.0001 -0.0001 0.0000 -3.8776 0.0001 25.5960
#
#
#
# Elastic Compliance Matrix: (Units=1/GPa)
#
#
# Indices 1 2 3 4 5 6 
#
# 1 0.009273 -0.003644 -0.001430 0.000000 0.002674 0.000000
# 2 -0.003644 0.021614 -0.008628 0.000000 -0.015920 0.000000
# 3 -0.001430 -0.008628 0.023372 0.000000 0.014522 0.000000
# 4 0.000000 0.000000 0.000000 0.039237 0.000000 0.005944
# 5 0.002674 -0.015920 0.014522 0.000000 0.087622 0.000000
# 6 0.000000 0.000000 0.000000 0.005944 0.000000 0.039969
#
#
# Mechanical properties :
#
#
# Convention : Reuss Voigt Hill
#
# Bulk Modulus (GPa) = 37.23847 41.40698 39.32272
# Shear Modulus (GPa) = 19.42198 24.81863 22.12030
#
# Velocity S-wave (km/s) = 3.32429 3.75787 3.54771
# Velocity P-wave (km/s) = 5.99358 6.51068 6.25747
#
# Compressibility (1/GPa) = 0.02685395
#
# Stress axis : x y z
#
# Youngs Moduli (GPa) = 107.84507 46.26703 42.78693
#
# Poissons Ratio (x) = 0.16859 0.06119
# Poissons Ratio (y) = 0.39297 0.36917
# Poissons Ratio (z) = 0.15422 0.39920
#
# Static dielectric constant tensor:
#      x y z
#    x 3.914580 0.000000 -0.353110 
#    y 0.000000 3.244780 0.000000 
#    z -0.353110 0.000000 3.180430 
# 
# 
# High freq. dielectric constant tensor:
#      x y z
#    x 1.680130 0.000000 -0.024640 
#    y 0.000000 1.665240 0.000000 
#    z -0.024640 0.000000 1.656930 
# 
# From -- ./inp_files/76703.got.cif
#   From: 2010.06.25/outbox.cif.g09.slc.cpg/sg12_39_cif.got.tgz:76703.got - 2010.06.28 00:19:55.
