data_PCOD8083615
_publ_section_title
;
Structure prediction by ZEFSAII (Michael W. Deem and Ramdas Pophale) SiO2 
 PCOD8083615
Probable space group: C 2/M
;
_chemical_formula_sum "Si O2"
_cell_formula_units_Z 52
_cell_length_a 25.625571
_cell_length_b 20.605041
_cell_length_c 8.780011
_cell_angle_alpha 90.000000
_cell_angle_beta 41.855219
_cell_angle_gamma 90.000000
_cell_volume 3093.364360
_symmetry_space_group_name_H-M "C 2/M"
_symmetry_group_IT_number 12
_symmetry_cell_setting 'monoclinic'
loop_
_space_group_symop_operation_xyz
x,y,z
-x,y,-z
-x,-y,-z
x,-y,z
1/2+x,1/2+y,z
1/2-x,1/2+y,-z
1/2-x,1/2-y,-z
1/2+x,1/2-y,z
loop_
_atom_site_type_symbol
_atom_site_label
_atom_site_fract_x
_atom_site_fract_y
_atom_site_fract_z
Si Si1 0.770370 0.849995 0.382300
Si Si2 0.764392 0.924677 0.090313
Si Si3 0.732872 0.187077 0.938216
Si Si4 0.144447 0.716331 0.852493
Si Si5 0.426131 0.426537 0.585176
Si Si6 0.000000 0.760033 0.000000
Si Si7 0.627379 0.350471 0.573069
O O1 0.751037 0.900889 0.291337
O O2 0.816741 0.787279 0.223298
O O3 0.688176 0.829500 0.635668
O O4 0.828140 0.883754 0.380530
O O5 0.736952 0.000000 0.132045
O O6 0.719826 0.877595 0.068405
O O7 0.855289 0.916867 0.854781
O O8 0.654597 0.190315 0.003727
O O9 0.807456 0.187468 0.664770
O O10 0.750000 0.250000 0.000000
O O11 0.053045 0.717552 0.001638
O O12 0.500000 0.389115 0.500000
O O13 0.449512 0.500000 0.511614
O O14 0.411111 0.404605 0.446626
O O15 0.059660 0.801747 0.770502
#
# Coordination Sequence:
#
# PCOD8083615 Si02
#       7
#     8   8   8   8   8   4   8
#     4   9  17  32  51  71 100 129 167 208 255 295
#     4  10  20  32  51  76 100 132 176 212 244 301
#     4  10  18  33  55  74 102 137 167 209 259 298
#     4   9  18  32  50  75 100 132 163 210 257 299
#     4   9  19  32  43  63 101 142 172 201 241 288
#     4  10  20  30  49  76 107 122 170 214 250 308
#     4   9  20  30  47  73  99 135 166 209 244 292
#
# _framework density 16.810176999999999
#
# number of rings (size 3 to 8) (size 9 to 14) (size 15 to 20)
#    0.000    2.615    1.538    0.923    4.308    0.615 
#    0.000    2.692    0.000    0.000    0.000    3.231 
#    0.000    0.000    0.000    0.000    0.000    0.000 
#
# Total GULP energy -322167.251025 kJ/mol
# GULP energy per Si atom -12391.048116 kJ/mol
# Density = 1.677192 g / cm^3
# Si number density = 16.810177 Si / 1000 Ang^3
#
#
#
# Elastic Constant Matrix: (Units=GPa)
#
#
# Indices 1 2 3 4 5 6 
#
# 1 141.9723 47.6517 49.9062 0.0000 8.7015 0.0000
# 2 47.6517 75.8614 26.5973 0.0000 13.2296 0.0000
# 3 49.9062 26.5973 55.7044 0.0000 12.2603 0.0000
# 4 0.0000 0.0000 0.0000 17.5526 0.0000 5.7517
# 5 8.7015 13.2296 12.2603 0.0000 30.0006 0.0000
# 6 0.0000 0.0000 0.0000 5.7517 0.0000 27.4816
#
#
#
# Elastic Compliance Matrix: (Units=1/GPa)
#
#
# Indices 1 2 3 4 5 6 
#
# 1 0.011454 -0.004576 -0.008560 0.000000 0.002194 0.000000
# 2 -0.004576 0.018176 -0.003414 0.000000 -0.005293 0.000000
# 3 -0.008560 -0.003414 0.028979 0.000000 -0.007855 0.000000
# 4 0.000000 0.000000 0.000000 0.061166 0.000000 -0.012802
# 5 0.002194 -0.005293 -0.007855 0.000000 0.038240 0.000000
# 6 0.000000 0.000000 0.000000 -0.012802 0.000000 0.039067
#
#
# Mechanical properties :
#
#
# Convention : Reuss Voigt Hill
#
# Bulk Modulus (GPa) = 39.19975 57.98316 48.59146
# Shear Modulus (GPa) = 20.94795 24.96583 22.95689
#
# Velocity S-wave (km/s) = 3.53391 3.85796 3.69949
# Velocity P-wave (km/s) = 6.32622 7.37651 6.87146
#
# Compressibility (1/GPa) = 0.02551037
#
# Stress axis : x y z
#
# Youngs Moduli (GPa) = 87.30549 55.01624 34.50738
#
# Poissons Ratio (x) = 0.25177 0.29537
# Poissons Ratio (y) = 0.39954 0.11780
# Poissons Ratio (z) = 0.74730 0.18781
#
# Static dielectric constant tensor:
#      x y z
#    x 3.794810 0.000000 0.112140 
#    y 0.000000 3.074900 0.000000 
#    z 0.112140 0.000000 3.036120 
# 
# 
# High freq. dielectric constant tensor:
#      x y z
#    x 1.662540 0.000000 0.018410 
#    y 0.000000 1.620700 0.000000 
#    z 0.018410 0.000000 1.630820 
# 
# From -- ./inp_files/106357.got.cif
#   From: 2010.06.25/outbox.cif.g09.slc.cpg/sg12_54_cif.got.tgz:106357.got - 2010.06.28 00:19:55.
