data_PCOD8083811
_publ_section_title
;
Structure prediction by ZEFSAII (Michael W. Deem and Ramdas Pophale) SiO2 
 PCOD8083811
Probable space group: C 2/M
;
_chemical_formula_sum "Si O2"
_cell_formula_units_Z 64
_cell_length_a 20.573441
_cell_length_b 8.784480
_cell_length_c 22.081079
_cell_angle_alpha 90.000000
_cell_angle_beta 117.863637
_cell_angle_gamma 90.000000
_cell_volume 3527.980841
_symmetry_space_group_name_H-M "C 2/M"
_symmetry_group_IT_number 12
_symmetry_cell_setting 'monoclinic'
loop_
_space_group_symop_operation_xyz
x,y,z
-x,y,-z
-x,-y,-z
x,-y,z
1/2+x,1/2+y,z
1/2-x,1/2+y,-z
1/2-x,1/2-y,-z
1/2+x,1/2-y,z
loop_
_atom_site_type_symbol
_atom_site_label
_atom_site_fract_x
_atom_site_fract_y
_atom_site_fract_z
Si Si1 0.944774 0.680299 0.670841
Si Si2 0.707924 0.319998 0.037766
Si Si3 0.168791 0.319657 0.821799
Si Si4 0.412926 0.175356 0.462818
Si Si5 0.475501 0.180091 0.177395
Si Si6 0.405967 0.819446 0.327181
Si Si7 0.669777 0.320919 0.462828
Si Si8 0.549140 0.819796 0.965913
O O1 0.933030 0.500000 0.660499
O O2 0.871627 0.762698 0.615528
O O3 0.960538 0.731359 0.747721
O O4 0.013488 0.735264 0.659625
O O5 0.706164 0.500000 0.029327
O O6 0.752352 0.269551 0.117820
O O7 0.750000 0.250000 0.000000
O O8 0.627231 0.256349 0.008534
O O9 0.161915 0.500000 0.819138
O O10 0.103428 0.253469 0.835718
O O11 0.156197 0.260775 0.747358
O O12 0.500000 0.192789 0.500000
O O13 0.385507 0.238341 0.385426
O O14 0.376252 0.277249 0.497894
O O15 0.390352 0.000000 0.464465
O O16 0.489042 0.233817 0.113975
O O17 0.471347 0.000000 0.178082
O O18 0.409080 0.000000 0.330410
O O19 0.677824 0.500000 0.462591
O O20 0.750000 0.250000 0.500000
O O21 0.560072 0.000000 0.971633
O O22 0.500000 0.762212 0.000000
#
# Coordination Sequence:
#
# PCOD8083811 Si02
#       8
#     8   8   8   8   8   8   8   8
#     4   9  16  32  57  80 103 138 182 219 262 318
#     4  11  20  32  53  78 108 140 180 226 269 317
#     4   8  14  26  48  77 105 136 177 218 262 315
#     4  10  18  33  58  84 108 135 174 217 266 324
#     4   8  14  28  53  79 103 137 179 218 260 321
#     4   8  14  27  52  81 106 137 174 214 261 322
#     4  12  25  39  55  78 111 145 181 222 268 316
#     4  10  20  35  54  78 110 147 184 220 267 324
#
# _framework density 18.140688000000001
#
# number of rings (size 3 to 8) (size 9 to 14) (size 15 to 20)
#    0.000    2.500    2.500    3.000    0.000    0.500 
#    0.000    1.875    0.000    4.500    0.000    0.000 
#    0.000    0.000    0.000    0.000    0.000    0.000 
#
# Total GULP energy -396552.481458 kJ/mol
# GULP energy per Si atom -12392.265046 kJ/mol
# Density = 1.809940 g / cm^3
# Si number density = 18.140688 Si / 1000 Ang^3
#
#
#
# Elastic Constant Matrix: (Units=GPa)
#
#
# Indices 1 2 3 4 5 6 
#
# 1 93.4860 36.4766 76.2800 0.0000 5.0540 0.0000
# 2 36.4766 50.6704 39.6636 0.0000 4.4211 0.0000
# 3 76.2800 39.6636 191.0729 0.0000 1.1644 0.0000
# 4 0.0000 0.0000 0.0000 20.4139 0.0000 4.6894
# 5 5.0540 4.4211 1.1644 0.0000 29.6016 0.0000
# 6 0.0000 0.0000 0.0000 4.6894 0.0000 21.5893
#
#
#
# Elastic Compliance Matrix: (Units=1/GPa)
#
#
# Indices 1 2 3 4 5 6 
#
# 1 0.018951 -0.009054 -0.005676 0.000000 -0.001660 0.000000
# 2 -0.009054 0.028223 -0.002228 0.000000 -0.002582 0.000000
# 3 -0.005676 -0.002228 0.007956 0.000000 0.000989 0.000000
# 4 0.000000 0.000000 0.000000 0.051559 0.000000 -0.011199
# 5 -0.001660 -0.002582 0.000989 0.000000 0.034412 0.000000
# 6 0.000000 0.000000 0.000000 -0.011199 0.000000 0.048752
#
#
# Mechanical properties :
#
#
# Convention : Reuss Voigt Hill
#
# Bulk Modulus (GPa) = 47.14154 71.11886 59.13020
# Shear Modulus (GPa) = 21.66004 26.50823 24.08413
#
# Velocity S-wave (km/s) = 3.45918 3.82679 3.64762
# Velocity P-wave (km/s) = 6.48056 7.66909 7.09974
#
# Compressibility (1/GPa) = 0.02121271
#
# Stress axis : x y z
#
# Youngs Moduli (GPa) = 52.76887 35.43219 125.69156
#
# Poissons Ratio (x) = 0.32082 0.71340
# Poissons Ratio (y) = 0.47779 0.28006
# Poissons Ratio (z) = 0.29950 0.07895
#
# Static dielectric constant tensor:
#      x y z
#    x 4.831210 0.000000 0.125020 
#    y 0.000000 2.995590 0.000000 
#    z 0.125020 0.000000 4.427940 
# 
# 
# High freq. dielectric constant tensor:
#      x y z
#    x 1.672350 0.000000 -0.000500 
#    y 0.000000 1.663350 0.000000 
#    z -0.000500 0.000000 1.730440 
# 
# From -- ./inp_files/320028.got.cif
#   From: 2010.06.25/outbox.cif.g09.slc.cpg/sg12_161_cif.got.tgz:320028.got - 2010.06.28 00:19:55.
