data_PCOD8083039
_publ_section_title
;
Structure prediction by ZEFSAII (Michael W. Deem and Ramdas Pophale) SiO2 
 PCOD8083039
Probable space group: C 2/M
;
_chemical_formula_sum "Si O2"
_cell_formula_units_Z 64
_cell_length_a 25.131961
_cell_length_b 8.782433
_cell_length_c 18.558710
_cell_angle_alpha 90.000000
_cell_angle_beta 117.667264
_cell_angle_gamma 90.000000
_cell_volume 3627.902293
_symmetry_space_group_name_H-M "C 2/M"
_symmetry_group_IT_number 12
_symmetry_cell_setting 'monoclinic'
loop_
_space_group_symop_operation_xyz
x,y,z
-x,y,-z
-x,-y,-z
x,-y,z
1/2+x,1/2+y,z
1/2-x,1/2+y,-z
1/2-x,1/2-y,-z
1/2+x,1/2-y,z
loop_
_atom_site_type_symbol
_atom_site_label
_atom_site_fract_x
_atom_site_fract_y
_atom_site_fract_z
Si Si1 0.538483 0.672801 0.453121
Si Si2 0.743151 0.818954 0.322971
Si Si3 0.880181 0.180316 0.153307
Si Si4 0.805264 0.677917 0.994149
Si Si5 0.368422 0.820877 0.662176
Si Si6 0.229065 0.178196 0.817041
Si Si7 0.339842 0.819402 0.486045
Si Si8 0.999174 0.680265 0.713887
O O1 0.500000 0.674229 0.500000
O O2 0.548560 0.500000 0.432117
O O3 0.600948 0.751411 0.513911
O O4 0.503645 0.769276 0.370798
O O5 0.673973 0.771627 0.297692
O O6 0.761921 0.750187 0.256862
O O7 0.782577 0.747961 0.410463
O O8 0.750505 0.000000 0.328923
O O9 0.864923 0.241553 0.062948
O O10 0.830374 0.243527 0.179622
O O11 0.945840 0.238113 0.213148
O O12 0.879280 0.000000 0.151216
O O13 0.809485 0.500000 0.013103
O O14 0.750000 0.750000 0.000000
O O15 0.790990 0.708974 0.900671
O O16 0.339817 0.762069 0.568987
O O17 0.437323 0.764122 0.714440
O O18 0.371494 0.000000 0.657558
O O19 0.218793 0.000000 0.802111
O O20 0.339962 0.000000 0.478667
O O21 0.008321 0.500000 0.723925
#
# Coordination Sequence:
#
# PCOD8083039 Si02
#       8
#     8   8   8   8   8   8   8   8
#     4  10  21  35  50  68  95 133 169 203 243 292
#     4  10  18  32  53  73  95 130 165 206 250 293
#     4  10  19  32  50  75 102 131 164 201 238 298
#     4   9  16  30  49  72 100 131 160 198 245 298
#     4   8  17  33  51  69  95 128 169 208 246 288
#     4   8  17  30  48  74 101 123 156 200 245 291
#     4  10  20  33  47  71 100 128 165 209 247 290
#     4  10  20  34  51  74  99 128 164 206 247 292
#
# _framework density 17.641047
#
# number of rings (size 3 to 8) (size 9 to 14) (size 15 to 20)
#    0.000    2.625    0.000    3.750    1.750    1.000 
#    0.000    6.250    0.000    0.750    0.000    5.250 
#    0.000    0.000    0.000    0.000    0.000    0.000 
#
# Total GULP energy -396547.628533 kJ/mol
# GULP energy per Si atom -12392.113392 kJ/mol
# Density = 1.760089 g / cm^3
# Si number density = 17.641047 Si / 1000 Ang^3
#
#
#
# Elastic Constant Matrix: (Units=GPa)
#
#
# Indices 1 2 3 4 5 6 
#
# 1 93.5802 29.0878 66.3887 0.0000 12.4138 0.0000
# 2 29.0878 60.1735 26.6915 0.0000 5.6709 0.0000
# 3 66.3887 26.6915 89.6831 0.0000 16.6249 0.0000
# 4 0.0000 0.0000 0.0000 28.8216 0.0000 6.1086
# 5 12.4138 5.6709 16.6249 0.0000 23.8340 0.0000
# 6 0.0000 0.0000 0.0000 6.1086 0.0000 18.9889
#
#
#
# Elastic Compliance Matrix: (Units=1/GPa)
#
#
# Indices 1 2 3 4 5 6 
#
# 1 0.023381 -0.004177 -0.016070 0.000000 0.000025 0.000000
# 2 -0.004177 0.019902 -0.002707 0.000000 -0.000672 0.000000
# 3 -0.016070 -0.002707 0.025475 0.000000 -0.008755 0.000000
# 4 0.000000 0.000000 0.000000 0.037235 0.000000 -0.011978
# 5 0.000025 -0.000672 -0.008755 0.000000 0.048211 0.000000
# 6 0.000000 0.000000 0.000000 -0.011978 0.000000 0.056516
#
#
# Mechanical properties :
#
#
# Convention : Reuss Voigt Hill
#
# Bulk Modulus (GPa) = 43.76120 54.19698 48.97909
# Shear Modulus (GPa) = 18.92198 22.41350 20.66774
#
# Velocity S-wave (km/s) = 3.27863 3.56832 3.42654
# Velocity P-wave (km/s) = 6.26042 6.91129 6.59389
#
# Compressibility (1/GPa) = 0.02285129
#
# Stress axis : x y z
#
# Youngs Moduli (GPa) = 42.76901 50.24723 39.25446
#
# Poissons Ratio (x) = 0.20987 0.63081
# Poissons Ratio (y) = 0.17863 0.10625
# Poissons Ratio (z) = 0.68729 0.13601
#
# Static dielectric constant tensor:
#      x y z
#    x 3.562030 0.000000 0.045840 
#    y 0.000000 3.286820 0.000000 
#    z 0.045840 0.000000 3.635030 
# 
# 
# High freq. dielectric constant tensor:
#      x y z
#    x 1.667210 0.000000 0.010070 
#    y 0.000000 1.673310 0.000000 
#    z 0.010070 0.000000 1.678460 
# 
# From -- ./inp_files/323753.got.cif
#   From: 2010.06.25/outbox.cif.g09.slc.cpg/sg12_162_cif.got.tgz:323753.got - 2010.06.28 00:19:55.
