data_PCOD8083735
_publ_section_title
;
Structure prediction by ZEFSAII (Michael W. Deem and Ramdas Pophale) SiO2 
 PCOD8083735
Probable space group: C 2/M
;
_chemical_formula_sum "Si O2"
_cell_formula_units_Z 64
_cell_length_a 20.375582
_cell_length_b 8.865397
_cell_length_c 19.196962
_cell_angle_alpha 90.000000
_cell_angle_beta 89.734179
_cell_angle_gamma 90.000000
_cell_volume 3467.656275
_symmetry_space_group_name_H-M "C 2/M"
_symmetry_group_IT_number 12
_symmetry_cell_setting 'monoclinic'
loop_
_space_group_symop_operation_xyz
x,y,z
-x,y,-z
-x,-y,-z
x,-y,z
1/2+x,1/2+y,z
1/2-x,1/2+y,-z
1/2-x,1/2-y,-z
1/2+x,1/2-y,z
loop_
_atom_site_type_symbol
_atom_site_label
_atom_site_fract_x
_atom_site_fract_y
_atom_site_fract_z
Si Si1 0.700445 0.678521 0.054565
Si Si2 0.549846 0.826060 0.200681
Si Si3 0.996412 0.321818 0.344950
Si Si4 0.132737 0.321123 0.582531
Si Si5 0.297284 0.825908 0.800936
Si Si6 0.625546 0.177890 0.424572
Si Si7 0.448975 0.321730 0.943064
Si Si8 0.739170 0.678414 0.336762
O O1 0.706354 0.500000 0.051190
O O2 0.722275 0.735091 0.130109
O O3 0.625425 0.731874 0.039158
O O4 0.750000 0.750000 0.000000
O O5 0.511239 0.757693 0.267455
O O6 0.626381 0.804967 0.216925
O O7 0.528061 0.736993 0.132182
O O8 0.532791 0.000000 0.187862
O O9 0.991625 0.500000 0.337497
O O10 0.052923 0.280558 0.399491
O O11 0.928893 0.252342 0.374745
O O12 0.126632 0.500000 0.581753
O O13 0.132574 0.263073 0.503343
O O14 0.198659 0.265880 0.619149
O O15 0.255493 0.757221 0.738149
O O16 0.278598 0.000000 0.811652
O O17 0.674832 0.270633 0.377063
O O18 0.640420 0.000000 0.416873
O O19 0.451975 0.500000 0.940843
O O20 0.500000 0.257370 0.000000
O O21 0.738619 0.500000 0.326217
#
# Coordination Sequence:
#
# PCOD8083735 Si02
#       8
#     8   8   8   8   8   8   8   8
#     4  10  20  36  58  84 112 143 175 215 260 309
#     4   9  17  31  54  80 102 130 174 221 257 299
#     4   9  16  31  53  78 103 130 174 224 263 304
#     4   9  19  32  50  77 108 136 170 220 272 316
#     4  10  19  35  57  80 104 138 183 223 256 306
#     4  10  18  33  57  78  97 135 182 220 260 313
#     4   9  19  36  56  78 108 141 172 209 257 312
#     4  11  21  33  50  77 110 141 172 215 268 320
#
# _framework density 18.456268999999999
#
# number of rings (size 3 to 8) (size 9 to 14) (size 15 to 20)
#    0.000    2.375    1.250    1.875    0.000    2.750 
#    2.250    0.625    0.000    4.500    0.000    0.000 
#    0.000    0.000    0.000    0.000    0.000    0.000 
#
# Total GULP energy -396813.732756 kJ/mol
# GULP energy per Si atom -12400.429149 kJ/mol
# Density = 1.841426 g / cm^3
# Si number density = 18.456269 Si / 1000 Ang^3
#
#
#
# Elastic Constant Matrix: (Units=GPa)
#
#
# Indices 1 2 3 4 5 6 
#
# 1 58.8868 21.8789 44.8181 0.0000 1.7193 0.0000
# 2 21.8789 37.5871 28.2225 0.0000 0.6972 0.0000
# 3 44.8181 28.2225 146.6424 0.0000 4.9021 0.0000
# 4 0.0000 0.0000 0.0000 29.9346 0.0000 0.6511
# 5 1.7193 0.6972 4.9021 0.0000 35.3799 0.0000
# 6 0.0000 0.0000 0.0000 0.6511 0.0000 17.7647
#
#
#
# Elastic Compliance Matrix: (Units=1/GPa)
#
#
# Indices 1 2 3 4 5 6 
#
# 1 0.025174 -0.010378 -0.005689 0.000000 -0.000231 0.000000
# 2 -0.010378 0.035379 -0.003648 0.000000 0.000313 0.000000
# 3 -0.005689 -0.003648 0.009291 0.000000 -0.000939 0.000000
# 4 0.000000 0.000000 0.000000 0.033433 0.000000 -0.001225
# 5 -0.000231 0.000313 -0.000939 0.000000 0.028400 0.000000
# 6 0.000000 0.000000 0.000000 -0.001225 0.000000 0.056336
#
#
# Mechanical properties :
#
#
# Convention : Reuss Voigt Hill
#
# Bulk Modulus (GPa) = 32.87779 48.10614 40.49197
# Shear Modulus (GPa) = 21.04557 26.49563 23.77060
#
# Velocity S-wave (km/s) = 3.38049 3.79303 3.59268
# Velocity P-wave (km/s) = 5.75235 6.73084 6.26074
#
# Compressibility (1/GPa) = 0.03041567
#
# Stress axis : x y z
#
# Youngs Moduli (GPa) = 39.72363 28.26566 107.62627
#
# Poissons Ratio (x) = 0.29333 0.61228
# Poissons Ratio (y) = 0.41224 0.39258
# Poissons Ratio (z) = 0.22598 0.10310
#
# Static dielectric constant tensor:
#      x y z
#    x 3.484620 0.000000 0.030040 
#    y 0.000000 3.146310 0.000000 
#    z 0.030040 0.000000 3.880750 
# 
# 
# High freq. dielectric constant tensor:
#      x y z
#    x 1.707960 0.000000 0.000340 
#    y 0.000000 1.690690 0.000000 
#    z 0.000340 0.000000 1.731560 
# 
# From -- ./inp_files/281250.got.cif
#   From: 2010.06.25/outbox.cif.g09.slc.cpg/sg12_141_cif.got.tgz:281250.got - 2010.06.28 00:19:55.
