data_PCOD8083710
_publ_section_title
;
Structure prediction by ZEFSAII (Michael W. Deem and Ramdas Pophale) SiO2 
 PCOD8083710
Probable space group: C 2/M
;
_chemical_formula_sum "Si O2"
_cell_formula_units_Z 56
_cell_length_a 20.615740
_cell_length_b 8.555395
_cell_length_c 22.412043
_cell_angle_alpha 90.000000
_cell_angle_beta 131.909986
_cell_angle_gamma 90.000000
_cell_volume 2941.760215
_symmetry_space_group_name_H-M "C 2/M"
_symmetry_group_IT_number 12
_symmetry_cell_setting 'monoclinic'
loop_
_space_group_symop_operation_xyz
x,y,z
-x,y,-z
-x,-y,-z
x,-y,z
1/2+x,1/2+y,z
1/2-x,1/2+y,-z
1/2-x,1/2-y,-z
1/2+x,1/2-y,z
loop_
_atom_site_type_symbol
_atom_site_label
_atom_site_fract_x
_atom_site_fract_y
_atom_site_fract_z
Si Si1 0.004889 0.317637 0.591879
Si Si2 0.745845 0.316742 0.164824
Si Si3 0.569603 0.683325 0.749197
Si Si4 0.701565 0.316589 0.273276
Si Si5 0.131016 0.182165 0.573851
Si Si6 0.430070 0.314192 0.003904
Si Si7 0.493496 0.685712 0.826798
O O1 0.022608 0.500000 0.594255
O O2 0.010552 0.271824 0.664382
O O3 0.080330 0.225801 0.603166
O O4 0.910283 0.273196 0.507842
O O5 0.766294 0.500000 0.171032
O O6 0.828946 0.218794 0.195970
O O7 0.720876 0.274214 0.216850
O O8 0.666976 0.262108 0.073813
O O9 0.552863 0.500000 0.732534
O O10 0.538632 0.746920 0.794389
O O11 0.710769 0.500000 0.290173
O O12 0.768393 0.228577 0.357939
O O13 0.605778 0.254147 0.230925
O O14 0.121635 0.000000 0.555694
O O15 0.436632 0.500000 0.006393
O O16 0.452175 0.248578 0.083294
O O17 0.500000 0.244978 0.000000
O O18 0.493602 0.500000 0.829585
#
# Coordination Sequence:
#
# PCOD8083710 Si02
#       7
#     8   8   8   8   8   8   8
#     4  11  21  36  57  81 110 146 187 229 270 323
#     4  10  19  31  56  84 108 141 188 235 274 326
#     4  11  22  36  53  79 117 152 183 226 283 335
#     4  10  18  33  56  83 110 145 191 231 269 321
#     4  11  21  34  56  87 115 141 177 226 282 331
#     4   9  15  29  54  84 109 138 188 239 275 318
#     4   9  19  34  54  80 113 151 189 232 277 325
#
# _framework density 19.036221999999999
#
# number of rings (size 3 to 8) (size 9 to 14) (size 15 to 20)
#    0.000    1.857    2.857    3.857    0.000    0.571 
#    0.000    2.143    0.000    2.143    0.000    0.000 
#    0.000    0.000    0.000    0.000    0.000    0.000 
#
# Total GULP energy -347257.395761 kJ/mol
# GULP energy per Si atom -12402.049849 kJ/mol
# Density = 1.899289 g / cm^3
# Si number density = 19.036222 Si / 1000 Ang^3
#
#
#
# Elastic Constant Matrix: (Units=GPa)
#
#
# Indices 1 2 3 4 5 6 
#
# 1 107.8476 21.8285 60.6991 0.0000 -5.4525 0.0000
# 2 21.8285 41.2748 25.5090 0.0000 2.3694 0.0000
# 3 60.6991 25.5090 161.6533 0.0000 0.2478 0.0000
# 4 0.0000 0.0000 0.0000 18.6334 0.0000 0.4961
# 5 -5.4525 2.3694 0.2478 0.0000 31.7187 0.0000
# 6 0.0000 0.0000 0.0000 0.4961 0.0000 16.2782
#
#
#
# Elastic Compliance Matrix: (Units=1/GPa)
#
#
# Indices 1 2 3 4 5 6 
#
# 1 0.012537 -0.004280 -0.004036 0.000000 0.002506 0.000000
# 2 -0.004280 0.028431 -0.002875 0.000000 -0.002837 0.000000
# 3 -0.004036 -0.002875 0.008156 0.000000 -0.000543 0.000000
# 4 0.000000 0.000000 0.000000 0.053711 0.000000 -0.001637
# 5 0.002506 -0.002837 -0.000543 0.000000 0.032174 0.000000
# 6 0.000000 0.000000 0.000000 -0.001637 0.000000 0.061482
#
#
# Mechanical properties :
#
#
# Convention : Reuss Voigt Hill
#
# Bulk Modulus (GPa) = 37.39389 58.53875 47.96632
# Shear Modulus (GPa) = 21.95042 26.84200 24.39621
#
# Velocity S-wave (km/s) = 3.39940 3.75914 3.58378
# Velocity P-wave (km/s) = 5.92402 7.04695 6.50974
#
# Compressibility (1/GPa) = 0.02674233
#
# Stress axis : x y z
#
# Youngs Moduli (GPa) = 79.76524 35.17291 122.60845
#
# Poissons Ratio (x) = 0.15053 0.49484
# Poissons Ratio (y) = 0.34137 0.35251
# Poissons Ratio (z) = 0.32193 0.10113
#
# Static dielectric constant tensor:
#      x y z
#    x 3.418350 0.000000 0.017940 
#    y 0.000000 3.171660 0.000000 
#    z 0.017940 0.000000 3.806240 
# 
# 
# High freq. dielectric constant tensor:
#      x y z
#    x 1.721680 0.000000 0.008060 
#    y 0.000000 1.713460 0.000000 
#    z 0.008060 0.000000 1.758940 
# 
# From -- ./inp_files/320214.got.cif
#   From: 2010.06.25/outbox.cif.g09.slc.cpg/sg12_161_cif.got.tgz:320214.got - 2010.06.28 00:19:55.
