data_PCOD8083092
_publ_section_title
;
Structure prediction by ZEFSAII (Michael W. Deem and Ramdas Pophale) SiO2 
 PCOD8083092
Probable space group: C 2/M
;
_chemical_formula_sum "Si O2"
_cell_formula_units_Z 48
_cell_length_a 7.704075
_cell_length_b 22.990754
_cell_length_c 14.624014
_cell_angle_alpha 90.000000
_cell_angle_beta 111.034074
_cell_angle_gamma 90.000000
_cell_volume 2417.646595
_symmetry_space_group_name_H-M "C 2/M"
_symmetry_group_IT_number 12
_symmetry_cell_setting 'monoclinic'
loop_
_space_group_symop_operation_xyz
x,y,z
-x,y,-z
-x,-y,-z
x,-y,z
1/2+x,1/2+y,z
1/2-x,1/2+y,-z
1/2-x,1/2-y,-z
1/2+x,1/2-y,z
loop_
_atom_site_type_symbol
_atom_site_label
_atom_site_fract_x
_atom_site_fract_y
_atom_site_fract_z
Si Si1 0.797347 0.066412 0.681730
Si Si2 0.029612 0.381621 0.276008
Si Si3 0.796143 0.933260 0.179747
Si Si4 0.956465 0.712775 0.130870
Si Si5 0.784234 0.067506 0.473045
Si Si6 0.283996 0.325601 0.065291
O O1 0.677863 0.099331 0.735532
O O2 0.727809 0.081410 0.566545
O O3 0.017684 0.079199 0.726958
O O4 0.758690 0.000000 0.695860
O O5 0.115857 0.417808 0.207014
O O6 0.166071 0.388770 0.387947
O O7 0.001655 0.314406 0.239296
O O8 0.816257 0.893807 0.092027
O O9 0.780587 0.000000 0.144903
O O10 0.951077 0.783265 0.131453
O O11 0.115704 0.694831 0.094072
O O12 0.763672 0.685595 0.050925
O O13 0.000000 0.080402 0.500000
O O14 0.739784 0.000000 0.438976
#
# Coordination Sequence:
#
# PCOD8083092 Si02
#       6
#     8   8   8   8   8   8
#     4  10  20  32  52  82 113 151 188 224 277 331
#     4  11  20  33  54  84 113 142 187 235 276 323
#     4  10  20  35  55  82 116 147 182 233 284 331
#     4   9  20  36  59  84 105 147 190 231 279 328
#     4  10  18  32  53  78 113 154 190 228 274 333
#     4   9  19  38  58  83 110 144 192 229 277 340
#
# _framework density 19.854018
#
# number of rings (size 3 to 8) (size 9 to 14) (size 15 to 20)
#    0.000    2.167    1.667    2.000    2.333    1.333 
#    0.000    8.333    0.000    3.000    4.333    0.000 
#    0.000    0.000    0.000    0.000    0.000    0.000 
#
# Total GULP energy -297352.126320 kJ/mol
# GULP energy per Si atom -12389.671930 kJ/mol
# Density = 1.980883 g / cm^3
# Si number density = 19.854018 Si / 1000 Ang^3
#
#
#
# Elastic Constant Matrix: (Units=GPa)
#
#
# Indices 1 2 3 4 5 6 
#
# 1 67.4976 33.4048 20.9008 0.0000 -4.2458 0.0000
# 2 33.4048 106.0382 41.6108 0.0000 0.5170 0.0000
# 3 20.9008 41.6108 70.8521 0.0000 -1.4644 0.0000
# 4 0.0000 0.0000 0.0000 41.7520 0.0000 10.4895
# 5 -4.2458 0.5170 -1.4644 0.0000 21.1199 0.0000
# 6 0.0000 0.0000 0.0000 10.4895 0.0000 18.9235
#
#
#
# Elastic Compliance Matrix: (Units=1/GPa)
#
#
# Indices 1 2 3 4 5 6 
#
# 1 0.018170 -0.004766 -0.002487 0.000000 0.003597 0.000000
# 2 -0.004766 0.013518 -0.006569 0.000000 -0.001745 0.000000
# 3 -0.002487 -0.006569 0.018725 0.000000 0.000959 0.000000
# 4 0.000000 0.000000 0.000000 0.027826 0.000000 -0.015424
# 5 0.003597 -0.001745 0.000959 0.000000 0.048181 0.000000
# 6 0.000000 0.000000 0.000000 -0.015424 0.000000 0.061394
#
#
# Mechanical properties :
#
#
# Convention : Reuss Voigt Hill
#
# Bulk Modulus (GPa) = 43.91729 48.46895 46.19312
# Shear Modulus (GPa) = 22.41659 26.25719 24.33689
#
# Velocity S-wave (km/s) = 3.36381 3.64058 3.50493
# Velocity P-wave (km/s) = 6.10369 6.49134 6.30050
#
# Compressibility (1/GPa) = 0.02277008
#
# Stress axis : x y z
#
# Youngs Moduli (GPa) = 55.03498 73.97374 53.40328
#
# Poissons Ratio (x) = 0.35254 0.13280
# Poissons Ratio (y) = 0.26228 0.35083
# Poissons Ratio (z) = 0.13686 0.48596
#
# Static dielectric constant tensor:
#      x y z
#    x 3.764840 0.000000 0.151260 
#    y 0.000000 4.479390 0.000000 
#    z 0.151260 0.000000 4.179320 
# 
# 
# High freq. dielectric constant tensor:
#      x y z
#    x 1.787930 0.000000 -0.000610 
#    y 0.000000 1.745860 0.000000 
#    z -0.000610 0.000000 1.757850 
# 
# From -- ./inp_files/198033.got.cif
#   From: 2010.06.25/outbox.cif.g09.slc.cpg/sg12_100_cif.got.tgz:198033.got - 2010.06.28 00:19:55.
