data_PCOD8083432
_publ_section_title
;
Structure prediction by ZEFSAII (Michael W. Deem and Ramdas Pophale) SiO2 
 PCOD8083432
Probable space group: C 2/M
;
_chemical_formula_sum "Si O2"
_cell_formula_units_Z 56
_cell_length_a 19.066433
_cell_length_b 15.938421
_cell_length_c 13.728512
_cell_angle_alpha 90.000000
_cell_angle_beta 135.719795
_cell_angle_gamma 90.000000
_cell_volume 2912.715995
_symmetry_space_group_name_H-M "C 2/M"
_symmetry_group_IT_number 12
_symmetry_cell_setting 'monoclinic'
loop_
_space_group_symop_operation_xyz
x,y,z
-x,y,-z
-x,-y,-z
x,-y,z
1/2+x,1/2+y,z
1/2-x,1/2+y,-z
1/2-x,1/2-y,-z
1/2+x,1/2-y,z
loop_
_atom_site_type_symbol
_atom_site_label
_atom_site_fract_x
_atom_site_fract_y
_atom_site_fract_z
Si Si1 0.383653 0.594163 0.252185
Si Si2 0.452428 0.000000 0.094083
Si Si3 0.078812 0.670693 0.834874
Si Si4 0.961144 0.228091 0.565091
Si Si5 0.603674 0.716189 0.050251
Si Si6 0.259767 0.669341 0.295896
Si Si7 0.727009 0.404464 0.057157
Si Si8 0.835935 0.500000 0.792618
O O1 0.388577 0.500000 0.300061
O O2 0.492977 0.635903 0.368671
O O3 0.307195 0.651156 0.237353
O O4 0.350687 0.594495 0.108472
O O5 0.455202 0.919780 0.164648
O O6 0.551073 0.000000 0.129178
O O7 0.350196 0.000000 0.925886
O O8 0.992239 0.706209 0.678640
O O9 0.090352 0.732796 0.937054
O O10 0.181543 0.658715 0.876019
O O11 0.840746 0.214886 0.445978
O O12 0.000000 0.263183 0.500000
O O13 0.663692 0.771600 0.188207
O O14 0.500000 0.691918 0.000000
O O15 0.666877 0.631856 0.090403
O O16 0.222773 0.581332 0.304652
O O17 0.763691 0.500000 0.115542
#
# Coordination Sequence:
#
# PCOD8083432 Si02
#       8
#     8   4   8   8   8   8   8   4
#     4  10  18  32  57  92 120 147 197 258 316 363
#     4  11  22  36  65  92 125 157 208 269 317 364
#     4  12  21  42  64  96 121 160 212 264 316 366
#     4  10  23  36  59  90 124 165 201 256 310 377
#     4  12  24  39  63  91 126 166 207 261 315 375
#     4  11  21  36  59  91 127 157 201 256 318 378
#     4  11  21  37  65  94 117 157 211 263 308 360
#     4  11  20  36  59  98 128 157 200 261 330 381
#
# _framework density 19.226043000000001
#
# number of rings (size 3 to 8) (size 9 to 14) (size 15 to 20)
#    0.000    1.000    5.714    3.000    1.000    1.143 
#    0.000    3.214    1.571    0.000    0.000    0.000 
#    0.000    0.000    0.000    0.000    0.000    0.000 
#
# Total GULP energy -347210.945980 kJ/mol
# GULP energy per Si atom -12400.390928 kJ/mol
# Density = 1.918228 g / cm^3
# Si number density = 19.226043 Si / 1000 Ang^3
#
#
#
# Elastic Constant Matrix: (Units=GPa)
#
#
# Indices 1 2 3 4 5 6 
#
# 1 80.7531 33.6788 28.0348 0.0000 18.6722 0.0000
# 2 33.6788 87.2264 35.4407 0.0000 -4.3797 0.0000
# 3 28.0348 35.4407 108.3571 0.0000 6.7354 0.0000
# 4 0.0000 0.0000 0.0000 32.6890 0.0000 6.0492
# 5 18.6722 -4.3797 6.7354 0.0000 21.8903 0.0000
# 6 0.0000 0.0000 0.0000 6.0492 0.0000 20.7304
#
#
#
# Elastic Compliance Matrix: (Units=1/GPa)
#
#
# Indices 1 2 3 4 5 6 
#
# 1 0.020760 -0.008375 -0.001455 0.000000 -0.018936 0.000000
# 2 -0.008375 0.016963 -0.004115 0.000000 0.011804 0.000000
# 3 -0.001455 -0.004115 0.011138 0.000000 -0.003009 0.000000
# 4 0.000000 0.000000 0.000000 0.032338 0.000000 -0.009436
# 5 -0.018936 0.011804 -0.003009 0.000000 0.065122 0.000000
# 6 0.000000 0.000000 0.000000 -0.009436 0.000000 0.050992
#
#
# Mechanical properties :
#
#
# Convention : Reuss Voigt Hill
#
# Bulk Modulus (GPa) = 47.68502 52.29390 49.98946
# Shear Modulus (GPa) = 21.53381 27.00741 24.27061
#
# Velocity S-wave (km/s) = 3.35032 3.75204 3.55686
# Velocity P-wave (km/s) = 6.31050 6.78446 6.55177
#
# Compressibility (1/GPa) = 0.02097094
#
# Stress axis : x y z
#
# Youngs Moduli (GPa) = 48.16948 58.95254 89.78221
#
# Poissons Ratio (x) = 0.49375 0.13061
# Poissons Ratio (y) = 0.40344 0.36944
# Poissons Ratio (z) = 0.07007 0.24258
#
# Static dielectric constant tensor:
#      x y z
#    x 3.396960 0.000000 0.125880 
#    y 0.000000 4.256250 0.000000 
#    z 0.125880 0.000000 3.516130 
# 
# 
# High freq. dielectric constant tensor:
#      x y z
#    x 1.726510 0.000000 0.016380 
#    y 0.000000 1.750980 0.000000 
#    z 0.016380 0.000000 1.739010 
# 
# From -- ./inp_files/226624.got.cif
#   From: 2010.06.25/outbox.cif.g09.slc.cpg/sg12_114_cif.got.tgz:226624.got - 2010.06.28 00:19:55.
