data_PCOD8083919
_publ_section_title
;
Structure prediction by ZEFSAII (Michael W. Deem and Ramdas Pophale) SiO2 
 PCOD8083919
Probable space group: C 2/M
;
_chemical_formula_sum "Si O2"
_cell_formula_units_Z 56
_cell_length_a 28.242801
_cell_length_b 17.563904
_cell_length_c 9.426247
_cell_angle_alpha 90.000000
_cell_angle_beta 143.800273
_cell_angle_gamma 90.000000
_cell_volume 2761.610461
_symmetry_space_group_name_H-M "C 2/M"
_symmetry_group_IT_number 12
_symmetry_cell_setting 'monoclinic'
loop_
_space_group_symop_operation_xyz
x,y,z
-x,y,-z
-x,-y,-z
x,-y,z
1/2+x,1/2+y,z
1/2-x,1/2+y,-z
1/2-x,1/2-y,-z
1/2+x,1/2-y,z
loop_
_atom_site_type_symbol
_atom_site_label
_atom_site_fract_x
_atom_site_fract_y
_atom_site_fract_z
Si Si1 0.923775 0.412855 0.416850
Si Si2 0.661132 0.586054 0.054722
Si Si3 0.553287 0.186448 0.266117
Si Si4 0.149237 0.915920 0.697664
Si Si5 0.718676 0.190738 0.038182
Si Si6 0.766260 0.711231 0.392316
Si Si7 0.995625 0.181478 0.328181
O O1 0.890786 0.500000 0.339778
O O2 0.943098 0.388390 0.625314
O O3 0.000000 0.408389 0.500000
O O4 0.860356 0.352927 0.201295
O O5 0.648277 0.500000 0.079942
O O6 0.679973 0.585032 0.933569
O O7 0.585546 0.638620 0.906967
O O8 0.737654 0.623151 0.319706
O O9 0.641258 0.214962 0.431823
O O10 0.509741 0.251937 0.250611
O O11 0.500000 0.166448 0.000000
O O12 0.211981 0.869124 0.755906
O O13 0.061310 0.883438 0.471981
O O14 0.146763 0.000000 0.628456
O O15 0.704841 0.241513 0.143183
O O16 0.750000 0.250000 0.000000
O O17 0.750000 0.750000 0.500000
O O18 0.000000 0.214622 0.500000
#
# Coordination Sequence:
#
# PCOD8083919 Si02
#       7
#     8   8   8   8   8   8   8
#     4  11  26  45  69 101 134 172 224 282 334 390
#     4  10  21  38  63  95 129 165 206 265 327 384
#     4  12  25  42  68  95 131 181 221 273 327 393
#     4  10  18  33  62  95 125 159 208 263 321 384
#     4  12  21  42  68  96 123 167 220 277 331 379
#     4  12  26  42  64  98 131 173 222 268 325 398
#     4  10  20  37  64  99 128 164 211 267 324 393
#
# _framework density 20.278022
#
# number of rings (size 3 to 8) (size 9 to 14) (size 15 to 20)
#    0.000    1.000    4.286    2.143    6.000    3.714 
#    0.000    1.429    0.000    1.714    0.000    0.000 
#    0.000    0.000    0.000    0.000    0.000    0.000 
#
# Total GULP energy -347168.229123 kJ/mol
# GULP energy per Si atom -12398.865326 kJ/mol
# Density = 2.023187 g / cm^3
# Si number density = 20.278022 Si / 1000 Ang^3
#
#
#
# Elastic Constant Matrix: (Units=GPa)
#
#
# Indices 1 2 3 4 5 6 
#
# 1 93.4003 47.0885 39.7422 0.0000 -2.1653 0.0000
# 2 47.0885 128.1959 50.8020 0.0000 -0.4162 0.0000
# 3 39.7422 50.8020 107.0722 0.0000 -5.4489 0.0000
# 4 0.0000 0.0000 0.0000 15.1086 0.0000 3.3022
# 5 -2.1653 -0.4162 -5.4489 0.0000 35.7529 0.0000
# 6 0.0000 0.0000 0.0000 3.3022 0.0000 25.4154
#
#
#
# Elastic Compliance Matrix: (Units=1/GPa)
#
#
# Indices 1 2 3 4 5 6 
#
# 1 0.014089 -0.003827 -0.003399 0.000000 0.000291 0.000000
# 2 -0.003827 0.010659 -0.003671 0.000000 -0.000667 0.000000
# 3 -0.003399 -0.003671 0.012426 0.000000 0.001645 0.000000
# 4 0.000000 0.000000 0.000000 0.068122 0.000000 -0.008851
# 5 0.000291 -0.000667 0.001645 0.000000 0.028230 0.000000
# 6 0.000000 0.000000 0.000000 -0.008851 0.000000 0.040496
#
#
# Mechanical properties :
#
#
# Convention : Reuss Voigt Hill
#
# Bulk Modulus (GPa) = 65.01578 67.10376 66.05977
# Shear Modulus (GPa) = 24.88266 27.99110 26.43688
#
# Velocity S-wave (km/s) = 3.50676 3.71936 3.61462
# Velocity P-wave (km/s) = 6.96623 7.18391 7.07590
#
# Compressibility (1/GPa) = 0.01538088
#
# Stress axis : x y z
#
# Youngs Moduli (GPa) = 70.97686 93.81881 80.47449
#
# Poissons Ratio (x) = 0.35908 0.27351
# Poissons Ratio (y) = 0.27165 0.29539
# Poissons Ratio (z) = 0.24123 0.34437
#
# Static dielectric constant tensor:
#      x y z
#    x 3.639760 0.000000 0.032670 
#    y 0.000000 3.985620 0.000000 
#    z 0.032670 0.000000 3.425070 
# 
# 
# High freq. dielectric constant tensor:
#      x y z
#    x 1.787640 0.000000 0.020640 
#    y 0.000000 1.805630 0.000000 
#    z 0.020640 0.000000 1.782480 
# 
# From -- ./inp_files/75979.got.cif
#   From: 2010.06.25/outbox.cif.g09.slc.cpg/sg12_38_cif.got.tgz:75979.got - 2010.06.28 00:19:55.
