data_PCOD8083849
_publ_section_title
;
Structure prediction by ZEFSAII (Michael W. Deem and Ramdas Pophale) SiO2 
 PCOD8083849
Probable space group: C 2/M
;
_chemical_formula_sum "Si O2"
_cell_formula_units_Z 44
_cell_length_a 14.885265
_cell_length_b 19.643946
_cell_length_c 11.893848
_cell_angle_alpha 90.000000
_cell_angle_beta 137.963373
_cell_angle_gamma 90.000000
_cell_volume 2328.770658
_symmetry_space_group_name_H-M "C 2/M"
_symmetry_group_IT_number 12
_symmetry_cell_setting 'monoclinic'
loop_
_space_group_symop_operation_xyz
x,y,z
-x,y,-z
-x,-y,-z
x,-y,z
1/2+x,1/2+y,z
1/2-x,1/2+y,-z
1/2-x,1/2-y,-z
1/2+x,1/2-y,z
loop_
_atom_site_type_symbol
_atom_site_label
_atom_site_fract_x
_atom_site_fract_y
_atom_site_fract_z
Si Si1 0.031236 0.141265 0.265056
Si Si2 0.933019 0.500000 0.813324
Si Si3 0.281062 0.356839 0.175836
Si Si4 0.532018 0.223754 0.903117
Si Si5 0.714358 0.000000 0.012150
Si Si6 0.039659 0.000000 0.906758
Si Si7 0.208579 0.639912 0.356990
O O1 0.983989 0.195480 0.127278
O O2 0.183945 0.150676 0.444723
O O3 0.933257 0.154553 0.278895
O O4 0.023502 0.066287 0.207532
O O5 0.838104 0.563009 0.701034
O O6 0.055815 0.500000 0.837156
O O7 0.000000 0.500000 0.000000
O O8 0.275425 0.337819 0.301468
O O9 0.244573 0.434996 0.117966
O O10 0.179639 0.306474 0.012559
O O11 0.418208 0.185937 0.723502
O O12 0.500000 0.202217 0.000000
O O13 0.800346 0.000000 0.975249
O O14 0.000000 0.000000 0.000000
#
# Coordination Sequence:
#
# PCOD8083849 Si02
#       7
#     8   4   8   8   4   4   8
#     4  11  22  35  53  80 108 142 184 227 271 311
#     4  12  17  33  58  85 115 140 173 214 277 349
#     4  10  19  34  54  83 109 142 174 218 274 336
#     4  10  20  35  55  76 105 148 184 216 264 328
#     4  10  18  33  59  85 102 137 182 217 259 330
#     4  10  23  40  56  75 105 147 192 223 255 313
#     4  11  20  32  55  84 115 135 168 229 283 319
#
# _framework density 18.894089000000001
#
# number of rings (size 3 to 8) (size 9 to 14) (size 15 to 20)
#    0.000    1.455    3.636    3.273    0.000    0.000 
#    0.000    3.636    0.000    2.182    0.000    0.000 
#    0.000    0.000    0.000    0.000    0.000    0.000 
#
# Total GULP energy -272707.056049 kJ/mol
# GULP energy per Si atom -12395.775275 kJ/mol
# Density = 1.885108 g / cm^3
# Si number density = 18.894089 Si / 1000 Ang^3
#
#
#
# Elastic Constant Matrix: (Units=GPa)
#
#
# Indices 1 2 3 4 5 6 
#
# 1 62.0719 -3.1696 20.1937 0.0000 2.8065 0.0000
# 2 -3.1696 113.5699 31.8136 0.0000 4.7788 0.0000
# 3 20.1937 31.8136 90.8973 0.0000 17.3873 0.0000
# 4 0.0000 0.0000 0.0000 20.6102 0.0000 2.0517
# 5 2.8065 4.7788 17.3873 0.0000 24.2874 0.0000
# 6 0.0000 0.0000 0.0000 2.0517 0.0000 23.1811
#
#
#
# Elastic Compliance Matrix: (Units=1/GPa)
#
#
# Indices 1 2 3 4 5 6 
#
# 1 0.017701 0.001782 -0.004748 0.000000 0.001003 0.000000
# 2 0.001782 0.009949 -0.004014 0.000000 0.000710 0.000000
# 3 -0.004748 -0.004014 0.015300 0.000000 -0.009615 0.000000
# 4 0.000000 0.000000 0.000000 0.048951 0.000000 -0.004332
# 5 0.001003 0.000710 -0.009615 0.000000 0.047801 0.000000
# 6 0.000000 0.000000 0.000000 -0.004332 0.000000 0.043522
#
#
# Mechanical properties :
#
#
# Convention : Reuss Voigt Hill
#
# Bulk Modulus (GPa) = 34.49421 40.46825 37.48123
# Shear Modulus (GPa) = 24.17236 28.12917 26.15077
#
# Velocity S-wave (km/s) = 3.58070 3.86266 3.72435
# Velocity P-wave (km/s) = 5.94907 6.43106 6.19475
#
# Compressibility (1/GPa) = 0.02899037
#
# Stress axis : x y z
#
# Youngs Moduli (GPa) = 56.49529 100.50869 65.35844
#
# Poissons Ratio (x) = -0.17908 0.31031
# Poissons Ratio (y) = -0.10066 0.26234
# Poissons Ratio (z) = 0.26823 0.40343
#
# Static dielectric constant tensor:
#      x y z
#    x 3.567190 0.000000 0.326760 
#    y 0.000000 3.520610 0.000000 
#    z 0.326760 0.000000 3.301090 
# 
# 
# High freq. dielectric constant tensor:
#      x y z
#    x 1.725830 0.000000 0.028770 
#    y 0.000000 1.746590 0.000000 
#    z 0.028770 0.000000 1.713700 
# 
# From -- ./inp_files/51609.got.cif
#   From: 2010.06.25/outbox.cif.g09.slc.cpg/sg12_26_cif.got.tgz:51609.got - 2010.06.28 00:19:55.
