data_PCOD8083581
_publ_section_title
;
Structure prediction by ZEFSAII (Michael W. Deem and Ramdas Pophale) SiO2 
 PCOD8083581
Probable space group: C 2/M
;
_chemical_formula_sum "Si O2"
_cell_formula_units_Z 56
_cell_length_a 28.889423
_cell_length_b 8.738268
_cell_length_c 14.421336
_cell_angle_alpha 90.000000
_cell_angle_beta 119.955163
_cell_angle_gamma 90.000000
_cell_volume 3154.252061
_symmetry_space_group_name_H-M "C 2/M"
_symmetry_group_IT_number 12
_symmetry_cell_setting 'monoclinic'
loop_
_space_group_symop_operation_xyz
x,y,z
-x,y,-z
-x,-y,-z
x,-y,z
1/2+x,1/2+y,z
1/2-x,1/2+y,-z
1/2-x,1/2-y,-z
1/2+x,1/2-y,z
loop_
_atom_site_type_symbol
_atom_site_label
_atom_site_fract_x
_atom_site_fract_y
_atom_site_fract_z
Si Si1 0.943902 0.821949 0.906301
Si Si2 0.586489 0.822373 0.844208
Si Si3 0.754120 0.820320 0.106455
Si Si4 0.547945 0.678659 0.485108
Si Si5 0.629402 0.677688 0.714489
Si Si6 0.023505 0.821514 0.258400
Si Si7 0.150868 0.820272 0.063085
O O1 0.936483 0.795168 0.788306
O O2 0.891858 0.751047 0.905527
O O3 0.944559 0.000000 0.933148
O O4 0.000000 0.750456 0.000000
O O5 0.592082 0.780972 0.742228
O O6 0.528288 0.775470 0.820683
O O7 0.597070 0.000000 0.873678
O O8 0.630629 0.720715 0.940254
O O9 0.809065 0.774227 0.213160
O O10 0.708556 0.758842 0.130666
O O11 0.748536 0.000000 0.088987
O O12 0.750000 0.750000 0.000000
O O13 0.500000 0.750672 0.500000
O O14 0.536843 0.500000 0.466649
O O15 0.606251 0.711719 0.588248
O O16 0.548162 0.742522 0.379550
O O17 0.620915 0.500000 0.731556
O O18 0.007748 0.000000 0.249472
O O19 0.158869 0.000000 0.082466
#
# Coordination Sequence:
#
# PCOD8083581 Si02
#       7
#     8   8   8   8   8   8   8
#     4   9  17  30  52  78 100 131 170 210 257 303
#     4  12  22  30  47  77 109 137 169 205 254 311
#     4  11  22  34  52  76 105 137 172 209 257 307
#     4   9  16  28  53  81  99 128 173 212 249 297
#     4  10  20  35  52  73 103 139 171 206 251 302
#     4  10  18  33  54  75 104 136 173 212 249 302
#     4  11  21  35  53  73 103 138 174 213 254 302
#
# _framework density 17.753813000000001
#
# number of rings (size 3 to 8) (size 9 to 14) (size 15 to 20)
#    0.000    1.714    4.286    2.143    0.000    0.571 
#    0.000    3.571    0.000    0.857    0.000    0.000 
#    0.000    0.000    0.000    0.000    0.000    0.286 
#
# Total GULP energy -347071.417881 kJ/mol
# GULP energy per Si atom -12395.407781 kJ/mol
# Density = 1.771341 g / cm^3
# Si number density = 17.753813 Si / 1000 Ang^3
#
#
#
# Elastic Constant Matrix: (Units=GPa)
#
#
# Indices 1 2 3 4 5 6 
#
# 1 119.0670 24.2989 49.1559 0.0000 2.7086 0.0000
# 2 24.2989 42.3128 16.3346 0.0000 4.2603 0.0000
# 3 49.1559 16.3346 109.1266 0.0000 1.5927 0.0000
# 4 0.0000 0.0000 0.0000 11.5954 0.0000 4.1616
# 5 2.7086 4.2603 1.5927 0.0000 30.8708 0.0000
# 6 0.0000 0.0000 0.0000 4.1616 0.0000 23.0423
#
#
#
# Elastic Compliance Matrix: (Units=1/GPa)
#
#
# Indices 1 2 3 4 5 6 
#
# 1 0.011145 -0.004726 -0.004312 0.000000 -0.000103 0.000000
# 2 -0.004726 0.027421 -0.001928 0.000000 -0.003270 0.000000
# 3 -0.004312 -0.001928 0.011394 0.000000 0.000057 0.000000
# 4 0.000000 0.000000 0.000000 0.092219 0.000000 -0.016655
# 5 -0.000103 -0.003270 0.000057 0.000000 0.032850 0.000000
# 6 0.000000 0.000000 0.000000 -0.016655 0.000000 0.046406
#
#
# Mechanical properties :
#
#
# Convention : Reuss Voigt Hill
#
# Bulk Modulus (GPa) = 35.67697 50.00945 42.84321
# Shear Modulus (GPa) = 19.78557 25.14950 22.46754
#
# Velocity S-wave (km/s) = 3.34195 3.76782 3.56125
# Velocity P-wave (km/s) = 5.91865 6.86717 6.41048
#
# Compressibility (1/GPa) = 0.02802929
#
# Stress axis : x y z
#
# Youngs Moduli (GPa) = 89.72345 36.46859 87.76861
#
# Poissons Ratio (x) = 0.17233 0.37842
# Poissons Ratio (y) = 0.42399 0.16923
# Poissons Ratio (z) = 0.38685 0.07032
#
# Static dielectric constant tensor:
#      x y z
#    x 3.416350 0.000000 -0.005570 
#    y 0.000000 3.001800 0.000000 
#    z -0.005570 0.000000 3.371920 
# 
# 
# High freq. dielectric constant tensor:
#      x y z
#    x 1.678390 0.000000 0.000060 
#    y 0.000000 1.657650 0.000000 
#    z 0.000060 0.000000 1.676050 
# 
# From -- ./inp_files/248589.got.cif
#   From: 2010.06.25/outbox.cif.g09.slc.cpg/sg12_125_cif.got.tgz:248589.got - 2010.06.28 00:19:55.
