data_PCOD8083719
_publ_section_title
;
Structure prediction by ZEFSAII (Michael W. Deem and Ramdas Pophale) SiO2 
 PCOD8083719
Probable space group: C 2/M
;
_chemical_formula_sum "Si O2"
_cell_formula_units_Z 60
_cell_length_a 14.188423
_cell_length_b 22.963863
_cell_length_c 13.824747
_cell_angle_alpha 90.000000
_cell_angle_beta 41.897267
_cell_angle_gamma 90.000000
_cell_volume 3008.020309
_symmetry_space_group_name_H-M "C 2/M"
_symmetry_group_IT_number 12
_symmetry_cell_setting 'monoclinic'
loop_
_space_group_symop_operation_xyz
x,y,z
-x,y,-z
-x,-y,-z
x,-y,z
1/2+x,1/2+y,z
1/2-x,1/2+y,-z
1/2-x,1/2-y,-z
1/2+x,1/2-y,z
loop_
_atom_site_type_symbol
_atom_site_label
_atom_site_fract_x
_atom_site_fract_y
_atom_site_fract_z
Si Si1 0.064025 0.655798 0.223767
Si Si2 0.157933 0.567668 0.589825
Si Si3 0.787512 0.564738 0.234067
Si Si4 0.553969 0.739817 0.802477
Si Si5 0.567278 0.636150 0.652528
Si Si6 0.000000 0.114625 0.500000
Si Si7 0.782577 0.239372 0.131407
Si Si8 0.257759 0.365786 0.908204
O O1 0.159391 0.691223 0.227108
O O2 0.967720 0.608850 0.355493
O O3 0.965259 0.699413 0.237895
O O4 0.169034 0.621577 0.071606
O O5 0.136523 0.500000 0.578163
O O6 0.140303 0.578298 0.718540
O O7 0.309594 0.587798 0.432551
O O8 0.825011 0.500000 0.171334
O O9 0.620364 0.570712 0.374259
O O10 0.832619 0.607379 0.112270
O O11 0.608596 0.691414 0.685729
O O12 0.673117 0.750653 0.792264
O O13 0.411659 0.718068 0.964875
O O14 0.550310 0.654908 0.551888
O O15 0.416284 0.608467 0.800794
O O16 0.720090 0.297255 0.129919
#
# Coordination Sequence:
#
# PCOD8083719 Si02
#       8
#     8   8   8   8   8   4   8   8
#     4  11  20  37  57  83 119 151 181 234 286 339
#     4  10  23  38  53  78 116 153 188 235 289 333
#     4   9  17  30  49  78 111 147 185 224 275 338
#     4  10  19  34  61  88 114 149 186 232 284 341
#     4  10  18  36  56  79 112 149 191 226 274 337
#     4   8  17  28  52  76 112 148 179 230 272 322
#     4  10  19  34  57  89 120 143 182 238 288 330
#     4  10  18  33  56  84 112 149 186 225 277 345
#
# _framework density 19.946673000000001
#
# number of rings (size 3 to 8) (size 9 to 14) (size 15 to 20)
#    0.000    2.133    2.667    1.800    0.000    5.867 
#    0.000    2.000    0.000    1.600    0.000    1.867 
#    0.000    0.000    0.000    0.000    0.000    0.000 
#
# Total GULP energy -371841.116901 kJ/mol
# GULP energy per Si atom -12394.703897 kJ/mol
# Density = 1.990127 g / cm^3
# Si number density = 19.946673 Si / 1000 Ang^3
#
#
#
# Elastic Constant Matrix: (Units=GPa)
#
#
# Indices 1 2 3 4 5 6 
#
# 1 68.1793 25.3667 23.8772 -0.0007 -14.2041 0.0004
# 2 25.3667 94.4865 39.3471 0.0000 -11.0575 -0.0001
# 3 23.8772 39.3471 62.2502 -0.0007 -13.0666 0.0013
# 4 -0.0007 0.0000 -0.0007 25.8550 0.0006 5.0678
# 5 -14.2041 -11.0575 -13.0666 0.0006 26.7143 -0.0006
# 6 0.0004 -0.0001 0.0013 5.0678 -0.0006 24.0988
#
#
#
# Elastic Compliance Matrix: (Units=1/GPa)
#
#
# Indices 1 2 3 4 5 6 
#
# 1 0.018425 -0.002447 -0.004098 0.000000 0.006780 0.000000
# 2 -0.002447 0.014757 -0.008225 0.000000 0.000784 0.000001
# 3 -0.004098 -0.008225 0.024141 0.000001 0.006225 -0.000001
# 4 0.000000 0.000000 0.000001 0.040340 -0.000001 -0.008483
# 5 0.006780 0.000784 0.006225 -0.000001 0.044407 0.000001
# 6 0.000000 0.000001 -0.000001 -0.008483 0.000001 0.043280
#
#
# Mechanical properties :
#
#
# Convention : Reuss Voigt Hill
#
# Bulk Modulus (GPa) = 35.99004 44.67756 40.33380
# Shear Modulus (GPa) = 22.30647 24.42196 23.36421
#
# Velocity S-wave (km/s) = 3.34774 3.50289 3.42619
# Velocity P-wave (km/s) = 5.74677 6.22956 5.99303
#
# Compressibility (1/GPa) = 0.02778546
#
# Stress axis : x y z
#
# Youngs Moduli (GPa) = 54.27403 67.76377 41.42305
#
# Poissons Ratio (x) = 0.16580 0.16974
# Poissons Ratio (y) = 0.13280 0.34068
# Poissons Ratio (z) = 0.22239 0.55732
#
# Static dielectric constant tensor:
#      x y z
#    x 3.596830 0.000000 -0.073590 
#    y 0.000000 3.347480 0.000000 
#    z -0.073590 0.000000 3.602500 
# 
# 
# High freq. dielectric constant tensor:
#      x y z
#    x 1.762620 0.000000 -0.015830 
#    y 0.000000 1.750060 0.000000 
#    z -0.015830 0.000000 1.770970 
# 
# From -- ./inp_files/217899.got.cif
#   From: 2010.06.25/outbox.cif.g09.slc.cpg/sg12_109_cif.got.tgz:217899.got - 2010.06.28 00:19:55.
