data_PCOD8083048
_publ_section_title
;
Structure prediction by ZEFSAII (Michael W. Deem and Ramdas Pophale) SiO2 
 PCOD8083048
Probable space group: C 2/M
;
_chemical_formula_sum "Si O2"
_cell_formula_units_Z 64
_cell_length_a 14.760774
_cell_length_b 8.778764
_cell_length_c 26.333672
_cell_angle_alpha 90.000000
_cell_angle_beta 91.264406
_cell_angle_gamma 90.000000
_cell_volume 3411.521933
_symmetry_space_group_name_H-M "C 2/M"
_symmetry_group_IT_number 12
_symmetry_cell_setting 'monoclinic'
loop_
_space_group_symop_operation_xyz
x,y,z
-x,y,-z
-x,-y,-z
x,-y,z
1/2+x,1/2+y,z
1/2-x,1/2+y,-z
1/2-x,1/2-y,-z
1/2+x,1/2-y,z
loop_
_atom_site_type_symbol
_atom_site_label
_atom_site_fract_x
_atom_site_fract_y
_atom_site_fract_z
Si Si1 0.173737 0.677297 0.377955
Si Si2 0.637901 0.179719 0.636357
Si Si3 0.986876 0.318240 0.191182
Si Si4 0.843344 0.819054 0.257631
Si Si5 0.502831 0.819395 0.077294
Si Si6 0.641540 0.176960 0.265346
Si Si7 0.510227 0.819643 0.443871
Si Si8 0.849885 0.680286 0.999584
O O1 0.202322 0.500000 0.380752
O O2 0.262603 0.779713 0.382721
O O3 0.120624 0.708242 0.324375
O O4 0.108398 0.725626 0.423056
O O5 0.613667 0.258552 0.689402
O O6 0.568024 0.244056 0.593714
O O7 0.628243 0.000000 0.643811
O O8 0.981567 0.500000 0.192839
O O9 0.065453 0.248693 0.228436
O O10 0.892775 0.249889 0.209529
O O11 0.004137 0.256707 0.134624
O O12 0.740411 0.757818 0.252893
O O13 0.848716 0.000000 0.257642
O O14 0.410478 0.764055 0.048350
O O15 0.502670 0.000000 0.076447
O O16 0.594313 0.764161 0.049694
O O17 0.641200 0.000000 0.253094
O O18 0.500000 0.748181 0.500000
O O19 0.500762 0.000000 0.446336
O O20 0.838428 0.500000 0.999534
O O21 0.750000 0.750000 0.000000
#
# Coordination Sequence:
#
# PCOD8083048 Si02
#       8
#     8   8   8   8   8   8   8   8
#     4   9  17  32  51  70  96 129 162 201 246 289
#     4  10  19  33  53  74  96 128 169 204 237 290
#     4  10  18  32  53  74  97 131 170 204 238 288
#     4  10  20  34  50  73 103 131 159 199 249 294
#     4   8  17  32  50  72 101 133 166 203 247 294
#     4   8  16  30  48  68  93 127 163 193 234 293
#     4   9  18  32  51  74  99 129 164 200 244 298
#     4   9  17  33  53  73  98 133 171 206 245 289
#
# _framework density 18.759957
#
# number of rings (size 3 to 8) (size 9 to 14) (size 15 to 20)
#    0.000    2.875    0.000    3.000    0.000    3.500 
#    0.000   10.625    0.000    2.625    0.000    0.000 
#    0.000    0.000    0.000    0.000    0.000    0.000 
#
# Total GULP energy -396675.240012 kJ/mol
# GULP energy per Si atom -12396.101250 kJ/mol
# Density = 1.871726 g / cm^3
# Si number density = 18.759957 Si / 1000 Ang^3
#
#
#
# Elastic Constant Matrix: (Units=GPa)
#
#
# Indices 1 2 3 4 5 6 
#
# 1 89.0927 16.4195 50.1869 0.0000 -12.4965 0.0000
# 2 16.4195 30.2372 20.4610 0.0000 -2.7658 0.0000
# 3 50.1869 20.4610 136.4350 0.0000 -18.7472 0.0000
# 4 0.0000 0.0000 0.0000 18.8040 0.0000 -5.2300
# 5 -12.4965 -2.7658 -18.7472 0.0000 26.7473 0.0000
# 6 0.0000 0.0000 0.0000 -5.2300 0.0000 27.5338
#
#
#
# Elastic Compliance Matrix: (Units=1/GPa)
#
#
# Indices 1 2 3 4 5 6 
#
# 1 0.015057 -0.004934 -0.004318 0.000000 0.003498 0.000000
# 2 -0.004934 0.038424 -0.004114 0.000000 -0.001216 0.000000
# 3 -0.004318 -0.004114 0.010180 0.000000 0.004692 0.000000
# 4 0.000000 0.000000 0.000000 0.056147 0.000000 0.010665
# 5 0.003498 -0.001216 0.004692 0.000000 0.042184 0.000000
# 6 0.000000 0.000000 0.000000 0.010665 0.000000 0.038345
#
#
# Mechanical properties :
#
#
# Convention : Reuss Voigt Hill
#
# Bulk Modulus (GPa) = 27.08037 47.76662 37.42349
# Shear Modulus (GPa) = 20.88748 25.86353 23.37550
#
# Velocity S-wave (km/s) = 3.34040 3.71705 3.53375
# Velocity P-wave (km/s) = 5.41703 6.62867 6.05324
#
# Compressibility (1/GPa) = 0.03692712
#
# Stress axis : x y z
#
# Youngs Moduli (GPa) = 66.41622 26.02528 98.23605
#
# Poissons Ratio (x) = 0.12842 0.42417
# Poissons Ratio (y) = 0.32772 0.40419
# Poissons Ratio (z) = 0.28678 0.10708
#
# Static dielectric constant tensor:
#      x y z
#    x 3.589950 0.000000 0.048780 
#    y 0.000000 3.001980 0.000000 
#    z 0.048780 0.000000 3.754350 
# 
# 
# High freq. dielectric constant tensor:
#      x y z
#    x 1.735630 0.000000 -0.004680 
#    y 0.000000 1.686960 0.000000 
#    z -0.004680 0.000000 1.732070 
# 
# From -- ./inp_files/359845.got.cif
#   From: 2010.06.25/outbox.cif.g09.slc.cpg/sg12_180_cif.got.tgz:359845.got - 2010.06.28 00:19:55.
