data_PCOD8083794
_publ_section_title
;
Structure prediction by ZEFSAII (Michael W. Deem and Ramdas Pophale) SiO2 
 PCOD8083794
Probable space group: C 2/M
;
_chemical_formula_sum "Si O2"
_cell_formula_units_Z 56
_cell_length_a 20.886631
_cell_length_b 9.789417
_cell_length_c 23.513873
_cell_angle_alpha 90.000000
_cell_angle_beta 140.571181
_cell_angle_gamma 90.000000
_cell_volume 3053.546723
_symmetry_space_group_name_H-M "C 2/M"
_symmetry_group_IT_number 12
_symmetry_cell_setting 'monoclinic'
loop_
_space_group_symop_operation_xyz
x,y,z
-x,y,-z
-x,-y,-z
x,-y,z
1/2+x,1/2+y,z
1/2-x,1/2+y,-z
1/2-x,1/2-y,-z
1/2+x,1/2-y,z
loop_
_atom_site_type_symbol
_atom_site_label
_atom_site_fract_x
_atom_site_fract_y
_atom_site_fract_z
Si Si1 0.612659 0.660339 0.557334
Si Si2 0.702330 0.336248 0.283088
Si Si3 0.165329 0.153177 0.466022
Si Si4 0.031060 0.839994 0.082052
Si Si5 0.666191 0.649963 0.878705
Si Si6 0.323903 0.351983 0.985428
Si Si7 0.552726 0.654340 0.276848
O O1 0.500000 0.698722 0.500000
O O2 0.634514 0.500000 0.583449
O O3 0.692680 0.753217 0.646911
O O4 0.622220 0.698781 0.497315
O O5 0.723168 0.500000 0.298880
O O6 0.635791 0.289592 0.182491
O O7 0.641295 0.284592 0.297777
O O8 0.250000 0.250000 0.500000
O O9 0.075545 0.160647 0.359215
O O10 0.209859 0.000000 0.500147
O O11 0.043664 0.000000 0.082675
O O12 0.939513 0.801937 0.061377
O O13 0.000000 0.772602 0.000000
O O14 0.662569 0.500000 0.846308
O O15 0.746960 0.746775 0.901915
O O16 0.556848 0.724413 0.804190
O O17 0.706201 0.631221 0.969924
O O18 0.313322 0.500000 0.947315
O O19 0.538573 0.500000 0.244531
#
# Coordination Sequence:
#
# PCOD8083794 Si02
#       7
#     8   8   8   8   8   8   8
#     4  10  22  39  55  76 111 147 174 212 275 334
#     4  10  18  33  58  80  98 132 181 225 260 306
#     4  10  19  33  55  79 103 134 172 219 265 312
#     4   9  17  31  52  75 101 134 172 213 258 307
#     4   9  16  28  46  68  95 127 159 196 244 296
#     4   9  16  28  46  68  95 126 159 198 246 294
#     4   9  16  29  51  75  97 126 169 213 253 302
#
# _framework density 18.339328999999999
#
# number of rings (size 3 to 8) (size 9 to 14) (size 15 to 20)
#    0.000    2.571    2.857    0.000    0.000    0.286 
#    2.571    2.143    0.000    0.857    0.000    0.000 
#    0.000    0.000    0.000    0.000    0.000    0.000 
#
# Total GULP energy -346880.229495 kJ/mol
# GULP energy per Si atom -12388.579625 kJ/mol
# Density = 1.829759 g / cm^3
# Si number density = 18.339329 Si / 1000 Ang^3
#
#
#
# Elastic Constant Matrix: (Units=GPa)
#
#
# Indices 1 2 3 4 5 6 
#
# 1 84.3131 38.0011 57.5785 0.0000 8.4020 0.0000
# 2 38.0011 61.8832 51.6562 0.0000 18.9614 0.0000
# 3 57.5785 51.6562 127.9225 0.0000 19.0259 0.0000
# 4 0.0000 0.0000 0.0000 25.8937 0.0000 9.0931
# 5 8.4020 18.9614 19.0259 0.0000 38.2013 0.0000
# 6 0.0000 0.0000 0.0000 9.0931 0.0000 19.1454
#
#
#
# Elastic Compliance Matrix: (Units=1/GPa)
#
#
# Indices 1 2 3 4 5 6 
#
# 1 0.019032 -0.007527 -0.005897 0.000000 0.002487 0.000000
# 2 -0.007527 0.029695 -0.007190 0.000000 -0.009503 0.000000
# 3 -0.005897 -0.007190 0.013663 0.000000 -0.001939 0.000000
# 4 0.000000 0.000000 0.000000 0.046350 0.000000 -0.022014
# 5 0.002487 -0.009503 -0.001939 0.000000 0.031313 0.000000
# 6 0.000000 0.000000 0.000000 -0.022014 0.000000 0.062687
#
#
# Mechanical properties :
#
#
# Convention : Reuss Voigt Hill
#
# Bulk Modulus (GPa) = 47.25220 63.17670 55.21445
# Shear Modulus (GPa) = 19.91854 25.10695 22.51274
#
# Velocity S-wave (km/s) = 3.29919 3.70404 3.50747
# Velocity P-wave (km/s) = 6.35093 7.26752 6.82463
#
# Compressibility (1/GPa) = 0.02116303
#
# Stress axis : x y z
#
# Youngs Moduli (GPa) = 52.54208 33.67579 73.18917
#
# Poissons Ratio (x) = 0.25348 0.43160
# Poissons Ratio (y) = 0.39548 0.52621
# Poissons Ratio (z) = 0.30984 0.24212
#
# Static dielectric constant tensor:
#      x y z
#    x 3.335040 0.000000 -0.024640 
#    y 0.000000 3.386160 0.000000 
#    z -0.024640 0.000000 3.529560 
# 
# 
# High freq. dielectric constant tensor:
#      x y z
#    x 1.694980 0.000000 0.007060 
#    y 0.000000 1.675050 0.000000 
#    z 0.007060 0.000000 1.713620 
# 
# From -- ./inp_files/367700.got.cif
#   From: 2010.06.25/outbox.cif.g09.slc.cpg/sg12_184_cif.got.tgz:367700.got - 2010.06.28 00:19:55.
