data_PCOD8083175
_publ_section_title
;
Structure prediction by ZEFSAII (Michael W. Deem and Ramdas Pophale) SiO2 
 PCOD8083175
Probable space group: C 2/M
;
_chemical_formula_sum "Si O2"
_cell_formula_units_Z 56
_cell_length_a 28.483257
_cell_length_b 8.940667
_cell_length_c 13.873905
_cell_angle_alpha 90.000000
_cell_angle_beta 122.005698
_cell_angle_gamma 90.000000
_cell_volume 2996.068764
_symmetry_space_group_name_H-M "C 2/M"
_symmetry_group_IT_number 12
_symmetry_cell_setting 'monoclinic'
loop_
_space_group_symop_operation_xyz
x,y,z
-x,y,-z
-x,-y,-z
x,-y,z
1/2+x,1/2+y,z
1/2-x,1/2+y,-z
1/2-x,1/2-y,-z
1/2+x,1/2-y,z
loop_
_atom_site_type_symbol
_atom_site_label
_atom_site_fract_x
_atom_site_fract_y
_atom_site_fract_z
Si Si1 0.028780 0.325147 0.746457
Si Si2 0.050192 0.676109 0.987202
Si Si3 0.123568 0.675259 0.700437
Si Si4 0.270485 0.322680 0.235980
Si Si5 0.252106 0.669319 0.603405
Si Si6 0.663753 0.331566 0.151595
Si Si7 0.951557 0.167464 0.524408
O O1 0.015873 0.500000 0.724800
O O2 0.037954 0.271872 0.865358
O O3 0.083889 0.284402 0.746599
O O4 0.974990 0.239464 0.647963
O O5 0.059290 0.500000 0.002913
O O6 0.105176 0.752619 0.085531
O O7 0.000000 0.728972 0.000000
O O8 0.134372 0.500000 0.703880
O O9 0.181815 0.759252 0.782554
O O10 0.097875 0.732941 0.571842
O O11 0.269318 0.500000 0.231318
O O12 0.284980 0.262047 0.359886
O O13 0.210061 0.258078 0.138419
O O14 0.229275 0.500000 0.568716
O O15 0.250000 0.750000 0.500000
O O16 0.315119 0.667410 0.713876
O O17 0.658955 0.500000 0.105847
O O18 0.000000 0.164147 0.500000
O O19 0.929768 0.000000 0.521958
#
# Coordination Sequence:
#
# PCOD8083175 Si02
#       7
#     8   8   8   8   8   8   8
#     4   9  19  35  55  79 108 145 185 229 279 328
#     4  10  21  39  60  81 105 139 185 232 277 326
#     4  10  18  32  54  80 113 147 181 223 275 335
#     4  10  19  33  54  80 111 143 177 220 272 325
#     4   9  18  33  54  80 109 143 181 220 267 323
#     4   9  20  37  56  78 108 142 178 223 273 321
#     4   9  17  30  49  75 106 140 179 221 267 320
#
# _framework density 18.691161000000001
#
# number of rings (size 3 to 8) (size 9 to 14) (size 15 to 20)
#    0.857    1.714    0.000    2.571    0.000    3.143 
#    2.571    0.714    0.000    0.000    0.000    0.000 
#    0.000    0.000    0.000    0.000    0.000    0.000 
#
# Total GULP energy -347039.324790 kJ/mol
# GULP energy per Si atom -12394.261600 kJ/mol
# Density = 1.864862 g / cm^3
# Si number density = 18.691161 Si / 1000 Ang^3
#
#
#
# Elastic Constant Matrix: (Units=GPa)
#
#
# Indices 1 2 3 4 5 6 
#
# 1 107.0266 53.4986 50.8924 0.0000 13.6157 0.0000
# 2 53.4986 108.3108 39.1598 0.0000 8.6569 0.0000
# 3 50.8924 39.1598 88.0032 0.0000 1.8037 0.0000
# 4 0.0000 0.0000 0.0000 26.8781 0.0000 7.9955
# 5 13.6157 8.6569 1.8037 0.0000 28.2414 0.0000
# 6 0.0000 0.0000 0.0000 7.9955 0.0000 29.7180
#
#
#
# Elastic Compliance Matrix: (Units=1/GPa)
#
#
# Indices 1 2 3 4 5 6 
#
# 1 0.015734 -0.004852 -0.006824 0.000000 -0.005663 0.000000
# 2 -0.004852 0.012770 -0.002848 0.000000 -0.001393 0.000000
# 3 -0.006824 -0.002848 0.016513 0.000000 0.003108 0.000000
# 4 0.000000 0.000000 0.000000 0.040442 0.000000 -0.010881
# 5 -0.005663 -0.001393 0.003108 0.000000 0.038368 0.000000
# 6 0.000000 0.000000 0.000000 -0.010881 0.000000 0.036577
#
#
# Mechanical properties :
#
#
# Convention : Reuss Voigt Hill
#
# Bulk Modulus (GPa) = 62.61899 65.60471 64.11185
# Shear Modulus (GPa) = 25.67065 27.62015 26.64540
#
# Velocity S-wave (km/s) = 3.70998 3.84827 3.77976
# Velocity P-wave (km/s) = 7.20601 7.41088 7.30916
#
# Compressibility (1/GPa) = 0.01596960
#
# Stress axis : x y z
#
# Youngs Moduli (GPa) = 63.55688 78.30674 60.55760
#
# Poissons Ratio (x) = 0.37993 0.41324
# Poissons Ratio (y) = 0.30836 0.17248
# Poissons Ratio (z) = 0.43371 0.22303
#
# Static dielectric constant tensor:
#      x y z
#    x 3.288570 0.000000 0.060160 
#    y 0.000000 3.484700 0.000000 
#    z 0.060160 0.000000 3.273260 
# 
# 
# High freq. dielectric constant tensor:
#      x y z
#    x 1.707810 0.000000 0.010930 
#    y 0.000000 1.736370 0.000000 
#    z 0.010930 0.000000 1.706310 
# 
# From -- ./inp_files/244279.got.cif
#   From: 2010.06.25/outbox.cif.g09.slc.cpg/sg12_123_cif.got.tgz:244279.got - 2010.06.28 00:19:55.
