data_PCOD8083699
_publ_section_title
;
Structure prediction by ZEFSAII (Michael W. Deem and Ramdas Pophale) SiO2 
 PCOD8083699
Probable space group: C 2/M
;
_chemical_formula_sum "Si O2"
_cell_formula_units_Z 64
_cell_length_a 31.371403
_cell_length_b 14.967418
_cell_length_c 21.663161
_cell_angle_alpha 90.000000
_cell_angle_beta 19.001946
_cell_angle_gamma 90.000000
_cell_volume 3311.977748
_symmetry_space_group_name_H-M "C 2/M"
_symmetry_group_IT_number 12
_symmetry_cell_setting 'monoclinic'
loop_
_space_group_symop_operation_xyz
x,y,z
-x,y,-z
-x,-y,-z
x,-y,z
1/2+x,1/2+y,z
1/2-x,1/2+y,-z
1/2-x,1/2-y,-z
1/2+x,1/2-y,z
loop_
_atom_site_type_symbol
_atom_site_label
_atom_site_fract_x
_atom_site_fract_y
_atom_site_fract_z
Si Si1 0.065183 0.599789 0.286928
Si Si2 0.723249 0.853482 0.538593
Si Si3 0.113379 0.099233 0.580236
Si Si4 0.816459 0.600642 0.548718
Si Si5 0.746311 0.777375 0.704004
Si Si6 0.975476 0.598716 0.961522
Si Si7 0.365008 0.398563 0.845547
Si Si8 0.999870 0.774916 0.431683
O O1 0.045933 0.500000 0.339480
O O2 0.031416 0.669399 0.386799
O O3 0.969222 0.616079 0.359129
O O4 0.214781 0.617650 0.065810
O O5 0.750000 0.750000 0.500000
O O6 0.854718 0.895986 0.390036
O O7 0.698470 0.890648 0.504210
O O8 0.600720 0.878199 0.749115
O O9 0.216014 0.166445 0.408229
O O10 0.961579 0.123203 0.771859
O O11 0.143772 0.000000 0.513797
O O12 0.772284 0.500000 0.628291
O O13 0.728125 0.673865 0.706658
O O14 0.857309 0.791291 0.601628
O O15 0.623086 0.817478 0.909633
O O16 0.922702 0.500000 0.012485
O O17 0.000000 0.592383 0.000000
O O18 0.388158 0.500000 0.791814
O O19 0.393996 0.331335 0.750812
O O20 0.000000 0.811292 0.500000
#
# Coordination Sequence:
#
# PCOD8083699 Si02
#       8
#     8   8   8   8   8   8   8   8
#     4   9  19  37  59  81 107 144 191 235 274 323
#     4  12  22  36  56  86 118 146 185 233 276 333
#     4  10  18  33  56  81 112 148 184 224 278 332
#     4  10  20  36  59  83 112 149 188 233 282 328
#     4  10  20  37  55  81 112 148 187 226 278 331
#     4  11  21  35  58  84 111 145 186 230 274 329
#     4   9  19  35  57  81 110 147 185 227 275 330
#     4  10  21  35  53  82 111 148 179 223 281 336
#
# _framework density 19.323801
#
# number of rings (size 3 to 8) (size 9 to 14) (size 15 to 20)
#    0.000    1.875    2.500    1.875    0.000    2.000 
#    2.250    1.250    0.000    4.875    0.000    0.000 
#    0.000    0.000    0.000    0.000    0.000    0.000 
#
# Total GULP energy -396481.366305 kJ/mol
# GULP energy per Si atom -12390.042697 kJ/mol
# Density = 1.927982 g / cm^3
# Si number density = 19.323801 Si / 1000 Ang^3
#
#
#
# Elastic Constant Matrix: (Units=GPa)
#
#
# Indices 1 2 3 4 5 6 
#
# 1 65.3410 7.2073 23.8147 0.0002 -4.7793 0.0003
# 2 7.2073 110.7971 41.4416 0.0009 -4.1284 0.0012
# 3 23.8147 41.4416 69.1581 0.0007 -8.5774 0.0010
# 4 0.0002 0.0009 0.0007 24.2147 -0.0002 -7.2857
# 5 -4.7793 -4.1284 -8.5774 -0.0002 17.6526 -0.0003
# 6 0.0003 0.0012 0.0010 -7.2857 -0.0003 11.7875
#
#
#
# Elastic Compliance Matrix: (Units=1/GPa)
#
#
# Indices 1 2 3 4 5 6 
#
# 1 0.017738 0.001435 -0.006737 0.000000 0.001865 0.000000
# 2 0.001435 0.011757 -0.007609 -0.000001 -0.000559 -0.000001
# 3 -0.006737 -0.007609 0.022232 -0.000001 0.007199 -0.000001
# 4 0.000000 -0.000001 -0.000001 0.050732 0.000001 0.031357
# 5 0.001865 -0.000559 0.007199 0.000001 0.060521 0.000001
# 6 0.000000 -0.000001 -0.000001 0.031357 0.000001 0.104217
#
#
# Mechanical properties :
#
#
# Convention : Reuss Voigt Hill
#
# Bulk Modulus (GPa) = 38.60095 43.35816 40.97956
# Shear Modulus (GPa) = 16.57534 22.25314 19.41424
#
# Velocity S-wave (km/s) = 2.93194 3.39719 3.17311
# Velocity P-wave (km/s) = 5.61079 6.15421 5.88877
#
# Compressibility (1/GPa) = 0.02590610
#
# Stress axis : x y z
#
# Youngs Moduli (GPa) = 56.37684 85.05367 44.98052
#
# Poissons Ratio (x) = -0.12209 0.30303
# Poissons Ratio (y) = -0.08093 0.34225
# Poissons Ratio (z) = 0.37981 0.64717
#
# Static dielectric constant tensor:
#      x y z
#    x 3.697610 0.000000 -0.286700 
#    y 0.000000 3.990350 0.000000 
#    z -0.286700 0.000000 3.438620 
# 
# 
# High freq. dielectric constant tensor:
#      x y z
#    x 1.743000 0.000000 -0.025430 
#    y 0.000000 1.775840 0.000000 
#    z -0.025430 0.000000 1.724630 
# 
# From -- ./inp_files/330331.got.cif
#   From: 2010.06.25/outbox.cif.g09.slc.cpg/sg12_166_cif.got.tgz:330331.got - 2010.06.28 00:19:55.
