data_PCOD8083076
_publ_section_title
;
Structure prediction by ZEFSAII (Michael W. Deem and Ramdas Pophale) SiO2 
 PCOD8083076
Probable space group: C 2/M
;
_chemical_formula_sum "Si O2"
_cell_formula_units_Z 64
_cell_length_a 20.027698
_cell_length_b 8.893128
_cell_length_c 24.438591
_cell_angle_alpha 90.000000
_cell_angle_beta 125.561688
_cell_angle_gamma 90.000000
_cell_volume 3540.901673
_symmetry_space_group_name_H-M "C 2/M"
_symmetry_group_IT_number 12
_symmetry_cell_setting 'monoclinic'
loop_
_space_group_symop_operation_xyz
x,y,z
-x,y,-z
-x,-y,-z
x,-y,z
1/2+x,1/2+y,z
1/2-x,1/2+y,-z
1/2-x,1/2-y,-z
1/2+x,1/2-y,z
loop_
_atom_site_type_symbol
_atom_site_label
_atom_site_fract_x
_atom_site_fract_y
_atom_site_fract_z
Si Si1 0.876181 0.676785 0.947617
Si Si2 0.866194 0.326305 0.441296
Si Si3 0.777177 0.677745 0.569652
Si Si4 0.951287 0.176885 0.669319
Si Si5 0.717889 0.322412 0.929715
Si Si6 0.035977 0.177138 0.821694
Si Si7 0.488066 0.826145 0.405999
Si Si8 0.986507 0.677811 0.905043
O O1 0.889278 0.500000 0.954314
O O2 0.781615 0.722979 0.911705
O O3 0.908310 0.733696 0.903914
O O4 0.931995 0.736896 0.024533
O O5 0.839507 0.500000 0.427616
O O6 0.786112 0.224663 0.412643
O O7 0.908479 0.281236 0.403964
O O8 0.929772 0.297328 0.520423
O O9 0.778058 0.500000 0.563191
O O10 0.750000 0.750000 0.500000
O O11 0.866803 0.733108 0.628521
O O12 0.999262 0.226892 0.746398
O O13 0.009030 0.221915 0.645932
O O14 0.933220 0.000000 0.658904
O O15 0.716283 0.500000 0.937493
O O16 0.628914 0.259625 0.870514
O O17 0.750000 0.250000 0.000000
O O18 0.980218 0.245284 0.843082
O O19 0.035570 0.000000 0.827617
O O20 0.482998 0.000000 0.386201
O O21 0.986997 0.500000 0.896266
#
# Coordination Sequence:
#
# PCOD8083076 Si02
#       8
#     8   8   8   8   8   8   8   8
#     4   8  15  28  50  78 104 132 172 221 265 308
#     4   9  18  34  57  85 114 141 173 223 278 322
#     4  12  23  36  57  85 111 140 183 230 272 323
#     4  11  23  38  54  76 112 153 185 224 274 324
#     4  10  18  32  53  77 104 135 174 220 264 311
#     4  10  22  36  51  76 111 144 174 217 273 317
#     4   9  18  34  57  83 111 144 180 219 269 325
#     4   9  16  30  52  76 102 138 178 215 261 319
#
# _framework density 18.074490999999998
#
# number of rings (size 3 to 8) (size 9 to 14) (size 15 to 20)
#    0.000    2.250    2.500    3.000    0.000    1.500 
#    0.000    4.375    0.000    1.500    0.000    0.000 
#    0.000    0.000    0.000    0.000    0.000    0.000 
#
# Total GULP energy -396740.172622 kJ/mol
# GULP energy per Si atom -12398.130394 kJ/mol
# Density = 1.803335 g / cm^3
# Si number density = 18.074491 Si / 1000 Ang^3
#
#
#
# Elastic Constant Matrix: (Units=GPa)
#
#
# Indices 1 2 3 4 5 6 
#
# 1 150.5626 47.3843 72.3582 0.0000 -9.2737 0.0000
# 2 47.3843 59.7661 46.2564 0.0000 -2.4393 0.0000
# 3 72.3582 46.2564 114.4014 0.0000 -8.9997 0.0000
# 4 0.0000 0.0000 0.0000 23.5829 0.0000 -4.0962
# 5 -9.2737 -2.4393 -8.9997 0.0000 29.3998 0.0000
# 6 0.0000 0.0000 0.0000 -4.0962 0.0000 30.8832
#
#
#
# Elastic Compliance Matrix: (Units=1/GPa)
#
#
# Indices 1 2 3 4 5 6 
#
# 1 0.010395 -0.004632 -0.004584 0.000000 0.001491 0.000000
# 2 -0.004632 0.026447 -0.007896 0.000000 -0.001684 0.000000
# 3 -0.004584 -0.007896 0.015030 0.000000 0.002500 0.000000
# 4 0.000000 0.000000 0.000000 0.043403 0.000000 0.005757
# 5 0.001491 -0.001684 0.002500 0.000000 0.035110 0.000000
# 6 0.000000 0.000000 0.000000 0.005757 0.000000 0.033144
#
#
# Mechanical properties :
#
#
# Convention : Reuss Voigt Hill
#
# Bulk Modulus (GPa) = 56.66858 72.96978 64.81918
# Shear Modulus (GPa) = 24.55371 27.35526 25.95448
#
# Velocity S-wave (km/s) = 3.68975 3.89456 3.79353
# Velocity P-wave (km/s) = 7.04082 7.78992 7.42482
#
# Compressibility (1/GPa) = 0.01764646
#
# Stress axis : x y z
#
# Youngs Moduli (GPa) = 96.20436 37.81154 66.53405
#
# Poissons Ratio (x) = 0.17515 0.30501
# Poissons Ratio (y) = 0.44564 0.52535
# Poissons Ratio (z) = 0.44102 0.29856
#
# Static dielectric constant tensor:
#      x y z
#    x 5.260430 0.000000 -0.033310 
#    y 0.000000 3.165180 0.000000 
#    z -0.033310 0.000000 3.206010 
# 
# 
# High freq. dielectric constant tensor:
#      x y z
#    x 1.720000 0.000000 -0.006090 
#    y 0.000000 1.684140 0.000000 
#    z -0.006090 0.000000 1.671370 
# 
# From -- ./inp_files/320067.got.cif
#   From: 2010.06.25/outbox.cif.g09.slc.cpg/sg12_161_cif.got.tgz:320067.got - 2010.06.28 00:19:55.
