data_PCOD8083976
_publ_section_title
;
Structure prediction by ZEFSAII (Michael W. Deem and Ramdas Pophale) SiO2 
 PCOD8083976
Probable space group: C 2/M
;
_chemical_formula_sum "Si O2"
_cell_formula_units_Z 64
_cell_length_a 9.109964
_cell_length_b 22.244298
_cell_length_c 18.341466
_cell_angle_alpha 90.000000
_cell_angle_beta 60.641534
_cell_angle_gamma 90.000000
_cell_volume 3239.450923
_symmetry_space_group_name_H-M "C 2/M"
_symmetry_group_IT_number 12
_symmetry_cell_setting 'monoclinic'
loop_
_space_group_symop_operation_xyz
x,y,z
-x,y,-z
-x,-y,-z
x,-y,z
1/2+x,1/2+y,z
1/2-x,1/2+y,-z
1/2-x,1/2-y,-z
1/2+x,1/2-y,z
loop_
_atom_site_type_symbol
_atom_site_label
_atom_site_fract_x
_atom_site_fract_y
_atom_site_fract_z
Si Si1 0.877892 0.837344 0.096303
Si Si2 0.657288 0.303142 0.417725
Si Si3 0.014758 0.140874 0.219774
Si Si4 0.798059 0.567574 0.668156
Si Si5 0.876660 0.564404 0.816508
Si Si6 0.980240 0.683619 0.616892
Si Si7 0.573401 0.225985 0.214113
Si Si8 0.310956 0.861362 0.241363
O O1 0.990924 0.855227 0.138700
O O2 0.746384 0.890502 0.110488
O O3 0.761978 0.777345 0.134541
O O4 0.000000 0.824977 0.000000
O O5 0.500000 0.331141 0.500000
O O6 0.819555 0.304541 0.431760
O O7 0.614709 0.233726 0.407864
O O8 0.689726 0.344527 0.339107
O O9 0.886189 0.098170 0.294358
O O10 0.007200 0.208937 0.252921
O O11 0.202698 0.120301 0.196431
O O12 0.806053 0.500000 0.629488
O O13 0.825672 0.558684 0.745932
O O14 0.931949 0.615740 0.600866
O O15 0.856213 0.500000 0.860289
O O16 0.072684 0.581837 0.770568
O O17 0.912633 0.685064 0.716572
O O18 0.431894 0.196345 0.196140
#
# Coordination Sequence:
#
# PCOD8083976 Si02
#       8
#     8   8   8   8   8   8   8   8
#     4  10  21  35  52  82 114 146 186 231 285 340
#     4  11  22  34  56  93 117 142 177 233 296 332
#     4  11  19  33  56  81 108 144 189 233 275 328
#     4  10  19  34  57  81 104 144 197 231 264 325
#     4   9  18  36  57  76 104 152 197 229 275 335
#     4  11  19  36  56  82 114 150 182 229 271 340
#     4  10  18  34  54  79 108 148 183 218 285 339
#     4  10  19  32  56  80 110 139 185 238 271 335
#
# _framework density 19.756435
#
# number of rings (size 3 to 8) (size 9 to 14) (size 15 to 20)
#    0.000    1.750    6.250    2.625    0.000    1.250 
#    0.000    2.500    0.000    2.625    0.000    0.000 
#    0.000    0.000    0.000    0.000    0.000    0.000 
#
# Total GULP energy -396432.511248 kJ/mol
# GULP energy per Si atom -12388.515977 kJ/mol
# Density = 1.971147 g / cm^3
# Si number density = 19.756435 Si / 1000 Ang^3
#
#
#
# Elastic Constant Matrix: (Units=GPa)
#
#
# Indices 1 2 3 4 5 6 
#
# 1 131.2782 46.4698 40.3862 0.0000 -19.8167 0.0000
# 2 46.4698 124.0952 13.3845 0.0000 -13.0907 0.0000
# 3 40.3862 13.3845 85.1981 0.0000 -24.8351 0.0000
# 4 0.0000 0.0000 0.0000 12.2748 0.0000 -2.0790
# 5 -19.8167 -13.0907 -24.8351 0.0000 25.0124 0.0000
# 6 0.0000 0.0000 0.0000 -2.0790 0.0000 14.3604
#
#
#
# Elastic Compliance Matrix: (Units=1/GPa)
#
#
# Indices 1 2 3 4 5 6 
#
# 1 0.010261 -0.003148 -0.003490 0.000000 0.003017 0.000000
# 2 -0.003148 0.009495 0.001016 0.000000 0.003485 0.000000
# 3 -0.003490 0.001016 0.017706 0.000000 0.015347 0.000000
# 4 0.000000 0.000000 0.000000 0.083515 0.000000 0.012091
# 5 0.003017 0.003485 0.015347 0.000000 0.059432 0.000000
# 6 0.000000 0.000000 0.000000 0.012091 0.000000 0.071386
#
#
# Mechanical properties :
#
#
# Convention : Reuss Voigt Hill
#
# Bulk Modulus (GPa) = 38.14125 60.11694 49.12910
# Shear Modulus (GPa) = 18.39743 26.35161 22.37452
#
# Velocity S-wave (km/s) = 3.05489 3.65612 3.36894
# Velocity P-wave (km/s) = 5.63833 6.95112 6.32885
#
# Compressibility (1/GPa) = 0.02621833
#
# Stress axis : x y z
#
# Youngs Moduli (GPa) = 97.45993 105.31850 56.47918
#
# Poissons Ratio (x) = 0.33151 0.19711
# Poissons Ratio (y) = 0.30677 -0.05739
# Poissons Ratio (z) = 0.34013 -0.10702
#
# Static dielectric constant tensor:
#      x y z
#    x 3.922930 0.000000 -0.176210 
#    y 0.000000 3.919990 0.000000 
#    z -0.176210 0.000000 3.181510 
# 
# 
# High freq. dielectric constant tensor:
#      x y z
#    x 1.784980 0.000000 -0.016920 
#    y 0.000000 1.759160 0.000000 
#    z -0.016920 0.000000 1.722590 
# 
# From -- ./inp_files/302108.got.cif
#   From: 2010.06.25/outbox.cif.g09.slc.cpg/sg12_152_cif.got.tgz:302108.got - 2010.06.28 00:19:55.
