data_PCOD8083177
_publ_section_title
;
Structure prediction by ZEFSAII (Michael W. Deem and Ramdas Pophale) SiO2 
 PCOD8083177
Probable space group: C 2/M
;
_chemical_formula_sum "Si O2"
_cell_formula_units_Z 60
_cell_length_a 22.425741
_cell_length_b 12.846869
_cell_length_c 13.889898
_cell_angle_alpha 90.000000
_cell_angle_beta 50.425748
_cell_angle_gamma 90.000000
_cell_volume 3084.499069
_symmetry_space_group_name_H-M "C 2/M"
_symmetry_group_IT_number 12
_symmetry_cell_setting 'monoclinic'
loop_
_space_group_symop_operation_xyz
x,y,z
-x,y,-z
-x,-y,-z
x,-y,z
1/2+x,1/2+y,z
1/2-x,1/2+y,-z
1/2-x,1/2-y,-z
1/2+x,1/2-y,z
loop_
_atom_site_type_symbol
_atom_site_label
_atom_site_fract_x
_atom_site_fract_y
_atom_site_fract_z
Si Si1 0.983711 0.885603 0.171032
Si Si2 0.293335 0.618522 0.864525
Si Si3 0.362972 0.694256 0.434319
Si Si4 0.197371 0.619944 0.612579
Si Si5 0.000000 0.276840 0.000000
Si Si6 0.664653 0.186666 0.860947
Si Si7 0.337668 0.383027 0.020516
Si Si8 0.409414 0.377430 0.585605
O O1 0.935578 0.867963 0.317191
O O2 0.959307 0.797341 0.120525
O O3 0.073518 0.878490 0.104166
O O4 0.964266 0.000000 0.148310
O O5 0.315487 0.500000 0.860849
O O6 0.211084 0.624321 0.894952
O O7 0.290976 0.664644 0.976110
O O8 0.363179 0.664174 0.727106
O O9 0.284595 0.634132 0.484866
O O10 0.359704 0.812321 0.396276
O O11 0.374315 0.693044 0.536817
O O12 0.171149 0.500000 0.633222
O O13 0.195995 0.659421 0.723960
O O14 0.072666 0.344405 0.964171
O O15 0.676535 0.309597 0.872336
O O16 0.312026 0.500000 0.076071
O O17 0.500000 0.354992 0.500000
O O18 0.392553 0.500000 0.583886
#
# Coordination Sequence:
#
# PCOD8083177 Si02
#       8
#     8   8   8   8   4   8   8   8
#     4  10  18  32  54  80 114 142 171 224 286 343
#     4  10  19  34  55  80 112 148 185 234 281 330
#     4  11  21  36  58  85 112 147 185 230 285 341
#     4  11  23  39  57  82 113 148 191 234 279 336
#     4  10  21  34  49  80 110 144 193 224 275 322
#     4  11  20  37  56  79 112 151 189 232 275 327
#     4   9  20  35  56  85 115 145 184 233 288 339
#     4  10  19  32  56  90 119 144 180 229 288 344
#
# _framework density 19.452105
#
# number of rings (size 3 to 8) (size 9 to 14) (size 15 to 20)
#    0.000    1.733    2.667    3.000    0.000    2.667 
#    0.000    2.000    0.000    0.400    0.000    0.000 
#    0.000    0.000    0.000    0.000    0.000    0.000 
#
# Total GULP energy -371861.940277 kJ/mol
# GULP energy per Si atom -12395.398009 kJ/mol
# Density = 1.940783 g / cm^3
# Si number density = 19.452105 Si / 1000 Ang^3
#
#
#
# Elastic Constant Matrix: (Units=GPa)
#
#
# Indices 1 2 3 4 5 6 
#
# 1 91.3064 30.4242 5.6990 0.0000 0.8603 0.0000
# 2 30.4242 82.4726 28.6371 0.0000 5.8261 0.0000
# 3 5.6990 28.6371 45.2004 0.0000 -0.8588 0.0000
# 4 0.0000 0.0000 0.0000 19.7298 0.0000 4.0796
# 5 0.8603 5.8261 -0.8588 0.0000 34.1365 0.0000
# 6 0.0000 0.0000 0.0000 4.0796 0.0000 25.8246
#
#
#
# Elastic Compliance Matrix: (Units=1/GPa)
#
#
# Indices 1 2 3 4 5 6 
#
# 1 0.012606 -0.005317 0.001791 0.000000 0.000635 0.000000
# 2 -0.005317 0.018081 -0.010846 0.000000 -0.003225 0.000000
# 3 0.001791 -0.010846 0.028817 0.000000 0.002531 0.000000
# 4 0.000000 0.000000 0.000000 0.052396 0.000000 -0.008277
# 5 0.000635 -0.003225 0.002531 0.000000 0.029892 0.000000
# 6 0.000000 0.000000 0.000000 -0.008277 0.000000 0.040030
#
#
# Mechanical properties :
#
#
# Convention : Reuss Voigt Hill
#
# Bulk Modulus (GPa) = 32.50915 38.72223 35.61569
# Shear Modulus (GPa) = 22.64283 26.21944 24.43114
#
# Velocity S-wave (km/s) = 3.41549 3.67535 3.54780
# Velocity P-wave (km/s) = 5.68355 6.16122 5.92720
#
# Compressibility (1/GPa) = 0.03076057
#
# Stress axis : x y z
#
# Youngs Moduli (GPa) = 79.32652 55.30765 34.70116
#
# Poissons Ratio (x) = 0.29409 -0.06217
# Poissons Ratio (y) = 0.42180 0.37637
# Poissons Ratio (z) = -0.14211 0.59987
#
# Static dielectric constant tensor:
#      x y z
#    x 3.639310 0.000000 0.015890 
#    y 0.000000 3.477620 0.000000 
#    z 0.015890 0.000000 3.541600 
# 
# 
# High freq. dielectric constant tensor:
#      x y z
#    x 1.763010 0.000000 0.001630 
#    y 0.000000 1.730310 0.000000 
#    z 0.001630 0.000000 1.754130 
# 
# From -- ./inp_files/239967.got.cif
#   From: 2010.06.25/outbox.cif.g09.slc.cpg/sg12_120_cif.got.tgz:239967.got - 2010.06.28 00:19:55.
