data_PCOD8083196
_publ_section_title
;
Structure prediction by ZEFSAII (Michael W. Deem and Ramdas Pophale) SiO2 
 PCOD8083196
Probable space group: C 2/M
;
_chemical_formula_sum "Si O2"
_cell_formula_units_Z 60
_cell_length_a 21.221582
_cell_length_b 9.723415
_cell_length_c 21.078005
_cell_angle_alpha 90.000000
_cell_angle_beta 131.705973
_cell_angle_gamma 90.000000
_cell_volume 3247.102024
_symmetry_space_group_name_H-M "C 2/M"
_symmetry_group_IT_number 12
_symmetry_cell_setting 'monoclinic'
loop_
_space_group_symop_operation_xyz
x,y,z
-x,y,-z
-x,-y,-z
x,-y,z
1/2+x,1/2+y,z
1/2-x,1/2+y,-z
1/2-x,1/2-y,-z
1/2+x,1/2-y,z
loop_
_atom_site_type_symbol
_atom_site_label
_atom_site_fract_x
_atom_site_fract_y
_atom_site_fract_z
Si Si1 0.315640 0.848890 0.381487
Si Si2 0.000000 0.270976 0.500000
Si Si3 0.202936 0.843280 0.517944
Si Si4 0.904309 0.339164 0.953254
Si Si5 0.394050 0.156542 0.216369
Si Si6 0.492568 0.349382 0.628315
Si Si7 0.237935 0.841172 0.193841
Si Si8 0.330718 0.157670 0.039667
O O1 0.417105 0.863257 0.453489
O O2 0.282930 0.727007 0.404287
O O3 0.284842 0.811044 0.290934
O O4 0.280468 0.000000 0.378223
O O5 0.981540 0.176498 0.426833
O O6 0.250000 0.750000 0.500000
O O7 0.107148 0.841981 0.431731
O O8 0.237827 0.000000 0.544027
O O9 0.888782 0.500000 0.930663
O O10 0.844676 0.253118 0.866314
O O11 0.881709 0.298407 0.010730
O O12 0.000000 0.298640 0.000000
O O13 0.469014 0.243053 0.296539
O O14 0.302493 0.202422 0.181329
O O15 0.395714 0.174912 0.141672
O O16 0.410692 0.000000 0.248367
O O17 0.526348 0.500000 0.669503
O O18 0.210618 0.000000 0.169098
O O19 0.299568 0.000000 0.013812
O O20 0.250000 0.250000 0.000000
#
# Coordination Sequence:
#
# PCOD8083196 Si02
#       8
#     8   4   8   8   8   8   8   8
#     4  10  20  34  56  83 114 149 186 228 277 336
#     4  10  18  32  54  84 114 146 182 224 274 330
#     4  10  22  40  58  78 108 149 195 240 284 336
#     4  10  22  40  60  84 115 151 193 240 294 357
#     4  10  20  35  55  83 115 144 183 231 282 343
#     4  10  21  35  54  81 112 143 183 233 280 328
#     4  10  20  36  57  86 117 147 186 234 284 343
#     4  10  20  36  59  84 112 146 185 233 285 342
#
# _framework density 18.478016
#
# number of rings (size 3 to 8) (size 9 to 14) (size 15 to 20)
#    0.000    2.000    2.667    0.800    0.000    5.067 
#    2.400    0.000    0.000    0.000    0.000    0.000 
#    0.000    0.000    0.000    0.000    0.000    0.000 
#
# Total GULP energy -371977.994302 kJ/mol
# GULP energy per Si atom -12399.266477 kJ/mol
# Density = 1.843596 g / cm^3
# Si number density = 18.478016 Si / 1000 Ang^3
#
#
#
# Elastic Constant Matrix: (Units=GPa)
#
#
# Indices 1 2 3 4 5 6 
#
# 1 91.1915 45.1218 31.9973 0.0000 -14.8151 0.0000
# 2 45.1218 104.7765 48.3511 0.0000 -4.9768 0.0000
# 3 31.9973 48.3511 97.5556 0.0000 -10.6290 0.0000
# 4 0.0000 0.0000 0.0000 29.6899 0.0000 4.9150
# 5 -14.8151 -4.9768 -10.6290 0.0000 19.1920 0.0000
# 6 0.0000 0.0000 0.0000 4.9150 0.0000 24.8427
#
#
#
# Elastic Compliance Matrix: (Units=1/GPa)
#
#
# Indices 1 2 3 4 5 6 
#
# 1 0.015911 -0.005798 -0.001246 0.000000 0.010089 0.000000
# 2 -0.005798 0.014488 -0.005701 0.000000 -0.003876 0.000000
# 3 -0.001246 -0.005701 0.014068 0.000000 0.005351 0.000000
# 4 0.000000 0.000000 0.000000 0.034822 0.000000 -0.006889
# 5 0.010089 -0.003876 0.005351 0.000000 0.061851 0.000000
# 6 0.000000 0.000000 0.000000 -0.006889 0.000000 0.041616
#
#
# Mechanical properties :
#
#
# Convention : Reuss Voigt Hill
#
# Bulk Modulus (GPa) = 52.69610 60.49600 56.59605
# Shear Modulus (GPa) = 23.30223 25.94847 24.62535
#
# Velocity S-wave (km/s) = 3.55502 3.75145 3.65455
# Velocity P-wave (km/s) = 6.74026 7.18157 6.96441
#
# Compressibility (1/GPa) = 0.01897674
#
# Stress axis : x y z
#
# Youngs Moduli (GPa) = 62.84983 69.02366 71.08400
#
# Poissons Ratio (x) = 0.40019 0.08856
# Poissons Ratio (y) = 0.36440 0.40526
# Poissons Ratio (z) = 0.07830 0.39352
#
# Static dielectric constant tensor:
#      x y z
#    x 3.400350 0.000000 -0.135270 
#    y 0.000000 3.444350 0.000000 
#    z -0.135270 0.000000 3.370220 
# 
# 
# High freq. dielectric constant tensor:
#      x y z
#    x 1.704600 0.000000 -0.011160 
#    y 0.000000 1.723220 0.000000 
#    z -0.011160 0.000000 1.714720 
# 
# From -- ./inp_files/320528.got.cif
#   From: 2010.06.25/outbox.cif.g09.slc.cpg/sg12_161_cif.got.tgz:320528.got - 2010.06.28 00:19:55.
