data_PCOD8083543
_publ_section_title
;
Structure prediction by ZEFSAII (Michael W. Deem and Ramdas Pophale) SiO2 
 PCOD8083543
Probable space group: C 2/M
;
_chemical_formula_sum "Si O2"
_cell_formula_units_Z 40
_cell_length_a 23.754360
_cell_length_b 12.768127
_cell_length_c 10.121786
_cell_angle_alpha 90.000000
_cell_angle_beta 131.804498
_cell_angle_gamma 90.000000
_cell_volume 2288.394307
_symmetry_space_group_name_H-M "C 2/M"
_symmetry_group_IT_number 12
_symmetry_cell_setting 'monoclinic'
loop_
_space_group_symop_operation_xyz
x,y,z
-x,y,-z
-x,-y,-z
x,-y,z
1/2+x,1/2+y,z
1/2-x,1/2+y,-z
1/2-x,1/2-y,-z
1/2+x,1/2-y,z
loop_
_atom_site_type_symbol
_atom_site_label
_atom_site_fract_x
_atom_site_fract_y
_atom_site_fract_z
Si Si1 0.655014 0.760241 0.477338
Si Si2 0.954177 0.823667 0.066036
Si Si3 0.951821 0.116383 0.548426
Si Si4 0.196983 0.877915 0.295917
Si Si5 0.513909 0.887154 0.173205
O O1 0.616495 0.698399 0.538586
O O2 0.728804 0.820479 0.644988
O O3 0.674746 0.672957 0.399832
O O4 0.599066 0.846299 0.328147
O O5 0.996192 0.894076 0.239487
O O6 0.955385 0.703963 0.125598
O O7 0.869192 0.863012 0.914916
O O8 0.000000 0.829755 0.000000
O O9 0.000000 0.157831 0.500000
O O10 0.919836 0.000000 0.468582
O O11 0.213155 0.000000 0.343915
O O12 0.502099 0.000000 0.228811
O O13 0.500000 0.909373 0.000000
#
# Coordination Sequence:
#
# PCOD8083543 Si02
#       5
#     8   8   8   8   8
#     4  10  20  32  47  77 106 135 170 209 260 308
#     4  10  18  33  52  80 102 134 177 214 254 300
#     4  10  20  35  56  78 104 137 171 212 259 305
#     4  11  20  31  50  76 106 136 169 215 260 303
#     4   9  15  28  46  68 101 132 164 205 250 301
#
# _framework density 17.479505
#
# number of rings (size 3 to 8) (size 9 to 14) (size 15 to 20)
#    0.000    2.000    6.000    1.800    0.000    0.800 
#    0.000    2.000    0.000   15.000    0.000    0.000 
#    0.000    0.000    0.000    0.000    0.000    0.000 
#
# Total GULP energy -247833.721892 kJ/mol
# GULP energy per Si atom -12391.686095 kJ/mol
# Density = 1.743972 g / cm^3
# Si number density = 17.479505 Si / 1000 Ang^3
#
#
#
# Elastic Constant Matrix: (Units=GPa)
#
#
# Indices 1 2 3 4 5 6 
#
# 1 89.0832 46.7641 34.5148 0.0000 6.0412 0.0000
# 2 46.7641 128.3858 16.3898 0.0000 7.5955 0.0000
# 3 34.5148 16.3898 56.0445 0.0000 14.2973 0.0000
# 4 0.0000 0.0000 0.0000 222.7188 0.0000 -45.9451
# 5 6.0412 7.5955 14.2973 0.0000 28.3160 0.0000
# 6 0.0000 0.0000 0.0000 -45.9451 0.0000 37.5138
#
#
#
# Elastic Compliance Matrix: (Units=1/GPa)
#
#
# Indices 1 2 3 4 5 6 
#
# 1 0.017741 -0.005339 -0.010060 0.000000 0.002727 0.000000
# 2 -0.005339 0.009729 0.000939 0.000000 -0.001945 0.000000
# 3 -0.010060 0.000939 0.026723 0.000000 -0.011598 0.000000
# 4 0.000000 0.000000 0.000000 0.006008 0.000000 0.007358
# 5 0.002727 -0.001945 -0.011598 0.000000 0.041112 0.000000
# 6 0.000000 0.000000 0.000000 0.007358 0.000000 0.035669
#
#
# Mechanical properties :
#
#
# Convention : Reuss Voigt Hill
#
# Bulk Modulus (GPa) = 39.56876 52.09454 45.83165
# Shear Modulus (GPa) = 28.68200 69.43271 49.05735
#
# Velocity S-wave (km/s) = 4.05519 6.30940 5.30345
# Velocity P-wave (km/s) = 6.67925 9.10747 7.98619
#
# Compressibility (1/GPa) = 0.02527246
#
# Stress axis : x y z
#
# Youngs Moduli (GPa) = 56.36662 102.78588 37.42162
#
# Poissons Ratio (x) = 0.54879 0.37646
# Poissons Ratio (y) = 0.30095 -0.03514
# Poissons Ratio (z) = 0.56704 -0.09652
#
# Static dielectric constant tensor:
#      x y z
#    x 3.072070 0.000000 0.248430 
#    y 0.000000 3.640410 0.000000 
#    z 0.248430 0.000000 3.148720 
# 
# 
# High freq. dielectric constant tensor:
#      x y z
#    x 1.636620 0.000000 0.022760 
#    y 0.000000 1.698480 0.000000 
#    z 0.022760 0.000000 1.656000 
# 
# From -- ./inp_files/85295.got.cif
#   From: 2010.06.25/outbox.cif.g09.slc.cpg/sg12_43_cif.got.tgz:85295.got - 2010.06.28 00:19:55.
