data_PCOD8083079
_publ_section_title
;
Structure prediction by ZEFSAII (Michael W. Deem and Ramdas Pophale) SiO2 
 PCOD8083079
Probable space group: C 2/M
;
_chemical_formula_sum "Si O2"
_cell_formula_units_Z 48
_cell_length_a 8.241835
_cell_length_b 19.793618
_cell_length_c 19.863044
_cell_angle_alpha 90.000000
_cell_angle_beta 51.285798
_cell_angle_gamma 90.000000
_cell_volume 2528.382768
_symmetry_space_group_name_H-M "C 2/M"
_symmetry_group_IT_number 12
_symmetry_cell_setting 'monoclinic'
loop_
_space_group_symop_operation_xyz
x,y,z
-x,y,-z
-x,-y,-z
x,-y,z
1/2+x,1/2+y,z
1/2-x,1/2+y,-z
1/2-x,1/2-y,-z
1/2+x,1/2-y,z
loop_
_atom_site_type_symbol
_atom_site_label
_atom_site_fract_x
_atom_site_fract_y
_atom_site_fract_z
Si Si1 0.660134 0.333141 0.596301
Si Si2 0.004610 0.669566 0.246541
Si Si3 0.528885 0.814793 0.596040
Si Si4 0.209360 0.079100 0.251282
Si Si5 0.825438 0.651764 0.092416
Si Si6 0.560925 0.272470 0.845979
O O1 0.552819 0.265395 0.597492
O O2 0.810590 0.353218 0.495257
O O3 0.480733 0.386925 0.658843
O O4 0.796002 0.325676 0.628757
O O5 0.253015 0.676324 0.185456
O O6 0.926414 0.655342 0.342203
O O7 0.929576 0.604366 0.224356
O O8 0.916231 0.739004 0.235082
O O9 0.213517 0.098730 0.171363
O O10 0.185854 0.000000 0.265793
O O11 0.647189 0.684246 0.092334
O O12 0.946333 0.710841 0.100301
O O13 0.000000 0.616054 0.000000
#
# Coordination Sequence:
#
# PCOD8083079 Si02
#       6
#     8   8   8   8   8   8
#     4  10  20  33  54  83 111 135 169 219 266 318
#     4  10  18  32  53  77 107 139 172 214 264 316
#     4  10  18  32  57  85 106 130 170 221 275 313
#     4  11  24  39  51  70 107 150 186 216 254 312
#     4  10  19  34  59  85 109 136 170 219 273 323
#     4   9  18  32  56  88 112 130 165 221 280 319
#
# _framework density 18.984466999999999
#
# number of rings (size 3 to 8) (size 9 to 14) (size 15 to 20)
#    0.000    2.000    0.000    6.500    0.000    2.333 
#    0.000    6.667    0.000    1.000    0.000    0.000 
#    0.000    0.000    0.000    0.000    0.000    0.000 
#
# Total GULP energy -297417.779437 kJ/mol
# GULP energy per Si atom -12392.407477 kJ/mol
# Density = 1.894126 g / cm^3
# Si number density = 18.984467 Si / 1000 Ang^3
#
#
#
# Elastic Constant Matrix: (Units=GPa)
#
#
# Indices 1 2 3 4 5 6 
#
# 1 109.5101 31.3369 30.1674 0.0000 -10.5582 0.0000
# 2 31.3369 90.5103 43.0532 0.0000 -16.3700 0.0000
# 3 30.1674 43.0532 102.7077 0.0000 -12.8966 0.0000
# 4 0.0000 0.0000 0.0000 13.5849 0.0000 -1.5241
# 5 -10.5582 -16.3700 -12.8966 0.0000 21.1916 0.0000
# 6 0.0000 0.0000 0.0000 -1.5241 0.0000 11.7648
#
#
#
# Elastic Compliance Matrix: (Units=1/GPa)
#
#
# Indices 1 2 3 4 5 6 
#
# 1 0.010531 -0.002366 -0.001810 0.000000 0.002317 0.000000
# 2 -0.002366 0.015610 -0.004853 0.000000 0.007926 0.000000
# 3 -0.001810 -0.004853 0.012688 0.000000 0.003071 0.000000
# 4 0.000000 0.000000 0.000000 0.074697 0.000000 0.009677
# 5 0.002317 0.007926 0.003071 0.000000 0.056334 0.000000
# 6 0.000000 0.000000 0.000000 0.009677 0.000000 0.086253
#
#
# Mechanical properties :
#
#
# Convention : Reuss Voigt Hill
#
# Bulk Modulus (GPa) = 48.14700 56.87144 52.50922
# Shear Modulus (GPa) = 17.78763 22.51964 20.15364
#
# Velocity S-wave (km/s) = 3.06430 3.44788 3.26173
# Velocity P-wave (km/s) = 6.15924 6.77292 6.47335
#
# Compressibility (1/GPa) = 0.02076973
#
# Stress axis : x y z
#
# Youngs Moduli (GPa) = 94.96056 64.06342 78.81432
#
# Poissons Ratio (x) = 0.15155 0.14269
# Poissons Ratio (y) = 0.22464 0.38250
# Poissons Ratio (z) = 0.17192 0.31091
#
# Static dielectric constant tensor:
#      x y z
#    x 3.759900 0.000000 0.109290 
#    y 0.000000 2.921880 0.000000 
#    z 0.109290 0.000000 3.586590 
# 
# 
# High freq. dielectric constant tensor:
#      x y z
#    x 1.757180 0.000000 0.001680 
#    y 0.000000 1.671590 0.000000 
#    z 0.001680 0.000000 1.745780 
# 
# From -- ./inp_files/300621.got.cif
#   From: 2010.06.25/outbox.cif.g09.slc.cpg/sg12_151_cif.got.tgz:300621.got - 2010.06.28 00:19:55.
