data_PCOD8083588
_publ_section_title
;
Structure prediction by ZEFSAII (Michael W. Deem and Ramdas Pophale) SiO2 
 PCOD8083588
Probable space group: C 2/M
;
_chemical_formula_sum "Si O2"
_cell_formula_units_Z 60
_cell_length_a 22.994140
_cell_length_b 19.362239
_cell_length_c 10.344673
_cell_angle_alpha 90.000000
_cell_angle_beta 47.422076
_cell_angle_gamma 90.000000
_cell_volume 3391.395388
_symmetry_space_group_name_H-M "C 2/M"
_symmetry_group_IT_number 12
_symmetry_cell_setting 'monoclinic'
loop_
_space_group_symop_operation_xyz
x,y,z
-x,y,-z
-x,-y,-z
x,-y,z
1/2+x,1/2+y,z
1/2-x,1/2+y,-z
1/2-x,1/2-y,-z
1/2+x,1/2-y,z
loop_
_atom_site_type_symbol
_atom_site_label
_atom_site_fract_x
_atom_site_fract_y
_atom_site_fract_z
Si Si1 0.000000 0.633290 0.500000
Si Si2 0.294335 0.079802 0.172628
Si Si3 0.052288 0.197250 0.032976
Si Si4 0.692947 0.699121 0.256942
Si Si5 0.914727 0.660446 0.152231
Si Si6 0.699038 0.678533 0.959449
Si Si7 0.164711 0.422680 0.179602
Si Si8 0.939106 0.272976 0.377719
O O1 0.078113 0.587056 0.369366
O O2 0.004971 0.679737 0.619582
O O3 0.215278 0.126611 0.292023
O O4 0.349714 0.105655 0.205385
O O5 0.271406 0.000000 0.230764
O O6 0.338126 0.091001 0.969693
O O7 0.993455 0.212357 0.239478
O O8 0.086695 0.269011 0.927046
O O9 0.127722 0.153808 0.971413
O O10 0.000000 0.158672 0.000000
O O11 0.771409 0.746208 0.129862
O O12 0.627766 0.738038 0.436393
O O13 0.662055 0.683945 0.158654
O O14 0.900019 0.679627 0.324520
O O15 0.000000 0.624861 0.000000
O O16 0.772415 0.626166 0.843178
O O17 0.193011 0.500000 0.165690
#
# Coordination Sequence:
#
# PCOD8083588 Si02
#       8
#     4   8   8   8   8   8   8   8
#     4  12  19  32  52  80 111 136 170 212 265 316
#     4  10  20  35  52  70 103 144 176 210 258 311
#     4   9  18  33  52  76 104 135 175 223 263 308
#     4  10  19  31  52  81 103 133 176 221 260 310
#     4   9  18  32  48  73 104 135 173 210 256 317
#     4  10  18  33  54  76 105 138 176 218 261 309
#     4  10  21  34  52  77 108 143 171 210 260 316
#     4  10  20  30  51  80 104 134 171 220 266 296
#
# _framework density 17.691832000000002
#
# number of rings (size 3 to 8) (size 9 to 14) (size 15 to 20)
#    0.000    2.400    2.667    2.600    1.867    0.800 
#    0.000    1.333    0.000    1.200    0.000    4.200 
#    0.000    0.533    0.000    0.000    0.000    0.000 
#
# Total GULP energy -371869.496846 kJ/mol
# GULP energy per Si atom -12395.649895 kJ/mol
# Density = 1.765156 g / cm^3
# Si number density = 17.691832 Si / 1000 Ang^3
#
#
#
# Elastic Constant Matrix: (Units=GPa)
#
#
# Indices 1 2 3 4 5 6 
#
# 1 138.9003 44.3799 33.3982 0.0000 -3.7020 0.0000
# 2 44.3799 77.9935 26.4993 0.0000 -4.6048 0.0000
# 3 33.3982 26.4993 62.4384 0.0000 4.8853 0.0000
# 4 0.0000 0.0000 0.0000 14.8732 0.0000 1.8801
# 5 -3.7020 -4.6048 4.8853 0.0000 13.9506 0.0000
# 6 0.0000 0.0000 0.0000 1.8801 0.0000 19.1538
#
#
#
# Elastic Compliance Matrix: (Units=1/GPa)
#
#
# Indices 1 2 3 4 5 6 
#
# 1 0.009387 -0.004008 -0.003508 0.000000 0.002396 0.000000
# 2 -0.004008 0.017469 -0.005797 0.000000 0.006733 0.000000
# 3 -0.003508 -0.005797 0.021154 0.000000 -0.010252 0.000000
# 4 0.000000 0.000000 0.000000 0.068080 0.000000 -0.006683
# 5 0.002396 0.006733 -0.010252 0.000000 0.078130 0.000000
# 6 0.000000 0.000000 0.000000 -0.006683 0.000000 0.052865
#
#
# Mechanical properties :
#
#
# Convention : Reuss Voigt Hill
#
# Bulk Modulus (GPa) = 46.76055 54.20966 50.48510
# Shear Modulus (GPa) = 17.80372 21.26584 19.53478
#
# Velocity S-wave (km/s) = 3.17570 3.47077 3.32651
# Velocity P-wave (km/s) = 6.31939 6.83880 6.58422
#
# Compressibility (1/GPa) = 0.02138555
#
# Stress axis : x y z
#
# Youngs Moduli (GPa) = 106.52601 57.24267 47.27151
#
# Poissons Ratio (x) = 0.22945 0.16581
# Poissons Ratio (y) = 0.42700 0.27403
# Poissons Ratio (z) = 0.37365 0.33183
#
# Static dielectric constant tensor:
#      x y z
#    x 3.411800 0.000000 0.102470 
#    y 0.000000 3.031760 0.000000 
#    z 0.102470 0.000000 3.180450 
# 
# 
# High freq. dielectric constant tensor:
#      x y z
#    x 1.691060 0.000000 0.006820 
#    y 0.000000 1.647830 0.000000 
#    z 0.006820 0.000000 1.674240 
# 
# From -- ./inp_files/89836.got.cif
#   From: 2010.06.25/outbox.cif.g09.slc.cpg/sg12_45_cif.got.tgz:89836.got - 2010.06.28 00:19:55.
