data_PCOD8083781
_publ_section_title
;
Structure prediction by ZEFSAII (Michael W. Deem and Ramdas Pophale) SiO2 
 PCOD8083781
Probable space group: C 2/M
;
_chemical_formula_sum "Si O2"
_cell_formula_units_Z 56
_cell_length_a 9.746799
_cell_length_b 16.016381
_cell_length_c 30.196141
_cell_angle_alpha 90.000000
_cell_angle_beta 144.984207
_cell_angle_gamma 90.000000
_cell_volume 2704.830527
_symmetry_space_group_name_H-M "C 2/M"
_symmetry_group_IT_number 12
_symmetry_cell_setting 'monoclinic'
loop_
_space_group_symop_operation_xyz
x,y,z
-x,y,-z
-x,-y,-z
x,-y,z
1/2+x,1/2+y,z
1/2-x,1/2+y,-z
1/2-x,1/2-y,-z
1/2+x,1/2-y,z
loop_
_atom_site_type_symbol
_atom_site_label
_atom_site_fract_x
_atom_site_fract_y
_atom_site_fract_z
Si Si1 0.096030 0.595512 0.851398
Si Si2 0.168232 0.406467 0.687680
Si Si3 0.696587 0.599404 0.518497
Si Si4 0.246644 0.250977 0.947122
Si Si5 0.067548 0.144229 0.730600
Si Si6 0.747754 0.179663 0.800495
Si Si7 0.780933 0.097340 0.573375
O O1 0.184266 0.500000 0.881170
O O2 0.222920 0.655355 0.920911
O O3 0.164064 0.625447 0.820075
O O4 0.811729 0.597376 0.783107
O O5 0.097914 0.500000 0.680997
O O6 0.416932 0.406693 0.726931
O O7 0.175022 0.361340 0.735851
O O8 0.957856 0.366539 0.601846
O O9 0.500000 0.636335 0.500000
O O10 0.700339 0.500000 0.519989
O O11 0.628619 0.627844 0.450895
O O12 0.033977 0.191462 0.874642
O O13 0.500000 0.211614 0.000000
O O14 0.250000 0.250000 0.000000
O O15 0.115956 0.231818 0.767436
O O16 0.915665 0.153476 0.645262
O O17 0.500000 0.113018 0.500000
O O18 0.838386 0.000000 0.598175
#
# Coordination Sequence:
#
# PCOD8083781 Si02
#       7
#     8   8   8   8   8   8   8
#     4  11  24  42  68 100 127 165 214 257 301 373
#     4  11  22  40  63  89 123 166 215 265 311 373
#     4   9  19  34  54  83 119 161 210 265 322 366
#     4  11  23  46  71  95 129 171 200 246 316 380
#     4  11  22  39  62  92 126 167 211 262 321 379
#     4  11  25  43  65  92 131 166 204 252 320 380
#     4  10  18  33  57  85 118 164 218 268 315 369
#
# _framework density 20.703700999999999
#
# number of rings (size 3 to 8) (size 9 to 14) (size 15 to 20)
#    0.000    1.429    2.857    3.429    4.000    0.286 
#    0.000    1.429    0.000    2.143    0.000    0.000 
#    0.000    0.000    0.000    0.000    0.000    0.000 
#
# Total GULP energy -347174.266475 kJ/mol
# GULP energy per Si atom -12399.080946 kJ/mol
# Density = 2.065658 g / cm^3
# Si number density = 20.703701 Si / 1000 Ang^3
#
#
#
# Elastic Constant Matrix: (Units=GPa)
#
#
# Indices 1 2 3 4 5 6 
#
# 1 123.6811 13.4738 19.6193 0.0000 -0.8921 0.0000
# 2 13.4738 52.9501 8.9580 -0.0001 -1.4670 0.0000
# 3 19.6193 8.9580 80.5878 -0.0002 1.1526 0.0000
# 4 0.0000 -0.0001 -0.0002 24.3043 0.0000 -8.9127
# 5 -0.8921 -1.4670 1.1526 0.0000 45.8021 0.0000
# 6 0.0000 0.0000 0.0000 -8.9127 0.0000 28.3126
#
#
#
# Elastic Compliance Matrix: (Units=1/GPa)
#
#
# Indices 1 2 3 4 5 6 
#
# 1 0.008588 -0.001862 -0.001886 0.000000 0.000155 0.000000
# 2 -0.001862 0.019672 -0.001743 0.000000 0.000638 0.000000
# 3 -0.001886 -0.001743 0.013068 0.000000 -0.000421 0.000000
# 4 0.000000 0.000000 0.000000 0.046515 0.000000 0.014643
# 5 0.000155 0.000638 -0.000421 0.000000 0.021867 0.000000
# 6 0.000000 0.000000 0.000000 0.014643 0.000000 0.039929
#
#
# Mechanical properties :
#
#
# Convention : Reuss Voigt Hill
#
# Bulk Modulus (GPa) = 32.95238 37.92458 35.43848
# Shear Modulus (GPa) = 29.28494 34.02833 31.65664
#
# Velocity S-wave (km/s) = 3.76504 4.05852 3.91453
# Velocity P-wave (km/s) = 5.90351 6.34977 6.13070
#
# Compressibility (1/GPa) = 0.03034682
#
# Stress axis : x y z
#
# Youngs Moduli (GPa) = 116.43516 50.83368 76.52441
#
# Poissons Ratio (x) = 0.09466 0.14433
# Poissons Ratio (y) = 0.21681 0.13334
# Poissons Ratio (z) = 0.21961 0.08858
#
# Static dielectric constant tensor:
#      x y z
#    x 4.116590 0.000000 0.160450 
#    y 0.000000 3.524970 0.000000 
#    z 0.160450 0.000000 4.060920 
# 
# 
# High freq. dielectric constant tensor:
#      x y z
#    x 1.828550 0.000000 -0.001620 
#    y 0.000000 1.781960 0.000000 
#    z -0.001620 0.000000 1.819400 
# 
# From -- ./inp_files/372795.got.cif
#   From: 2010.06.25/outbox.cif.g09.slc.cpg/sg12_187_cif.got.tgz:372795.got - 2010.06.28 00:19:55.
