data_PCOD8083430
_publ_section_title
;
Structure prediction by ZEFSAII (Michael W. Deem and Ramdas Pophale) SiO2 
 PCOD8083430
Probable space group: C 2/M
;
_chemical_formula_sum "Si O2"
_cell_formula_units_Z 64
_cell_length_a 12.629727
_cell_length_b 27.059874
_cell_length_c 20.900674
_cell_angle_alpha 90.000000
_cell_angle_beta 152.646910
_cell_angle_gamma 90.000000
_cell_volume 3282.009097
_symmetry_space_group_name_H-M "C 2/M"
_symmetry_group_IT_number 12
_symmetry_cell_setting 'monoclinic'
loop_
_space_group_symop_operation_xyz
x,y,z
-x,y,-z
-x,-y,-z
x,-y,z
1/2+x,1/2+y,z
1/2-x,1/2+y,-z
1/2-x,1/2-y,-z
1/2+x,1/2-y,z
loop_
_atom_site_type_symbol
_atom_site_label
_atom_site_fract_x
_atom_site_fract_y
_atom_site_fract_z
Si Si1 0.038456 0.614022 0.393970
Si Si2 0.974879 0.892795 0.699153
Si Si3 0.771256 0.678446 0.342527
Si Si4 0.226909 0.207505 0.540754
Si Si5 0.795871 0.718070 0.721013
Si Si6 0.701960 0.443191 0.932617
Si Si7 0.368857 0.557668 0.869326
Si Si8 0.429587 0.139692 0.889881
O O1 0.245448 0.585887 0.541977
O O2 0.150026 0.658430 0.416061
O O3 0.847116 0.632389 0.341131
O O4 0.894083 0.577390 0.271829
O O5 0.914126 0.842523 0.706333
O O6 0.075277 0.936260 0.796893
O O7 0.164474 0.877642 0.748373
O O8 0.674366 0.723321 0.246301
O O9 0.000000 0.701298 0.500000
O O10 0.250000 0.250000 0.500000
O O11 0.355571 0.218382 0.677081
O O12 0.958755 0.196880 0.405803
O O13 0.959974 0.685047 0.855359
O O14 0.786862 0.500000 0.984308
O O15 0.517606 0.428860 0.887226
O O16 0.918002 0.406208 0.053050
O O17 0.342518 0.500000 0.864270
O O18 0.500000 0.581469 0.000000
O O19 0.500000 0.156147 0.000000
#
# Coordination Sequence:
#
# PCOD8083430 Si02
#       8
#     8   8   8   8   8   8   8   8
#     4  11  20  35  63  91 120 150 195 253 298 354
#     4  10  20  36  61  91 121 150 197 256 304 347
#     4  10  18  32  57  89 122 155 191 237 301 352
#     4  11  20  35  60  92 120 159 203 247 297 360
#     4  11  21  35  58  88 123 164 207 238 294 363
#     4  10  22  42  64  84 113 160 209 250 308 373
#     4  10  23  42  62  85 119 158 196 246 311 372
#     4  10  23  40  58  85 126 164 204 250 303 359
#
# _framework density 19.500250000000001
#
# number of rings (size 3 to 8) (size 9 to 14) (size 15 to 20)
#    0.000    1.625    5.000    0.750    1.750    2.750 
#    0.000    4.375    0.000    0.000    0.000    4.375 
#    0.000    0.000    0.000    0.000    0.000    0.000 
#
# Total GULP energy -396589.366593 kJ/mol
# GULP energy per Si atom -12393.417706 kJ/mol
# Density = 1.945587 g / cm^3
# Si number density = 19.500250 Si / 1000 Ang^3
#
#
#
# Elastic Constant Matrix: (Units=GPa)
#
#
# Indices 1 2 3 4 5 6 
#
# 1 69.9914 29.3301 31.5378 -0.0003 -5.1329 -0.0089
# 2 29.3301 67.4208 49.7803 -0.0083 6.6710 0.0122
# 3 31.5378 49.7803 104.3140 0.0904 -0.8807 0.0848
# 4 -0.0003 -0.0083 0.0904 36.2404 0.0335 -1.1205
# 5 -5.1329 6.6710 -0.8807 0.0335 32.7372 0.0004
# 6 -0.0089 0.0122 0.0848 -1.1205 0.0004 30.0971
#
#
#
# Elastic Compliance Matrix: (Units=1/GPa)
#
#
# Indices 1 2 3 4 5 6 
#
# 1 0.018467 -0.006722 -0.002340 0.000001 0.004202 0.000015
# 2 -0.006722 0.026184 -0.010519 0.000039 -0.006673 0.000019
# 3 -0.002340 -0.010519 0.015333 -0.000044 0.002189 -0.000041
# 4 0.000001 0.000039 -0.000044 0.027625 -0.000037 0.001029
# 5 0.004202 -0.006673 0.002189 -0.000037 0.032624 -0.000004
# 6 0.000015 0.000019 -0.000041 0.001029 -0.000004 0.033264
#
#
# Mechanical properties :
#
#
# Convention : Reuss Voigt Hill
#
# Bulk Modulus (GPa) = 48.02913 51.44695 49.73804
# Shear Modulus (GPa) = 25.05024 28.55346 26.80185
#
# Velocity S-wave (km/s) = 3.58804 3.83072 3.71136
# Velocity P-wave (km/s) = 6.46907 6.78276 6.62777
#
# Compressibility (1/GPa) = 0.02082070
#
# Stress axis : x y z
#
# Youngs Moduli (GPa) = 54.15131 38.19182 65.22092
#
# Poissons Ratio (x) = 0.25671 0.15262
# Poissons Ratio (y) = 0.36399 0.68609
# Poissons Ratio (z) = 0.12671 0.40176
#
# Static dielectric constant tensor:
#      x y z
#    x 3.805740 -0.000140 -0.127010 
#    y -0.000140 3.503960 -0.000060 
#    z -0.127010 -0.000060 3.707290 
# 
# 
# High freq. dielectric constant tensor:
#      x y z
#    x 1.763420 0.000000 0.003570 
#    y 0.000000 1.745920 -0.000020 
#    z 0.003570 -0.000020 1.746420 
# 
# From -- ./inp_files/307505.got.cif
#   From: 2010.06.25/outbox.cif.g09.slc.cpg/sg12_154_cif.got.tgz:307505.got - 2010.06.28 00:19:55.
