data_PCOD8083373
_publ_section_title
;
Structure prediction by ZEFSAII (Michael W. Deem and Ramdas Pophale) SiO2 
 PCOD8083373
Probable space group: C 2/M
;
_chemical_formula_sum "Si O2"
_cell_formula_units_Z 44
_cell_length_a 7.434528
_cell_length_b 29.087072
_cell_length_c 10.365539
_cell_angle_alpha 90.000000
_cell_angle_beta 89.103766
_cell_angle_gamma 90.000000
_cell_volume 2241.259605
_symmetry_space_group_name_H-M "C 2/M"
_symmetry_group_IT_number 12
_symmetry_cell_setting 'monoclinic'
loop_
_space_group_symop_operation_xyz
x,y,z
-x,y,-z
-x,-y,-z
x,-y,z
1/2+x,1/2+y,z
1/2-x,1/2+y,-z
1/2-x,1/2-y,-z
1/2+x,1/2-y,z
loop_
_atom_site_type_symbol
_atom_site_label
_atom_site_fract_x
_atom_site_fract_y
_atom_site_fract_z
Si Si1 0.779990 0.114577 0.715969
Si Si2 0.000000 0.077823 0.500000
Si Si3 0.659505 0.705563 0.158883
Si Si4 0.746121 0.196276 0.123153
Si Si5 0.571019 0.898840 0.144751
Si Si6 0.916141 0.948936 0.231047
O O1 0.762947 0.169245 0.740163
O O2 0.589211 0.091341 0.751999
O O3 0.839608 0.108467 0.566185
O O4 0.928318 0.088404 0.806380
O O5 0.095939 0.048374 0.611612
O O6 0.671152 0.758996 0.201544
O O7 0.456362 0.690449 0.141658
O O8 0.785608 0.701160 0.030338
O O9 0.644687 0.151872 0.175896
O O10 0.727720 0.935422 0.168474
O O11 0.500000 0.903652 0.000000
O O12 0.966461 0.000000 0.180048
#
# Coordination Sequence:
#
# PCOD8083373 Si02
#       6
#     8   4   8   8   8   8
#     4  10  21  39  63  90 125 158 208 258 313 357
#     4   8  21  44  68  86 114 164 216 264 309 350
#     4  10  18  32  56  88 126 161 202 255 296 361
#     4  10  19  31  55  88 126 163 203 240 302 374
#     4  12  23  37  62  94 130 163 199 255 319 384
#     4  10  23  44  65  89 121 162 215 264 310 369
#
# _framework density 19.631820000000001
#
# number of rings (size 3 to 8) (size 9 to 14) (size 15 to 20)
#    1.091    0.727    3.636    1.364    2.545    2.545 
#    0.000    1.818    0.000    9.818    0.000    0.000 
#    0.000    0.000    0.000    0.000    0.000    0.000 
#
# Total GULP energy -272575.596183 kJ/mol
# GULP energy per Si atom -12389.799827 kJ/mol
# Density = 1.958714 g / cm^3
# Si number density = 19.631820 Si / 1000 Ang^3
#
#
#
# Elastic Constant Matrix: (Units=GPa)
#
#
# Indices 1 2 3 4 5 6 
#
# 1 97.1671 26.8569 25.0982 0.0000 -12.1470 0.0000
# 2 26.8569 118.7798 16.2398 0.0000 0.9537 0.0000
# 3 25.0982 16.2398 38.6168 0.0000 -10.9197 0.0000
# 4 0.0000 0.0000 0.0000 11.3140 0.0000 11.3787
# 5 -12.1470 0.9537 -10.9197 0.0000 34.8058 0.0000
# 6 0.0000 0.0000 0.0000 11.3787 0.0000 21.2356
#
#
#
# Elastic Compliance Matrix: (Units=1/GPa)
#
#
# Indices 1 2 3 4 5 6 
#
# 1 0.012922 -0.002001 -0.006876 0.000000 0.002407 0.000000
# 2 -0.002001 0.009320 -0.003170 0.000000 -0.001948 0.000000
# 3 -0.006876 -0.003170 0.034066 0.000000 0.008375 0.000000
# 4 0.000000 0.000000 0.000000 0.191683 0.000000 -0.102710
# 5 0.002407 -0.001948 0.008375 0.000000 0.032252 0.000000
# 6 0.000000 0.000000 0.000000 -0.102710 0.000000 0.102126
#
#
# Mechanical properties :
#
#
# Convention : Reuss Voigt Hill
#
# Bulk Modulus (GPa) = 31.04266 43.43928 37.24097
# Shear Modulus (GPa) = 11.98465 25.89568 18.94016
#
# Velocity S-wave (km/s) = 2.47345 3.63584 3.10944
# Velocity P-wave (km/s) = 4.89939 6.30878 5.64822
#
# Compressibility (1/GPa) = 0.03221373
#
# Stress axis : x y z
#
# Youngs Moduli (GPa) = 77.39000 107.29133 29.35515
#
# Poissons Ratio (x) = 0.21468 0.20185
# Poissons Ratio (y) = 0.15485 0.09306
# Poissons Ratio (z) = 0.53213 0.34012
#
# Static dielectric constant tensor:
#      x y z
#    x 3.578180 0.000000 -0.092800 
#    y 0.000000 3.521460 0.000000 
#    z -0.092800 0.000000 3.174740 
# 
# 
# High freq. dielectric constant tensor:
#      x y z
#    x 1.773140 0.000000 -0.010300 
#    y 0.000000 1.766890 0.000000 
#    z -0.010300 0.000000 1.714260 
# 
# From -- ./inp_files/41633.got.cif
#   From: 2010.06.25/outbox.cif.g09.slc.cpg/sg12_21_cif.got.tgz:41633.got - 2010.06.28 00:19:55.
