data_PCOD8083301
_publ_section_title
;
Structure prediction by ZEFSAII (Michael W. Deem and Ramdas Pophale) SiO2 
 PCOD8083301
Probable space group: C 2/M
;
_chemical_formula_sum "Si O2"
_cell_formula_units_Z 48
_cell_length_a 11.413713
_cell_length_b 27.202116
_cell_length_c 15.382381
_cell_angle_alpha 90.000000
_cell_angle_beta 144.074682
_cell_angle_gamma 90.000000
_cell_volume 2802.151903
_symmetry_space_group_name_H-M "C 2/M"
_symmetry_group_IT_number 12
_symmetry_cell_setting 'monoclinic'
loop_
_space_group_symop_operation_xyz
x,y,z
-x,y,-z
-x,-y,-z
x,-y,z
1/2+x,1/2+y,z
1/2-x,1/2+y,-z
1/2-x,1/2-y,-z
1/2+x,1/2-y,z
loop_
_atom_site_type_symbol
_atom_site_label
_atom_site_fract_x
_atom_site_fract_y
_atom_site_fract_z
Si Si1 0.158909 0.000000 0.962456
Si Si2 0.523688 0.500000 0.689725
Si Si3 0.128219 0.681749 0.381098
Si Si4 0.118696 0.500000 0.221003
Si Si5 0.680296 0.672140 0.163697
Si Si6 0.179088 0.919976 0.546343
Si Si7 0.229057 0.272684 0.615784
Si Si8 0.500000 0.422033 0.000000
O O1 0.383759 0.000000 0.061336
O O2 0.115854 0.953101 0.996945
O O3 0.021801 0.000000 0.793532
O O4 0.750446 0.500000 0.788774
O O5 0.407805 0.451392 0.586678
O O6 0.194162 0.626124 0.408116
O O7 0.255569 0.700565 0.539700
O O8 0.177876 0.717751 0.330146
O O9 0.892277 0.686171 0.251405
O O10 0.169164 0.452276 0.307063
O O11 0.658102 0.693091 0.247228
O O12 0.500000 0.696673 0.000000
O O13 0.656788 0.612635 0.146750
O O14 0.000000 0.901731 0.500000
O O15 0.000000 0.266924 0.500000
#
# Coordination Sequence:
#
# PCOD8083301 Si02
#       8
#     4   4   8   4   8   8   8   4
#     4  11  19  34  56  72 105 138 182 211 246 321
#     4   9  20  32  52  82 102 133 173 221 256 303
#     4  10  18  32  56  74  99 140 166 210 262 297
#     4   9  18  34  52  74 105 137 167 212 273 302
#     4   9  20  36  50  73 106 133 171 212 254 305
#     4   9  18  32  51  77 106 131 169 212 259 311
#     4   9  19  33  52  78 101 130 174 210 252 310
#     4   9  22  34  50  76 104 142 172 207 262 294
#
# _framework density 17.129693
#
# number of rings (size 3 to 8) (size 9 to 14) (size 15 to 20)
#    0.500    2.167    0.000    2.750    2.333    0.667 
#    0.000    0.000    0.000    3.000    0.000    0.000 
#    0.000    0.000    0.000    0.000    0.000    0.000 
#
# Total GULP energy -297452.603017 kJ/mol
# GULP energy per Si atom -12393.858459 kJ/mol
# Density = 1.709071 g / cm^3
# Si number density = 17.129693 Si / 1000 Ang^3
#
#
#
# Elastic Constant Matrix: (Units=GPa)
#
#
# Indices 1 2 3 4 5 6 
#
# 1 60.1131 40.2111 36.6073 0.0000 -15.3983 0.0000
# 2 40.2111 114.5332 40.6203 0.0000 -14.7191 0.0000
# 3 36.6073 40.6203 96.3447 0.0001 -7.8032 0.0002
# 4 0.0000 0.0000 0.0001 19.5394 0.0001 -12.7585
# 5 -15.3983 -14.7191 -7.8032 0.0001 21.9291 0.0002
# 6 0.0000 0.0000 0.0002 -12.7585 0.0002 -1.7059
#
#
#
# Elastic Compliance Matrix: (Units=1/GPa)
#
#
# Indices 1 2 3 4 5 6 
#
# 1 0.028285 -0.005611 -0.007288 0.000000 0.013502 0.000000
# 2 -0.005611 0.012069 -0.002697 0.000000 0.003201 0.000000
# 3 -0.007288 -0.002697 0.014132 0.000000 -0.001899 0.000000
# 4 0.000000 0.000000 0.000000 0.008699 0.000001 -0.065057
# 5 0.013502 0.003201 -0.001899 0.000001 0.056555 0.000001
# 6 0.000000 0.000000 0.000000 -0.065057 0.000001 -0.099633
#
#
# Mechanical properties :
#
#
# Convention : Reuss Voigt Hill
#
# Bulk Modulus (GPa) = 42.92949 56.20762 49.56855
# Shear Modulus (GPa) = 84.65329 18.18934 51.42132
#
# Velocity S-wave (km/s) = 7.03749 3.26215 5.48489
# Velocity P-wave (km/s) = 9.54730 6.86098 8.31336
#
# Compressibility (1/GPa) = 0.02329401
#
# Stress axis : x y z
#
# Youngs Moduli (GPa) = 35.35393 82.85733 70.76110
#
# Poissons Ratio (x) = 0.46488 0.51573
# Poissons Ratio (y) = 0.19836 0.19087
# Poissons Ratio (z) = 0.25767 0.22350
#
# Static dielectric constant tensor:
#      x y z
#    x 3.123260 0.000000 -0.066130 
#    y 0.000000 3.176350 0.000000 
#    z -0.066130 0.000000 3.109460 
# 
# 
# High freq. dielectric constant tensor:
#      x y z
#    x 1.660130 0.000000 0.003100 
#    y 0.000000 1.663250 0.000000 
#    z 0.003100 0.000000 1.651620 
# 
# From -- ./inp_files/209631.got.cif
#   From: 2010.06.25/outbox.cif.g09.slc.cpg/sg12_105_cif.got.tgz:209631.got - 2010.06.28 00:19:55.
