data_PCOD8083352
_publ_section_title
;
Structure prediction by ZEFSAII (Michael W. Deem and Ramdas Pophale) SiO2 
 PCOD8083352
Probable space group: C 2/M
;
_chemical_formula_sum "Si O2"
_cell_formula_units_Z 56
_cell_length_a 20.679673
_cell_length_b 8.469844
_cell_length_c 17.725499
_cell_angle_alpha 90.000000
_cell_angle_beta 109.256949
_cell_angle_gamma 90.000000
_cell_volume 2930.974891
_symmetry_space_group_name_H-M "C 2/M"
_symmetry_group_IT_number 12
_symmetry_cell_setting 'monoclinic'
loop_
_space_group_symop_operation_xyz
x,y,z
-x,y,-z
-x,-y,-z
x,-y,z
1/2+x,1/2+y,z
1/2-x,1/2+y,-z
1/2-x,1/2-y,-z
1/2+x,1/2-y,z
loop_
_atom_site_type_symbol
_atom_site_label
_atom_site_fract_x
_atom_site_fract_y
_atom_site_fract_z
Si Si1 0.070521 0.812983 0.766843
Si Si2 0.076325 0.187788 0.339626
Si Si3 0.941569 0.184090 0.070733
Si Si4 0.413651 0.817279 0.906722
Si Si5 0.821661 0.185181 0.749143
Si Si6 0.827906 0.812530 0.322749
Si Si7 0.925606 0.187502 0.493315
O O1 0.086767 0.759764 0.858799
O O2 0.130818 0.754495 0.735329
O O3 0.997622 0.741900 0.712294
O O4 0.064463 0.000000 0.759934
O O5 0.133700 0.250258 0.303921
O O6 0.094790 0.247460 0.430969
O O7 0.073999 0.000000 0.337385
O O8 0.023001 0.214620 0.099460
O O9 0.928414 0.000000 0.052688
O O10 0.901610 0.280335 0.990635
O O11 0.345744 0.772239 0.834612
O O12 0.431319 0.000000 0.903668
O O13 0.743545 0.224033 0.703262
O O14 0.831956 0.000000 0.764006
O O15 0.868971 0.753956 0.412240
O O16 0.816724 0.000000 0.318038
O O17 0.000000 0.256898 0.500000
O O18 0.929648 0.000000 0.491958
#
# Coordination Sequence:
#
# PCOD8083352 Si02
#       7
#     8   8   8   8   8   8   8
#     4   9  16  30  54  82 108 139 181 223 261 313
#     4   9  16  29  52  80 105 139 184 223 259 314
#     4  10  18  32  56  84 110 142 180 217 267 327
#     4  11  21  34  53  81 112 140 177 229 274 311
#     4  11  22  37  54  75 110 151 184 217 271 334
#     4  10  20  34  55  83 112 140 179 228 273 315
#     4   9  15  27  52  83 109 135 177 228 270 311
#
# _framework density 19.106269999999999
#
# number of rings (size 3 to 8) (size 9 to 14) (size 15 to 20)
#    0.000    2.143    2.857    3.000    0.000    0.571 
#    0.000    2.143    0.000    1.286    0.000    0.000 
#    0.000    0.000    0.000    0.000    0.000    0.000 
#
# Total GULP energy -347183.774556 kJ/mol
# GULP energy per Si atom -12399.420520 kJ/mol
# Density = 1.906278 g / cm^3
# Si number density = 19.106270 Si / 1000 Ang^3
#
#
#
# Elastic Constant Matrix: (Units=GPa)
#
#
# Indices 1 2 3 4 5 6 
#
# 1 125.1069 12.4426 75.5594 0.0000 -6.7488 0.0000
# 2 12.4426 34.9643 24.2645 0.0000 -3.8362 0.0000
# 3 75.5594 24.2645 166.8614 0.0000 -10.1906 0.0000
# 4 0.0000 0.0000 0.0000 16.0089 0.0000 9.2576
# 5 -6.7488 -3.8362 -10.1906 0.0000 34.6173 0.0000
# 6 0.0000 0.0000 0.0000 9.2576 0.0000 18.7462
#
#
#
# Elastic Compliance Matrix: (Units=1/GPa)
#
#
# Indices 1 2 3 4 5 6 
#
# 1 0.011025 -0.000461 -0.004885 0.000000 0.000660 0.000000
# 2 -0.000461 0.031996 -0.004311 0.000000 0.002187 0.000000
# 3 -0.004885 -0.004311 0.008905 0.000000 0.001191 0.000000
# 4 0.000000 0.000000 0.000000 0.087434 0.000000 -0.043178
# 5 0.000660 0.002187 0.001191 0.000000 0.029609 0.000000
# 6 0.000000 0.000000 0.000000 -0.043178 0.000000 0.074667
#
#
# Mechanical properties :
#
#
# Convention : Reuss Voigt Hill
#
# Bulk Modulus (GPa) = 30.66286 61.27394 45.96840
# Shear Modulus (GPa) = 18.26019 28.18556 23.22287
#
# Velocity S-wave (km/s) = 3.09482 3.84500 3.49012
# Velocity P-wave (km/s) = 5.37159 7.20081 6.35239
#
# Compressibility (1/GPa) = 0.03261274
#
# Stress axis : x y z
#
# Youngs Moduli (GPa) = 90.70297 31.25398 112.30061
#
# Poissons Ratio (x) = 0.01440 0.54860
# Poissons Ratio (y) = 0.04180 0.48407
# Poissons Ratio (z) = 0.44309 0.13472
#
# Static dielectric constant tensor:
#      x y z
#    x 3.427080 0.000000 -0.251170 
#    y 0.000000 3.028410 0.000000 
#    z -0.251170 0.000000 3.839200 
# 
# 
# High freq. dielectric constant tensor:
#      x y z
#    x 1.725430 0.000000 -0.012230 
#    y 0.000000 1.704110 0.000000 
#    z -0.012230 0.000000 1.760350 
# 
# From -- ./inp_files/281679.got.cif
#   From: 2010.06.25/outbox.cif.g09.slc.cpg/sg12_141_cif.got.tgz:281679.got - 2010.06.28 00:19:55.
