data_PCOD8083750
_publ_section_title
;
Structure prediction by ZEFSAII (Michael W. Deem and Ramdas Pophale) SiO2 
 PCOD8083750
Probable space group: C 2/M
;
_chemical_formula_sum "Si O2"
_cell_formula_units_Z 64
_cell_length_a 20.721412
_cell_length_b 8.806281
_cell_length_c 22.836281
_cell_angle_alpha 90.000000
_cell_angle_beta 125.025169
_cell_angle_gamma 90.000000
_cell_volume 3412.464455
_symmetry_space_group_name_H-M "C 2/M"
_symmetry_group_IT_number 12
_symmetry_cell_setting 'monoclinic'
loop_
_space_group_symop_operation_xyz
x,y,z
-x,y,-z
-x,-y,-z
x,-y,z
1/2+x,1/2+y,z
1/2-x,1/2+y,-z
1/2-x,1/2-y,-z
1/2+x,1/2-y,z
loop_
_atom_site_type_symbol
_atom_site_label
_atom_site_fract_x
_atom_site_fract_y
_atom_site_fract_z
Si Si1 0.015134 0.320952 0.216248
Si Si2 0.715493 0.820182 0.540169
Si Si3 0.695976 0.820942 0.305832
Si Si4 0.735208 0.179326 0.773321
Si Si5 0.557642 0.819904 0.701626
Si Si6 0.618172 0.321464 0.078140
Si Si7 0.026458 0.820364 0.921298
Si Si8 0.036971 0.680800 0.459270
O O1 0.006489 0.500000 0.211326
O O2 0.105237 0.269581 0.254917
O O3 0.982092 0.254166 0.260193
O O4 0.962426 0.255832 0.136016
O O5 0.750000 0.750000 0.500000
O O6 0.766671 0.766383 0.620883
O O7 0.626315 0.761722 0.501413
O O8 0.718247 0.000000 0.536969
O O9 0.741393 0.772144 0.271545
O O10 0.703829 0.000000 0.319834
O O11 0.648519 0.230858 0.747266
O O12 0.793899 0.225753 0.856946
O O13 0.739821 0.000000 0.761777
O O14 0.512184 0.753587 0.621393
O O15 0.550744 0.000000 0.697577
O O16 0.607043 0.500000 0.072646
O O17 0.554907 0.258823 0.092184
O O18 0.597850 0.266172 0.001523
O O19 0.025761 0.000000 0.912031
O O20 0.032937 0.500000 0.457386
O O21 0.000000 0.745890 0.500000
#
# Coordination Sequence:
#
# PCOD8083750 Si02
#       8
#     8   8   8   8   8   8   8   8
#     4  10  20  34  50  74 107 142 173 208 260 312
#     4  11  22  36  56  79 105 136 172 215 260 310
#     4  11  22  35  53  77 107 136 168 215 263 308
#     4  10  18  33  57  80  99 130 177 218 251 300
#     4   9  18  32  52  76 104 134 169 214 258 306
#     4   8  15  28  50  78 104 130 167 215 260 300
#     4   9  16  30  51  75 104 135 170 213 256 305
#     4   9  17  32  54  78 100 130 173 215 256 303
#
# _framework density 18.754774999999999
#
# number of rings (size 3 to 8) (size 9 to 14) (size 15 to 20)
#    0.000    2.375    1.250    3.000    0.000    4.500 
#    0.000    3.125    0.000    8.250    0.000    0.000 
#    0.000    0.000    0.000    0.000    0.000    0.000 
#
# Total GULP energy -396750.175085 kJ/mol
# GULP energy per Si atom -12398.442971 kJ/mol
# Density = 1.871209 g / cm^3
# Si number density = 18.754775 Si / 1000 Ang^3
#
#
#
# Elastic Constant Matrix: (Units=GPa)
#
#
# Indices 1 2 3 4 5 6 
#
# 1 121.3860 27.8531 63.3034 0.0000 -19.6184 0.0000
# 2 27.8531 27.2158 27.4509 0.0000 2.9338 0.0000
# 3 63.3034 27.4509 163.2153 0.0000 -20.6280 0.0000
# 4 0.0000 0.0000 0.0000 26.4380 0.0000 -7.8685
# 5 -19.6184 2.9338 -20.6280 0.0000 29.0549 0.0000
# 6 0.0000 0.0000 0.0000 -7.8685 0.0000 20.1414
#
#
#
# Elastic Compliance Matrix: (Units=1/GPa)
#
#
# Indices 1 2 3 4 5 6 
#
# 1 0.013757 -0.013084 -0.001971 0.000000 0.009211 0.000000
# 2 -0.013084 0.059953 -0.007570 0.000000 -0.020262 0.000000
# 3 -0.001971 -0.007570 0.008891 0.000000 0.005746 0.000000
# 4 0.000000 0.000000 0.000000 0.042801 0.000000 0.016721
# 5 0.009211 -0.020262 0.005746 0.000000 0.046762 0.000000
# 6 0.000000 0.000000 0.000000 0.016721 0.000000 0.056181
#
#
# Mechanical properties :
#
#
# Convention : Reuss Voigt Hill
#
# Bulk Modulus (GPa) = 26.77275 61.00353 43.88814
# Shear Modulus (GPa) = 17.47984 28.00752 22.74368
#
# Velocity S-wave (km/s) = 3.05621 3.86859 3.48614
# Velocity P-wave (km/s) = 5.17301 7.24929 6.29731
#
# Compressibility (1/GPa) = 0.03735141
#
# Stress axis : x y z
#
# Youngs Moduli (GPa) = 72.69067 16.67971 112.47832
#
# Poissons Ratio (x) = 0.21824 0.22169
# Poissons Ratio (y) = 0.95108 0.85142
# Poissons Ratio (z) = 0.14327 0.12626
#
# Static dielectric constant tensor:
#      x y z
#    x 3.495770 0.000000 0.032410 
#    y 0.000000 3.022760 0.000000 
#    z 0.032410 0.000000 3.732690 
# 
# 
# High freq. dielectric constant tensor:
#      x y z
#    x 1.722330 0.000000 -0.002880 
#    y 0.000000 1.686760 0.000000 
#    z -0.002880 0.000000 1.749450 
# 
# From -- ./inp_files/346252.got.cif
#   From: 2010.06.25/outbox.cif.g09.slc.cpg/sg12_174_cif.got.tgz:346252.got - 2010.06.28 00:19:55.
