data_PCOD8083449
_publ_section_title
;
Structure prediction by ZEFSAII (Michael W. Deem and Ramdas Pophale) SiO2 
 PCOD8083449
Probable space group: C 2/M
;
_chemical_formula_sum "Si O2"
_cell_formula_units_Z 64
_cell_length_a 23.667053
_cell_length_b 16.713325
_cell_length_c 11.815835
_cell_angle_alpha 90.000000
_cell_angle_beta 44.331298
_cell_angle_gamma 90.000000
_cell_volume 3266.090134
_symmetry_space_group_name_H-M "C 2/M"
_symmetry_group_IT_number 12
_symmetry_cell_setting 'monoclinic'
loop_
_space_group_symop_operation_xyz
x,y,z
-x,y,-z
-x,-y,-z
x,-y,z
1/2+x,1/2+y,z
1/2-x,1/2+y,-z
1/2-x,1/2-y,-z
1/2+x,1/2-y,z
loop_
_atom_site_type_symbol
_atom_site_label
_atom_site_fract_x
_atom_site_fract_y
_atom_site_fract_z
Si Si1 0.493005 0.138616 0.139825
Si Si2 0.463905 0.322752 0.172794
Si Si3 0.821701 0.092404 0.283009
Si Si4 0.858567 0.411044 0.490692
Si Si5 0.859355 0.405161 0.920767
Si Si6 0.891876 0.093675 0.939970
Si Si7 0.905715 0.306191 0.633284
Si Si8 0.797505 0.821862 0.876579
O O1 0.463787 0.229204 0.196257
O O2 0.425376 0.084948 0.296477
O O3 0.580404 0.126490 0.069870
O O4 0.500000 0.112472 0.000000
O O5 0.372176 0.355893 0.302418
O O6 0.519100 0.366368 0.187327
O O7 0.500000 0.345901 0.000000
O O8 0.727830 0.112150 0.438920
O O9 0.842870 0.000000 0.274015
O O10 0.842400 0.116305 0.123985
O O11 0.852661 0.500000 0.553351
O O12 0.883416 0.347815 0.548600
O O13 0.865829 0.500000 0.897754
O O14 0.881155 0.364774 0.770272
O O15 0.768504 0.379564 0.089288
O O16 0.843219 0.126622 0.904147
O O17 0.903063 0.000000 0.909493
O O18 0.861210 0.219591 0.699923
O O19 0.000000 0.288252 0.500000
O O20 0.750000 0.750000 0.000000
#
# Coordination Sequence:
#
# PCOD8083449 Si02
#       8
#     8   8   8   8   8   8   8   8
#     4  11  24  39  59  84 115 157 198 244 298 359
#     4   9  18  33  54  81 115 150 197 238 284 345
#     4   9  18  33  54  85 119 151 194 247 292 339
#     4  11  23  38  59  88 119 151 193 246 305 355
#     4  11  22  39  63  89 120 158 204 248 293 355
#     4  10  18  32  58  86 115 153 196 241 289 344
#     4  11  22  37  61  92 122 156 195 253 305 352
#     4  10  21  35  56  86 121 154 193 241 297 357
#
# _framework density 19.595296000000001
#
# number of rings (size 3 to 8) (size 9 to 14) (size 15 to 20)
#    0.000    1.750    1.250    4.500    0.000    6.500 
#    0.000    0.000    0.000    1.500    0.000    0.000 
#    0.000    0.000    0.000    0.000    0.000    0.000 
#
# Total GULP energy -396799.967923 kJ/mol
# GULP energy per Si atom -12399.998998 kJ/mol
# Density = 1.955070 g / cm^3
# Si number density = 19.595296 Si / 1000 Ang^3
#
#
#
# Elastic Constant Matrix: (Units=GPa)
#
#
# Indices 1 2 3 4 5 6 
#
# 1 145.2398 40.4530 52.3133 0.0000 -29.1005 0.0000
# 2 40.4530 67.7029 33.2227 0.0000 -10.4266 0.0000
# 3 52.3133 33.2227 68.6124 0.0000 -14.5977 0.0000
# 4 0.0000 0.0000 0.0000 36.1585 0.0000 -20.0411
# 5 -29.1005 -10.4266 -14.5977 0.0000 35.5349 0.0000
# 6 0.0000 0.0000 0.0000 -20.0411 0.0000 76.7618
#
#
#
# Elastic Compliance Matrix: (Units=1/GPa)
#
#
# Indices 1 2 3 4 5 6 
#
# 1 0.010874 -0.002813 -0.005709 0.000000 0.005734 0.000000
# 2 -0.002813 0.020233 -0.007538 0.000000 0.000537 0.000000
# 3 -0.005709 -0.007538 0.023134 0.000000 0.002617 0.000000
# 4 0.000000 0.000000 0.000000 0.032335 0.000000 0.008442
# 5 0.005734 0.000537 0.002617 0.000000 0.034070 0.000000
# 6 0.000000 0.000000 0.000000 0.008442 0.000000 0.015231
#
#
# Mechanical properties :
#
#
# Convention : Reuss Voigt Hill
#
# Bulk Modulus (GPa) = 45.20533 59.28145 52.24339
# Shear Modulus (GPa) = 28.51124 40.06212 34.28668
#
# Velocity S-wave (km/s) = 3.81859 4.52649 4.18753
# Velocity P-wave (km/s) = 6.52394 7.59193 7.07811
#
# Compressibility (1/GPa) = 0.02212129
#
# Stress axis : x y z
#
# Youngs Moduli (GPa) = 91.96502 49.42483 43.22657
#
# Poissons Ratio (x) = 0.13902 0.24677
# Poissons Ratio (y) = 0.25867 0.32585
# Poissons Ratio (z) = 0.52500 0.37257
#
# Static dielectric constant tensor:
#      x y z
#    x 3.788290 0.000000 -0.350860 
#    y 0.000000 3.688970 0.000000 
#    z -0.350860 0.000000 3.547740 
# 
# 
# High freq. dielectric constant tensor:
#      x y z
#    x 1.776340 0.000000 -0.024630 
#    y 0.000000 1.770430 0.000000 
#    z -0.024630 0.000000 1.734210 
# 
# From -- ./inp_files/183801.got.cif
#   From: 2010.06.25/outbox.cif.g09.slc.cpg/sg12_92_cif.got.tgz:183801.got - 2010.06.28 00:19:55.
