data_PCOD8083616
_publ_section_title
;
Structure prediction by ZEFSAII (Michael W. Deem and Ramdas Pophale) SiO2 
 PCOD8083616
Probable space group: C 2/M
;
_chemical_formula_sum "Si O2"
_cell_formula_units_Z 64
_cell_length_a 23.845306
_cell_length_b 9.240719
_cell_length_c 31.002444
_cell_angle_alpha 90.000000
_cell_angle_beta 149.514050
_cell_angle_gamma 90.000000
_cell_volume 3465.713222
_symmetry_space_group_name_H-M "C 2/M"
_symmetry_group_IT_number 12
_symmetry_cell_setting 'monoclinic'
loop_
_space_group_symop_operation_xyz
x,y,z
-x,y,-z
-x,-y,-z
x,-y,z
1/2+x,1/2+y,z
1/2-x,1/2+y,-z
1/2-x,1/2-y,-z
1/2+x,1/2-y,z
loop_
_atom_site_type_symbol
_atom_site_label
_atom_site_fract_x
_atom_site_fract_y
_atom_site_fract_z
Si Si1 0.758196 0.831962 0.625280
Si Si2 0.354152 0.170140 0.770627
Si Si3 0.806873 0.668894 0.101045
Si Si4 0.828779 0.829353 0.285843
Si Si5 0.105990 0.666942 0.934810
Si Si6 0.036332 0.163928 0.475082
Si Si7 0.840602 0.834793 0.586853
Si Si8 0.590568 0.669702 0.751365
O O1 0.815775 0.751534 0.702724
O O2 0.639243 0.767113 0.535759
O O3 0.833185 0.806854 0.633032
O O4 0.745689 0.000000 0.628733
O O5 0.283006 0.224990 0.764711
O O6 0.481123 0.206944 0.864713
O O7 0.337530 0.000000 0.750964
O O8 0.793984 0.500000 0.101239
O O9 0.875266 0.702343 0.103039
O O10 0.873341 0.738997 0.183889
O O11 0.684834 0.736852 0.016961
O O12 0.831219 0.785302 0.237133
O O13 0.936477 0.766964 0.381314
O O14 0.835505 0.000000 0.295014
O O15 0.132951 0.500000 0.962297
O O16 0.000000 0.163326 0.500000
O O17 0.066196 0.000000 0.480098
O O18 0.750000 0.750000 0.500000
O O19 0.964588 0.790911 0.655085
O O20 0.817060 0.000000 0.560072
O O21 0.600894 0.500000 0.769291
#
# Coordination Sequence:
#
# PCOD8083616 Si02
#       8
#     8   8   8   8   8   8   8   8
#     4  11  22  33  49  78 111 139 172 219 277 323
#     4  10  19  35  56  79 104 134 177 221 261 312
#     4  10  20  35  56  83 109 135 170 211 262 323
#     4   9  18  33  54  78 101 134 182 227 259 299
#     4   9  19  35  58  83 106 133 168 216 267 313
#     4  10  18  33  55  75 100 140 186 224 259 305
#     4  10  22  37  53  76 107 143 181 222 265 315
#     4  10  20  36  56  76 105 143 181 217 258 310
#
# _framework density 18.466615999999998
#
# number of rings (size 3 to 8) (size 9 to 14) (size 15 to 20)
#    0.000    2.125    1.250    2.250    0.000    3.750 
#    0.000    1.875    0.000    3.750    0.000    0.000 
#    0.000    0.000    0.000    0.000    0.000    0.000 
#
# Total GULP energy -396828.489200 kJ/mol
# GULP energy per Si atom -12400.890287 kJ/mol
# Density = 1.842459 g / cm^3
# Si number density = 18.466616 Si / 1000 Ang^3
#
#
#
# Elastic Constant Matrix: (Units=GPa)
#
#
# Indices 1 2 3 4 5 6 
#
# 1 101.1293 43.7611 54.9762 0.0002 12.6485 -0.0001
# 2 43.7611 70.7906 57.2454 0.0002 3.5508 0.0002
# 3 54.9762 57.2454 111.2777 0.0002 4.7815 0.0002
# 4 0.0002 0.0002 0.0002 33.7096 0.0000 -1.1212
# 5 12.6485 3.5508 4.7815 0.0000 29.6670 0.0001
# 6 -0.0001 0.0002 0.0002 -1.1212 0.0001 3.5044
#
#
#
# Elastic Compliance Matrix: (Units=1/GPa)
#
#
# Indices 1 2 3 4 5 6 
#
# 1 0.015418 -0.005636 -0.004495 0.000000 -0.005174 0.000001
# 2 -0.005636 0.026273 -0.010774 0.000000 0.000995 -0.000001
# 3 -0.004495 -0.010774 0.016728 0.000000 0.000510 0.000000
# 4 0.000000 0.000000 0.000000 0.029984 0.000000 0.009593
# 5 -0.005174 0.000995 0.000510 0.000000 0.035712 -0.000001
# 6 0.000001 -0.000001 0.000000 0.009593 -0.000001 0.288426
#
#
# Mechanical properties :
#
#
# Convention : Reuss Voigt Hill
#
# Bulk Modulus (GPa) = 60.21251 66.12921 63.17086
# Shear Modulus (GPa) = 10.87218 21.85721 16.36470
#
# Velocity S-wave (km/s) = 2.42905 3.44409 2.98010
# Velocity P-wave (km/s) = 6.36741 7.19052 6.79145
#
# Compressibility (1/GPa) = 0.01660785
#
# Stress axis : x y z
#
# Youngs Moduli (GPa) = 64.85779 38.06197 59.77996
#
# Poissons Ratio (x) = 0.21453 0.26874
# Poissons Ratio (y) = 0.36557 0.64406
# Poissons Ratio (z) = 0.29156 0.41007
#
# Static dielectric constant tensor:
#      x y z
#    x 3.241230 0.000000 -0.017920 
#    y 0.000000 3.299800 0.000000 
#    z -0.017920 0.000000 3.284790 
# 
# 
# High freq. dielectric constant tensor:
#      x y z
#    x 1.722560 0.000000 0.005070 
#    y 0.000000 1.700120 0.000000 
#    z 0.005070 0.000000 1.714000 
# 
# From -- ./inp_files/382409.got.cif
#   From: 2010.06.25/outbox.cif.g09.slc.cpg/sg12_192_cif.got.tgz:382409.got - 2010.06.28 00:19:55.
