data_PCOD8083792
_publ_section_title
;
Structure prediction by ZEFSAII (Michael W. Deem and Ramdas Pophale) SiO2 
 PCOD8083792
Probable space group: C 2/M
;
_chemical_formula_sum "Si O2"
_cell_formula_units_Z 64
_cell_length_a 28.612027
_cell_length_b 8.656134
_cell_length_c 20.910897
_cell_angle_alpha 90.000000
_cell_angle_beta 136.988812
_cell_angle_gamma 90.000000
_cell_volume 3532.803753
_symmetry_space_group_name_H-M "C 2/M"
_symmetry_group_IT_number 12
_symmetry_cell_setting 'monoclinic'
loop_
_space_group_symop_operation_xyz
x,y,z
-x,y,-z
-x,-y,-z
x,-y,z
1/2+x,1/2+y,z
1/2-x,1/2+y,-z
1/2-x,1/2-y,-z
1/2+x,1/2-y,z
loop_
_atom_site_type_symbol
_atom_site_label
_atom_site_fract_x
_atom_site_fract_y
_atom_site_fract_z
Si Si1 0.960767 0.680959 0.284762
Si Si2 0.043950 0.180767 0.482449
Si Si3 0.458495 0.182153 0.140860
Si Si4 0.040178 0.317755 0.102250
Si Si5 0.673481 0.820381 0.661940
Si Si6 0.673534 0.677463 0.191882
Si Si7 0.677822 0.821123 0.060155
Si Si8 0.330807 0.677930 0.205805
O O1 0.975264 0.500000 0.308439
O O2 0.980191 0.740864 0.232937
O O3 0.880134 0.713289 0.213963
O O4 0.004422 0.778589 0.378385
O O5 0.115859 0.272788 0.553079
O O6 0.000000 0.234240 0.500000
O O7 0.058975 0.000000 0.499661
O O8 0.506903 0.253060 0.133744
O O9 0.465983 0.000000 0.148037
O O10 0.379176 0.226921 0.048562
O O11 0.031895 0.500000 0.094738
O O12 0.120220 0.274598 0.180852
O O13 0.000000 0.250429 0.000000
O O14 0.748693 0.785968 0.707667
O O15 0.660924 0.716030 0.711327
O O16 0.667301 0.000000 0.674622
O O17 0.655118 0.500000 0.183479
O O18 0.665647 0.717469 0.109804
O O19 0.752801 0.790184 0.105320
O O20 0.670282 0.000000 0.073671
O O21 0.351911 0.500000 0.217179
#
# Coordination Sequence:
#
# PCOD8083792 Si02
#       8
#     8   8   8   8   8   8   8   8
#     4  11  22  35  53  75 107 143 176 217 264 314
#     4  11  22  36  56  80 105 133 174 223 263 309
#     4   9  19  35  53  77 104 140 185 219 253 307
#     4  10  18  33  58  79 102 141 184 218 254 307
#     4  10  20  34  54  79 107 138 171 213 266 316
#     4  10  20  32  50  82 114 134 167 219 269 311
#     4   9  17  33  53  72 103 145 183 214 250 303
#     4  10  19  31  50  76 106 141 180 217 253 303
#
# _framework density 18.115922000000001
#
# number of rings (size 3 to 8) (size 9 to 14) (size 15 to 20)
#    0.000    2.000    2.500    1.875    0.000    3.250 
#    0.000    2.500    0.000    0.750    0.000    0.000 
#    0.000    0.000    0.000    0.000    0.000    0.000 
#
# Total GULP energy -396777.786927 kJ/mol
# GULP energy per Si atom -12399.305841 kJ/mol
# Density = 1.807469 g / cm^3
# Si number density = 18.115922 Si / 1000 Ang^3
#
#
#
# Elastic Constant Matrix: (Units=GPa)
#
#
# Indices 1 2 3 4 5 6 
#
# 1 107.8974 17.3094 61.4179 0.0000 1.8789 0.0000
# 2 17.3094 28.9313 19.4125 0.0000 3.5742 0.0000
# 3 61.4179 19.4125 111.9468 0.0000 2.4025 0.0000
# 4 0.0000 0.0000 0.0000 19.2493 0.0000 7.3279
# 5 1.8789 3.5742 2.4025 0.0000 26.4789 0.0000
# 6 0.0000 0.0000 0.0000 7.3279 0.0000 23.8172
#
#
#
# Elastic Compliance Matrix: (Units=1/GPa)
#
#
# Indices 1 2 3 4 5 6 
#
# 1 0.013800 -0.003612 -0.006948 0.000000 0.000139 0.000000
# 2 -0.003612 0.040647 -0.004965 0.000000 -0.004780 0.000000
# 3 -0.006948 -0.004965 0.013607 0.000000 -0.000071 0.000000
# 4 0.000000 0.000000 0.000000 0.058842 0.000000 -0.018104
# 5 0.000139 -0.004780 -0.000071 0.000000 0.038408 0.000000
# 6 0.000000 0.000000 0.000000 -0.018104 0.000000 0.047557
#
#
# Mechanical properties :
#
#
# Convention : Reuss Voigt Hill
#
# Bulk Modulus (GPa) = 27.02252 49.45057 38.23654
# Shear Modulus (GPa) = 19.51269 23.95147 21.73208
#
# Velocity S-wave (km/s) = 3.28548 3.64005 3.46730
# Velocity P-wave (km/s) = 5.41677 6.70989 6.09770
#
# Compressibility (1/GPa) = 0.03700617
#
# Stress axis : x y z
#
# Youngs Moduli (GPa) = 72.46434 24.60201 73.49144
#
# Poissons Ratio (x) = 0.08885 0.51060
# Poissons Ratio (y) = 0.26171 0.36485
# Poissons Ratio (z) = 0.50347 0.12214
#
# Static dielectric constant tensor:
#      x y z
#    x 3.479760 0.000000 0.150720 
#    y 0.000000 3.210040 0.000000 
#    z 0.150720 0.000000 3.356310 
# 
# 
# High freq. dielectric constant tensor:
#      x y z
#    x 1.688400 0.000000 0.019030 
#    y 0.000000 1.694750 0.000000 
#    z 0.019030 0.000000 1.690710 
# 
# From -- ./inp_files/326963.got.cif
#   From: 2010.06.25/outbox.cif.g09.slc.cpg/sg12_164_cif.got.tgz:326963.got - 2010.06.28 00:19:55.
