data_PCOD8083574
_publ_section_title
;
Structure prediction by ZEFSAII (Michael W. Deem and Ramdas Pophale) SiO2 
 PCOD8083574
Probable space group: C 2/M
;
_chemical_formula_sum "Si O2"
_cell_formula_units_Z 64
_cell_length_a 17.394157
_cell_length_b 26.803825
_cell_length_c 20.126714
_cell_angle_alpha 90.000000
_cell_angle_beta 159.317880
_cell_angle_gamma 90.000000
_cell_volume 3314.154206
_symmetry_space_group_name_H-M "C 2/M"
_symmetry_group_IT_number 12
_symmetry_cell_setting 'monoclinic'
loop_
_space_group_symop_operation_xyz
x,y,z
-x,y,-z
-x,-y,-z
x,-y,z
1/2+x,1/2+y,z
1/2-x,1/2+y,-z
1/2-x,1/2-y,-z
1/2+x,1/2-y,z
loop_
_atom_site_type_symbol
_atom_site_label
_atom_site_fract_x
_atom_site_fract_y
_atom_site_fract_z
Si Si1 0.791532 0.943478 0.786860
Si Si2 0.845237 0.383783 0.752864
Si Si3 0.075150 0.116867 0.668453
Si Si4 0.734499 0.442190 0.916256
Si Si5 0.518206 0.854930 0.439533
Si Si6 0.367882 0.197316 0.960009
Si Si7 0.666690 0.308064 0.074010
Si Si8 0.525539 0.385745 0.182230
O O1 0.595568 0.909328 0.654629
O O2 0.864327 0.929471 0.771751
O O3 0.707116 0.000000 0.720917
O O4 0.000000 0.934384 0.000000
O O5 0.678785 0.380718 0.556561
O O6 0.720363 0.391261 0.720845
O O7 0.007566 0.430522 0.876142
O O8 0.988659 0.333103 0.870410
O O9 0.120443 0.070357 0.753743
O O10 0.144797 0.167516 0.763351
O O11 0.700060 0.500000 0.904134
O O12 0.629037 0.409041 0.888289
O O13 0.500000 0.833125 0.500000
O O14 0.405235 0.817812 0.296633
O O15 0.768844 0.857379 0.618501
O O16 0.324916 0.252992 0.952042
O O17 0.500000 0.203764 0.000000
O O18 0.500000 0.314659 0.000000
O O19 0.613456 0.347195 0.973598
#
# Coordination Sequence:
#
# PCOD8083574 Si02
#       8
#     8   8   8   8   8   8   8   8
#     4  10  18  33  54  73 101 149 200 243 280 318
#     4   9  19  40  65  86 111 144 179 226 283 349
#     4   9  19  40  62  88 114 139 181 227 280 349
#     4  11  24  39  57  84 116 148 184 232 288 340
#     4  10  19  33  51  76 109 149 194 242 277 315
#     4   8  17  31  59  89 115 141 180 233 279 327
#     4  11  18  35  55  85 117 150 196 238 276 322
#     4  11  22  35  52  77 116 154 190 238 281 326
#
# _framework density 19.311111
#
# number of rings (size 3 to 8) (size 9 to 14) (size 15 to 20)
#    0.000    2.125    3.750    1.500    0.000    6.250 
#    2.250    3.750    0.000    4.500    0.000    0.000 
#    0.000    0.000    0.000    0.000    0.000    0.000 
#
# Total GULP energy -396728.819042 kJ/mol
# GULP energy per Si atom -12397.775595 kJ/mol
# Density = 1.926716 g / cm^3
# Si number density = 19.311111 Si / 1000 Ang^3
#
#
#
# Elastic Constant Matrix: (Units=GPa)
#
#
# Indices 1 2 3 4 5 6 
#
# 1 50.3447 40.3604 38.6735 -0.0005 -2.5024 -0.0034
# 2 40.3604 107.2674 55.2267 0.0047 -7.6479 -0.0041
# 3 38.6735 55.2267 160.8708 0.0054 -20.3134 -0.0519
# 4 -0.0005 0.0047 0.0054 15.4459 -0.0013 3.6428
# 5 -2.5024 -7.6479 -20.3134 -0.0013 18.8858 -0.0154
# 6 -0.0034 -0.0041 -0.0519 3.6428 -0.0154 15.5863
#
#
#
# Elastic Compliance Matrix: (Units=1/GPa)
#
#
# Indices 1 2 3 4 5 6 
#
# 1 0.030930 -0.009524 -0.004786 0.000010 -0.004906 -0.000019
# 2 -0.009524 0.014260 -0.002356 -0.000003 0.001979 -0.000004
# 3 -0.004786 -0.002356 0.009228 -0.000011 0.008338 0.000040
# 4 0.000010 -0.000003 -0.000011 0.068519 -0.000021 -0.016014
# 5 -0.004906 0.001979 0.008338 -0.000021 0.062069 0.000093
# 6 -0.000019 -0.000004 0.000040 -0.016014 0.000093 0.067902
#
#
# Mechanical properties :
#
#
# Convention : Reuss Voigt Hill
#
# Bulk Modulus (GPa) = 47.42092 65.22269 56.32181
# Shear Modulus (GPa) = 17.04920 22.26509 19.65714
#
# Velocity S-wave (km/s) = 2.97454 3.39922 3.19395
# Velocity P-wave (km/s) = 6.03380 7.01814 6.54450
#
# Compressibility (1/GPa) = 0.02108774
#
# Stress axis : x y z
#
# Youngs Moduli (GPa) = 32.33055 70.12624 108.36204
#
# Poissons Ratio (x) = 0.66786 0.51859
# Poissons Ratio (y) = 0.30791 0.25531
# Poissons Ratio (z) = 0.15472 0.16522
#
# Static dielectric constant tensor:
#      x y z
#    x 3.297830 0.000010 -0.115760 
#    y 0.000010 3.593450 0.000000 
#    z -0.115760 0.000000 3.885460 
# 
# 
# High freq. dielectric constant tensor:
#      x y z
#    x 1.720920 0.000000 -0.009350 
#    y 0.000000 1.743990 0.000000 
#    z -0.009350 0.000000 1.765540 
# 
# From -- ./inp_files/318586.got.cif
#   From: 2010.06.25/outbox.cif.g09.slc.cpg/sg12_160_cif.got.tgz:318586.got - 2010.06.28 00:19:55.
