data_PCOD8083607
_publ_section_title
;
Structure prediction by ZEFSAII (Michael W. Deem and Ramdas Pophale) SiO2 
 PCOD8083607
Probable space group: C 2/M
;
_chemical_formula_sum "Si O2"
_cell_formula_units_Z 40
_cell_length_a 19.356831
_cell_length_b 12.637571
_cell_length_c 18.537049
_cell_angle_alpha 90.000000
_cell_angle_beta 150.693867
_cell_angle_gamma 90.000000
_cell_volume 2219.574293
_symmetry_space_group_name_H-M "C 2/M"
_symmetry_group_IT_number 12
_symmetry_cell_setting 'monoclinic'
loop_
_space_group_symop_operation_xyz
x,y,z
-x,y,-z
-x,-y,-z
x,-y,z
1/2+x,1/2+y,z
1/2-x,1/2+y,-z
1/2-x,1/2-y,-z
1/2+x,1/2-y,z
loop_
_atom_site_type_symbol
_atom_site_label
_atom_site_fract_x
_atom_site_fract_y
_atom_site_fract_z
Si Si1 0.905817 0.880822 0.345811
Si Si2 0.854267 0.375540 0.666986
Si Si3 0.922379 0.752391 0.600275
Si Si4 0.148806 0.379946 0.596331
Si Si5 0.143568 0.705004 0.172023
O O1 0.741130 0.876849 0.216206
O O2 0.000000 0.841757 0.500000
O O3 0.937673 0.805337 0.306385
O O4 0.947952 0.000000 0.363832
O O5 0.880430 0.500000 0.678618
O O6 0.954837 0.303718 0.706528
O O7 0.693333 0.346168 0.499893
O O8 0.890718 0.345198 0.781836
O O9 0.862708 0.658956 0.495962
O O10 0.200320 0.500000 0.643168
O O11 0.270261 0.314304 0.747174
O O12 0.000000 0.366153 0.500000
O O13 0.000000 0.726416 0.000000
#
# Coordination Sequence:
#
# PCOD8083607 Si02
#       5
#     8   8   8   8   8
#     4  11  19  34  59  82 108 144 189 231 269 315
#     4  10  20  33  53  82 113 143 177 227 282 325
#     4  10  18  33  54  84 109 138 180 234 277 317
#     4  10  18  33  58  82 105 139 183 224 268 322
#     4  11  22  37  55  81 115 146 184 227 272 327
#
# _framework density 18.021474000000001
#
# number of rings (size 3 to 8) (size 9 to 14) (size 15 to 20)
#    0.000    1.600    6.000    1.800    0.000    2.000 
#    0.000    2.000    0.000    0.000    0.000    0.000 
#    0.000    0.000    0.000    0.000    0.000    0.000 
#
# Total GULP energy -247970.308448 kJ/mol
# GULP energy per Si atom -12398.515422 kJ/mol
# Density = 1.798046 g / cm^3
# Si number density = 18.021474 Si / 1000 Ang^3
#
#
#
# Elastic Constant Matrix: (Units=GPa)
#
#
# Indices 1 2 3 4 5 6 
#
# 1 134.9322 53.3512 37.7795 0.0002 -3.5242 0.0001
# 2 53.3512 128.4022 31.0377 0.0001 -5.8927 0.0001
# 3 37.7795 31.0377 87.6617 0.0002 4.4860 0.0001
# 4 0.0002 0.0001 0.0002 9.4760 0.0001 4.6656
# 5 -3.5242 -5.8927 4.4860 0.0001 16.0927 0.0001
# 6 0.0001 0.0001 0.0001 4.6656 0.0001 30.1432
#
#
#
# Elastic Compliance Matrix: (Units=1/GPa)
#
#
# Indices 1 2 3 4 5 6 
#
# 1 0.009570 -0.003143 -0.003104 0.000000 0.001810 0.000000
# 2 -0.003143 0.009813 -0.002301 0.000000 0.003546 0.000000
# 3 -0.003104 -0.002301 0.013835 0.000000 -0.005379 0.000000
# 4 0.000000 0.000000 0.000000 0.114236 -0.000001 -0.017682
# 5 0.001810 0.003546 -0.005379 -0.000001 0.065335 0.000000
# 6 0.000000 0.000000 0.000000 -0.017682 0.000000 0.035912
#
#
# Mechanical properties :
#
#
# Convention : Reuss Voigt Hill
#
# Bulk Modulus (GPa) = 62.02943 66.14810 64.08876
# Shear Modulus (GPa) = 18.43847 26.39755 22.41801
#
# Velocity S-wave (km/s) = 3.20212 3.83140 3.53081
# Velocity P-wave (km/s) = 6.94017 7.50718 7.22923
#
# Compressibility (1/GPa) = 0.01612138
#
# Stress axis : x y z
#
# Youngs Moduli (GPa) = 104.48980 101.90567 72.27806
#
# Poissons Ratio (x) = 0.32029 0.22438
# Poissons Ratio (y) = 0.32841 0.16634
# Poissons Ratio (z) = 0.32437 0.23452
#
# Static dielectric constant tensor:
#      x y z
#    x 3.581200 0.000000 0.053140 
#    y 0.000000 3.441200 0.000000 
#    z 0.053140 0.000000 2.832350 
# 
# 
# High freq. dielectric constant tensor:
#      x y z
#    x 1.710910 0.000000 0.006250 
#    y 0.000000 1.713710 0.000000 
#    z 0.006250 0.000000 1.639050 
# 
# From -- ./inp_files/83389.got.cif
#   From: 2010.06.25/outbox.cif.g09.slc.cpg/sg12_42_cif.got.tgz:83389.got - 2010.06.28 00:19:55.
