data_PCOD8083397
_publ_section_title
;
Structure prediction by ZEFSAII (Michael W. Deem and Ramdas Pophale) SiO2 
 PCOD8083397
Probable space group: C 2/M
;
_chemical_formula_sum "Si O2"
_cell_formula_units_Z 48
_cell_length_a 20.604931
_cell_length_b 8.879593
_cell_length_c 14.733051
_cell_angle_alpha 90.000000
_cell_angle_beta 99.922494
_cell_angle_gamma 90.000000
_cell_volume 2655.287529
_symmetry_space_group_name_H-M "C 2/M"
_symmetry_group_IT_number 12
_symmetry_cell_setting 'monoclinic'
loop_
_space_group_symop_operation_xyz
x,y,z
-x,y,-z
-x,-y,-z
x,-y,z
1/2+x,1/2+y,z
1/2-x,1/2+y,-z
1/2-x,1/2-y,-z
1/2+x,1/2-y,z
loop_
_atom_site_type_symbol
_atom_site_label
_atom_site_fract_x
_atom_site_fract_y
_atom_site_fract_z
Si Si1 0.838082 0.177464 0.277581
Si Si2 0.944151 0.674949 0.550018
Si Si3 0.456789 0.677465 0.075441
Si Si4 0.527475 0.175034 0.736711
Si Si5 0.809146 0.175082 0.067576
Si Si6 0.695109 0.820681 0.549119
O O1 0.912492 0.237581 0.295592
O O2 0.804227 0.215917 0.172885
O O3 0.796899 0.260490 0.346152
O O4 0.838949 0.000000 0.295518
O O5 0.940409 0.500000 0.524354
O O6 0.873115 0.743108 0.509436
O O7 0.000000 0.750738 0.500000
O O8 0.962484 0.700812 0.659836
O O9 0.460369 0.500000 0.094727
O O10 0.489308 0.761122 0.168500
O O11 0.380466 0.728351 0.045875
O O12 0.500000 0.726495 0.000000
O O13 0.546592 0.000000 0.746940
O O14 0.801541 0.000000 0.049646
O O15 0.750000 0.250000 0.000000
O O16 0.750000 0.750000 0.500000
O O17 0.700769 0.000000 0.549847
#
# Coordination Sequence:
#
# PCOD8083397 Si02
#       6
#     8   8   8   8   8   8
#     4  10  20  36  56  80 110 144 180 221 272 321
#     4   9  17  33  56  80 107 139 176 221 268 313
#     4   9  19  37  56  76 110 144 172 220 278 319
#     4  10  18  32  57  84 106 138 183 224 265 317
#     4   9  19  35  56  79 104 138 178 221 268 319
#     4  11  22  38  57  79 112 147 181 222 271 321
#
# _framework density 18.077137
#
# number of rings (size 3 to 8) (size 9 to 14) (size 15 to 20)
#    0.000    2.333    1.667    2.500    0.000    3.667 
#    3.000    4.167    0.000    0.000    0.000    0.000 
#    0.000    0.000    0.000    0.000    0.000    0.000 
#
# Total GULP energy -297560.546416 kJ/mol
# GULP energy per Si atom -12398.356101 kJ/mol
# Density = 1.803599 g / cm^3
# Si number density = 18.077137 Si / 1000 Ang^3
#
#
#
# Elastic Constant Matrix: (Units=GPa)
#
#
# Indices 1 2 3 4 5 6 
#
# 1 132.9109 43.3916 89.7876 0.0000 -9.8350 0.0000
# 2 43.3916 65.5517 53.9897 0.0000 -4.4772 0.0000
# 3 89.7876 53.9897 140.4416 0.0000 -6.9914 0.0000
# 4 0.0000 0.0000 0.0000 32.3338 0.0000 -3.9631
# 5 -9.8350 -4.4772 -6.9914 0.0000 35.9833 0.0000
# 6 0.0000 0.0000 0.0000 -3.9631 0.0000 25.0728
#
#
#
# Elastic Compliance Matrix: (Units=1/GPa)
#
#
# Indices 1 2 3 4 5 6 
#
# 1 0.013690 -0.002635 -0.007644 0.000000 0.001929 0.000000
# 2 -0.002635 0.022875 -0.007072 0.000000 0.000752 0.000000
# 3 -0.007644 -0.007072 0.014720 0.000000 -0.000109 0.000000
# 4 0.000000 0.000000 0.000000 0.031538 0.000000 0.004985
# 5 0.001929 0.000752 -0.000109 0.000000 0.028390 0.000000
# 6 0.000000 0.000000 0.000000 0.004985 0.000000 0.040672
#
#
# Mechanical properties :
#
#
# Convention : Reuss Voigt Hill
#
# Bulk Modulus (GPa) = 60.29536 79.24911 69.77223
# Shear Modulus (GPa) = 26.02595 28.79366 27.40980
#
# Velocity S-wave (km/s) = 3.79848 3.99535 3.89815
# Velocity P-wave (km/s) = 7.25705 8.07579 7.67734
#
# Compressibility (1/GPa) = 0.01658502
#
# Stress axis : x y z
#
# Youngs Moduli (GPa) = 73.04345 43.71528 67.93356
#
# Poissons Ratio (x) = 0.11520 0.51926
# Poissons Ratio (y) = 0.19248 0.48041
# Poissons Ratio (z) = 0.55831 0.30914
#
# Static dielectric constant tensor:
#      x y z
#    x 3.353300 0.000000 0.011200 
#    y 0.000000 3.261200 0.000000 
#    z 0.011200 0.000000 3.551830 
# 
# 
# High freq. dielectric constant tensor:
#      x y z
#    x 1.686560 0.000000 -0.001550 
#    y 0.000000 1.692200 0.000000 
#    z -0.001550 0.000000 1.709620 
# 
# From -- ./inp_files/230456.got.cif
#   From: 2010.06.25/outbox.cif.g09.slc.cpg/sg12_116_cif.got.tgz:230456.got - 2010.06.28 00:19:55.
