data_PCOD8083160
_publ_section_title
;
Structure prediction by ZEFSAII (Michael W. Deem and Ramdas Pophale) SiO2 
 PCOD8083160
Probable space group: C 2/M
;
_chemical_formula_sum "Si O2"
_cell_formula_units_Z 56
_cell_length_a 19.206091
_cell_length_b 9.053090
_cell_length_c 21.844902
_cell_angle_alpha 90.000000
_cell_angle_beta 54.345176
_cell_angle_gamma 90.000000
_cell_volume 3086.259763
_symmetry_space_group_name_H-M "C 2/M"
_symmetry_group_IT_number 12
_symmetry_cell_setting 'monoclinic'
loop_
_space_group_symop_operation_xyz
x,y,z
-x,y,-z
-x,-y,-z
x,-y,z
1/2+x,1/2+y,z
1/2-x,1/2+y,-z
1/2-x,1/2-y,-z
1/2+x,1/2-y,z
loop_
_atom_site_type_symbol
_atom_site_label
_atom_site_fract_x
_atom_site_fract_y
_atom_site_fract_z
Si Si1 0.454639 0.829032 0.694741
Si Si2 0.372240 0.168905 0.453624
Si Si3 0.304362 0.330486 0.921516
Si Si4 0.246493 0.327944 0.598699
Si Si5 0.825395 0.827679 0.247156
Si Si6 0.217187 0.825113 0.206274
Si Si7 0.991877 0.830478 0.797332
O O1 0.526012 0.806405 0.605521
O O2 0.371122 0.735596 0.719164
O O3 0.495706 0.776018 0.737342
O O4 0.429303 0.000000 0.714217
O O5 0.337684 0.274296 0.524968
O O6 0.327280 0.209137 0.412365
O O7 0.350763 0.000000 0.481879
O O8 0.281348 0.500000 0.940255
O O9 0.278594 0.276253 0.866780
O O10 0.405501 0.300350 0.880460
O O11 0.250000 0.250000 0.000000
O O12 0.251763 0.500000 0.612067
O O13 0.227452 0.238606 0.669632
O O14 0.797625 0.747393 0.199039
O O15 0.926749 0.798079 0.201737
O O16 0.804298 0.000000 0.253597
O O17 0.218926 0.000000 0.213327
O O18 0.991555 0.000000 0.773686
#
# Coordination Sequence:
#
# PCOD8083160 Si02
#       7
#     8   8   8   8   8   8   8
#     4  10  18  32  54  79 105 137 183 227 265 314
#     4   9  18  31  48  75 106 138 180 226 268 314
#     4   9  19  37  59  83 108 137 172 213 258 311
#     4  10  19  31  49  75 107 142 178 223 273 316
#     4  11  21  35  55  79 108 143 181 221 268 317
#     4  10  22  38  55  78 111 143 175 217 267 319
#     4   9  19  34  54  80 109 140 177 218 261 312
#
# _framework density 18.144939999999998
#
# number of rings (size 3 to 8) (size 9 to 14) (size 15 to 20)
#    0.000    2.286    1.429    2.571    0.000    5.143 
#    0.000    1.429    0.000    8.571    0.000    0.000 
#    0.000    0.000    0.000    0.000    0.000    0.000 
#
# Total GULP energy -347229.223666 kJ/mol
# GULP energy per Si atom -12401.043702 kJ/mol
# Density = 1.810364 g / cm^3
# Si number density = 18.144940 Si / 1000 Ang^3
#
#
#
# Elastic Constant Matrix: (Units=GPa)
#
#
# Indices 1 2 3 4 5 6 
#
# 1 109.5463 48.8946 49.5288 0.0000 -1.2187 0.0000
# 2 48.8946 87.2182 45.3863 -0.0001 -0.8325 0.0000
# 3 49.5288 45.3863 101.0646 0.0000 -7.9040 0.0000
# 4 0.0000 -0.0001 0.0000 34.1779 0.0000 0.1959
# 5 -1.2187 -0.8325 -7.9040 0.0000 18.9015 0.0000
# 6 0.0000 0.0000 0.0000 0.1959 0.0000 30.8871
#
#
#
# Elastic Compliance Matrix: (Units=1/GPa)
#
#
# Indices 1 2 3 4 5 6 
#
# 1 0.013421 -0.005305 -0.004286 0.000000 -0.001160 0.000000
# 2 -0.005305 0.017150 -0.005241 0.000000 -0.001778 0.000000
# 3 -0.004286 -0.005241 0.014793 0.000000 0.005679 0.000000
# 4 0.000000 0.000000 0.000000 0.029260 0.000000 -0.000186
# 5 -0.001160 -0.001778 0.005679 0.000000 0.055127 0.000000
# 6 0.000000 0.000000 0.000000 -0.000186 0.000000 0.032377
#
#
# Mechanical properties :
#
#
# Convention : Reuss Voigt Hill
#
# Bulk Modulus (GPa) = 63.69228 65.04982 64.37105
# Shear Modulus (GPa) = 25.37760 27.06126 26.21943
#
# Velocity S-wave (km/s) = 3.74385 3.86605 3.80544
# Velocity P-wave (km/s) = 7.33939 7.47371 7.40686
#
# Compressibility (1/GPa) = 0.01570049
#
# Stress axis : x y z
#
# Youngs Moduli (GPa) = 74.50983 58.31023 67.60081
#
# Poissons Ratio (x) = 0.30932 0.28972
# Poissons Ratio (y) = 0.39525 0.35429
# Poissons Ratio (z) = 0.31933 0.30560
#
# Static dielectric constant tensor:
#      x y z
#    x 3.374160 0.000000 -0.137460 
#    y 0.000000 3.421260 0.000000 
#    z -0.137460 0.000000 3.194420 
# 
# 
# High freq. dielectric constant tensor:
#      x y z
#    x 1.692770 0.000000 -0.013880 
#    y 0.000000 1.712700 0.000000 
#    z -0.013880 0.000000 1.687070 
# 
# From -- ./inp_files/281626.got.cif
#   From: 2010.06.25/outbox.cif.g09.slc.cpg/sg12_141_cif.got.tgz:281626.got - 2010.06.28 00:19:55.
