data_PCOD8083692
_publ_section_title
;
Structure prediction by ZEFSAII (Michael W. Deem and Ramdas Pophale) SiO2 
 PCOD8083692
Probable space group: C 2/M
;
_chemical_formula_sum "Si O2"
_cell_formula_units_Z 48
_cell_length_a 15.133115
_cell_length_b 8.859317
_cell_length_c 19.097866
_cell_angle_alpha 90.000000
_cell_angle_beta 90.160716
_cell_angle_gamma 90.000000
_cell_volume 2560.422927
_symmetry_space_group_name_H-M "C 2/M"
_symmetry_group_IT_number 12
_symmetry_cell_setting 'monoclinic'
loop_
_space_group_symop_operation_xyz
x,y,z
-x,y,-z
-x,-y,-z
x,-y,z
1/2+x,1/2+y,z
1/2-x,1/2+y,-z
1/2-x,1/2-y,-z
1/2+x,1/2-y,z
loop_
_atom_site_type_symbol
_atom_site_label
_atom_site_fract_x
_atom_site_fract_y
_atom_site_fract_z
Si Si1 0.593597 0.678562 0.832342
Si Si2 0.351053 0.678386 0.323012
Si Si3 0.007024 0.820525 0.421748
Si Si4 0.758918 0.679174 0.075582
Si Si5 0.105824 0.178822 0.178083
Si Si6 0.333052 0.320901 0.671519
O O1 0.603109 0.500000 0.843694
O O2 0.626450 0.727954 0.755817
O O3 0.650331 0.765155 0.890073
O O4 0.492512 0.733293 0.841997
O O5 0.343336 0.500000 0.328294
O O6 0.426775 0.741292 0.374509
O O7 0.260718 0.751883 0.348463
O O8 0.098860 0.766898 0.387850
O O9 0.000000 0.753483 0.500000
O O10 0.002967 0.000000 0.423093
O O11 0.760112 0.500000 0.070059
O O12 0.675446 0.737099 0.120791
O O13 0.750000 0.750000 0.000000
O O14 0.133871 0.243748 0.253739
O O15 0.106096 0.000000 0.182758
O O16 0.325150 0.500000 0.674294
#
# Coordination Sequence:
#
# PCOD8083692 Si02
#       6
#     8   8   8   8   8   8
#     4  10  19  35  58  81 104 139 184 226 265 314
#     4  10  19  32  54  82 109 138 180 229 271 314
#     4   9  18  33  54  80 111 147 184 222 266 320
#     4  11  23  39  57  81 112 142 175 221 273 323
#     4   9  18  34  57  79 103 141 184 217 257 320
#     4  10  18  33  56  80 106 142 186 223 261 321
#
# _framework density 18.746903
#
# number of rings (size 3 to 8) (size 9 to 14) (size 15 to 20)
#    0.000    2.167    3.333    0.500    0.000    1.333 
#    0.000    6.667    0.000    1.000    0.000    0.000 
#    0.000    0.000    0.000    0.000    0.000    0.000 
#
# Total GULP energy -297628.412069 kJ/mol
# GULP energy per Si atom -12401.183836 kJ/mol
# Density = 1.870423 g / cm^3
# Si number density = 18.746903 Si / 1000 Ang^3
#
#
#
# Elastic Constant Matrix: (Units=GPa)
#
#
# Indices 1 2 3 4 5 6 
#
# 1 146.7493 17.1713 48.1379 0.0000 -0.9589 0.0000
# 2 17.1713 21.9669 19.4501 0.0000 2.4693 0.0000
# 3 48.1379 19.4501 127.4224 0.0000 -0.3455 0.0000
# 4 0.0000 0.0000 0.0000 16.9583 0.0000 0.5127
# 5 -0.9589 2.4693 -0.3455 0.0000 34.8619 0.0000
# 6 0.0000 0.0000 0.0000 0.5127 0.0000 31.7077
#
#
#
# Elastic Compliance Matrix: (Units=1/GPa)
#
#
# Indices 1 2 3 4 5 6 
#
# 1 0.008107 -0.004258 -0.002411 0.000000 0.000501 0.000000
# 2 -0.004258 0.055384 -0.006856 0.000000 -0.004108 0.000000
# 3 -0.002411 -0.006856 0.009807 0.000000 0.000517 0.000000
# 4 0.000000 0.000000 0.000000 0.058997 0.000000 -0.000954
# 5 0.000501 -0.004108 0.000517 0.000000 0.028994 0.000000
# 6 0.000000 0.000000 0.000000 -0.000954 0.000000 0.031553
#
#
# Mechanical properties :
#
#
# Convention : Reuss Voigt Hill
#
# Bulk Modulus (GPa) = 21.62352 51.73972 36.68162
# Shear Modulus (GPa) = 21.24851 30.79753 26.02302
#
# Velocity S-wave (km/s) = 3.37031 4.05755 3.72980
# Velocity P-wave (km/s) = 5.16767 7.04348 6.17720
#
# Compressibility (1/GPa) = 0.04624594
#
# Stress axis : x y z
#
# Youngs Moduli (GPa) = 123.35246 18.05565 101.96972
#
# Poissons Ratio (x) = 0.07689 0.24588
# Poissons Ratio (y) = 0.52528 0.69915
# Poissons Ratio (z) = 0.29744 0.12380
#
# Static dielectric constant tensor:
#      x y z
#    x 3.742500 0.000000 0.005390 
#    y 0.000000 3.018480 0.000000 
#    z 0.005390 0.000000 3.629330 
# 
# 
# High freq. dielectric constant tensor:
#      x y z
#    x 1.745730 0.000000 -0.000470 
#    y 0.000000 1.687690 0.000000 
#    z -0.000470 0.000000 1.731330 
# 
# From -- ./inp_files/267608.got.cif
#   From: 2010.06.25/outbox.cif.g09.slc.cpg/sg12_134_cif.got.tgz:267608.got - 2010.06.28 00:19:55.
