data_PCOD8083918
_publ_section_title
;
Structure prediction by ZEFSAII (Michael W. Deem and Ramdas Pophale) SiO2 
 PCOD8083918
Probable space group: C 2/M
;
_chemical_formula_sum "Si O2"
_cell_formula_units_Z 40
_cell_length_a 22.422563
_cell_length_b 13.800228
_cell_length_c 9.556446
_cell_angle_alpha 90.000000
_cell_angle_beta 144.687590
_cell_angle_gamma 90.000000
_cell_volume 1709.313003
_symmetry_space_group_name_H-M "C 2/M"
_symmetry_group_IT_number 12
_symmetry_cell_setting 'monoclinic'
loop_
_space_group_symop_operation_xyz
x,y,z
-x,y,-z
-x,-y,-z
x,-y,z
1/2+x,1/2+y,z
1/2-x,1/2+y,-z
1/2-x,1/2-y,-z
1/2+x,1/2-y,z
loop_
_atom_site_type_symbol
_atom_site_label
_atom_site_fract_x
_atom_site_fract_y
_atom_site_fract_z
Si Si1 0.224918 0.737678 0.614846
Si Si2 0.535341 0.890160 0.213771
Si Si3 0.880621 0.809990 0.140006
Si Si4 0.098055 0.602308 0.782265
Si Si5 0.393388 0.611313 0.449527
O O1 0.250000 0.750000 0.500000
O O2 0.129175 0.668086 0.458345
O O3 0.196207 0.843262 0.624169
O O4 0.316737 0.682744 0.874153
O O5 0.436120 0.883531 0.122415
O O6 0.573123 0.000000 0.263934
O O7 0.500000 0.842902 0.000000
O O8 0.851044 0.705273 0.157505
O O9 0.853432 0.886278 0.210899
O O10 0.001456 0.825629 0.332785
O O11 0.164040 0.500000 0.897708
O O12 0.000000 0.585095 0.500000
O O13 0.412701 0.500000 0.530593
#
# Coordination Sequence:
#
# PCOD8083918 Si02
#       5
#     8   8   8   8   8
#     4  12  26  40  68 100 137 179 226 281 343 415
#     4  10  21  39  61  86 123 166 208 263 329 396
#     4  11  21  43  70  97 134 182 227 285 339 407
#     4  10  18  33  62  93 120 155 206 267 330 384
#     4  11  25  46  69  98 139 186 231 283 342 410
#
# _framework density 23.401214
#
# number of rings (size 3 to 8) (size 9 to 14) (size 15 to 20)
#    0.000    1.200    4.000    3.000    0.000    3.200 
#    0.000    3.000    0.000    0.000    0.000    0.000 
#    0.000    0.000    0.000    0.000    0.000    0.000 
#
# Total GULP energy -247816.694543 kJ/mol
# GULP energy per Si atom -12390.834727 kJ/mol
# Density = 2.334795 g / cm^3
# Si number density = 23.401214 Si / 1000 Ang^3
#
#
#
# Elastic Constant Matrix: (Units=GPa)
#
#
# Indices 1 2 3 4 5 6 
#
# 1 85.4050 13.4192 27.3967 0.0000 -16.7250 0.0000
# 2 13.4192 124.5343 24.6566 0.0000 10.0846 0.0000
# 3 27.3967 24.6566 132.9579 0.0000 -18.1567 0.0000
# 4 0.0000 0.0000 0.0000 22.1641 0.0000 -1.6049
# 5 -16.7250 10.0846 -18.1567 0.0000 35.2070 0.0000
# 6 0.0000 0.0000 0.0000 -1.6049 0.0000 28.8922
#
#
#
# Elastic Compliance Matrix: (Units=1/GPa)
#
#
# Indices 1 2 3 4 5 6 
#
# 1 0.013703 -0.001638 -0.001686 0.000000 0.006110 0.000000
# 2 -0.001638 0.008934 -0.001910 0.000000 -0.004322 0.000000
# 3 -0.001686 -0.001910 0.008808 0.000000 0.004289 0.000000
# 4 0.000000 0.000000 0.000000 0.045300 0.000000 0.002516
# 5 0.006110 -0.004322 0.004289 0.000000 0.034755 0.000000
# 6 0.000000 0.000000 0.000000 0.002516 0.000000 0.034751
#
#
# Mechanical properties :
#
#
# Convention : Reuss Voigt Hill
#
# Bulk Modulus (GPa) = 47.66352 52.64912 50.15632
# Shear Modulus (GPa) = 30.54140 35.74766 33.14453
#
# Velocity S-wave (km/s) = 3.61656 3.91269 3.76754
# Velocity P-wave (km/s) = 6.15236 6.55435 6.35653
#
# Compressibility (1/GPa) = 0.02098041
#
# Stress axis : x y z
#
# Youngs Moduli (GPa) = 72.97458 111.92628 113.52892
#
# Poissons Ratio (x) = 0.18329 0.19137
# Poissons Ratio (y) = 0.11950 0.21680
# Poissons Ratio (z) = 0.12301 0.21374
#
# Static dielectric constant tensor:
#      x y z
#    x 4.208350 0.000000 -0.179480 
#    y 0.000000 4.474000 0.000000 
#    z -0.179480 0.000000 4.272350 
# 
# 
# High freq. dielectric constant tensor:
#      x y z
#    x 1.911630 0.000000 -0.005760 
#    y 0.000000 1.932460 0.000000 
#    z -0.005760 0.000000 1.928470 
# 
# From -- ./inp_files/96645.got.cif
#   From: 2010.06.25/outbox.cif.g09.slc.cpg/sg12_49_cif.got.tgz:96645.got - 2010.06.28 00:19:55.
