data_PCOD8083721
_publ_section_title
;
Structure prediction by ZEFSAII (Michael W. Deem and Ramdas Pophale) SiO2 
 PCOD8083721
Probable space group: C 2/M
;
_chemical_formula_sum "Si O2"
_cell_formula_units_Z 44
_cell_length_a 7.895088
_cell_length_b 20.598613
_cell_length_c 14.442366
_cell_angle_alpha 90.000000
_cell_angle_beta 110.993747
_cell_angle_gamma 90.000000
_cell_volume 2192.821238
_symmetry_space_group_name_H-M "C 2/M"
_symmetry_group_IT_number 12
_symmetry_cell_setting 'monoclinic'
loop_
_space_group_symop_operation_xyz
x,y,z
-x,y,-z
-x,-y,-z
x,-y,z
1/2+x,1/2+y,z
1/2-x,1/2+y,-z
1/2-x,1/2-y,-z
1/2+x,1/2-y,z
loop_
_atom_site_type_symbol
_atom_site_label
_atom_site_fract_x
_atom_site_fract_y
_atom_site_fract_z
Si Si1 0.556685 0.770183 0.669621
Si Si2 0.365030 0.306977 0.137888
Si Si3 0.812601 0.154931 0.395051
Si Si4 0.534781 0.572508 0.727205
Si Si5 0.500000 0.231476 0.000000
Si Si6 0.701106 0.879285 0.570831
O O1 0.653582 0.744318 0.781157
O O2 0.375893 0.808112 0.661161
O O3 0.524982 0.705916 0.599580
O O4 0.686469 0.815906 0.632839
O O5 0.436700 0.377582 0.182770
O O6 0.172841 0.315084 0.047562
O O7 0.500497 0.277514 0.089672
O O8 0.831525 0.093078 0.331003
O O9 0.822666 0.132875 0.502955
O O10 0.586966 0.500000 0.769528
O O11 0.322273 0.570503 0.653190
O O12 0.500000 0.904622 0.500000
#
# Coordination Sequence:
#
# PCOD8083721 Si02
#       6
#     8   8   8   8   4   8
#     4  10  18  33  56  84 115 139 177 232 284 327
#     4  10  20  36  58  86 108 137 171 223 290 339
#     4  10  20  32  53  82 112 149 187 227 268 312
#     4  11  23  39  55  74 111 156 193 223 262 323
#     4  10  20  36  64  88 108 122 166 234 294 350
#     4  10  21  34  53  82 113 148 190 232 270 309
#
# _framework density 20.065474999999999
#
# number of rings (size 3 to 8) (size 9 to 14) (size 15 to 20)
#    0.000    1.818    0.000    6.545    0.000    7.636 
#    0.000    3.636    0.000    0.000    0.000    0.000 
#    0.000    0.000    0.000    0.000    0.000    0.000 
#
# Total GULP energy -272589.964460 kJ/mol
# GULP energy per Si atom -12390.452930 kJ/mol
# Density = 2.001980 g / cm^3
# Si number density = 20.065475 Si / 1000 Ang^3
#
#
#
# Elastic Constant Matrix: (Units=GPa)
#
#
# Indices 1 2 3 4 5 6 
#
# 1 61.0822 29.6800 34.1381 0.0000 -2.4915 0.0000
# 2 29.6800 108.1801 46.0222 0.0000 7.4153 0.0000
# 3 34.1381 46.0222 93.1628 0.0000 -0.4894 0.0000
# 4 0.0000 0.0000 0.0000 15.1646 0.0000 1.9891
# 5 -2.4915 7.4153 -0.4894 0.0000 39.0019 0.0000
# 6 0.0000 0.0000 0.0000 1.9891 0.0000 17.8103
#
#
#
# Elastic Compliance Matrix: (Units=1/GPa)
#
#
# Indices 1 2 3 4 5 6 
#
# 1 0.021581 -0.003412 -0.006212 0.000000 0.001949 0.000000
# 2 -0.003412 0.012452 -0.004915 0.000000 -0.002647 0.000000
# 3 -0.006212 -0.004915 0.015442 0.000000 0.000731 0.000000
# 4 0.000000 0.000000 0.000000 0.066923 0.000000 -0.007474
# 5 0.001949 -0.002647 0.000731 0.000000 0.026277 0.000000
# 6 0.000000 0.000000 0.000000 -0.007474 0.000000 0.056982
#
#
# Mechanical properties :
#
#
# Convention : Reuss Voigt Hill
#
# Bulk Modulus (GPa) = 49.02691 53.56731 51.29711
# Shear Modulus (GPa) = 21.22830 24.56766 22.89798
#
# Velocity S-wave (km/s) = 3.25615 3.50290 3.38178
# Velocity P-wave (km/s) = 6.21475 6.56617 6.39288
#
# Compressibility (1/GPa) = 0.02039696
#
# Stress axis : x y z
#
# Youngs Moduli (GPa) = 46.33799 80.30635 64.75736
#
# Poissons Ratio (x) = 0.27397 0.40229
# Poissons Ratio (y) = 0.15808 0.31830
# Poissons Ratio (z) = 0.28787 0.39472
#
# Static dielectric constant tensor:
#      x y z
#    x 3.936310 0.000000 -0.109750 
#    y 0.000000 3.227250 0.000000 
#    z -0.109750 0.000000 3.661130 
# 
# 
# High freq. dielectric constant tensor:
#      x y z
#    x 1.802780 0.000000 0.002380 
#    y 0.000000 1.739510 0.000000 
#    z 0.002380 0.000000 1.782440 
# 
# From -- ./inp_files/197253.got.cif
#   From: 2010.06.25/outbox.cif.g09.slc.cpg/sg12_99_cif.got.tgz:197253.got - 2010.06.28 00:19:55.
