data_PCOD8083733
_publ_section_title
;
Structure prediction by ZEFSAII (Michael W. Deem and Ramdas Pophale) SiO2 
 PCOD8083733
Probable space group: C 2/M
;
_chemical_formula_sum "Si O2"
_cell_formula_units_Z 56
_cell_length_a 12.217075
_cell_length_b 13.531288
_cell_length_c 30.318389
_cell_angle_alpha 90.000000
_cell_angle_beta 144.032716
_cell_angle_gamma 90.000000
_cell_volume 2943.673644
_symmetry_space_group_name_H-M "C 2/M"
_symmetry_group_IT_number 12
_symmetry_cell_setting 'monoclinic'
loop_
_space_group_symop_operation_xyz
x,y,z
-x,y,-z
-x,-y,-z
x,-y,z
1/2+x,1/2+y,z
1/2-x,1/2+y,-z
1/2-x,1/2-y,-z
1/2+x,1/2-y,z
loop_
_atom_site_type_symbol
_atom_site_label
_atom_site_fract_x
_atom_site_fract_y
_atom_site_fract_z
Si Si1 0.614485 0.744286 0.685735
Si Si2 0.408204 0.612565 0.401956
Si Si3 0.285636 0.112529 0.569674
Si Si4 0.953415 0.610051 0.111267
Si Si5 0.979648 0.793948 0.173990
Si Si6 0.158209 0.615118 0.019090
Si Si7 0.611207 0.387875 0.763477
O O1 0.675950 0.678239 0.664291
O O2 0.464718 0.821501 0.619183
O O3 0.527242 0.671813 0.694385
O O4 0.798396 0.802086 0.762961
O O5 0.414144 0.500000 0.387424
O O6 0.616362 0.647180 0.483178
O O7 0.270867 0.623224 0.398072
O O8 0.338379 0.000000 0.575924
O O9 0.880519 0.500000 0.099933
O O10 0.913692 0.682096 0.139864
O O11 0.169596 0.604966 0.170206
O O12 0.854301 0.655144 0.035210
O O13 0.865953 0.867648 0.105220
O O14 0.938753 0.822219 0.210664
O O15 0.115282 0.500000 0.002032
O O16 0.000000 0.662926 0.000000
O O17 0.527827 0.500000 0.739311
#
# Coordination Sequence:
#
# PCOD8083733 Si02
#       7
#     8   8   8   8   8   8   8
#     4  11  21  33  52  82 111 137 170 222 271 307
#     4   9  18  36  59  77 100 142 184 213 251 312
#     4   9  19  35  55  79 107 139 176 215 258 316
#     4   9  19  35  55  77 100 134 181 224 260 309
#     4  11  21  32  53  81 107 138 172 220 270 313
#     4  10  18  33  57  78 100 138 183 223 259 308
#     4  10  20  35  52  76 106 139 180 217 257 313
#
# _framework density 19.023847
#
# number of rings (size 3 to 8) (size 9 to 14) (size 15 to 20)
#    0.000    2.143    1.429    3.429    0.000    1.714 
#    0.000    0.714    0.000    2.143    0.000    9.000 
#    0.000    0.000    0.000    0.000    0.000    0.000 
#
# Total GULP energy -347091.860660 kJ/mol
# GULP energy per Si atom -12396.137881 kJ/mol
# Density = 1.898055 g / cm^3
# Si number density = 19.023847 Si / 1000 Ang^3
#
#
#
# Elastic Constant Matrix: (Units=GPa)
#
#
# Indices 1 2 3 4 5 6 
#
# 1 50.9710 35.8620 11.0426 0.0000 -12.7469 0.0000
# 2 35.8620 65.1109 16.2743 0.0000 -7.6445 0.0000
# 3 11.0426 16.2743 62.4402 0.0000 3.0028 0.0000
# 4 0.0000 0.0000 0.0000 29.9590 0.0000 -3.4642
# 5 -12.7469 -7.6445 3.0028 0.0000 28.5621 0.0000
# 6 0.0000 0.0000 0.0000 -3.4642 0.0000 29.1192
#
#
#
# Elastic Compliance Matrix: (Units=1/GPa)
#
#
# Indices 1 2 3 4 5 6 
#
# 1 0.035261 -0.017547 -0.002205 0.000000 0.011272 0.000000
# 2 -0.017547 0.025864 -0.003612 0.000000 -0.000529 0.000000
# 3 -0.002205 -0.003612 0.017529 0.000000 -0.003794 0.000000
# 4 0.000000 0.000000 0.000000 0.033845 0.000000 0.004026
# 5 0.011272 -0.000529 -0.003794 0.000000 0.040299 0.000000
# 6 0.000000 0.000000 0.000000 0.004026 0.000000 0.034821
#
#
# Mechanical properties :
#
#
# Convention : Reuss Voigt Hill
#
# Bulk Modulus (GPa) = 31.32227 33.87555 32.59891
# Shear Modulus (GPa) = 20.40912 25.21760 22.81336
#
# Velocity S-wave (km/s) = 3.27894 3.64480 3.46670
# Velocity P-wave (km/s) = 5.55300 5.96308 5.76169
#
# Compressibility (1/GPa) = 0.03192617
#
# Stress axis : x y z
#
# Youngs Moduli (GPa) = 28.35986 38.66417 57.04766
#
# Poissons Ratio (x) = 0.67843 0.12577
# Poissons Ratio (y) = 0.49762 0.20608
# Poissons Ratio (z) = 0.06253 0.13967
#
# Static dielectric constant tensor:
#      x y z
#    x 3.251960 0.000000 -0.159710 
#    y 0.000000 3.618100 0.000000 
#    z -0.159710 0.000000 3.557220 
# 
# 
# High freq. dielectric constant tensor:
#      x y z
#    x 1.713510 0.000000 -0.015640 
#    y 0.000000 1.736010 0.000000 
#    z -0.015640 0.000000 1.746780 
# 
# From -- ./inp_files/373991.got.cif
#   From: 2010.06.25/outbox.cif.g09.slc.cpg/sg12_187_cif.got.tgz:373991.got - 2010.06.28 00:19:55.
