data_PCOD8083182
_publ_section_title
;
Structure prediction by ZEFSAII (Michael W. Deem and Ramdas Pophale) SiO2 
 PCOD8083182
Probable space group: C 2/M
;
_chemical_formula_sum "Si O2"
_cell_formula_units_Z 64
_cell_length_a 32.871919
_cell_length_b 8.669844
_cell_length_c 20.094943
_cell_angle_alpha 90.000000
_cell_angle_beta 142.887080
_cell_angle_gamma 90.000000
_cell_volume 3455.569742
_symmetry_space_group_name_H-M "C 2/M"
_symmetry_group_IT_number 12
_symmetry_cell_setting 'monoclinic'
loop_
_space_group_symop_operation_xyz
x,y,z
-x,y,-z
-x,-y,-z
x,-y,z
1/2+x,1/2+y,z
1/2-x,1/2+y,-z
1/2-x,1/2-y,-z
1/2+x,1/2-y,z
loop_
_atom_site_type_symbol
_atom_site_label
_atom_site_fract_x
_atom_site_fract_y
_atom_site_fract_z
Si Si1 0.951960 0.819149 0.623392
Si Si2 0.698861 0.320116 0.345768
Si Si3 0.169620 0.681551 0.789014
Si Si4 0.642165 0.318990 0.619214
Si Si5 0.819119 0.181610 0.950087
Si Si6 0.596432 0.181369 0.825226
Si Si7 0.708543 0.818166 0.220917
Si Si8 0.848288 0.320559 0.585800
O O1 0.914827 0.768135 0.507065
O O2 0.905142 0.781375 0.625013
O O3 0.018520 0.717836 0.713829
O O4 0.969156 0.000000 0.646076
O O5 0.684651 0.500000 0.336735
O O6 0.677216 0.265516 0.244254
O O7 0.777235 0.279628 0.459015
O O8 0.653684 0.226465 0.339399
O O9 0.164040 0.500000 0.779951
O O10 0.126670 0.745093 0.670716
O O11 0.247175 0.737303 0.885910
O O12 0.137758 0.745332 0.815580
O O13 0.643869 0.500000 0.631056
O O14 0.714420 0.260803 0.686817
O O15 0.833191 0.265629 0.898309
O O16 0.820133 0.000000 0.939566
O O17 0.877903 0.229905 0.076491
O O18 0.607216 0.000000 0.849070
O O19 0.703173 0.000000 0.223871
O O20 0.866202 0.500000 0.602351
#
# Coordination Sequence:
#
# PCOD8083182 Si02
#       8
#     8   8   8   8   8   8   8   8
#     4  11  22  37  54  76 109 147 183 222 265 321
#     4  10  19  31  52  82 113 143 177 218 264 316
#     4   9  20  36  56  79 106 136 176 227 276 321
#     4   9  19  33  52  77 107 141 178 218 269 320
#     4  10  20  36  57  81 105 137 180 228 275 319
#     4  11  23  38  54  77 105 142 184 224 272 324
#     4  10  18  32  54  81 111 142 176 222 270 317
#     4  10  20  33  52  79 111 146 179 218 264 315
#
# _framework density 18.520824000000001
#
# number of rings (size 3 to 8) (size 9 to 14) (size 15 to 20)
#    0.000    2.000    1.250    2.625    0.000    4.500 
#    0.000    2.500    0.000    0.750    0.000    5.250 
#    0.000    0.000    0.000    0.000    0.000    0.000 
#
# Total GULP energy -396940.838278 kJ/mol
# GULP energy per Si atom -12404.401196 kJ/mol
# Density = 1.847867 g / cm^3
# Si number density = 18.520824 Si / 1000 Ang^3
#
#
#
# Elastic Constant Matrix: (Units=GPa)
#
#
# Indices 1 2 3 4 5 6 
#
# 1 58.5413 16.2153 34.9119 0.0000 -26.4998 0.0000
# 2 16.2153 39.0432 14.4061 0.0000 -4.7022 0.0000
# 3 34.9119 14.4061 95.7426 0.0000 -19.6317 0.0000
# 4 0.0000 0.0000 0.0000 30.2986 0.0000 -5.4028
# 5 -26.4998 -4.7022 -19.6317 0.0000 29.5897 0.0000
# 6 0.0000 0.0000 0.0000 -5.4028 0.0000 31.3616
#
#
#
# Elastic Compliance Matrix: (Units=1/GPa)
#
#
# Indices 1 2 3 4 5 6 
#
# 1 0.034904 -0.009154 -0.006064 0.000000 0.025782 0.000000
# 2 -0.009154 0.029607 -0.002122 0.000000 -0.004901 0.000000
# 3 -0.006064 -0.002122 0.013649 0.000000 0.003288 0.000000
# 4 0.000000 0.000000 0.000000 0.034051 0.000000 0.005866
# 5 0.025782 -0.004901 0.003288 0.000000 0.058288 0.000000
# 6 0.000000 0.000000 0.000000 0.005866 0.000000 0.032897
#
#
# Mechanical properties :
#
#
# Convention : Reuss Voigt Hill
#
# Bulk Modulus (GPa) = 22.99831 36.04376 29.52104
# Shear Modulus (GPa) = 19.79658 26.76955 23.28307
#
# Velocity S-wave (km/s) = 3.27292 3.80593 3.54945
# Velocity P-wave (km/s) = 5.16984 6.23033 5.72469
#
# Compressibility (1/GPa) = 0.04348145
#
# Stress axis : x y z
#
# Youngs Moduli (GPa) = 28.64983 33.77565 73.26397
#
# Poissons Ratio (x) = 0.30918 0.44426
# Poissons Ratio (y) = 0.26226 0.15546
# Poissons Ratio (z) = 0.17373 0.07167
#
# Static dielectric constant tensor:
#      x y z
#    x 3.424180 0.000000 -0.194370 
#    y 0.000000 3.331910 0.000000 
#    z -0.194370 0.000000 3.284470 
# 
# 
# High freq. dielectric constant tensor:
#      x y z
#    x 1.712470 0.000000 -0.024100 
#    y 0.000000 1.725340 0.000000 
#    z -0.024100 0.000000 1.701470 
# 
# From -- ./inp_files/295752.got.cif
#   From: 2010.06.25/outbox.cif.g09.slc.cpg/sg12_148_cif.got.tgz:295752.got - 2010.06.28 00:19:55.
