data_PCOD8083358
_publ_section_title
;
Structure prediction by ZEFSAII (Michael W. Deem and Ramdas Pophale) SiO2 
 PCOD8083358
Probable space group: C 2/M
;
_chemical_formula_sum "Si O2"
_cell_formula_units_Z 40
_cell_length_a 18.417415
_cell_length_b 8.680643
_cell_length_c 19.901875
_cell_angle_alpha 90.000000
_cell_angle_beta 133.777704
_cell_angle_gamma 90.000000
_cell_volume 2297.362427
_symmetry_space_group_name_H-M "C 2/M"
_symmetry_group_IT_number 12
_symmetry_cell_setting 'monoclinic'
loop_
_space_group_symop_operation_xyz
x,y,z
-x,y,-z
-x,-y,-z
x,-y,z
1/2+x,1/2+y,z
1/2-x,1/2+y,-z
1/2-x,1/2-y,-z
1/2+x,1/2-y,z
loop_
_atom_site_type_symbol
_atom_site_label
_atom_site_fract_x
_atom_site_fract_y
_atom_site_fract_z
Si Si1 0.865908 0.674895 0.760810
Si Si2 0.115523 0.178743 0.086252
Si Si3 0.269513 0.680254 0.084798
Si Si4 0.978054 0.325208 0.244521
Si Si5 0.324808 0.317848 0.601990
O O1 0.831642 0.500000 0.754303
O O2 0.854621 0.778681 0.819031
O O3 0.795992 0.747859 0.657053
O O4 0.981620 0.677492 0.807276
O O5 0.178166 0.280952 0.075064
O O6 0.138689 0.000000 0.088310
O O7 0.000000 0.219275 0.000000
O O8 0.280407 0.500000 0.083172
O O9 0.371210 0.744737 0.182376
O O10 0.250000 0.750000 0.000000
O O11 0.968767 0.500000 0.264793
O O12 0.060630 0.234721 0.342935
O O13 0.316518 0.500000 0.598245
O O14 0.250000 0.250000 0.500000
#
# Coordination Sequence:
#
# PCOD8083358 Si02
#       5
#     8   8   8   8   8
#     4   9  19  34  54  80 110 142 182 227 275 324
#     4  11  23  37  55  78 109 147 189 230 276 330
#     4  12  24  37  55  78 110 148 187 230 277 330
#     4   9  19  35  55  80 110 141 182 228 274 326
#     4  10  18  32  56  85 114 145 185 230 278 326
#
# _framework density 17.411272
#
# number of rings (size 3 to 8) (size 9 to 14) (size 15 to 20)
#    1.200    0.600    0.000    6.000    0.000    4.800 
#    0.000    0.000    0.000    1.200    0.000    8.400 
#    0.000    0.000    0.000    0.000    0.000    0.000 
#
# Total GULP energy -247905.886115 kJ/mol
# GULP energy per Si atom -12395.294306 kJ/mol
# Density = 1.737164 g / cm^3
# Si number density = 17.411272 Si / 1000 Ang^3
#
#
#
# Elastic Constant Matrix: (Units=GPa)
#
#
# Indices 1 2 3 4 5 6 
#
# 1 62.7258 23.8719 36.9522 0.0000 2.8209 0.0000
# 2 23.8719 120.8601 41.0968 0.0000 9.6651 0.0000
# 3 36.9522 41.0968 126.9117 0.0000 3.3410 0.0000
# 4 0.0000 0.0000 0.0000 33.3935 0.0000 -0.3090
# 5 2.8209 9.6651 3.3410 0.0000 27.2638 0.0000
# 6 0.0000 0.0000 0.0000 -0.3090 0.0000 29.6562
#
#
#
# Elastic Compliance Matrix: (Units=1/GPa)
#
#
# Indices 1 2 3 4 5 6 
#
# 1 0.019756 -0.002134 -0.005044 0.000000 -0.000670 0.000000
# 2 -0.002134 0.009769 -0.002465 0.000000 -0.002940 0.000000
# 3 -0.005044 -0.002465 0.010142 0.000000 0.000153 0.000000
# 4 0.000000 0.000000 0.000000 0.029949 0.000000 0.000312
# 5 -0.000670 -0.002940 0.000153 0.000000 0.037772 0.000000
# 6 0.000000 0.000000 0.000000 0.000312 0.000000 0.033723
#
#
# Mechanical properties :
#
#
# Convention : Reuss Voigt Hill
#
# Bulk Modulus (GPa) = 49.06103 57.14882 53.10493
# Shear Modulus (GPa) = 29.90648 31.96782 30.93715
#
# Velocity S-wave (km/s) = 4.14895 4.28955 4.21984
# Velocity P-wave (km/s) = 7.15476 7.57812 7.36948
#
# Compressibility (1/GPa) = 0.02038277
#
# Stress axis : x y z
#
# Youngs Moduli (GPa) = 50.61826 102.36827 98.59861
#
# Poissons Ratio (x) = 0.21840 0.49730
# Poissons Ratio (y) = 0.10799 0.24302
# Poissons Ratio (z) = 0.25530 0.25231
#
# Static dielectric constant tensor:
#      x y z
#    x 3.097530 0.000000 0.030140 
#    y 0.000000 3.370900 0.000000 
#    z 0.030140 0.000000 3.177060 
# 
# 
# High freq. dielectric constant tensor:
#      x y z
#    x 1.647150 0.000000 0.002140 
#    y 0.000000 1.695790 0.000000 
#    z 0.002140 0.000000 1.663660 
# 
# From -- ./inp_files/220605.got.cif
#   From: 2010.06.25/outbox.cif.g09.slc.cpg/sg12_111_cif.got.tgz:220605.got - 2010.06.28 00:19:55.
