data_PCOD8083229
_publ_section_title
;
Structure prediction by ZEFSAII (Michael W. Deem and Ramdas Pophale) SiO2 
 PCOD8083229
Probable space group: C 2/M
;
_chemical_formula_sum "Si O2"
_cell_formula_units_Z 64
_cell_length_a 14.567158
_cell_length_b 9.069769
_cell_length_c 25.482900
_cell_angle_alpha 90.000000
_cell_angle_beta 93.581035
_cell_angle_gamma 90.000000
_cell_volume 3360.246206
_symmetry_space_group_name_H-M "C 2/M"
_symmetry_group_IT_number 12
_symmetry_cell_setting 'monoclinic'
loop_
_space_group_symop_operation_xyz
x,y,z
-x,y,-z
-x,-y,-z
x,-y,z
1/2+x,1/2+y,z
1/2-x,1/2+y,-z
1/2-x,1/2-y,-z
1/2+x,1/2-y,z
loop_
_atom_site_type_symbol
_atom_site_label
_atom_site_fract_x
_atom_site_fract_y
_atom_site_fract_z
Si Si1 0.758139 0.672367 0.945007
Si Si2 0.265253 0.172622 0.678826
Si Si3 0.069757 0.673112 0.382368
Si Si4 0.269516 0.172183 0.214241
Si Si5 0.900909 0.171521 0.141535
Si Si6 0.610691 0.672452 0.128468
Si Si7 0.655854 0.830723 0.489974
Si Si8 0.126140 0.669085 0.605433
O O1 0.775331 0.500000 0.953382
O O2 0.662601 0.703190 0.911281
O O3 0.846798 0.738210 0.918525
O O4 0.750000 0.750000 0.000000
O O5 0.368799 0.217062 0.665705
O O6 0.235885 0.262364 0.728348
O O7 0.204409 0.219167 0.626725
O O8 0.254567 0.000000 0.689817
O O9 0.073686 0.500000 0.391538
O O10 0.103194 0.743994 0.438844
O O11 0.965329 0.718937 0.366368
O O12 0.358020 0.240921 0.188719
O O13 0.173526 0.207368 0.181414
O O14 0.287605 0.000000 0.218848
O O15 0.005668 0.225117 0.134684
O O16 0.900459 0.000000 0.156314
O O17 0.613112 0.500000 0.114265
O O18 0.750000 0.750000 0.500000
O O19 0.601274 0.813895 0.542930
O O20 0.677025 0.000000 0.478573
O O21 0.154885 0.500000 0.619086
#
# Coordination Sequence:
#
# PCOD8083229 Si02
#       8
#     8   8   8   8   8   8   8   8
#     4  10  20  34  54  82 118 154 188 226 268 317
#     4  11  22  37  55  76 107 139 171 217 268 320
#     4   9  19  35  54  77 105 138 173 210 262 320
#     4  10  21  37  57  80 106 136 176 225 271 320
#     4   9  19  37  59  82 109 145 185 224 272 321
#     4   9  19  37  59  81 108 143 184 228 272 320
#     4  10  18  32  55  78 104 136 171 211 259 315
#     4  10  20  35  56  79 103 136 176 216 258 315
#
# _framework density 19.046222
#
# number of rings (size 3 to 8) (size 9 to 14) (size 15 to 20)
#    0.000    2.250    1.250    1.500    0.000    4.500 
#    0.000    6.875    0.000    1.500    0.000    0.000 
#    0.000    0.000    0.000    0.000    0.000    0.000 
#
# Total GULP energy -396713.387100 kJ/mol
# GULP energy per Si atom -12397.293347 kJ/mol
# Density = 1.900287 g / cm^3
# Si number density = 19.046222 Si / 1000 Ang^3
#
#
#
# Elastic Constant Matrix: (Units=GPa)
#
#
# Indices 1 2 3 4 5 6 
#
# 1 122.9456 36.3148 24.8794 0.0000 -21.7145 0.0000
# 2 36.3148 56.3795 38.5232 0.0000 -13.3407 0.0000
# 3 24.8794 38.5232 81.1351 0.0000 -14.3494 0.0000
# 4 0.0000 0.0000 0.0000 29.7345 0.0000 -1.0783
# 5 -21.7145 -13.3407 -14.3494 0.0000 22.3196 0.0000
# 6 0.0000 0.0000 0.0000 -1.0783 0.0000 27.2036
#
#
#
# Elastic Compliance Matrix: (Units=1/GPa)
#
#
# Indices 1 2 3 4 5 6 
#
# 1 0.011070 -0.005788 0.000729 0.000000 0.007779 0.000000
# 2 -0.005788 0.030855 -0.011970 0.000000 0.005116 0.000000
# 3 0.000729 -0.011970 0.018781 0.000000 0.005629 0.000000
# 4 0.000000 0.000000 0.000000 0.033679 0.000000 0.001335
# 5 0.007779 0.005116 0.005629 0.000000 0.059048 0.000000
# 6 0.000000 0.000000 0.000000 0.001335 0.000000 0.036813
#
#
# Mechanical properties :
#
#
# Convention : Reuss Voigt Hill
#
# Bulk Modulus (GPa) = 37.52727 51.09944 44.31336
# Shear Modulus (GPa) = 21.44224 26.56773 24.00498
#
# Velocity S-wave (km/s) = 3.35893 3.73890 3.55400
# Velocity P-wave (km/s) = 5.89824 6.74734 6.33703
#
# Compressibility (1/GPa) = 0.02664729
#
# Stress axis : x y z
#
# Youngs Moduli (GPa) = 90.33810 32.41018 53.24671
#
# Poissons Ratio (x) = 0.18758 -0.03884
# Poissons Ratio (y) = 0.52285 0.63738
# Poissons Ratio (z) = -0.06590 0.38796
#
# Static dielectric constant tensor:
#      x y z
#    x 3.991580 0.000000 -0.338390 
#    y 0.000000 3.365050 0.000000 
#    z -0.338390 0.000000 3.727520 
# 
# 
# High freq. dielectric constant tensor:
#      x y z
#    x 1.747110 0.000000 -0.008520 
#    y 0.000000 1.727680 0.000000 
#    z -0.008520 0.000000 1.738760 
# 
# From -- ./inp_files/338716.got.cif
#   From: 2010.06.25/outbox.cif.g09.slc.cpg/sg12_170_cif.got.tgz:338716.got - 2010.06.28 00:19:55.
