data_PCOD8083118
_publ_section_title
;
Structure prediction by ZEFSAII (Michael W. Deem and Ramdas Pophale) SiO2 
 PCOD8083118
Probable space group: C 2/M
;
_chemical_formula_sum "Si O2"
_cell_formula_units_Z 60
_cell_length_a 27.282647
_cell_length_b 17.738354
_cell_length_c 12.221375
_cell_angle_alpha 90.000000
_cell_angle_beta 34.145591
_cell_angle_gamma 90.000000
_cell_volume 3319.809523
_symmetry_space_group_name_H-M "C 2/M"
_symmetry_group_IT_number 12
_symmetry_cell_setting 'monoclinic'
loop_
_space_group_symop_operation_xyz
x,y,z
-x,y,-z
-x,-y,-z
x,-y,z
1/2+x,1/2+y,z
1/2-x,1/2+y,-z
1/2-x,1/2-y,-z
1/2+x,1/2-y,z
loop_
_atom_site_type_symbol
_atom_site_label
_atom_site_fract_x
_atom_site_fract_y
_atom_site_fract_z
Si Si1 0.569700 0.211852 0.652620
Si Si2 0.230430 0.814125 0.392669
Si Si3 0.000000 0.230035 0.000000
Si Si4 0.825942 0.171800 0.264316
Si Si5 0.802669 0.413118 0.646378
Si Si6 0.664826 0.412346 0.338128
Si Si7 0.320385 0.413024 0.936903
Si Si8 0.491375 0.321863 0.642206
O O1 0.651579 0.265558 0.492315
O O2 0.606797 0.129763 0.549371
O O3 0.497319 0.244488 0.702199
O O4 0.535655 0.213652 0.840397
O O5 0.215638 0.846046 0.540868
O O6 0.312210 0.757902 0.247134
O O7 0.237179 0.880789 0.290798
O O8 0.069577 0.169855 0.920108
O O9 0.782213 0.110213 0.267820
O O10 0.823501 0.500000 0.586246
O O11 0.770204 0.398168 0.830745
O O12 0.657364 0.500000 0.373862
O O13 0.699321 0.393622 0.152882
O O14 0.567800 0.379532 0.534947
O O15 0.350194 0.500000 0.894407
O O16 0.398481 0.360909 0.838728
O O17 0.500000 0.299057 0.500000
#
# Coordination Sequence:
#
# PCOD8083118 Si02
#       8
#     8   8   4   8   8   8   8   8
#     4   9  18  32  49  69  93 126 163 197 236 283
#     4   8  16  30  46  67  97 125 154 192 236 283
#     4  10  18  32  54  72  94 120 152 202 250 286
#     4   9  17  31  49  70  93 122 156 195 241 285
#     4  10  20  34  50  68  96 131 163 196 237 287
#     4   9  16  27  46  73 102 130 159 193 236 284
#     4   9  17  29  47  73 104 132 154 187 240 291
#     4   9  16  29  49  75 101 125 158 198 237 280
#
# _framework density 18.073326000000002
#
# number of rings (size 3 to 8) (size 9 to 14) (size 15 to 20)
#    0.000    2.933    0.000    2.000    0.000    2.133 
#    0.000   12.667    0.000    1.200    0.000    0.000 
#    0.000    0.000    0.000    0.000    0.000    0.000 
#
# Total GULP energy -371731.630957 kJ/mol
# GULP energy per Si atom -12391.054365 kJ/mol
# Density = 1.803219 g / cm^3
# Si number density = 18.073326 Si / 1000 Ang^3
#
#
#
# Elastic Constant Matrix: (Units=GPa)
#
#
# Indices 1 2 3 4 5 6 
#
# 1 89.3475 48.4082 25.8548 0.0000 9.3767 0.0000
# 2 48.4082 96.0601 44.7410 0.0000 9.9855 0.0000
# 3 25.8548 44.7410 65.8638 0.0000 7.0197 0.0000
# 4 0.0000 0.0000 0.0000 18.2118 0.0000 -3.3861
# 5 9.3767 9.9855 7.0197 0.0000 16.0071 0.0000
# 6 0.0000 0.0000 0.0000 -3.3861 0.0000 23.1132
#
#
#
# Elastic Compliance Matrix: (Units=1/GPa)
#
#
# Indices 1 2 3 4 5 6 
#
# 1 0.015739 -0.007041 -0.000924 0.000000 -0.004422 0.000000
# 2 -0.007041 0.018804 -0.009650 0.000000 -0.003374 0.000000
# 3 -0.000924 -0.009650 0.022450 0.000000 -0.003285 0.000000
# 4 0.000000 0.000000 0.000000 0.056447 0.000000 0.008269
# 5 -0.004422 -0.003374 -0.003285 0.000000 0.068607 0.000000
# 6 0.000000 0.000000 0.000000 0.008269 0.000000 0.044477
#
#
# Mechanical properties :
#
#
# Convention : Reuss Voigt Hill
#
# Bulk Modulus (GPa) = 45.94894 54.36438 50.15666
# Shear Modulus (GPa) = 18.58682 20.28424 19.43553
#
# Velocity S-wave (km/s) = 3.21037 3.35375 3.28284
# Velocity P-wave (km/s) = 6.26265 6.71879 6.49472
#
# Compressibility (1/GPa) = 0.02176329
#
# Stress axis : x y z
#
# Youngs Moduli (GPa) = 63.53811 53.18115 44.54256
#
# Poissons Ratio (x) = 0.37447 0.04115
# Poissons Ratio (y) = 0.44739 0.42982
# Poissons Ratio (z) = 0.05869 0.51318
#
# Static dielectric constant tensor:
#      x y z
#    x 3.722800 0.000000 0.045770 
#    y 0.000000 3.302560 0.000000 
#    z 0.045770 0.000000 3.290810 
# 
# 
# High freq. dielectric constant tensor:
#      x y z
#    x 1.701550 0.000000 0.018770 
#    y 0.000000 1.672540 0.000000 
#    z 0.018770 0.000000 1.687650 
# 
# From -- ./inp_files/184185.got.cif
#   From: 2010.06.25/outbox.cif.g09.slc.cpg/sg12_93_cif.got.tgz:184185.got - 2010.06.28 00:19:55.
