data_PCOD8083394
_publ_section_title
;
Structure prediction by ZEFSAII (Michael W. Deem and Ramdas Pophale) SiO2 
 PCOD8083394
Probable space group: C 2/M
;
_chemical_formula_sum "Si O2"
_cell_formula_units_Z 52
_cell_length_a 20.873811
_cell_length_b 11.491608
_cell_length_c 12.740099
_cell_angle_alpha 90.000000
_cell_angle_beta 115.702303
_cell_angle_gamma 90.000000
_cell_volume 2753.650805
_symmetry_space_group_name_H-M "C 2/M"
_symmetry_group_IT_number 12
_symmetry_cell_setting 'monoclinic'
loop_
_space_group_symop_operation_xyz
x,y,z
-x,y,-z
-x,-y,-z
x,-y,z
1/2+x,1/2+y,z
1/2-x,1/2+y,-z
1/2-x,1/2-y,-z
1/2+x,1/2-y,z
loop_
_atom_site_type_symbol
_atom_site_label
_atom_site_fract_x
_atom_site_fract_y
_atom_site_fract_z
Si Si1 0.919839 0.000000 0.067071
Si Si2 0.689093 0.500000 0.188566
Si Si3 0.917744 0.367475 0.914345
Si Si4 0.677728 0.128809 0.759525
Si Si5 0.947723 0.743779 0.722450
Si Si6 0.068949 0.000000 0.248041
Si Si7 0.105454 0.252369 0.889670
Si Si8 0.074794 0.362617 0.509006
O O1 0.893620 0.886960 0.111289
O O2 0.005866 0.000000 0.113824
O O3 0.882477 0.000000 0.929214
O O4 0.737768 0.615215 0.205135
O O5 0.652231 0.500000 0.275422
O O6 0.889546 0.500000 0.880882
O O7 0.905412 0.293647 0.798557
O O8 0.877907 0.303421 0.982475
O O9 0.000000 0.367669 0.000000
O O10 0.667447 0.206819 0.855167
O O11 0.637442 0.183127 0.630167
O O12 0.645151 0.000000 0.759633
O O13 0.943166 0.881777 0.695843
O O14 0.911055 0.683297 0.597600
O O15 0.029507 0.701811 0.792186
O O16 0.075542 0.500000 0.502780
O O17 0.000000 0.315111 0.500000
#
# Coordination Sequence:
#
# PCOD8083394 Si02
#       8
#     4   4   8   8   8   4   8   8
#     4  10  21  34  57  79 107 152 186 227 264 328
#     4  10  21  38  55  81 107 150 190 226 273 328
#     4   9  17  26  45  77 112 139 172 229 277 317
#     4   9  20  34  55  82 110 146 180 228 277 333
#     4  10  19  32  54  83 110 144 186 232 273 317
#     4  10  21  38  56  79 108 147 196 227 264 327
#     4  10  18  33  52  82 114 141 183 224 281 328
#     4  10  18  32  57  83 111 143 184 228 279 329
#
# _framework density 18.884022000000002
#
# number of rings (size 3 to 8) (size 9 to 14) (size 15 to 20)
#    0.462    1.846    1.538    2.077    0.000    4.308 
#    0.000    1.923    0.000    0.000    2.000    0.000 
#    0.000    0.000    0.000    0.000    0.000    0.154 
#
# Total GULP energy -322209.204927 kJ/mol
# GULP energy per Si atom -12392.661728 kJ/mol
# Density = 1.884104 g / cm^3
# Si number density = 18.884022 Si / 1000 Ang^3
#
#
#
# Elastic Constant Matrix: (Units=GPa)
#
#
# Indices 1 2 3 4 5 6 
#
# 1 84.5434 12.8116 28.1267 0.0000 -2.8943 0.0000
# 2 12.8116 83.4400 24.8796 0.0000 -8.3774 0.0000
# 3 28.1267 24.8796 99.6716 0.0000 -17.0828 0.0000
# 4 0.0000 0.0000 0.0000 2.1812 0.0000 10.3692
# 5 -2.8943 -8.3774 -17.0828 0.0000 22.5495 0.0000
# 6 0.0000 0.0000 0.0000 10.3692 0.0000 4.2239
#
#
#
# Elastic Compliance Matrix: (Units=1/GPa)
#
#
# Indices 1 2 3 4 5 6 
#
# 1 0.013173 -0.001069 -0.003711 0.000000 -0.001517 0.000000
# 2 -0.001069 0.013181 -0.002497 0.000000 0.002868 0.000000
# 3 -0.003711 -0.002497 0.013173 0.000000 0.008576 0.000000
# 4 0.000000 0.000000 0.000000 -0.042966 0.000000 0.105477
# 5 -0.001517 0.002868 0.008576 0.000000 0.051714 0.000000
# 6 0.000000 0.000000 0.000000 0.105477 0.000000 -0.022187
#
#
# Mechanical properties :
#
#
# Convention : Reuss Voigt Hill
#
# Bulk Modulus (GPa) = 40.04063 44.36564 42.20313
# Shear Modulus (GPa) = 102.11332 19.24671 60.68002
#
# Velocity S-wave (km/s) = 7.36148 3.19596 5.67475
# Velocity P-wave (km/s) = 9.66978 6.09620 8.08295
#
# Compressibility (1/GPa) = 0.02497463
#
# Stress axis : x y z
#
# Youngs Moduli (GPa) = 75.91458 75.86519 75.91195
#
# Poissons Ratio (x) = 0.08106 0.28168
# Poissons Ratio (y) = 0.08111 0.18957
# Poissons Ratio (z) = 0.28169 0.18945
#
# Static dielectric constant tensor:
#      x y z
#    x 3.142280 0.000000 -0.020830 
#    y 0.000000 3.426930 0.000000 
#    z -0.020830 0.000000 3.338080 
# 
# 
# High freq. dielectric constant tensor:
#      x y z
#    x 1.704310 0.000000 -0.006910 
#    y 0.000000 1.725410 0.000000 
#    z -0.006910 0.000000 1.717220 
# 
# From -- ./inp_files/165154.got.cif
#   From: 2010.06.25/outbox.cif.g09.slc.cpg/sg12_83_cif.got.tgz:165154.got - 2010.06.28 00:19:55.
