data_PCOD8083658
_publ_section_title
;
Structure prediction by ZEFSAII (Michael W. Deem and Ramdas Pophale) SiO2 
 PCOD8083658
Probable space group: C 2/M
;
_chemical_formula_sum "Si O2"
_cell_formula_units_Z 64
_cell_length_a 22.196551
_cell_length_b 8.708195
_cell_length_c 21.771809
_cell_angle_alpha 90.000000
_cell_angle_beta 49.682449
_cell_angle_gamma 90.000000
_cell_volume 3208.714038
_symmetry_space_group_name_H-M "C 2/M"
_symmetry_group_IT_number 12
_symmetry_cell_setting 'monoclinic'
loop_
_space_group_symop_operation_xyz
x,y,z
-x,y,-z
-x,-y,-z
x,-y,z
1/2+x,1/2+y,z
1/2-x,1/2+y,-z
1/2-x,1/2-y,-z
1/2+x,1/2-y,z
loop_
_atom_site_type_symbol
_atom_site_label
_atom_site_fract_x
_atom_site_fract_y
_atom_site_fract_z
Si Si1 0.840586 0.171993 0.757735
Si Si2 0.063248 0.183743 0.508772
Si Si3 0.497881 0.318132 0.803221
Si Si4 0.787748 0.829413 0.656244
Si Si5 0.820953 0.822071 0.107515
Si Si6 0.998844 0.679334 0.325902
Si Si7 0.832861 0.824290 0.961822
Si Si8 0.123422 0.316643 0.809202
O O1 0.835202 0.166142 0.688400
O O2 0.760760 0.230189 0.840747
O O3 0.908341 0.290080 0.731051
O O4 0.860136 0.000000 0.769837
O O5 0.151020 0.247468 0.432290
O O6 0.000000 0.242913 0.500000
O O7 0.046369 0.249621 0.586700
O O8 0.061516 0.000000 0.512328
O O9 0.507706 0.500000 0.802714
O O10 0.532232 0.259336 0.715841
O O11 0.546252 0.237368 0.825328
O O12 0.406165 0.265707 0.871764
O O13 0.702323 0.748880 0.722336
O O14 0.770045 0.000000 0.644132
O O15 0.858846 0.798711 0.015485
O O16 0.879186 0.751204 0.120171
O O17 0.805161 0.000000 0.133008
O O18 0.981285 0.500000 0.333993
O O19 0.818579 0.000000 0.957150
O O20 0.750000 0.750000 0.000000
O O21 0.128432 0.500000 0.810722
#
# Coordination Sequence:
#
# PCOD8083658 Si02
#       8
#     8   8   8   8   8   8   8   8
#     4  10  18  33  55  83 116 154 193 234 284 348
#     4  10  18  34  59  86 116 153 192 232 287 355
#     4  11  24  43  62  81 110 157 203 243 289 347
#     4   8  16  32  56  83 113 147 186 232 280 336
#     4  10  20  36  58  88 119 152 192 242 295 346
#     4  12  24  36  53  84 120 152 190 243 299 354
#     4  10  23  40  61  88 120 152 191 240 294 349
#     4  10  21  39  61  87 117 154 198 243 287 341
#
# _framework density 19.945685000000001
#
# number of rings (size 3 to 8) (size 9 to 14) (size 15 to 20)
#    0.000    1.875    1.250    4.125    0.000    4.750 
#    0.000    4.375    0.000    0.000    0.000    0.000 
#    0.000    0.000    0.000    0.000    0.000    0.000 
#
# Total GULP energy -396691.095507 kJ/mol
# GULP energy per Si atom -12396.596735 kJ/mol
# Density = 1.990029 g / cm^3
# Si number density = 19.945685 Si / 1000 Ang^3
#
#
#
# Elastic Constant Matrix: (Units=GPa)
#
#
# Indices 1 2 3 4 5 6 
#
# 1 90.2212 27.4586 36.9590 0.0001 3.1152 -0.0003
# 2 27.4586 71.1354 39.5843 0.0003 2.7804 -0.0009
# 3 36.9590 39.5843 117.8549 0.0002 11.8433 -0.0003
# 4 0.0001 0.0003 0.0002 24.4008 -0.0002 1.1047
# 5 3.1152 2.7804 11.8433 -0.0002 20.7104 0.0002
# 6 -0.0003 -0.0009 -0.0003 1.1047 0.0002 31.1817
#
#
#
# Elastic Compliance Matrix: (Units=1/GPa)
#
#
# Indices 1 2 3 4 5 6 
#
# 1 0.013384 -0.003477 -0.003049 0.000000 0.000197 0.000000
# 2 -0.003477 0.018214 -0.005129 0.000000 0.001011 0.000000
# 3 -0.003049 -0.005129 0.011722 0.000000 -0.005556 0.000000
# 4 0.000000 0.000000 0.000000 0.041048 0.000001 -0.001454
# 5 0.000197 0.001011 -0.005556 0.000001 0.051297 0.000000
# 6 0.000000 0.000000 0.000000 -0.001454 0.000000 0.032122
#
#
# Mechanical properties :
#
#
# Convention : Reuss Voigt Hill
#
# Bulk Modulus (GPa) = 49.97417 54.13503 52.05460
# Shear Modulus (GPa) = 25.28203 26.93921 26.11062
#
# Velocity S-wave (km/s) = 3.56412 3.67908 3.62205
# Velocity P-wave (km/s) = 6.48435 6.72663 6.60660
#
# Compressibility (1/GPa) = 0.02001034
#
# Stress axis : x y z
#
# Youngs Moduli (GPa) = 74.71331 54.90133 85.30818
#
# Poissons Ratio (x) = 0.19091 0.26012
# Poissons Ratio (y) = 0.25981 0.43753
# Poissons Ratio (z) = 0.22782 0.28158
#
# Static dielectric constant tensor:
#      x y z
#    x 3.538270 0.000000 0.024150 
#    y 0.000000 3.539830 0.000000 
#    z 0.024150 0.000000 3.914930 
# 
# 
# High freq. dielectric constant tensor:
#      x y z
#    x 1.764180 0.000000 0.003920 
#    y 0.000000 1.765480 0.000000 
#    z 0.003920 0.000000 1.788320 
# 
# From -- ./inp_files/324107.got.cif
#   From: 2010.06.25/outbox.cif.g09.slc.cpg/sg12_163_cif.got.tgz:324107.got - 2010.06.28 00:19:55.
