data_PCOD8083038
_publ_section_title
;
Structure prediction by ZEFSAII (Michael W. Deem and Ramdas Pophale) SiO2 
 PCOD8083038
Probable space group: C 2/M
;
_chemical_formula_sum "Si O2"
_cell_formula_units_Z 48
_cell_length_a 20.720672
_cell_length_b 9.085723
_cell_length_c 15.186651
_cell_angle_alpha 90.000000
_cell_angle_beta 110.932785
_cell_angle_gamma 90.000000
_cell_volume 2670.375330
_symmetry_space_group_name_H-M "C 2/M"
_symmetry_group_IT_number 12
_symmetry_cell_setting 'monoclinic'
loop_
_space_group_symop_operation_xyz
x,y,z
-x,y,-z
-x,-y,-z
x,-y,z
1/2+x,1/2+y,z
1/2-x,1/2+y,-z
1/2-x,1/2-y,-z
1/2+x,1/2-y,z
loop_
_atom_site_type_symbol
_atom_site_label
_atom_site_fract_x
_atom_site_fract_y
_atom_site_fract_z
Si Si1 0.853744 0.174445 0.388465
Si Si2 0.404845 0.173676 0.893635
Si Si3 0.396462 0.325946 0.601804
Si Si4 0.197699 0.675030 0.302478
Si Si5 0.948625 0.174222 0.277522
Si Si6 0.052014 0.674195 0.899353
O O1 0.884524 0.227767 0.496194
O O2 0.775914 0.233546 0.338076
O O3 0.901650 0.236860 0.333811
O O4 0.854211 0.000000 0.384836
O O5 0.338561 0.228058 0.806208
O O6 0.474388 0.232121 0.880822
O O7 0.410669 0.000000 0.895901
O O8 0.400686 0.223591 0.993918
O O9 0.386449 0.500000 0.606212
O O10 0.340027 0.245987 0.633256
O O11 0.472813 0.276042 0.667186
O O12 0.193824 0.500000 0.311144
O O13 0.920158 0.244946 0.173732
O O14 0.942457 0.000000 0.267412
O O15 0.054753 0.500000 0.885135
#
# Coordination Sequence:
#
# PCOD8083038 Si02
#       6
#     8   8   8   8   8   8
#     4   9  19  33  49  69  97 131 160 188 232 288
#     4   8  15  28  49  72  93 120 155 195 236 280
#     4  10  19  32  50  71  96 127 160 195 234 277
#     4  10  18  32  53  73  93 122 162 200 232 276
#     4  10  19  32  49  71  98 128 159 191 231 282
#     4   9  16  30  50  71  94 121 158 197 234 277
#
# _framework density 17.975002
#
# number of rings (size 3 to 8) (size 9 to 14) (size 15 to 20)
#    0.000    2.667    1.667    2.000    0.000    2.000 
#    0.000    5.000    0.000    2.000    0.000    0.000 
#    0.000    0.000    0.000    0.000    0.000    0.000 
#
# Total GULP energy -297529.344045 kJ/mol
# GULP energy per Si atom -12397.056002 kJ/mol
# Density = 1.793409 g / cm^3
# Si number density = 17.975002 Si / 1000 Ang^3
#
#
#
# Elastic Constant Matrix: (Units=GPa)
#
#
# Indices 1 2 3 4 5 6 
#
# 1 102.2086 20.6342 57.5193 0.0000 -16.5123 0.0000
# 2 20.6342 18.6042 24.3421 0.0000 -4.9640 0.0000
# 3 57.5193 24.3421 157.5614 0.0000 -21.7355 0.0000
# 4 0.0000 0.0000 0.0000 26.2612 0.0000 -7.0805
# 5 -16.5123 -4.9640 -21.7355 0.0000 22.0041 0.0000
# 6 0.0000 0.0000 0.0000 -7.0805 0.0000 20.0975
#
#
#
# Elastic Compliance Matrix: (Units=1/GPa)
#
#
# Indices 1 2 3 4 5 6 
#
# 1 0.014476 -0.010850 -0.002834 0.000000 0.005617 0.000000
# 2 -0.010850 0.076122 -0.007588 0.000000 0.001536 0.000000
# 3 -0.002834 -0.007588 0.009290 0.000000 0.005338 0.000000
# 4 0.000000 0.000000 0.000000 0.042076 0.000000 0.014824
# 5 0.005617 0.001536 0.005338 0.000000 0.055280 0.000000
# 6 0.000000 0.000000 0.000000 0.014824 0.000000 0.054980
#
#
# Mechanical properties :
#
#
# Convention : Reuss Voigt Hill
#
# Bulk Modulus (GPa) = 17.43788 53.70727 35.57258
# Shear Modulus (GPa) = 15.92953 25.39780 20.66366
#
# Velocity S-wave (km/s) = 2.98015 3.76300 3.39422
# Velocity P-wave (km/s) = 4.64370 6.98742 5.93245
#
# Compressibility (1/GPa) = 0.05734642
#
# Stress axis : x y z
#
# Youngs Moduli (GPa) = 69.07787 13.13675 107.64411
#
# Poissons Ratio (x) = 0.14253 0.30504
# Poissons Ratio (y) = 0.74947 0.81677
# Poissons Ratio (z) = 0.19575 0.09968
#
# Static dielectric constant tensor:
#      x y z
#    x 3.350650 0.000000 0.092980 
#    y 0.000000 2.885010 0.000000 
#    z 0.092980 0.000000 3.751870 
# 
# 
# High freq. dielectric constant tensor:
#      x y z
#    x 1.682710 0.000000 -0.000940 
#    y 0.000000 1.653440 0.000000 
#    z -0.000940 0.000000 1.716670 
# 
# From -- ./inp_files/153647.got.cif
#   From: 2010.06.25/outbox.cif.g09.slc.cpg/sg12_77_cif.got.tgz:153647.got - 2010.06.28 00:19:55.
