data_PCOD8083228
_publ_section_title
;
Structure prediction by ZEFSAII (Michael W. Deem and Ramdas Pophale) SiO2 
 PCOD8083228
Probable space group: C 2/M
;
_chemical_formula_sum "Si O2"
_cell_formula_units_Z 64
_cell_length_a 14.575112
_cell_length_b 9.119780
_cell_length_c 26.968136
_cell_angle_alpha 90.000000
_cell_angle_beta 109.122943
_cell_angle_gamma 90.000000
_cell_volume 3386.844541
_symmetry_space_group_name_H-M "C 2/M"
_symmetry_group_IT_number 12
_symmetry_cell_setting 'monoclinic'
loop_
_space_group_symop_operation_xyz
x,y,z
-x,y,-z
-x,-y,-z
x,-y,z
1/2+x,1/2+y,z
1/2-x,1/2+y,-z
1/2-x,1/2-y,-z
1/2+x,1/2-y,z
loop_
_atom_site_type_symbol
_atom_site_label
_atom_site_fract_x
_atom_site_fract_y
_atom_site_fract_z
Si Si1 0.646155 0.828275 0.822025
Si Si2 0.651507 0.831980 0.989915
Si Si3 0.320833 0.168032 0.894735
Si Si4 0.574586 0.671774 0.369367
Si Si5 0.372852 0.327650 0.284548
Si Si6 0.010538 0.328153 0.882997
Si Si7 0.777295 0.671810 0.356752
Si Si8 0.020495 0.328810 0.558878
O O1 0.732073 0.779680 0.874023
O O2 0.650016 0.735740 0.773025
O O3 0.548322 0.788125 0.834808
O O4 0.653655 0.000000 0.811105
O O5 0.623299 0.817055 0.042828
O O6 0.667939 0.000000 0.978130
O O7 0.750000 0.750000 0.000000
O O8 0.573124 0.757369 0.939078
O O9 0.398514 0.219689 0.866943
O O10 0.285304 0.000000 0.880419
O O11 0.580463 0.500000 0.380860
O O12 0.484432 0.711409 0.317504
O O13 0.676085 0.727057 0.363303
O O14 0.555726 0.749432 0.418454
O O15 0.354869 0.500000 0.281307
O O16 0.296230 0.257269 0.309101
O O17 0.016244 0.500000 0.893081
O O18 0.771028 0.500000 0.343471
O O19 0.867107 0.707340 0.409214
O O20 0.999136 0.500000 0.560138
O O21 0.000000 0.271532 0.500000
#
# Coordination Sequence:
#
# PCOD8083228 Si02
#       8
#     8   8   8   8   8   8   8   8
#     4  11  22  37  55  76 105 135 167 213 266 315
#     4  10  18  32  55  78 104 136 170 208 253 305
#     4  10  20  35  56  79 103 136 174 211 252 307
#     4   9  19  35  55  78 105 140 180 223 266 309
#     4  10  21  37  55  76 102 132 174 221 264 314
#     4   9  19  35  54  77 105 137 171 206 254 313
#     4   9  18  35  56  78 107 142 179 218 265 311
#     4   9  18  32  51  79 115 150 182 217 258 309
#
# _framework density 18.896644999999999
#
# number of rings (size 3 to 8) (size 9 to 14) (size 15 to 20)
#    0.000    2.375    1.250    1.125    0.000    4.250 
#    0.000    4.375    0.000    1.500    0.000    0.000 
#    0.000    0.000    0.000    0.000    0.000    0.000 
#
# Total GULP energy -396701.917388 kJ/mol
# GULP energy per Si atom -12396.934918 kJ/mol
# Density = 1.885364 g / cm^3
# Si number density = 18.896645 Si / 1000 Ang^3
#
#
#
# Elastic Constant Matrix: (Units=GPa)
#
#
# Indices 1 2 3 4 5 6 
#
# 1 125.7881 34.2759 23.7390 0.0000 -19.7736 0.0000
# 2 34.2759 44.6965 29.1501 0.0000 -11.0534 0.0000
# 3 23.7390 29.1501 81.4573 0.0000 -14.6079 0.0000
# 4 0.0000 0.0000 0.0000 25.2920 0.0000 -1.9148
# 5 -19.7736 -11.0534 -14.6079 0.0000 22.0642 0.0000
# 6 0.0000 0.0000 0.0000 -1.9148 0.0000 26.5947
#
#
#
# Elastic Compliance Matrix: (Units=1/GPa)
#
#
# Indices 1 2 3 4 5 6 
#
# 1 0.010781 -0.007006 0.000532 0.000000 0.006504 0.000000
# 2 -0.007006 0.035303 -0.009698 0.000000 0.004987 0.000000
# 3 0.000532 -0.009698 0.016801 0.000000 0.006741 0.000000
# 4 0.000000 0.000000 0.000000 0.039755 0.000000 0.002862
# 5 0.006504 0.004987 0.006741 0.000000 0.058113 0.000000
# 6 0.000000 0.000000 0.000000 0.002862 0.000000 0.037807
#
#
# Mechanical properties :
#
#
# Convention : Reuss Voigt Hill
#
# Bulk Modulus (GPa) = 32.74231 47.36356 40.05294
# Shear Modulus (GPa) = 20.73967 25.77532 23.25750
#
# Velocity S-wave (km/s) = 3.31650 3.69726 3.51204
# Velocity P-wave (km/s) = 5.65952 6.58372 6.13903
#
# Compressibility (1/GPa) = 0.03054152
#
# Stress axis : x y z
#
# Youngs Moduli (GPa) = 92.75618 28.32601 59.52113
#
# Poissons Ratio (x) = 0.19844 -0.03164
# Poissons Ratio (y) = 0.64982 0.57721
# Poissons Ratio (z) = -0.04930 0.27469
#
# Static dielectric constant tensor:
#      x y z
#    x 3.912780 0.000000 -0.248680 
#    y 0.000000 3.284370 0.000000 
#    z -0.248680 0.000000 3.638770 
# 
# 
# High freq. dielectric constant tensor:
#      x y z
#    x 1.741160 0.000000 -0.007390 
#    y 0.000000 1.716910 0.000000 
#    z -0.007390 0.000000 1.731500 
# 
# From -- ./inp_files/359938.got.cif
#   From: 2010.06.25/outbox.cif.g09.slc.cpg/sg12_180_cif.got.tgz:359938.got - 2010.06.28 00:19:55.
