data_PCOD8083158
_publ_section_title
;
Structure prediction by ZEFSAII (Michael W. Deem and Ramdas Pophale) SiO2 
 PCOD8083158
Probable space group: C 2/M
;
_chemical_formula_sum "Si O2"
_cell_formula_units_Z 64
_cell_length_a 25.303847
_cell_length_b 8.916202
_cell_length_c 14.799347
_cell_angle_alpha 90.000000
_cell_angle_beta 89.554521
_cell_angle_gamma 90.000000
_cell_volume 3338.842078
_symmetry_space_group_name_H-M "C 2/M"
_symmetry_group_IT_number 12
_symmetry_cell_setting 'monoclinic'
loop_
_space_group_symop_operation_xyz
x,y,z
-x,y,-z
-x,-y,-z
x,-y,z
1/2+x,1/2+y,z
1/2-x,1/2+y,-z
1/2-x,1/2-y,-z
1/2+x,1/2-y,z
loop_
_atom_site_type_symbol
_atom_site_label
_atom_site_fract_x
_atom_site_fract_y
_atom_site_fract_z
Si Si1 0.557264 0.679192 0.297185
Si Si2 0.300032 0.823362 0.544004
Si Si3 0.336725 0.677948 0.219332
Si Si4 0.733626 0.670482 0.285633
Si Si5 0.693435 0.321619 0.980939
Si Si6 0.596396 0.675549 0.491605
Si Si7 0.058466 0.175474 0.686046
Si Si8 0.641501 0.330406 0.156123
O O1 0.560749 0.500000 0.297275
O O2 0.570994 0.734360 0.398448
O O3 0.497774 0.736568 0.275770
O O4 0.597472 0.749421 0.221129
O O5 0.250000 0.750000 0.500000
O O6 0.303775 0.760306 0.645228
O O7 0.351022 0.769510 0.488698
O O8 0.295198 0.000000 0.543330
O O9 0.332364 0.500000 0.231549
O O10 0.290231 0.751845 0.277747
O O11 0.329972 0.726922 0.115396
O O12 0.392181 0.742817 0.257874
O O13 0.741967 0.500000 0.318774
O O14 0.701073 0.676849 0.193667
O O15 0.700374 0.500000 0.987672
O O16 0.750000 0.250000 0.000000
O O17 0.649535 0.263525 0.055096
O O18 0.610345 0.500000 0.485384
O O19 0.559531 0.709318 0.578501
O O20 0.060573 0.000000 0.702488
O O21 0.621628 0.500000 0.148264
#
# Coordination Sequence:
#
# PCOD8083158 Si02
#       8
#     8   8   8   8   8   8   8   8
#     4   9  16  30  53  78 103 137 181 226 267 314
#     4  12  24  36  51  76 111 147 181 219 268 322
#     4  10  20  33  50  78 112 142 176 224 275 326
#     4  11  20  34  55  78 106 141 177 219 272 323
#     4  10  19  32  51  76 106 140 177 221 271 326
#     4  10  18  32  54  79 104 137 182 225 264 315
#     4   9  18  31  50  77 107 137 177 225 270 316
#     4   9  17  30  50  77 104 130 173 223 266 315
#
# _framework density 19.168322
#
# number of rings (size 3 to 8) (size 9 to 14) (size 15 to 20)
#    0.000    2.000    2.500    2.625    0.000    2.500 
#    0.000    0.625    0.000    6.000    0.000    0.000 
#    0.000    2.000    0.000    0.000    0.000    0.000 
#
# Total GULP energy -396581.439699 kJ/mol
# GULP energy per Si atom -12393.169991 kJ/mol
# Density = 1.912469 g / cm^3
# Si number density = 19.168322 Si / 1000 Ang^3
#
#
#
# Elastic Constant Matrix: (Units=GPa)
#
#
# Indices 1 2 3 4 5 6 
#
# 1 138.1188 16.7101 46.2806 0.0000 -10.8405 0.0000
# 2 16.7101 46.7564 14.6234 0.0000 -2.4404 0.0000
# 3 46.2806 14.6234 95.8788 0.0000 -10.9844 0.0000
# 4 0.0000 0.0000 0.0000 15.5673 0.0000 -0.5534
# 5 -10.8405 -2.4404 -10.9844 0.0000 26.8329 0.0000
# 6 0.0000 0.0000 0.0000 -0.5534 0.0000 19.7106
#
#
#
# Elastic Compliance Matrix: (Units=1/GPa)
#
#
# Indices 1 2 3 4 5 6 
#
# 1 0.008884 -0.001894 -0.003786 0.000000 0.001867 0.000000
# 2 -0.001894 0.022874 -0.002543 0.000000 0.000274 0.000000
# 3 -0.003786 -0.002543 0.013056 0.000000 0.003584 0.000000
# 4 0.000000 0.000000 0.000000 0.064301 0.000000 0.001805
# 5 0.001867 0.000274 0.003584 0.000000 0.039514 0.000000
# 6 0.000000 0.000000 0.000000 0.001805 0.000000 0.050785
#
#
# Mechanical properties :
#
#
# Convention : Reuss Voigt Hill
#
# Bulk Modulus (GPa) = 35.25011 48.44246 41.84628
# Shear Modulus (GPa) = 22.19109 25.96482 24.07795
#
# Velocity S-wave (km/s) = 3.40618 3.68444 3.54804
# Velocity P-wave (km/s) = 5.82230 6.58993 6.21797
#
# Compressibility (1/GPa) = 0.02836871
#
# Stress axis : x y z
#
# Youngs Moduli (GPa) = 112.55803 43.71781 76.59513
#
# Poissons Ratio (x) = 0.08279 0.28997
# Poissons Ratio (y) = 0.21315 0.19480
# Poissons Ratio (z) = 0.42611 0.11119
#
# Static dielectric constant tensor:
#      x y z
#    x 3.875240 0.000000 -0.375900 
#    y 0.000000 3.239090 0.000000 
#    z -0.375900 0.000000 4.211190 
# 
# 
# High freq. dielectric constant tensor:
#      x y z
#    x 1.746770 0.000000 -0.007880 
#    y 0.000000 1.696370 0.000000 
#    z -0.007880 0.000000 1.752200 
# 
# From -- ./inp_files/238650.got.cif
#   From: 2010.06.25/outbox.cif.g09.slc.cpg/sg12_120_cif.got.tgz:238650.got - 2010.06.28 00:19:55.
