data_PCOD8083415
_publ_section_title
;
Structure prediction by ZEFSAII (Michael W. Deem and Ramdas Pophale) SiO2 
 PCOD8083415
Probable space group: C 2/M
;
_chemical_formula_sum "Si O2"
_cell_formula_units_Z 56
_cell_length_a 15.263730
_cell_length_b 9.075040
_cell_length_c 23.821051
_cell_angle_alpha 90.000000
_cell_angle_beta 62.701659
_cell_angle_gamma 90.000000
_cell_volume 2932.184971
_symmetry_space_group_name_H-M "C 2/M"
_symmetry_group_IT_number 12
_symmetry_cell_setting 'monoclinic'
loop_
_space_group_symop_operation_xyz
x,y,z
-x,y,-z
-x,-y,-z
x,-y,z
1/2+x,1/2+y,z
1/2-x,1/2+y,-z
1/2-x,1/2-y,-z
1/2+x,1/2-y,z
loop_
_atom_site_type_symbol
_atom_site_label
_atom_site_fract_x
_atom_site_fract_y
_atom_site_fract_z
Si Si1 0.075804 0.328199 0.428615
Si Si2 0.597442 0.174224 0.213056
Si Si3 0.681417 0.325986 0.864224
Si Si4 0.991010 0.826059 0.345961
Si Si5 0.769437 0.828291 0.436229
Si Si6 0.335230 0.669087 0.007003
Si Si7 0.512998 0.330245 0.132191
O O1 0.067741 0.500000 0.415531
O O2 0.050383 0.234536 0.381594
O O3 0.186187 0.284583 0.415299
O O4 0.000000 0.286187 0.500000
O O5 0.710865 0.223268 0.188594
O O6 0.531499 0.255535 0.277733
O O7 0.564584 0.223381 0.161059
O O8 0.584182 0.000000 0.223033
O O9 0.674773 0.500000 0.870986
O O10 0.599802 0.275164 0.842845
O O11 0.656489 0.260532 0.933189
O O12 0.876095 0.781625 0.381967
O O13 0.005318 0.000000 0.339638
O O14 0.750000 0.750000 0.500000
O O15 0.763559 0.000000 0.450855
O O16 0.303241 0.500000 0.021082
O O17 0.437089 0.686317 0.943503
O O18 0.250000 0.750000 0.000000
O O19 0.518986 0.500000 0.151474
#
# Coordination Sequence:
#
# PCOD8083415 Si02
#       7
#     8   8   8   8   8   8   8
#     4  10  20  37  62  89 116 147 184 228 280 337
#     4  11  23  40  59  80 114 155 193 237 285 340
#     4   9  19  36  58  83 113 151 193 234 285 345
#     4  11  24  40  59  86 119 152 191 235 281 339
#     4  10  21  37  60  88 117 148 183 229 281 336
#     4  10  18  32  57  86 114 146 188 238 290 341
#     4  10  20  36  60  85 112 149 193 241 287 339
#
# _framework density 19.098385
#
# number of rings (size 3 to 8) (size 9 to 14) (size 15 to 20)
#    0.000    1.857    2.857    1.286    0.000    4.286 
#    0.000    7.857    0.000    1.714    0.000    0.000 
#    0.000    0.000    0.000    0.000    0.000    0.000 
#
# Total GULP energy -347217.397375 kJ/mol
# GULP energy per Si atom -12400.621335 kJ/mol
# Density = 1.905492 g / cm^3
# Si number density = 19.098385 Si / 1000 Ang^3
#
#
#
# Elastic Constant Matrix: (Units=GPa)
#
#
# Indices 1 2 3 4 5 6 
#
# 1 130.5795 32.0379 28.2577 0.0000 -21.8949 0.0000
# 2 32.0379 49.1914 34.9943 0.0000 -6.3785 0.0000
# 3 28.2577 34.9943 85.8558 0.0000 -15.1567 0.0000
# 4 0.0000 0.0000 0.0000 30.1367 0.0000 6.1386
# 5 -21.8949 -6.3785 -15.1567 0.0000 26.4379 0.0000
# 6 0.0000 0.0000 0.0000 6.1386 0.0000 28.0708
#
#
#
# Elastic Compliance Matrix: (Units=1/GPa)
#
#
# Indices 1 2 3 4 5 6 
#
# 1 0.010271 -0.005993 0.000343 0.000000 0.007257 0.000000
# 2 -0.005993 0.032128 -0.011828 0.000000 -0.003992 0.000000
# 3 0.000343 -0.011828 0.017692 0.000000 0.007574 0.000000
# 4 0.000000 0.000000 0.000000 0.034729 0.000000 -0.007595
# 5 0.007257 -0.003992 0.007574 0.000000 0.047213 0.000000
# 6 0.000000 0.000000 0.000000 -0.007595 0.000000 0.037285
#
#
# Mechanical properties :
#
#
# Convention : Reuss Voigt Hill
#
# Bulk Modulus (GPa) = 39.78136 50.68961 45.23548
# Shear Modulus (GPa) = 22.45661 28.28489 25.37075
#
# Velocity S-wave (km/s) = 3.43277 3.85256 3.64871
# Velocity P-wave (km/s) = 6.04870 6.81092 6.44109
#
# Compressibility (1/GPa) = 0.02513740
#
# Stress axis : x y z
#
# Youngs Moduli (GPa) = 97.36139 31.12552 56.52165
#
# Poissons Ratio (x) = 0.18652 -0.01940
# Poissons Ratio (y) = 0.58344 0.66851
# Poissons Ratio (z) = -0.03341 0.36814
#
# Static dielectric constant tensor:
#      x y z
#    x 3.806960 0.000000 -0.197700 
#    y 0.000000 3.341830 0.000000 
#    z -0.197700 0.000000 3.603940 
# 
# 
# High freq. dielectric constant tensor:
#      x y z
#    x 1.758360 0.000000 -0.005440 
#    y 0.000000 1.724580 0.000000 
#    z -0.005440 0.000000 1.743510 
# 
# From -- ./inp_files/338432.got.cif
#   From: 2010.06.25/outbox.cif.g09.slc.cpg/sg12_170_cif.got.tgz:338432.got - 2010.06.28 00:19:55.
