data_PCOD8083883
_publ_section_title
;
Structure prediction by ZEFSAII (Michael W. Deem and Ramdas Pophale) SiO2 
 PCOD8083883
Probable space group: C 2/M
;
_chemical_formula_sum "Si O2"
_cell_formula_units_Z 44
_cell_length_a 15.900779
_cell_length_b 28.267464
_cell_length_c 9.579360
_cell_angle_alpha 90.000000
_cell_angle_beta 148.006678
_cell_angle_gamma 90.000000
_cell_volume 2281.237147
_symmetry_space_group_name_H-M "C 2/M"
_symmetry_group_IT_number 12
_symmetry_cell_setting 'monoclinic'
loop_
_space_group_symop_operation_xyz
x,y,z
-x,y,-z
-x,-y,-z
x,-y,z
1/2+x,1/2+y,z
1/2-x,1/2+y,-z
1/2-x,1/2-y,-z
1/2+x,1/2-y,z
loop_
_atom_site_type_symbol
_atom_site_label
_atom_site_fract_x
_atom_site_fract_y
_atom_site_fract_z
Si Si1 0.533841 0.823484 0.329917
Si Si2 0.628083 0.552840 0.875727
Si Si3 0.500000 0.878035 0.000000
Si Si4 0.423402 0.272775 0.241247
Si Si5 0.224033 0.947116 0.695036
Si Si6 0.250542 0.352271 0.869115
O O1 0.531659 0.766209 0.315801
O O2 0.694604 0.836933 0.637254
O O3 0.385180 0.843858 0.206764
O O4 0.537084 0.844501 0.181394
O O5 0.680238 0.500000 0.997307
O O6 0.438809 0.557429 0.619877
O O7 0.688882 0.563261 0.806288
O O8 0.707473 0.592278 0.085215
O O9 0.347311 0.909976 0.809248
O O10 0.500000 0.283252 0.500000
O O11 0.250000 0.250000 0.000000
O O12 0.407942 0.322248 0.135628
O O13 0.293328 0.000000 0.774790
#
# Coordination Sequence:
#
# PCOD8083883 Si02
#       6
#     8   8   4   8   8   8
#     4  10  21  36  54  89 116 152 198 248 280 364
#     4   9  18  35  59  87 113 148 204 247 274 344
#     4  12  21  36  60  82 126 154 183 242 322 338
#     4  10  18  33  60  83 111 152 201 241 284 340
#     4   9  19  34  55  86 117 153 198 238 287 356
#     4  10  19  37  61  82 117 153 203 239 292 343
#
# _framework density 19.287780000000001
#
# number of rings (size 3 to 8) (size 9 to 14) (size 15 to 20)
#    0.000    2.182    5.455    1.364    2.545    0.000 
#    0.000    5.455    0.000    2.182    0.000    0.000 
#    0.000    0.000    0.000    0.000    0.000    0.000 
#
# Total GULP energy -272688.470427 kJ/mol
# GULP energy per Si atom -12394.930474 kJ/mol
# Density = 1.924388 g / cm^3
# Si number density = 19.287780 Si / 1000 Ang^3
#
#
#
# Elastic Constant Matrix: (Units=GPa)
#
#
# Indices 1 2 3 4 5 6 
#
# 1 67.9059 39.8982 38.2485 0.0000 -11.5920 0.0000
# 2 39.8982 161.2820 71.5186 0.0000 -10.5007 0.0000
# 3 38.2485 71.5186 125.3205 0.0000 -22.1108 0.0000
# 4 0.0000 0.0000 0.0000 36.0908 0.0000 7.6110
# 5 -11.5920 -10.5007 -22.1108 0.0000 25.1137 0.0000
# 6 0.0000 0.0000 0.0000 7.6110 0.0000 16.5268
#
#
#
# Elastic Compliance Matrix: (Units=1/GPa)
#
#
# Indices 1 2 3 4 5 6 
#
# 1 0.019134 -0.002952 -0.003332 0.000000 0.004664 0.000000
# 2 -0.002952 0.008771 -0.004378 0.000000 -0.001550 0.000000
# 3 -0.003332 -0.004378 0.012905 0.000000 0.007994 0.000000
# 4 0.000000 0.000000 0.000000 0.030688 0.000000 -0.014133
# 5 0.004664 -0.001550 0.007994 0.000000 0.048361 0.000000
# 6 0.000000 0.000000 0.000000 -0.014133 0.000000 0.067017
#
#
# Mechanical properties :
#
#
# Convention : Reuss Voigt Hill
#
# Bulk Modulus (GPa) = 51.31968 72.64878 61.98423
# Shear Modulus (GPa) = 23.28874 29.20246 26.24560
#
# Velocity S-wave (km/s) = 3.47859 3.89529 3.69282
# Velocity P-wave (km/s) = 6.54211 7.61436 7.09851
#
# Compressibility (1/GPa) = 0.01948570
#
# Stress axis : x y z
#
# Youngs Moduli (GPa) = 52.26364 114.01129 77.48741
#
# Poissons Ratio (x) = 0.33657 0.25820
# Poissons Ratio (y) = 0.15429 0.33924
# Poissons Ratio (z) = 0.17415 0.49913
#
# Static dielectric constant tensor:
#      x y z
#    x 3.103060 0.000000 0.124450 
#    y 0.000000 3.943310 0.000000 
#    z 0.124450 0.000000 3.703640 
# 
# 
# High freq. dielectric constant tensor:
#      x y z
#    x 1.702220 0.000000 0.004040 
#    y 0.000000 1.769140 0.000000 
#    z 0.004040 0.000000 1.751160 
# 
# From -- ./inp_files/67195.got.cif
#   From: 2010.06.25/outbox.cif.g09.slc.cpg/sg12_34_cif.got.tgz:67195.got - 2010.06.28 00:19:55.
