data_PCOD8083954
_publ_section_title
;
Structure prediction by ZEFSAII (Michael W. Deem and Ramdas Pophale) SiO2 
 PCOD8083954
Probable space group: C 2/M
;
_chemical_formula_sum "Si O2"
_cell_formula_units_Z 56
_cell_length_a 16.117680
_cell_length_b 23.604100
_cell_length_c 13.603366
_cell_angle_alpha 90.000000
_cell_angle_beta 145.811807
_cell_angle_gamma 90.000000
_cell_volume 2908.073524
_symmetry_space_group_name_H-M "C 2/M"
_symmetry_group_IT_number 12
_symmetry_cell_setting 'monoclinic'
loop_
_space_group_symop_operation_xyz
x,y,z
-x,y,-z
-x,-y,-z
x,-y,z
1/2+x,1/2+y,z
1/2-x,1/2+y,-z
1/2-x,1/2-y,-z
1/2+x,1/2-y,z
loop_
_atom_site_type_symbol
_atom_site_label
_atom_site_fract_x
_atom_site_fract_y
_atom_site_fract_z
Si Si1 0.004954 0.000000 0.671421
Si Si2 0.546344 0.816827 0.863294
Si Si3 0.765678 0.000000 0.263616
Si Si4 0.825329 0.382665 0.759972
Si Si5 0.339296 0.718288 0.671895
Si Si6 0.656879 0.686046 0.752816
Si Si7 0.924965 0.882921 0.632422
Si Si8 0.965638 0.300508 0.565968
O O1 0.166255 0.000000 0.779343
O O2 0.889580 0.000000 0.468691
O O3 0.980808 0.945502 0.718032
O O4 0.491210 0.865571 0.886284
O O5 0.471965 0.759371 0.832685
O O6 0.501965 0.830421 0.705812
O O7 0.722341 0.809563 0.041228
O O8 0.667454 0.942975 0.177488
O O9 0.744882 0.331979 0.741128
O O10 0.737265 0.387520 0.571839
O O11 0.250000 0.750000 0.500000
O O12 0.416923 0.659443 0.716496
O O13 0.210711 0.708598 0.624831
O O14 0.540605 0.637069 0.663012
O O15 0.562226 0.743157 0.652104
O O16 0.000000 0.336784 0.500000
#
# Coordination Sequence:
#
# PCOD8083954 Si02
#       8
#     4   8   4   8   8   8   8   8
#     4   9  18  30  49  84 103 135 191 220 235 313
#     4  11  22  34  47  79 111 138 179 222 264 314
#     4   9  18  30  52  77 108 143 188 211 237 311
#     4  11  20  35  52  78 111 150 177 209 256 317
#     4  10  18  34  53  72 102 136 179 221 261 315
#     4  12  21  30  52  77 110 145 171 209 270 317
#     4  11  18  33  55  74 108 142 178 211 256 306
#     4  11  21  35  54  72  97 143 184 218 264 315
#
# _framework density 19.256734999999999
#
# number of rings (size 3 to 8) (size 9 to 14) (size 15 to 20)
#    0.000    1.286    7.143    3.000    0.000    0.000 
#    0.000    2.143    0.000    0.000    0.000    2.000 
#    0.000    1.143    0.000    0.000    0.000    0.000 
#
# Total GULP energy -346868.345916 kJ/mol
# GULP energy per Si atom -12388.155211 kJ/mol
# Density = 1.921291 g / cm^3
# Si number density = 19.256735 Si / 1000 Ang^3
#
#
#
# Elastic Constant Matrix: (Units=GPa)
#
#
# Indices 1 2 3 4 5 6 
#
# 1 103.1468 34.4383 12.1688 0.0000 8.6003 0.0000
# 2 34.4383 108.5130 7.2938 0.0000 6.2611 0.0000
# 3 12.1688 7.2938 58.5801 0.0000 15.9984 0.0000
# 4 0.0000 0.0000 0.0000 8.9326 0.0000 2.3476
# 5 8.6003 6.2611 15.9984 0.0000 23.2691 0.0000
# 6 0.0000 0.0000 0.0000 2.3476 0.0000 31.4600
#
#
#
# Elastic Compliance Matrix: (Units=1/GPa)
#
#
# Indices 1 2 3 4 5 6 
#
# 1 0.011148 -0.003317 -0.001257 0.000000 -0.002363 0.000000
# 2 -0.003317 0.010364 -0.000215 0.000000 -0.001415 0.000000
# 3 -0.001257 -0.000215 0.021196 0.000000 -0.014050 0.000000
# 4 0.000000 0.000000 0.000000 0.114189 0.000000 -0.008521
# 5 -0.002363 -0.001415 -0.014050 0.000000 0.053890 0.000000
# 6 0.000000 0.000000 0.000000 -0.008521 0.000000 0.032422
#
#
# Mechanical properties :
#
#
# Convention : Reuss Voigt Hill
#
# Bulk Modulus (GPa) = 30.18484 42.00462 36.09473
# Shear Modulus (GPa) = 18.95152 27.15493 23.05323
#
# Velocity S-wave (km/s) = 3.14052 3.75927 3.46374
# Velocity P-wave (km/s) = 5.37210 6.37990 5.89757
#
# Compressibility (1/GPa) = 0.03312921
#
# Stress axis : x y z
#
# Youngs Moduli (GPa) = 89.70394 96.48509 47.17920
#
# Poissons Ratio (x) = 0.32005 0.05932
# Poissons Ratio (y) = 0.29755 0.01014
# Poissons Ratio (z) = 0.11279 0.02074
#
# Static dielectric constant tensor:
#      x y z
#    x 4.767150 0.000000 0.957980 
#    y 0.000000 3.521970 0.000000 
#    z 0.957980 0.000000 3.905350 
# 
# 
# High freq. dielectric constant tensor:
#      x y z
#    x 1.740110 0.000000 0.032920 
#    y 0.000000 1.719890 0.000000 
#    z 0.032920 0.000000 1.735980 
# 
# From -- ./inp_files/218311.got.cif
#   From: 2010.06.25/outbox.cif.g09.slc.cpg/sg12_110_cif.got.tgz:218311.got - 2010.06.28 00:19:55.
