data_PCOD8083298
_publ_section_title
;
Structure prediction by ZEFSAII (Michael W. Deem and Ramdas Pophale) SiO2 
 PCOD8083298
Probable space group: C 2/M
;
_chemical_formula_sum "Si O2"
_cell_formula_units_Z 64
_cell_length_a 20.547324
_cell_length_b 19.512680
_cell_length_c 9.510635
_cell_angle_alpha 90.000000
_cell_angle_beta 58.987263
_cell_angle_gamma 90.000000
_cell_volume 3268.054396
_symmetry_space_group_name_H-M "C 2/M"
_symmetry_group_IT_number 12
_symmetry_cell_setting 'monoclinic'
loop_
_space_group_symop_operation_xyz
x,y,z
-x,y,-z
-x,-y,-z
x,-y,z
1/2+x,1/2+y,z
1/2-x,1/2+y,-z
1/2-x,1/2-y,-z
1/2+x,1/2-y,z
loop_
_atom_site_type_symbol
_atom_site_label
_atom_site_fract_x
_atom_site_fract_y
_atom_site_fract_z
Si Si1 0.086990 0.573729 0.384720
Si Si2 0.838248 0.840693 0.236307
Si Si3 0.441852 0.576856 0.936548
Si Si4 0.968269 0.813438 0.314596
Si Si5 0.816199 0.690000 0.192046
Si Si6 0.654566 0.716207 0.348271
Si Si7 0.177351 0.348376 0.507876
Si Si8 0.408547 0.200983 0.821199
O O1 0.123852 0.500000 0.298845
O O2 0.124854 0.596516 0.489492
O O3 0.092769 0.631430 0.262637
O O4 0.000000 0.559661 0.500000
O O5 0.907364 0.820831 0.259181
O O6 0.809703 0.771876 0.195522
O O7 0.765836 0.871881 0.398961
O O8 0.863322 0.892903 0.085447
O O9 0.428430 0.500000 0.892718
O O10 0.471088 0.625056 0.775931
O O11 0.500000 0.574955 0.000000
O O12 0.924235 0.821207 0.514010
O O13 0.009367 0.738520 0.254954
O O14 0.728309 0.666331 0.262110
O O15 0.845944 0.655705 0.302334
O O16 0.875813 0.673442 0.004243
O O17 0.665367 0.773250 0.457055
O O18 0.644916 0.745620 0.202408
#
# Coordination Sequence:
#
# PCOD8083298 Si02
#       8
#     8   8   8   8   8   8   8   8
#     4  10  23  44  62  82 117 161 206 252 312 389
#     4  10  18  32  55  87 120 149 195 254 308 353
#     4   9  19  32  50  81 120 156 198 250 302 357
#     4  11  18  33  56  85 119 159 205 251 297 357
#     4  11  19  34  55  91 118 147 195 269 311 354
#     4  10  19  34  53  83 124 156 192 251 309 359
#     4  10  19  35  61  85 114 152 197 253 312 364
#     4  11  22  33  59  91 121 161 203 248 313 374
#
# _framework density 19.583518000000002
#
# number of rings (size 3 to 8) (size 9 to 14) (size 15 to 20)
#    0.000    1.750    3.750    3.000    0.000    0.500 
#    0.000    0.625    0.000    3.750    0.000    0.000 
#    0.000    0.000    0.000    0.000    0.000    0.000 
#
# Total GULP energy -396489.001667 kJ/mol
# GULP energy per Si atom -12390.281302 kJ/mol
# Density = 1.953894 g / cm^3
# Si number density = 19.583518 Si / 1000 Ang^3
#
#
#
# Elastic Constant Matrix: (Units=GPa)
#
#
# Indices 1 2 3 4 5 6 
#
# 1 92.1490 29.5876 40.7616 0.0000 -2.1673 0.0000
# 2 29.5876 101.8286 41.3642 0.0000 1.9724 0.0000
# 3 40.7616 41.3642 130.2929 0.0000 -4.2766 0.0000
# 4 0.0000 0.0000 0.0000 19.3505 0.0000 0.0790
# 5 -2.1673 1.9724 -4.2766 0.0000 25.5130 0.0000
# 6 0.0000 0.0000 0.0000 0.0790 0.0000 16.8944
#
#
#
# Elastic Compliance Matrix: (Units=1/GPa)
#
#
# Indices 1 2 3 4 5 6 
#
# 1 0.013125 -0.002492 -0.003290 0.000000 0.000756 0.000000
# 2 -0.002492 0.011803 -0.003021 0.000000 -0.001631 0.000000
# 3 -0.003290 -0.003021 0.009715 0.000000 0.001583 0.000000
# 4 0.000000 0.000000 0.000000 0.051679 0.000000 -0.000242
# 5 0.000756 -0.001631 0.001583 0.000000 0.039651 0.000000
# 6 0.000000 0.000000 0.000000 -0.000242 0.000000 0.059192
#
#
# Mechanical properties :
#
#
# Convention : Reuss Voigt Hill
#
# Bulk Modulus (GPa) = 58.69413 60.85526 59.77469
# Shear Modulus (GPa) = 23.98626 26.52205 25.25415
#
# Velocity S-wave (km/s) = 3.50354 3.68408 3.59494
# Velocity P-wave (km/s) = 6.81195 7.01704 6.91525
#
# Compressibility (1/GPa) = 0.01703748
#
# Stress axis : x y z
#
# Youngs Moduli (GPa) = 76.18878 84.72229 102.92885
#
# Poissons Ratio (x) = 0.21111 0.33867
# Poissons Ratio (y) = 0.18985 0.31096
# Poissons Ratio (z) = 0.25068 0.25596
#
# Static dielectric constant tensor:
#      x y z
#    x 3.692300 0.000000 -0.247130 
#    y 0.000000 3.767140 0.000000 
#    z -0.247130 0.000000 3.728380 
# 
# 
# High freq. dielectric constant tensor:
#      x y z
#    x 1.769080 0.000000 -0.011540 
#    y 0.000000 1.720310 0.000000 
#    z -0.011540 0.000000 1.760880 
# 
# From -- ./inp_files/89554.got.cif
#   From: 2010.06.25/outbox.cif.g09.slc.cpg/sg12_45_cif.got.tgz:89554.got - 2010.06.28 00:19:55.
