data_PCOD8083326
_publ_section_title
;
Structure prediction by ZEFSAII (Michael W. Deem and Ramdas Pophale) SiO2 
 PCOD8083326
Probable space group: C 2/M
;
_chemical_formula_sum "Si O2"
_cell_formula_units_Z 48
_cell_length_a 14.578008
_cell_length_b 11.064197
_cell_length_c 14.201036
_cell_angle_alpha 90.000000
_cell_angle_beta 79.526681
_cell_angle_gamma 90.000000
_cell_volume 2252.380035
_symmetry_space_group_name_H-M "C 2/M"
_symmetry_group_IT_number 12
_symmetry_cell_setting 'monoclinic'
loop_
_space_group_symop_operation_xyz
x,y,z
-x,y,-z
-x,-y,-z
x,-y,z
1/2+x,1/2+y,z
1/2-x,1/2+y,-z
1/2-x,1/2-y,-z
1/2+x,1/2-y,z
loop_
_atom_site_type_symbol
_atom_site_label
_atom_site_fract_x
_atom_site_fract_y
_atom_site_fract_z
Si Si1 0.797985 0.130767 0.600212
Si Si2 0.399757 0.863911 0.004057
Si Si3 0.178846 0.696611 0.786945
Si Si4 0.014195 0.638673 0.694924
Si Si5 0.673148 0.859834 0.174197
Si Si6 0.622599 0.135914 0.494901
O O1 0.756064 0.123540 0.713288
O O2 0.710771 0.139549 0.546815
O O3 0.866053 0.247791 0.576128
O O4 0.849480 0.000000 0.573737
O O5 0.341403 0.868723 0.110905
O O6 0.421090 0.000000 0.966889
O O7 0.500000 0.797628 0.000000
O O8 0.345886 0.801281 0.926160
O O9 0.085914 0.719577 0.742503
O O10 0.226784 0.823540 0.803274
O O11 0.034290 0.500000 0.721128
O O12 0.029477 0.653329 0.578518
O O13 0.909738 0.678969 0.738849
O O14 0.679739 0.000000 0.162815
O O15 0.619351 0.000000 0.446131
#
# Coordination Sequence:
#
# PCOD8083326 Si02
#       6
#     8   8   8   8   8   8
#     4   9  17  29  49  78 110 143 181 223 276 334
#     4  10  18  32  56  82 104 134 180 228 270 320
#     4  11  19  31  54  80 108 140 179 223 273 323
#     4   9  17  34  57  80 106 139 184 229 266 315
#     4  10  21  34  52  82 111 138 179 228 274 323
#     4   8  15  29  52  79 105 139 185 233 271 315
#
# _framework density 21.310790999999998
#
# number of rings (size 3 to 8) (size 9 to 14) (size 15 to 20)
#    0.000    2.500    1.667    3.000    0.000    0.667 
#    0.000    3.333    0.000   10.500    0.000    0.000 
#    0.000    0.000    0.000    0.000    0.000    0.000 
#
# Total GULP energy -297317.319203 kJ/mol
# GULP energy per Si atom -12388.221633 kJ/mol
# Density = 2.126229 g / cm^3
# Si number density = 21.310791 Si / 1000 Ang^3
#
#
#
# Elastic Constant Matrix: (Units=GPa)
#
#
# Indices 1 2 3 4 5 6 
#
# 1 62.7718 30.8632 24.4098 0.0000 -6.4792 0.0000
# 2 30.8632 93.0611 48.8409 0.0000 -15.3423 0.0000
# 3 24.4098 48.8409 123.6191 0.0000 -7.5673 0.0000
# 4 0.0000 0.0000 0.0000 23.1077 0.0000 -1.2563
# 5 -6.4792 -15.3423 -7.5673 0.0000 28.8890 0.0000
# 6 0.0000 0.0000 0.0000 -1.2563 0.0000 22.5989
#
#
#
# Elastic Compliance Matrix: (Units=1/GPa)
#
#
# Indices 1 2 3 4 5 6 
#
# 1 0.019316 -0.005381 -0.001624 0.000000 0.001049 0.000000
# 2 -0.005381 0.016120 -0.004935 0.000000 0.006061 0.000000
# 3 -0.001624 -0.004935 0.010343 0.000000 -0.000276 0.000000
# 4 0.000000 0.000000 0.000000 0.043407 0.000000 0.002413
# 5 0.001049 0.006061 -0.000276 0.000000 0.037997 0.000000
# 6 0.000000 0.000000 0.000000 0.002413 0.000000 0.044384
#
#
# Mechanical properties :
#
#
# Convention : Reuss Voigt Hill
#
# Bulk Modulus (GPa) = 45.66486 54.18664 49.92575
# Shear Modulus (GPa) = 24.66137 26.60833 25.63485
#
# Velocity S-wave (km/s) = 3.40549 3.53737 3.47205
# Velocity P-wave (km/s) = 6.07764 6.49353 6.28903
#
# Compressibility (1/GPa) = 0.02189868
#
# Stress axis : x y z
#
# Youngs Moduli (GPa) = 51.77016 62.03665 96.68379
#
# Poissons Ratio (x) = 0.33381 0.15702
# Poissons Ratio (y) = 0.27856 0.47715
# Poissons Ratio (z) = 0.08408 0.30616
#
# Static dielectric constant tensor:
#      x y z
#    x 3.921930 0.000000 0.039300 
#    y 0.000000 3.653330 0.000000 
#    z 0.039300 0.000000 4.163440 
# 
# 
# High freq. dielectric constant tensor:
#      x y z
#    x 1.832970 0.000000 0.008810 
#    y 0.000000 1.789720 0.000000 
#    z 0.008810 0.000000 1.855160 
# 
# From -- ./inp_files/212635.got.cif
#   From: 2010.06.25/outbox.cif.g09.slc.cpg/sg12_107_cif.got.tgz:212635.got - 2010.06.28 00:19:55.
