data_PCOD8083538
_publ_section_title
;
Structure prediction by ZEFSAII (Michael W. Deem and Ramdas Pophale) SiO2 
 PCOD8083538
Probable space group: C 2/M
;
_chemical_formula_sum "Si O2"
_cell_formula_units_Z 52
_cell_length_a 9.313852
_cell_length_b 17.538567
_cell_length_c 17.697642
_cell_angle_alpha 90.000000
_cell_angle_beta 80.099906
_cell_angle_gamma 90.000000
_cell_volume 2847.889607
_symmetry_space_group_name_H-M "C 2/M"
_symmetry_group_IT_number 12
_symmetry_cell_setting 'monoclinic'
loop_
_space_group_symop_operation_xyz
x,y,z
-x,y,-z
-x,-y,-z
x,-y,z
1/2+x,1/2+y,z
1/2-x,1/2+y,-z
1/2-x,1/2-y,-z
1/2+x,1/2-y,z
loop_
_atom_site_type_symbol
_atom_site_label
_atom_site_fract_x
_atom_site_fract_y
_atom_site_fract_z
Si Si1 0.649368 0.584537 0.730462
Si Si2 0.284078 0.290513 0.396470
Si Si3 0.131192 0.687133 0.734531
Si Si4 0.000000 0.752404 0.500000
Si Si5 0.110581 0.720696 0.055087
Si Si6 0.904667 0.586123 0.823820
Si Si7 0.083089 0.186901 0.198093
O O1 0.641499 0.500000 0.696806
O O2 0.708818 0.640256 0.661602
O O3 0.756759 0.589118 0.791049
O O4 0.487699 0.605050 0.776662
O O5 0.295404 0.205878 0.353960
O O6 0.125372 0.298447 0.449231
O O7 0.414208 0.302532 0.445313
O O8 0.249736 0.692167 0.790766
O O9 0.041759 0.608964 0.756544
O O10 0.011766 0.753260 0.746952
O O11 0.120779 0.644096 0.104491
O O12 0.066547 0.792345 0.111507
O O13 0.250000 0.750000 0.000000
O O14 0.000000 0.700715 0.000000
O O15 0.934000 0.500000 0.850825
#
# Coordination Sequence:
#
# PCOD8083538 Si02
#       7
#     8   8   8   4   8   8   8
#     4  10  20  36  56  74 101 137 175 220 259 294
#     4  10  18  33  52  78 102 132 170 205 256 306
#     4  10  18  33  57  76 101 134 172 222 252 292
#     4  10  20  30  52  78 106 130 162 210 250 312
#     4  11  20  33  53  75 104 139 169 208 263 316
#     4  10  21  36  53  77 104 135 178 221 258 300
#     4  10  19  33  53  79 101 130 180 219 252 300
#
# _framework density 18.259136000000002
#
# number of rings (size 3 to 8) (size 9 to 14) (size 15 to 20)
#    0.000    1.846    0.000    9.231    0.000    0.923 
#    0.000    1.538    0.000    6.462    0.000    0.000 
#    0.000    0.000    0.000    0.000    0.000    0.000 
#
# Total GULP energy -322098.803830 kJ/mol
# GULP energy per Si atom -12388.415532 kJ/mol
# Density = 1.821758 g / cm^3
# Si number density = 18.259136 Si / 1000 Ang^3
#
#
#
# Elastic Constant Matrix: (Units=GPa)
#
#
# Indices 1 2 3 4 5 6 
#
# 1 91.3937 43.0162 20.4184 0.0000 -2.2873 0.0000
# 2 43.0162 105.4467 46.8443 0.0000 -6.2050 0.0000
# 3 20.4184 46.8443 96.4126 0.0000 -5.5948 0.0000
# 4 0.0000 0.0000 0.0000 17.2695 0.0000 7.8153
# 5 -2.2873 -6.2050 -5.5948 0.0000 35.9461 0.0000
# 6 0.0000 0.0000 0.0000 7.8153 0.0000 9.7332
#
#
#
# Elastic Compliance Matrix: (Units=1/GPa)
#
#
# Indices 1 2 3 4 5 6 
#
# 1 0.013546 -0.005427 -0.000239 0.000000 -0.000112 0.000000
# 2 -0.005427 0.014318 -0.005736 0.000000 0.001233 0.000000
# 3 -0.000239 -0.005736 0.013271 0.000000 0.001060 0.000000
# 4 0.000000 0.000000 0.000000 0.090958 0.000000 -0.073035
# 5 -0.000112 0.001233 0.001060 0.000000 0.028190 0.000000
# 6 0.000000 0.000000 0.000000 -0.073035 0.000000 0.161385
#
#
# Mechanical properties :
#
#
# Convention : Reuss Voigt Hill
#
# Bulk Modulus (GPa) = 54.54665 57.09009 55.81837
# Shear Modulus (GPa) = 14.26198 24.78803 19.52500
#
# Velocity S-wave (km/s) = 2.79783 3.68852 3.27361
# Velocity P-wave (km/s) = 6.35418 7.03382 6.70262
#
# Compressibility (1/GPa) = 0.01833293
#
# Stress axis : x y z
#
# Youngs Moduli (GPa) = 73.82046 69.84226 75.35186
#
# Poissons Ratio (x) = 0.37901 0.01798
# Poissons Ratio (y) = 0.40060 0.43221
# Poissons Ratio (z) = 0.01762 0.40061
#
# Static dielectric constant tensor:
#      x y z
#    x 3.737710 0.000000 -0.208280 
#    y 0.000000 3.483100 0.000000 
#    z -0.208280 0.000000 3.615840 
# 
# 
# High freq. dielectric constant tensor:
#      x y z
#    x 1.727830 0.000000 0.000570 
#    y 0.000000 1.674300 0.000000 
#    z 0.000570 0.000000 1.710940 
# 
# From -- ./inp_files/256609.got.cif
#   From: 2010.06.25/outbox.cif.g09.slc.cpg/sg12_129_cif.got.tgz:256609.got - 2010.06.28 00:19:55.
