data_PCOD8083672
_publ_section_title
;
Structure prediction by ZEFSAII (Michael W. Deem and Ramdas Pophale) SiO2 
 PCOD8083672
Probable space group: C 2/M
;
_chemical_formula_sum "Si O2"
_cell_formula_units_Z 56
_cell_length_a 26.567927
_cell_length_b 13.323469
_cell_length_c 14.541211
_cell_angle_alpha 90.000000
_cell_angle_beta 35.816550
_cell_angle_gamma 90.000000
_cell_volume 3012.131226
_symmetry_space_group_name_H-M "C 2/M"
_symmetry_group_IT_number 12
_symmetry_cell_setting 'monoclinic'
loop_
_space_group_symop_operation_xyz
x,y,z
-x,y,-z
-x,-y,-z
x,-y,z
1/2+x,1/2+y,z
1/2-x,1/2+y,-z
1/2-x,1/2-y,-z
1/2+x,1/2-y,z
loop_
_atom_site_type_symbol
_atom_site_label
_atom_site_fract_x
_atom_site_fract_y
_atom_site_fract_z
Si Si1 0.494762 0.616764 0.617274
Si Si2 0.091325 0.232051 0.629313
Si Si3 0.650116 0.764788 0.160794
Si Si4 0.524337 0.888195 0.253549
Si Si5 0.380584 0.109195 0.622076
Si Si6 0.232981 0.386972 0.374820
Si Si7 0.082992 0.883422 0.826950
O O1 0.500000 0.631505 0.500000
O O2 0.496324 0.500000 0.641873
O O3 0.570810 0.672848 0.563007
O O4 0.402622 0.663496 0.784117
O O5 0.179374 0.296171 0.499338
O O6 0.096494 0.155687 0.704505
O O7 0.015493 0.312853 0.762569
O O8 0.620616 0.853936 0.135803
O O9 0.625656 0.799209 0.299325
O O10 0.750000 0.750000 0.000000
O O11 0.463708 0.875982 0.433944
O O12 0.524842 0.000000 0.213020
O O13 0.292548 0.109717 0.694226
O O14 0.388820 0.000000 0.659846
O O15 0.213932 0.500000 0.445054
O O16 0.333232 0.360410 0.235744
O O17 0.066324 0.000000 0.839873
O O18 0.000000 0.834240 0.000000
#
# Coordination Sequence:
#
# PCOD8083672 Si02
#       7
#     8   8   8   8   8   8   8
#     4  10  21  36  52  72 102 138 174 209 246 297
#     4  10  18  33  56  77  99 131 171 211 254 298
#     4  11  21  30  46  74 105 136 167 202 250 307
#     4   9  18  33  54  76  96 124 166 215 256 293
#     4   9  17  32  54  75  96 126 167 214 256 293
#     4   9  18  32  54  80 100 124 164 215 259 297
#     4  10  21  35  51  76 108 137 167 205 251 303
#
# _framework density 18.591487999999998
#
# number of rings (size 3 to 8) (size 9 to 14) (size 15 to 20)
#    0.000    2.286    0.000    5.571    0.000    4.571 
#    0.000    1.429    0.000    2.143    0.000    4.000 
#    0.000    0.000    0.000    0.000    0.000    0.000 
#
# Total GULP energy -346888.255123 kJ/mol
# GULP energy per Si atom -12388.866254 kJ/mol
# Density = 1.854917 g / cm^3
# Si number density = 18.591488 Si / 1000 Ang^3
#
#
#
# Elastic Constant Matrix: (Units=GPa)
#
#
# Indices 1 2 3 4 5 6 
#
# 1 78.8112 39.9121 36.2339 0.0000 -25.7348 0.0000
# 2 39.9121 100.7937 32.4184 0.0000 -13.2903 0.0000
# 3 36.2339 32.4184 69.1611 0.0000 -31.0416 0.0000
# 4 0.0000 0.0000 0.0000 19.6268 0.0000 -4.3252
# 5 -25.7348 -13.2903 -31.0416 0.0000 31.9265 0.0000
# 6 0.0000 0.0000 0.0000 -4.3252 0.0000 26.3493
#
#
#
# Elastic Compliance Matrix: (Units=1/GPa)
#
#
# Indices 1 2 3 4 5 6 
#
# 1 0.020690 -0.005708 -0.003096 0.000000 0.011290 0.000000
# 2 -0.005708 0.013269 -0.004995 0.000000 -0.003934 0.000000
# 3 -0.003096 -0.004995 0.029043 0.000000 0.023663 0.000000
# 4 0.000000 0.000000 0.000000 0.052863 0.000000 0.008677
# 5 0.011290 -0.003934 0.023663 0.000000 0.061792 0.000000
# 6 0.000000 0.000000 0.000000 0.008677 0.000000 0.039376
#
#
# Mechanical properties :
#
#
# Convention : Reuss Voigt Hill
#
# Bulk Modulus (GPa) = 28.24584 51.76609 40.00597
# Shear Modulus (GPa) = 19.49824 24.92729 22.21276
#
# Velocity S-wave (km/s) = 3.24199 3.66565 3.46031
# Velocity P-wave (km/s) = 5.40739 6.76908 6.12619
#
# Compressibility (1/GPa) = 0.03540344
#
# Stress axis : x y z
#
# Youngs Moduli (GPa) = 48.33363 75.36163 34.43144
#
# Poissons Ratio (x) = 0.43017 0.10661
# Poissons Ratio (y) = 0.27589 0.17198
# Poissons Ratio (z) = 0.14966 0.37643
#
# Static dielectric constant tensor:
#      x y z
#    x 3.507920 0.000000 -0.285760 
#    y 0.000000 3.700170 0.000000 
#    z -0.285760 0.000000 3.089070 
# 
# 
# High freq. dielectric constant tensor:
#      x y z
#    x 1.723590 0.000000 -0.028620 
#    y 0.000000 1.736300 0.000000 
#    z -0.028620 0.000000 1.676140 
# 
# From -- ./inp_files/246516.got.cif
#   From: 2010.06.25/outbox.cif.g09.slc.cpg/sg12_124_cif.got.tgz:246516.got - 2010.06.28 00:19:55.
