data_PCOD8083489
_publ_section_title
;
Structure prediction by ZEFSAII (Michael W. Deem and Ramdas Pophale) SiO2 
 PCOD8083489
Probable space group: C 2/M
;
_chemical_formula_sum "Si O2"
_cell_formula_units_Z 48
_cell_length_a 20.387441
_cell_length_b 15.223492
_cell_length_c 12.969303
_cell_angle_alpha 90.000000
_cell_angle_beta 34.158795
_cell_angle_gamma 90.000000
_cell_volume 2260.135342
_symmetry_space_group_name_H-M "C 2/M"
_symmetry_group_IT_number 12
_symmetry_cell_setting 'monoclinic'
loop_
_space_group_symop_operation_xyz
x,y,z
-x,y,-z
-x,-y,-z
x,-y,z
1/2+x,1/2+y,z
1/2-x,1/2+y,-z
1/2-x,1/2-y,-z
1/2+x,1/2-y,z
loop_
_atom_site_type_symbol
_atom_site_label
_atom_site_fract_x
_atom_site_fract_y
_atom_site_fract_z
Si Si1 0.901503 0.671923 0.211734
Si Si2 0.771091 0.000000 0.054811
Si Si3 0.032646 0.175906 0.739994
Si Si4 0.178662 0.828485 0.362000
Si Si5 0.276637 0.500000 0.815234
Si Si6 0.240152 0.805586 0.908691
Si Si7 0.505535 0.000000 0.116057
Si Si8 0.504879 0.500000 0.871452
O O1 0.888178 0.751996 0.306990
O O2 0.781316 0.655065 0.310062
O O3 0.937707 0.588411 0.236701
O O4 0.000000 0.694057 0.000000
O O5 0.704224 0.094771 0.155086
O O6 0.872557 0.000000 0.005526
O O7 0.820912 0.000000 0.874611
O O8 0.059375 0.180599 0.582744
O O9 0.896623 0.190444 0.938776
O O10 0.072739 0.083945 0.738016
O O11 0.167813 0.913996 0.306220
O O12 0.195651 0.742692 0.269238
O O13 0.135719 0.500000 0.992280
O O14 0.250000 0.750000 0.000000
O O15 0.500000 0.000000 0.000000
O O16 0.500000 0.500000 0.000000
#
# Coordination Sequence:
#
# PCOD8083489 Si02
#       8
#     8   4   8   8   4   8   4   4
#     4  11  19  38  61  92 127 163 211 258 316 375
#     4  10  24  40  64  93 120 163 216 249 326 391
#     4  11  24  40  62  97 124 165 219 257 321 384
#     4  12  23  38  66  94 128 164 210 275 314 374
#     4  12  19  38  63  94 124 164 212 272 318 373
#     4  11  23  43  64  89 124 167 208 260 326 388
#     4  10  18  32  63  90 121 162 209 256 311 370
#     4  10  23  44  65  88 131 169 203 266 326 392
#
# _framework density 21.237666999999998
#
# number of rings (size 3 to 8) (size 9 to 14) (size 15 to 20)
#    0.000    1.000    6.667    1.500    2.333    0.667 
#    0.000    2.500    0.000    1.000    0.000    0.000 
#    0.000    0.000    0.000    0.000    0.000    0.000 
#
# Total GULP energy -297522.578542 kJ/mol
# GULP energy per Si atom -12396.774106 kJ/mol
# Density = 2.118933 g / cm^3
# Si number density = 21.237667 Si / 1000 Ang^3
#
#
#
# Elastic Constant Matrix: (Units=GPa)
#
#
# Indices 1 2 3 4 5 6 
#
# 1 67.4675 24.1735 14.9210 0.0000 24.0730 0.0000
# 2 24.1735 205.2506 55.5512 0.0000 31.6475 0.0000
# 3 14.9210 55.5512 89.5213 0.0000 31.6681 0.0000
# 4 0.0000 0.0000 0.0000 19.2887 0.0000 12.0865
# 5 24.0730 31.6475 31.6681 0.0000 31.4733 0.0000
# 6 0.0000 0.0000 0.0000 12.0865 0.0000 32.9789
#
#
#
# Elastic Compliance Matrix: (Units=1/GPa)
#
#
# Indices 1 2 3 4 5 6 
#
# 1 0.021067 -0.000488 0.003599 0.000000 -0.019244 0.000000
# 2 -0.000488 0.006121 -0.002596 0.000000 -0.003170 0.000000
# 3 0.003599 -0.002596 0.018992 0.000000 -0.019252 0.000000
# 4 0.000000 0.000000 0.000000 0.067299 0.000000 -0.024664
# 5 -0.019244 -0.003170 -0.019252 0.000000 0.069051 0.000000
# 6 0.000000 0.000000 0.000000 -0.024664 0.000000 0.039362
#
#
# Mechanical properties :
#
#
# Convention : Reuss Voigt Hill
#
# Bulk Modulus (GPa) = 21.18147 61.28121 41.23134
# Shear Modulus (GPa) = 21.13295 34.58776 27.86035
#
# Velocity S-wave (km/s) = 3.15789 4.03998 3.62586
# Velocity P-wave (km/s) = 4.82614 7.11895 6.08157
#
# Compressibility (1/GPa) = 0.04721109
#
# Stress axis : x y z
#
# Youngs Moduli (GPa) = 47.46665 163.37728 52.65462
#
# Poissons Ratio (x) = 0.07973 -0.18951
# Poissons Ratio (y) = 0.02317 0.13667
# Poissons Ratio (z) = -0.17084 0.42405
#
# Static dielectric constant tensor:
#      x y z
#    x 3.730780 0.000000 0.104010 
#    y 0.000000 4.813480 0.000000 
#    z 0.104010 0.000000 3.656880 
# 
# 
# High freq. dielectric constant tensor:
#      x y z
#    x 1.829420 0.000000 0.012630 
#    y 0.000000 1.860960 0.000000 
#    z 0.012630 0.000000 1.797290 
# 
# From -- ./inp_files/167618.got.cif
#   From: 2010.06.25/outbox.cif.g09.slc.cpg/sg12_84_cif.got.tgz:167618.got - 2010.06.28 00:19:55.
