data_PCOD8083004
_publ_section_title
;
Structure prediction by ZEFSAII (Michael W. Deem and Ramdas Pophale) SiO2 
 PCOD8083004
Probable space group: C 2/M
;
_chemical_formula_sum "Si O2"
_cell_formula_units_Z 56
_cell_length_a 28.978642
_cell_length_b 8.838298
_cell_length_c 14.382973
_cell_angle_alpha 90.000000
_cell_angle_beta 120.664128
_cell_angle_gamma 90.000000
_cell_volume 3168.695511
_symmetry_space_group_name_H-M "C 2/M"
_symmetry_group_IT_number 12
_symmetry_cell_setting 'monoclinic'
loop_
_space_group_symop_operation_xyz
x,y,z
-x,y,-z
-x,-y,-z
x,-y,z
1/2+x,1/2+y,z
1/2-x,1/2+y,-z
1/2-x,1/2-y,-z
1/2+x,1/2-y,z
loop_
_atom_site_type_symbol
_atom_site_label
_atom_site_fract_x
_atom_site_fract_y
_atom_site_fract_z
Si Si1 0.469233 0.824982 0.736109
Si Si2 0.424730 0.668449 0.172106
Si Si3 0.257414 0.180629 0.109380
Si Si4 0.148357 0.172345 0.070959
Si Si5 0.052232 0.679028 0.495850
Si Si6 0.444533 0.320106 0.896174
Si Si7 0.863706 0.825903 0.294563
O O1 0.532229 0.793096 0.812649
O O2 0.452335 0.770851 0.616167
O O3 0.437569 0.733928 0.782991
O O4 0.457548 0.000000 0.739035
O O5 0.449373 0.500000 0.181953
O O6 0.407609 0.692402 0.259673
O O7 0.372749 0.689386 0.055634
O O8 0.208729 0.238545 0.126956
O O9 0.311176 0.231771 0.215493
O O10 0.256394 0.000000 0.097660
O O11 0.250000 0.250000 0.000000
O O12 0.106578 0.250036 0.099984
O O13 0.152298 0.000000 0.106671
O O14 0.057994 0.500000 0.512831
O O15 0.107133 0.757468 0.585523
O O16 0.000000 0.735444 0.500000
O O17 0.444304 0.500000 0.900526
O O18 0.500000 0.260090 0.000000
O O19 0.847699 0.000000 0.294576
#
# Coordination Sequence:
#
# PCOD8083004 Si02
#       7
#     8   8   8   8   8   8   8
#     4  11  22  34  51  79 112 141 176 220 269 319
#     4  10  18  32  52  76 109 143 180 215 254 317
#     4  11  21  35  55  80 112 146 181 221 268 321
#     4   9  18  34  53  76 107 145 182 213 256 319
#     4  10  21  37  54  76 109 146 178 216 273 330
#     4  10  19  34  56  77 104 144 181 217 262 316
#     4  11  22  35  54  81 110 142 183 225 266 317
#
# _framework density 17.672889000000001
#
# number of rings (size 3 to 8) (size 9 to 14) (size 15 to 20)
#    0.000    1.714    4.286    1.286    0.000    2.286 
#    0.000    1.429    0.000    0.857    0.000    0.000 
#    0.000    0.000    0.000    0.000    0.000    0.000 
#
# Total GULP energy -347086.117927 kJ/mol
# GULP energy per Si atom -12395.932783 kJ/mol
# Density = 1.763266 g / cm^3
# Si number density = 17.672889 Si / 1000 Ang^3
#
#
#
# Elastic Constant Matrix: (Units=GPa)
#
#
# Indices 1 2 3 4 5 6 
#
# 1 110.7820 37.5275 63.6603 0.0000 2.0706 0.0000
# 2 37.5275 41.2385 26.6794 0.0000 1.2859 0.0000
# 3 63.6603 26.6794 92.6201 0.0000 -0.8722 0.0000
# 4 0.0000 0.0000 0.0000 28.9120 0.0000 -1.0038
# 5 2.0706 1.2859 -0.8722 0.0000 30.7945 0.0000
# 6 0.0000 0.0000 0.0000 -1.0038 0.0000 22.5375
#
#
#
# Elastic Compliance Matrix: (Units=1/GPa)
#
#
# Indices 1 2 3 4 5 6 
#
# 1 0.017874 -0.010175 -0.009364 0.000000 -0.001042 0.000000
# 2 -0.010175 0.035664 -0.003288 0.000000 -0.000898 0.000000
# 3 -0.009364 -0.003288 0.018192 0.000000 0.001282 0.000000
# 4 0.000000 0.000000 0.000000 0.034641 0.000000 0.001543
# 5 -0.001042 -0.000898 0.001282 0.000000 0.032617 0.000000
# 6 0.000000 0.000000 0.000000 0.001543 0.000000 0.044439
#
#
# Mechanical properties :
#
#
# Convention : Reuss Voigt Hill
#
# Bulk Modulus (GPa) = 38.34979 55.59723 46.97351
# Shear Modulus (GPa) = 21.02839 24.23370 22.63104
#
# Velocity S-wave (km/s) = 3.45319 3.70704 3.58236
# Velocity P-wave (km/s) = 6.13565 7.06047 6.61424
#
# Compressibility (1/GPa) = 0.02607576
#
# Stress axis : x y z
#
# Youngs Moduli (GPa) = 55.94690 28.03984 54.96838
#
# Poissons Ratio (x) = 0.28530 0.51474
# Poissons Ratio (y) = 0.56925 0.18073
# Poissons Ratio (z) = 0.52390 0.09219
#
# Static dielectric constant tensor:
#      x y z
#    x 3.458700 0.000000 -0.048150 
#    y 0.000000 3.142890 0.000000 
#    z -0.048150 0.000000 3.222710 
# 
# 
# High freq. dielectric constant tensor:
#      x y z
#    x 1.679100 0.000000 -0.002270 
#    y 0.000000 1.669740 0.000000 
#    z -0.002270 0.000000 1.672450 
# 
# From -- ./inp_files/187695.got.cif
#   From: 2010.06.25/outbox.cif.g09.slc.cpg/sg12_94_cif.got.tgz:187695.got - 2010.06.28 00:19:55.
