data_PCOD8083861
_publ_section_title
;
Structure prediction by ZEFSAII (Michael W. Deem and Ramdas Pophale) SiO2 
 PCOD8083861
Probable space group: C 2/M
;
_chemical_formula_sum "Si O2"
_cell_formula_units_Z 64
_cell_length_a 11.654844
_cell_length_b 17.940986
_cell_length_c 20.670486
_cell_angle_alpha 90.000000
_cell_angle_beta 128.496030
_cell_angle_gamma 90.000000
_cell_volume 3382.764503
_symmetry_space_group_name_H-M "C 2/M"
_symmetry_group_IT_number 12
_symmetry_cell_setting 'monoclinic'
loop_
_space_group_symop_operation_xyz
x,y,z
-x,y,-z
-x,-y,-z
x,-y,z
1/2+x,1/2+y,z
1/2-x,1/2+y,-z
1/2-x,1/2-y,-z
1/2+x,1/2-y,z
loop_
_atom_site_type_symbol
_atom_site_label
_atom_site_fract_x
_atom_site_fract_y
_atom_site_fract_z
Si Si1 0.869986 0.916441 0.266974
Si Si2 0.630936 0.319240 0.374561
Si Si3 0.615573 0.914634 0.484353
Si Si4 0.404254 0.087708 0.027366
Si Si5 0.091173 0.085682 0.867785
Si Si6 0.831931 0.812880 0.760412
Si Si7 0.926572 0.644411 0.794547
Si Si8 0.002475 0.660731 0.677720
O O1 0.860363 0.896648 0.188219
O O2 0.711069 0.908645 0.241924
O O3 0.981228 0.860906 0.341433
O O4 0.927299 0.000000 0.297757
O O5 0.755664 0.353485 0.464310
O O6 0.677193 0.337445 0.317466
O O7 0.603172 0.231465 0.374369
O O8 0.500000 0.899235 0.500000
O O9 0.536564 0.902578 0.387885
O O10 0.674148 0.000000 0.508388
O O11 0.448497 0.126673 0.109644
O O12 0.431031 0.000000 0.042759
O O13 0.500000 0.117785 0.000000
O O14 0.232599 0.107148 0.959739
O O15 0.949094 0.133908 0.838007
O O16 0.047100 0.000000 0.861880
O O17 0.886827 0.729949 0.788578
O O18 0.672721 0.818184 0.735613
O O19 0.979116 0.627438 0.740557
#
# Coordination Sequence:
#
# PCOD8083861 Si02
#       8
#     8   8   8   8   8   8   8   8
#     4  10  18  33  59  87 114 148 195 245 291 338
#     4  10  20  39  63  85 113 155 199 243 283 347
#     4  11  23  39  61  89 118 151 197 243 286 348
#     4  10  19  35  59  87 118 155 200 244 288 344
#     4   9  19  35  59  85 111 151 202 247 281 333
#     4  10  21  38  58  85 119 153 202 238 290 353
#     4  11  22  35  58  87 122 156 189 243 304 350
#     4  11  23  40  59  85 121 158 188 242 303 353
#
# _framework density 18.919438
#
# number of rings (size 3 to 8) (size 9 to 14) (size 15 to 20)
#    0.000    1.750    3.750    1.125    0.000    2.500 
#    0.000    1.250    0.000    3.000    0.000    0.000 
#    0.000    0.000    0.000    0.000    0.000    0.000 
#
# Total GULP energy -396840.322269 kJ/mol
# GULP energy per Si atom -12401.260071 kJ/mol
# Density = 1.887638 g / cm^3
# Si number density = 18.919438 Si / 1000 Ang^3
#
#
#
# Elastic Constant Matrix: (Units=GPa)
#
#
# Indices 1 2 3 4 5 6 
#
# 1 89.0392 23.6139 46.2332 0.0000 1.6770 0.0000
# 2 23.6139 56.9790 37.7442 0.0000 0.1863 0.0000
# 3 46.2332 37.7442 118.6791 0.0000 -0.7248 0.0000
# 4 0.0000 0.0000 0.0000 35.2854 0.0000 5.0071
# 5 1.6770 0.1863 -0.7248 0.0000 27.0363 0.0000
# 6 0.0000 0.0000 0.0000 5.0071 0.0000 28.6585
#
#
#
# Elastic Compliance Matrix: (Units=1/GPa)
#
#
# Indices 1 2 3 4 5 6 
#
# 1 0.014465 -0.002856 -0.004733 0.000000 -0.001004 0.000000
# 2 -0.002856 0.022802 -0.006140 0.000000 -0.000145 0.000000
# 3 -0.004733 -0.006140 0.012227 0.000000 0.000664 0.000000
# 4 0.000000 0.000000 0.000000 0.029061 0.000000 -0.005077
# 5 -0.001004 -0.000145 0.000664 0.000000 0.037068 0.000000
# 6 0.000000 0.000000 0.000000 -0.005077 0.000000 0.035781
#
#
# Mechanical properties :
#
#
# Convention : Reuss Voigt Hill
#
# Bulk Modulus (GPa) = 45.38187 53.31999 49.35093
# Shear Modulus (GPa) = 26.85191 28.66977 27.76084
#
# Velocity S-wave (km/s) = 3.77142 3.89699 3.83471
# Velocity P-wave (km/s) = 6.55772 6.96366 6.76374
#
# Compressibility (1/GPa) = 0.02203523
#
# Stress axis : x y z
#
# Youngs Moduli (GPa) = 69.13282 43.85616 81.78913
#
# Poissons Ratio (x) = 0.12527 0.38709
# Poissons Ratio (y) = 0.19747 0.50218
# Poissons Ratio (z) = 0.32719 0.26927
#
# Static dielectric constant tensor:
#      x y z
#    x 3.428760 0.000000 0.100620 
#    y 0.000000 3.411160 0.000000 
#    z 0.100620 0.000000 3.482110 
# 
# 
# High freq. dielectric constant tensor:
#      x y z
#    x 1.725220 0.000000 0.014520 
#    y 0.000000 1.735540 0.000000 
#    z 0.014520 0.000000 1.732080 
# 
# From -- ./inp_files/306243.got.cif
#   From: 2010.06.25/outbox.cif.g09.slc.cpg/sg12_154_cif.got.tgz:306243.got - 2010.06.28 00:19:55.
