data_PCOD8083579
_publ_section_title
;
Structure prediction by ZEFSAII (Michael W. Deem and Ramdas Pophale) SiO2 
 PCOD8083579
Probable space group: C 2/M
;
_chemical_formula_sum "Si O2"
_cell_formula_units_Z 64
_cell_length_a 20.230361
_cell_length_b 9.209097
_cell_length_c 21.894931
_cell_angle_alpha 90.000000
_cell_angle_beta 119.514552
_cell_angle_gamma 90.000000
_cell_volume 3549.756902
_symmetry_space_group_name_H-M "C 2/M"
_symmetry_group_IT_number 12
_symmetry_cell_setting 'monoclinic'
loop_
_space_group_symop_operation_xyz
x,y,z
-x,y,-z
-x,-y,-z
x,-y,z
1/2+x,1/2+y,z
1/2-x,1/2+y,-z
1/2-x,1/2-y,-z
1/2+x,1/2-y,z
loop_
_atom_site_type_symbol
_atom_site_label
_atom_site_fract_x
_atom_site_fract_y
_atom_site_fract_z
Si Si1 0.517180 0.671748 0.264824
Si Si2 0.726308 0.332114 0.705560
Si Si3 0.769174 0.330242 0.946663
Si Si4 0.121024 0.171702 0.201109
Si Si5 0.649481 0.327752 0.792659
Si Si6 0.711210 0.665786 0.564612
Si Si7 0.916196 0.331937 0.939184
Si Si8 0.357045 0.330237 0.588581
O O1 0.510490 0.500000 0.267156
O O2 0.554397 0.716597 0.217526
O O3 0.432892 0.740531 0.229558
O O4 0.566958 0.732140 0.344748
O O5 0.748971 0.500000 0.726741
O O6 0.801974 0.238096 0.738097
O O7 0.672052 0.276390 0.734937
O O8 0.682108 0.311639 0.620840
O O9 0.756802 0.500000 0.952068
O O10 0.711900 0.269876 0.868843
O O11 0.855454 0.297013 0.964894
O O12 0.750000 0.250000 0.000000
O O13 0.101326 0.233283 0.126339
O O14 0.130348 0.000000 0.200697
O O15 0.646587 0.500000 0.794725
O O16 0.736918 0.500000 0.565871
O O17 0.644760 0.704605 0.485233
O O18 0.784018 0.763979 0.587545
O O19 0.909654 0.500000 0.916675
O O20 0.000000 0.292433 0.000000
O O21 0.352891 0.500000 0.600132
#
# Coordination Sequence:
#
# PCOD8083579 Si02
#       8
#     8   8   8   8   8   8   8   8
#     4   9  18  31  49  75 105 136 167 209 260 304
#     4  10  18  33  54  75 101 136 176 211 252 305
#     4  10  21  37  56  76 101 136 170 203 251 306
#     4  11  21  33  54  80 104 132 173 216 256 297
#     4   9  18  34  53  71 100 138 169 202 254 313
#     4   9  17  27  47  75 100 132 171 210 253 302
#     4  10  22  40  58  78 106 138 170 209 259 306
#     4   9  16  29  46  71 105 133 165 210 257 302
#
# _framework density 18.029402999999999
#
# number of rings (size 3 to 8) (size 9 to 14) (size 15 to 20)
#    0.000    2.375    2.500    0.375    1.750    0.750 
#    0.000    0.625    0.000    6.750    0.000    0.000 
#    0.000    5.000    0.000    0.000    0.000    0.000 
#
# Total GULP energy -396673.082619 kJ/mol
# GULP energy per Si atom -12396.033832 kJ/mol
# Density = 1.798837 g / cm^3
# Si number density = 18.029403 Si / 1000 Ang^3
#
#
#
# Elastic Constant Matrix: (Units=GPa)
#
#
# Indices 1 2 3 4 5 6 
#
# 1 127.6834 28.9758 64.7836 0.0000 -7.3811 0.0000
# 2 28.9758 37.0564 31.1435 0.0000 -6.6720 0.0000
# 3 64.7836 31.1435 128.8112 0.0000 -17.7987 0.0000
# 4 0.0000 0.0000 0.0000 21.8393 0.0000 -2.3736
# 5 -7.3811 -6.6720 -17.7987 0.0000 33.7483 0.0000
# 6 0.0000 0.0000 0.0000 -2.3736 0.0000 18.5708
#
#
#
# Elastic Compliance Matrix: (Units=1/GPa)
#
#
# Indices 1 2 3 4 5 6 
#
# 1 0.011252 -0.005150 -0.004546 0.000000 -0.000955 0.000000
# 2 -0.005150 0.036432 -0.005802 0.000000 0.003016 0.000000
# 3 -0.004546 -0.005802 0.012033 0.000000 0.004205 0.000000
# 4 0.000000 0.000000 0.000000 0.046434 0.000000 0.005935
# 5 -0.000955 0.003016 0.004205 0.000000 0.032236 0.000000
# 6 0.000000 0.000000 0.000000 0.005935 0.000000 0.054607
#
#
# Mechanical properties :
#
#
# Convention : Reuss Voigt Hill
#
# Bulk Modulus (GPa) = 34.81570 60.37297 47.59433
# Shear Modulus (GPa) = 21.40764 26.07489 23.74127
#
# Velocity S-wave (km/s) = 3.44957 3.80708 3.63272
# Velocity P-wave (km/s) = 5.93451 7.27211 6.63710
#
# Compressibility (1/GPa) = 0.02872268
#
# Stress axis : x y z
#
# Youngs Moduli (GPa) = 88.87535 27.44874 83.10321
#
# Poissons Ratio (x) = 0.14135 0.37776
# Poissons Ratio (y) = 0.45768 0.48213
# Poissons Ratio (z) = 0.40400 0.15925
#
# Static dielectric constant tensor:
#      x y z
#    x 3.480920 0.000000 0.075800 
#    y 0.000000 3.090390 0.000000 
#    z 0.075800 0.000000 3.700240 
# 
# 
# High freq. dielectric constant tensor:
#      x y z
#    x 1.687300 0.000000 -0.007010 
#    y 0.000000 1.669200 0.000000 
#    z -0.007010 0.000000 1.715260 
# 
# From -- ./inp_files/320050.got.cif
#   From: 2010.06.25/outbox.cif.g09.slc.cpg/sg12_161_cif.got.tgz:320050.got - 2010.06.28 00:19:55.
