data_PCOD8083162
_publ_section_title
;
Structure prediction by ZEFSAII (Michael W. Deem and Ramdas Pophale) SiO2 
 PCOD8083162
Probable space group: C 2/M
;
_chemical_formula_sum "Si O2"
_cell_formula_units_Z 64
_cell_length_a 10.556908
_cell_length_b 13.923914
_cell_length_c 23.568132
_cell_angle_alpha 90.000000
_cell_angle_beta 114.060680
_cell_angle_gamma 90.000000
_cell_volume 3163.357826
_symmetry_space_group_name_H-M "C 2/M"
_symmetry_group_IT_number 12
_symmetry_cell_setting 'monoclinic'
loop_
_space_group_symop_operation_xyz
x,y,z
-x,y,-z
-x,-y,-z
x,-y,z
1/2+x,1/2+y,z
1/2-x,1/2+y,-z
1/2-x,1/2-y,-z
1/2+x,1/2-y,z
loop_
_atom_site_type_symbol
_atom_site_label
_atom_site_fract_x
_atom_site_fract_y
_atom_site_fract_z
Si Si1 0.595030 0.111872 0.634674
Si Si2 0.587413 0.259620 0.460011
Si Si3 0.895764 0.889287 0.640820
Si Si4 0.230480 0.895953 0.080815
Si Si5 0.157702 0.386598 0.019724
Si Si6 0.440410 0.765434 0.262771
Si Si7 0.022826 0.395249 0.185671
Si Si8 0.802569 0.716012 0.866818
O O1 0.467423 0.159983 0.577430
O O2 0.731830 0.121861 0.621363
O O3 0.619617 0.168869 0.697667
O O4 0.560241 0.000000 0.640287
O O5 0.500000 0.284156 0.500000
O O6 0.750000 0.250000 0.500000
O O7 0.564594 0.348909 0.413630
O O8 0.978993 0.828903 0.702607
O O9 0.942222 0.000000 0.653426
O O10 0.361309 0.909766 0.145763
O O11 0.137915 0.817402 0.097157
O O12 0.154270 0.000000 0.061848
O O13 0.275438 0.854607 0.027772
O O14 0.158610 0.500000 0.022791
O O15 0.250655 0.344341 0.088246
O O16 0.000000 0.348215 0.000000
O O17 0.547673 0.831527 0.246479
O O18 0.318550 0.727945 0.200706
O O19 0.094630 0.500000 0.206489
O O20 0.074649 0.341971 0.139337
#
# Coordination Sequence:
#
# PCOD8083162 Si02
#       8
#     8   8   8   8   8   8   8   8
#     4  10  21  40  66  89 119 168 210 243 293 362
#     4  11  22  40  67  99 133 160 203 257 299 353
#     4  10  22  40  61  87 126 170 205 244 300 360
#     4   9  19  34  52  77 105 138 183 233 290 364
#     4  10  18  32  54  79 106 140 187 241 301 369
#     4  10  22  37  56  85 117 151 200 256 300 346
#     4  10  19  34  55  80 108 142 189 243 295 354
#     4  11  20  32  56  82 108 145 189 244 306 358
#
# _framework density 20.231666000000001
#
# number of rings (size 3 to 8) (size 9 to 14) (size 15 to 20)
#    0.000    1.875    2.500    1.875    0.000    2.500 
#    0.000    0.625    0.000    1.875    0.000    0.000 
#    0.000    0.000    0.000    0.000    0.000    0.000 
#
# Total GULP energy -396629.381176 kJ/mol
# GULP energy per Si atom -12394.668162 kJ/mol
# Density = 2.018562 g / cm^3
# Si number density = 20.231666 Si / 1000 Ang^3
#
#
#
# Elastic Constant Matrix: (Units=GPa)
#
#
# Indices 1 2 3 4 5 6 
#
# 1 57.1844 46.5838 31.6558 0.0000 -12.2226 0.0000
# 2 46.5838 136.1087 53.5319 0.0000 -16.7299 0.0000
# 3 31.6558 53.5319 122.6326 0.0000 -12.6130 0.0000
# 4 0.0000 0.0000 0.0000 29.0778 0.0000 -3.1289
# 5 -12.2226 -16.7299 -12.6130 0.0000 27.9962 0.0000
# 6 0.0000 0.0000 0.0000 -3.1289 0.0000 24.4337
#
#
#
# Elastic Compliance Matrix: (Units=1/GPa)
#
#
# Indices 1 2 3 4 5 6 
#
# 1 0.026166 -0.007023 -0.003088 0.000000 0.005835 0.000000
# 2 -0.007023 0.011143 -0.002812 0.000000 0.002325 0.000000
# 3 -0.003088 -0.002812 0.010347 0.000000 0.001633 0.000000
# 4 0.000000 0.000000 0.000000 0.034871 0.000000 0.004465
# 5 0.005835 0.002325 0.001633 0.000000 0.040392 0.000000
# 6 0.000000 0.000000 0.000000 0.004465 0.000000 0.041499
#
#
# Mechanical properties :
#
#
# Convention : Reuss Voigt Hill
#
# Bulk Modulus (GPa) = 45.85438 64.38540 55.11989
# Shear Modulus (GPa) = 25.31218 28.57848 26.94533
#
# Velocity S-wave (km/s) = 3.54095 3.76248 3.65340
# Velocity P-wave (km/s) = 6.27946 7.12518 6.71565
#
# Compressibility (1/GPa) = 0.02180817
#
# Stress axis : x y z
#
# Youngs Moduli (GPa) = 38.21826 89.74559 96.64647
#
# Poissons Ratio (x) = 0.63032 0.29846
# Poissons Ratio (y) = 0.26842 0.27175
# Poissons Ratio (z) = 0.11803 0.25235
#
# Static dielectric constant tensor:
#      x y z
#    x 3.475620 0.000000 -0.254630 
#    y 0.000000 4.162450 0.000000 
#    z -0.254630 0.000000 3.784280 
# 
# 
# High freq. dielectric constant tensor:
#      x y z
#    x 1.762100 0.000000 -0.017470 
#    y 0.000000 1.805040 0.000000 
#    z -0.017470 0.000000 1.798990 
# 
# From -- ./inp_files/335654.got.cif
#   From: 2010.06.25/outbox.cif.g09.slc.cpg/sg12_168_cif.got.tgz:335654.got - 2010.06.28 00:19:55.
