data_PCOD8083316
_publ_section_title
;
Structure prediction by ZEFSAII (Michael W. Deem and Ramdas Pophale) SiO2 
 PCOD8083316
Probable space group: C 2/M
;
_chemical_formula_sum "Si O2"
_cell_formula_units_Z 56
_cell_length_a 21.038619
_cell_length_b 9.292571
_cell_length_c 27.768370
_cell_angle_alpha 90.000000
_cell_angle_beta 33.333243
_cell_angle_gamma 90.000000
_cell_volume 2983.164867
_symmetry_space_group_name_H-M "C 2/M"
_symmetry_group_IT_number 12
_symmetry_cell_setting 'monoclinic'
loop_
_space_group_symop_operation_xyz
x,y,z
-x,y,-z
-x,-y,-z
x,-y,z
1/2+x,1/2+y,z
1/2-x,1/2+y,-z
1/2-x,1/2-y,-z
1/2+x,1/2-y,z
loop_
_atom_site_type_symbol
_atom_site_label
_atom_site_fract_x
_atom_site_fract_y
_atom_site_fract_z
Si Si1 0.893139 0.666362 0.776582
Si Si2 0.509053 0.671346 0.939602
Si Si3 0.373378 0.660053 0.368461
Si Si4 0.470758 0.832835 0.571733
Si Si5 0.836288 0.159131 0.503264
Si Si6 0.761747 0.667471 0.766032
Si Si7 0.213676 0.834213 0.975580
O O1 0.929325 0.500000 0.745140
O O2 0.826327 0.730537 0.772265
O O3 0.813228 0.683380 0.873350
O O4 0.005996 0.760262 0.714414
O O5 0.499274 0.500000 0.946027
O O6 0.632251 0.729605 0.840948
O O7 0.500000 0.729200 0.000000
O O8 0.405485 0.730713 0.971476
O O9 0.381815 0.500000 0.339878
O O10 0.273195 0.753378 0.405735
O O11 0.331406 0.643894 0.449403
O O12 0.500000 0.778037 0.500000
O O13 0.546410 0.743144 0.560619
O O14 0.336679 0.803262 0.670345
O O15 0.501984 0.000000 0.558117
O O16 0.836923 0.000000 0.526464
O O17 0.747221 0.500000 0.785951
O O18 0.196459 0.000000 0.000832
O O19 0.250000 0.750000 0.000000
#
# Coordination Sequence:
#
# PCOD8083316 Si02
#       7
#     8   8   8   8   8   8   8
#     4  10  18  32  56  80 104 141 183 227 279 332
#     4   9  15  29  55  84 105 134 187 236 270 320
#     4  10  20  33  53  80 105 134 178 229 272 322
#     4  10  20  34  52  76 109 145 182 229 278 328
#     4  10  20  34  53  76 105 141 178 221 276 332
#     4   9  16  29  53  79 103 134 180 234 276 316
#     4  10  21  36  56  82 115 148 181 227 284 340
#
# _framework density 18.772009000000001
#
# number of rings (size 3 to 8) (size 9 to 14) (size 15 to 20)
#    0.000    2.286    2.857    0.857    0.000    2.000 
#    2.571    0.000    0.000    2.143    0.000    0.000 
#    0.000    0.000    0.000    0.000    0.000    0.000 
#
# Total GULP energy -347085.206148 kJ/mol
# GULP energy per Si atom -12395.900220 kJ/mol
# Density = 1.872928 g / cm^3
# Si number density = 18.772009 Si / 1000 Ang^3
#
#
#
# Elastic Constant Matrix: (Units=GPa)
#
#
# Indices 1 2 3 4 5 6 
#
# 1 85.0562 25.8373 49.0746 0.0003 -6.7949 -0.0011
# 2 25.8373 68.8147 43.4639 0.0012 -12.0499 -0.0019
# 3 49.0746 43.4639 132.7855 -0.0002 -21.5577 -0.0003
# 4 0.0003 0.0012 -0.0002 17.3950 -0.0001 0.9447
# 5 -6.7949 -12.0499 -21.5577 -0.0001 38.0273 0.0004
# 6 -0.0011 -0.0019 -0.0003 0.9447 0.0004 20.2905
#
#
#
# Elastic Compliance Matrix: (Units=1/GPa)
#
#
# Indices 1 2 3 4 5 6 
#
# 1 0.015374 -0.002838 -0.004904 0.000000 -0.000933 0.000001
# 2 -0.002838 0.019089 -0.004735 -0.000001 0.002857 0.000002
# 3 -0.004904 -0.004735 0.011573 0.000001 0.004184 -0.000001
# 4 0.000000 -0.000001 0.000001 0.057634 0.000000 -0.002683
# 5 -0.000933 0.002857 0.004184 0.000000 0.029407 0.000000
# 6 0.000001 0.000002 -0.000001 -0.002683 0.000000 0.049409
#
#
# Mechanical properties :
#
#
# Convention : Reuss Voigt Hill
#
# Bulk Modulus (GPa) = 47.43881 58.15643 52.79762
# Shear Modulus (GPa) = 23.31349 26.36125 24.83737
#
# Velocity S-wave (km/s) = 3.52792 3.75144 3.64140
# Velocity P-wave (km/s) = 6.47463 7.05777 6.77248
#
# Compressibility (1/GPa) = 0.02107979
#
# Stress axis : x y z
#
# Youngs Moduli (GPa) = 65.04397 52.38732 86.40982
#
# Poissons Ratio (x) = 0.14868 0.42379
# Poissons Ratio (y) = 0.18460 0.40919
# Poissons Ratio (z) = 0.31900 0.24808
#
# Static dielectric constant tensor:
#      x y z
#    x 3.313500 0.000000 -0.182760 
#    y 0.000000 3.301910 0.000000 
#    z -0.182760 0.000000 3.573770 
# 
# 
# High freq. dielectric constant tensor:
#      x y z
#    x 1.709730 0.000000 -0.014990 
#    y 0.000000 1.696120 0.000000 
#    z -0.014990 0.000000 1.740140 
# 
# From -- ./inp_files/380621.got.cif
#   From: 2010.06.25/outbox.cif.g09.slc.cpg/sg12_191_cif.got.tgz:380621.got - 2010.06.28 00:19:55.
