data_PCOD8083566
_publ_section_title
;
Structure prediction by ZEFSAII (Michael W. Deem and Ramdas Pophale) SiO2 
 PCOD8083566
Probable space group: C 2/M
;
_chemical_formula_sum "Si O2"
_cell_formula_units_Z 56
_cell_length_a 19.525130
_cell_length_b 15.078002
_cell_length_c 22.882248
_cell_angle_alpha 90.000000
_cell_angle_beta 24.558063
_cell_angle_gamma 90.000000
_cell_volume 2799.805200
_symmetry_space_group_name_H-M "C 2/M"
_symmetry_group_IT_number 12
_symmetry_cell_setting 'monoclinic'
loop_
_space_group_symop_operation_xyz
x,y,z
-x,y,-z
-x,-y,-z
x,-y,z
1/2+x,1/2+y,z
1/2-x,1/2+y,-z
1/2-x,1/2-y,-z
1/2+x,1/2-y,z
loop_
_atom_site_type_symbol
_atom_site_label
_atom_site_fract_x
_atom_site_fract_y
_atom_site_fract_z
Si Si1 0.234410 0.792402 0.724337
Si Si2 0.428134 0.596528 0.833836
Si Si3 0.789824 0.601236 0.570400
Si Si4 0.145047 0.177026 0.993234
Si Si5 0.640189 0.099101 0.267084
Si Si6 0.316674 0.901721 0.209997
Si Si7 0.194837 0.630691 0.915449
O O1 0.324232 0.836520 0.599776
O O2 0.311085 0.825232 0.725042
O O3 0.254499 0.684820 0.701277
O O4 0.046193 0.824862 0.875121
O O5 0.438865 0.500000 0.856018
O O6 0.616382 0.628969 0.674510
O O7 0.328295 0.581787 0.851737
O O8 0.337796 0.661478 0.950296
O O9 0.782147 0.500000 0.598502
O O10 0.943929 0.613489 0.406427
O O11 0.252330 0.104413 0.875299
O O12 0.222614 0.268529 0.912346
O O13 0.667523 0.000000 0.271713
O O14 0.266716 0.887871 0.181572
O O15 0.249906 0.000000 0.282218
O O16 0.511760 0.903585 0.069893
#
# Coordination Sequence:
#
# PCOD8083566 Si02
#       7
#     8   8   8   8   8   8   8
#     4  10  19  33  53  79 109 140 175 220 267 309
#     4  10  19  33  52  77 108 142 176 215 261 313
#     4   9  20  35  53  79 109 145 181 208 255 328
#     4  10  20  32  50  81 111 135 174 220 268 314
#     4  11  20  33  53  78 110 145 177 215 262 317
#     4  10  19  32  54  83 106 132 179 226 267 312
#     4  10  18  33  53  79 107 139 173 219 269 316
#
# _framework density 20.001393
#
# number of rings (size 3 to 8) (size 9 to 14) (size 15 to 20)
#    0.000    2.000    1.429    3.857    0.000    3.429 
#    0.000    0.714    0.000    1.714    0.000    0.000 
#    0.000    0.000    0.000    0.571    0.000    0.000 
#
# Total GULP energy -346906.225718 kJ/mol
# GULP energy per Si atom -12389.508061 kJ/mol
# Density = 1.995587 g / cm^3
# Si number density = 20.001393 Si / 1000 Ang^3
#
#
#
# Elastic Constant Matrix: (Units=GPa)
#
#
# Indices 1 2 3 4 5 6 
#
# 1 99.8270 18.5233 31.2697 -0.0031 -15.3927 0.0043
# 2 18.5233 108.3759 29.6737 0.0042 -1.3993 0.0001
# 3 31.2697 29.6737 92.1804 -0.0121 -1.0109 -0.0040
# 4 -0.0031 0.0042 -0.0121 15.5932 -0.0014 -0.6734
# 5 -15.3927 -1.3993 -1.0109 -0.0014 11.0451 0.0030
# 6 0.0043 0.0001 -0.0040 -0.6734 0.0030 18.0902
#
#
#
# Elastic Compliance Matrix: (Units=1/GPa)
#
#
# Indices 1 2 3 4 5 6 
#
# 1 0.014663 -0.001039 -0.004422 0.000001 0.019899 -0.000008
# 2 -0.001039 0.010203 -0.002937 -0.000005 -0.000424 -0.000001
# 3 -0.004422 -0.002937 0.013235 0.000010 -0.005323 0.000005
# 4 0.000001 -0.000005 0.000010 0.064234 0.000010 0.002391
# 5 0.019899 -0.000424 -0.005323 0.000010 0.117729 -0.000025
# 6 -0.000008 -0.000001 0.000005 0.002391 -0.000025 0.055367
#
#
# Mechanical properties :
#
#
# Convention : Reuss Voigt Hill
#
# Bulk Modulus (GPa) = 46.93129 51.03518 48.98323
# Shear Modulus (GPa) = 16.70407 23.67350 20.18878
#
# Velocity S-wave (km/s) = 2.89302 3.44407 3.18050
# Velocity P-wave (km/s) = 5.88850 6.43325 6.16689
#
# Compressibility (1/GPa) = 0.02130775
#
# Stress axis : x y z
#
# Youngs Moduli (GPa) = 68.19716 98.00735 75.55596
#
# Poissons Ratio (x) = 0.10180 0.33408
# Poissons Ratio (y) = 0.07083 0.22190
# Poissons Ratio (z) = 0.30154 0.28783
#
# Static dielectric constant tensor:
#      x y z
#    x 3.385840 -0.000010 -0.180770 
#    y -0.000010 3.953310 0.000040 
#    z -0.180770 0.000040 3.514950 
# 
# 
# High freq. dielectric constant tensor:
#      x y z
#    x 1.756730 0.000000 -0.019540 
#    y 0.000000 1.794730 0.000000 
#    z -0.019540 0.000000 1.756330 
# 
# From -- ./inp_files/316711.got.cif
#   From: 2010.06.25/outbox.cif.g09.slc.cpg/sg12_159_cif.got.tgz:316711.got - 2010.06.28 00:19:55.
