data_PCOD8083447
_publ_section_title
;
Structure prediction by ZEFSAII (Michael W. Deem and Ramdas Pophale) SiO2 
 PCOD8083447
Probable space group: C 2/M
;
_chemical_formula_sum "Si O2"
_cell_formula_units_Z 64
_cell_length_a 20.130847
_cell_length_b 18.153844
_cell_length_c 13.017397
_cell_angle_alpha 90.000000
_cell_angle_beta 136.710345
_cell_angle_gamma 90.000000
_cell_volume 3261.975347
_symmetry_space_group_name_H-M "C 2/M"
_symmetry_group_IT_number 12
_symmetry_cell_setting 'monoclinic'
loop_
_space_group_symop_operation_xyz
x,y,z
-x,y,-z
-x,-y,-z
x,-y,z
1/2+x,1/2+y,z
1/2-x,1/2+y,-z
1/2-x,1/2-y,-z
1/2+x,1/2-y,z
loop_
_atom_site_type_symbol
_atom_site_label
_atom_site_fract_x
_atom_site_fract_y
_atom_site_fract_z
Si Si1 0.161908 0.702700 0.697299
Si Si2 0.422128 0.159480 0.187790
Si Si3 0.333109 0.347429 0.560296
Si Si4 0.153020 0.811954 0.974643
Si Si5 0.138808 0.323596 0.441485
Si Si6 0.390490 0.368256 0.400601
Si Si7 0.008737 0.914899 0.128433
Si Si8 0.747980 0.417375 0.924881
O O1 0.104838 0.656154 0.720461
O O2 0.158432 0.661261 0.584260
O O3 0.113367 0.782430 0.631934
O O4 0.275791 0.710982 0.852778
O O5 0.404865 0.242350 0.130463
O O6 0.534986 0.141214 0.297752
O O7 0.363695 0.099819 0.052085
O O8 0.220178 0.360825 0.460675
O O9 0.360713 0.262463 0.583263
O O10 0.363116 0.385812 0.487400
O O11 0.390240 0.383785 0.718129
O O12 0.080082 0.876269 0.917769
O O13 0.216396 0.847136 0.956130
O O14 0.500000 0.396296 0.500000
O O15 0.310043 0.413794 0.246862
O O16 0.000777 0.000000 0.146129
O O17 0.000000 0.897556 0.000000
O O18 0.733458 0.500000 0.954088
#
# Coordination Sequence:
#
# PCOD8083447 Si02
#       8
#     8   8   8   8   8   8   8   8
#     4  10  18  32  58  86 115 143 187 238 295 339
#     4  11  19  37  60  85 115 154 195 240 288 340
#     4  10  21  36  55  86 116 147 194 241 288 347
#     4  11  19  36  58  85 112 153 192 240 292 345
#     4  10  20  35  58  85 114 148 192 247 286 339
#     4  11  20  34  58  84 116 152 187 234 299 353
#     4  11  23  38  56  82 118 156 192 238 301 355
#     4  11  23  37  56  86 119 151 191 242 290 347
#
# _framework density 19.620013
#
# number of rings (size 3 to 8) (size 9 to 14) (size 15 to 20)
#    0.000    1.375    3.750    4.500    0.000    0.750 
#    0.000    1.250    0.000    7.500    0.000    0.000 
#    0.000    0.000    0.000    0.000    0.000    0.000 
#
# Total GULP energy -396707.606439 kJ/mol
# GULP energy per Si atom -12397.112701 kJ/mol
# Density = 1.957536 g / cm^3
# Si number density = 19.620013 Si / 1000 Ang^3
#
#
#
# Elastic Constant Matrix: (Units=GPa)
#
#
# Indices 1 2 3 4 5 6 
#
# 1 121.4136 24.7020 68.2055 0.0000 19.8658 0.0000
# 2 24.7020 27.2221 46.3127 0.0000 -3.7411 0.0000
# 3 68.2055 46.3127 145.8771 0.0000 10.4358 0.0000
# 4 0.0000 0.0000 0.0000 17.7851 0.0000 -1.0798
# 5 19.8658 -3.7411 10.4358 0.0000 34.8726 0.0000
# 6 0.0000 0.0000 0.0000 -1.0798 0.0000 15.3190
#
#
#
# Elastic Compliance Matrix: (Units=1/GPa)
#
#
# Indices 1 2 3 4 5 6 
#
# 1 0.012574 -0.006987 -0.003163 0.000000 -0.006966 0.000000
# 2 -0.006987 0.094293 -0.028283 0.000000 0.022560 0.000000
# 3 -0.003163 -0.028283 0.017782 0.000000 -0.006554 0.000000
# 4 0.000000 0.000000 0.000000 0.056468 0.000000 0.003980
# 5 -0.006966 0.022560 -0.006554 0.000000 0.037026 0.000000
# 6 0.000000 0.000000 0.000000 0.003980 0.000000 0.065559
#
#
# Mechanical properties :
#
#
# Convention : Reuss Voigt Hill
#
# Bulk Modulus (GPa) = 20.92763 63.66147 42.29455
# Shear Modulus (GPa) = 13.28037 23.94818 18.61428
#
# Velocity S-wave (km/s) = 2.60451 3.49750 3.08350
# Velocity P-wave (km/s) = 4.44233 6.98768 5.85499
#
# Compressibility (1/GPa) = 0.04778372
#
# Stress axis : x y z
#
# Youngs Moduli (GPa) = 79.52715 10.60525 56.23738
#
# Poissons Ratio (x) = 0.07410 0.17785
# Poissons Ratio (y) = 0.55568 1.59055
# Poissons Ratio (z) = 0.25151 0.29995
#
# Static dielectric constant tensor:
#      x y z
#    x 1.086820 0.000000 -0.772490 
#    y 0.000000 3.218910 0.000000 
#    z -0.772490 0.000000 3.655960 
# 
# 
# High freq. dielectric constant tensor:
#      x y z
#    x 1.755260 0.000000 0.009200 
#    y 0.000000 1.730720 0.000000 
#    z 0.009200 0.000000 1.784030 
# 
# From -- ./inp_files/159596.got.cif
#   From: 2010.06.25/outbox.cif.g09.slc.cpg/sg12_80_cif.got.tgz:159596.got - 2010.06.28 00:19:55.
