data_PCOD8083484
_publ_section_title
;
Structure prediction by ZEFSAII (Michael W. Deem and Ramdas Pophale) SiO2 
 PCOD8083484
Probable space group: C 2/M
;
_chemical_formula_sum "Si O2"
_cell_formula_units_Z 56
_cell_length_a 11.921163
_cell_length_b 26.408605
_cell_length_c 9.182475
_cell_angle_alpha 90.000000
_cell_angle_beta 67.584711
_cell_angle_gamma 90.000000
_cell_volume 2672.419287
_symmetry_space_group_name_H-M "C 2/M"
_symmetry_group_IT_number 12
_symmetry_cell_setting 'monoclinic'
loop_
_space_group_symop_operation_xyz
x,y,z
-x,y,-z
-x,-y,-z
x,-y,z
1/2+x,1/2+y,z
1/2-x,1/2+y,-z
1/2-x,1/2-y,-z
1/2+x,1/2-y,z
loop_
_atom_site_type_symbol
_atom_site_label
_atom_site_fract_x
_atom_site_fract_y
_atom_site_fract_z
Si Si1 0.628304 0.364772 0.738913
Si Si2 0.284077 0.861201 0.938093
Si Si3 0.512195 0.805784 0.322093
Si Si4 0.764403 0.349930 0.386444
Si Si5 0.001989 0.054975 0.343737
Si Si6 0.223664 0.558151 0.824317
Si Si7 0.110064 0.804719 0.223852
O O1 0.675396 0.367862 0.878319
O O2 0.733164 0.349348 0.573225
O O3 0.589244 0.421583 0.725101
O O4 0.509078 0.330210 0.783778
O O5 0.405322 0.848431 0.791566
O O6 0.323357 0.911472 0.010000
O O7 0.231686 0.816939 0.069495
O O8 0.500000 0.813640 0.500000
O O9 0.379953 0.812214 0.313247
O O10 0.580029 0.754018 0.249315
O O11 0.797178 0.406759 0.309652
O O12 0.646330 0.326548 0.364414
O O13 0.000000 0.085023 0.500000
O O14 0.134765 0.053854 0.211894
O O15 0.947003 0.000000 0.401792
O O16 0.170023 0.500000 0.835082
#
# Coordination Sequence:
#
# PCOD8083484 Si02
#       7
#     8   8   8   8   8   8   8
#     4  12  20  39  64  95 137 163 208 272 323 381
#     4  11  25  43  63  96 135 168 211 274 324 378
#     4  12  26  45  66  93 129 176 228 261 316 385
#     4  11  23  42  69  94 130 175 217 266 312 389
#     4  10  18  32  61  96 127 163 208 263 329 394
#     4  10  22  42  66  97 131 168 216 267 332 391
#     4  11  25  41  65  96 129 172 214 263 329 382
#
# _framework density 20.954796999999999
#
# number of rings (size 3 to 8) (size 9 to 14) (size 15 to 20)
#    0.000    1.000    5.714    2.143    2.000    4.000 
#    5.143    2.857    0.000    0.857    0.000    0.000 
#    0.000    0.000    0.000    0.000    0.000    0.000 
#
# Total GULP energy -346930.025939 kJ/mol
# GULP energy per Si atom -12390.358069 kJ/mol
# Density = 2.090710 g / cm^3
# Si number density = 20.954797 Si / 1000 Ang^3
#
#
#
# Elastic Constant Matrix: (Units=GPa)
#
#
# Indices 1 2 3 4 5 6 
#
# 1 49.3083 14.0491 8.4193 0.0000 -7.7668 0.0000
# 2 14.0491 109.1123 29.4865 0.0000 -8.9080 0.0000
# 3 8.4193 29.4865 97.4247 0.0000 -2.5195 0.0000
# 4 0.0000 0.0000 0.0000 20.9516 0.0000 -5.9565
# 5 -7.7668 -8.9080 -2.5195 0.0000 27.3950 0.0000
# 6 0.0000 0.0000 0.0000 -5.9565 0.0000 12.1735
#
#
#
# Elastic Compliance Matrix: (Units=1/GPa)
#
#
# Indices 1 2 3 4 5 6 
#
# 1 0.021920 -0.002074 -0.001126 0.000000 0.005437 0.000000
# 2 -0.002074 0.010425 -0.002911 0.000000 0.002534 0.000000
# 3 -0.001126 -0.002911 0.011237 0.000000 -0.000232 0.000000
# 4 0.000000 0.000000 0.000000 0.055441 0.000000 0.027127
# 5 0.005437 0.002534 -0.000232 0.000000 0.038847 0.000000
# 6 0.000000 0.000000 0.000000 0.027127 0.000000 0.095419
#
#
# Mechanical properties :
#
#
# Convention : Reuss Voigt Hill
#
# Bulk Modulus (GPa) = 31.88712 39.97277 35.92995
# Shear Modulus (GPa) = 19.53397 25.69672 22.61534
#
# Velocity S-wave (km/s) = 3.05650 3.50565 3.28875
# Velocity P-wave (km/s) = 5.26369 5.95846 5.62181
#
# Compressibility (1/GPa) = 0.03136062
#
# Stress axis : x y z
#
# Youngs Moduli (GPa) = 45.62010 95.91963 88.99544
#
# Poissons Ratio (x) = 0.19896 0.10020
# Poissons Ratio (y) = 0.09463 0.25903
# Poissons Ratio (z) = 0.05136 0.27918
#
# Static dielectric constant tensor:
#      x y z
#    x 3.695810 0.000000 0.164820 
#    y 0.000000 4.021890 0.000000 
#    z 0.164820 0.000000 4.326900 
# 
# 
# High freq. dielectric constant tensor:
#      x y z
#    x 1.806910 0.000000 -0.003960 
#    y 0.000000 1.813940 0.000000 
#    z -0.003960 0.000000 1.830480 
# 
# From -- ./inp_files/53156.got.cif
#   From: 2010.06.25/outbox.cif.g09.slc.cpg/sg12_27_cif.got.tgz:53156.got - 2010.06.28 00:19:55.
