data_PCOD8083569
_publ_section_title
;
Structure prediction by ZEFSAII (Michael W. Deem and Ramdas Pophale) SiO2 
 PCOD8083569
Probable space group: C 2/M
;
_chemical_formula_sum "Si O2"
_cell_formula_units_Z 48
_cell_length_a 15.615362
_cell_length_b 15.215830
_cell_length_c 11.595122
_cell_angle_alpha 90.000000
_cell_angle_beta 123.005420
_cell_angle_gamma 90.000000
_cell_volume 2310.403036
_symmetry_space_group_name_H-M "C 2/M"
_symmetry_group_IT_number 12
_symmetry_cell_setting 'monoclinic'
loop_
_space_group_symop_operation_xyz
x,y,z
-x,y,-z
-x,-y,-z
x,-y,z
1/2+x,1/2+y,z
1/2-x,1/2+y,-z
1/2-x,1/2-y,-z
1/2+x,1/2-y,z
loop_
_atom_site_type_symbol
_atom_site_label
_atom_site_fract_x
_atom_site_fract_y
_atom_site_fract_z
Si Si1 0.613972 0.346871 0.605661
Si Si2 0.112953 0.638795 0.576030
Si Si3 0.295801 0.163316 0.587260
Si Si4 0.792815 0.903747 0.848177
Si Si5 0.599305 0.601328 0.845593
Si Si6 0.439604 0.271988 0.841027
O O1 0.500000 0.386589 0.500000
O O2 0.611483 0.243327 0.586668
O O3 0.703306 0.386232 0.587675
O O4 0.647303 0.373740 0.758352
O O5 0.161907 0.606816 0.489638
O O6 0.173472 0.598469 0.729112
O O7 0.000000 0.599637 0.500000
O O8 0.250000 0.250000 0.500000
O O9 0.392203 0.187668 0.741291
O O10 0.845585 0.832937 0.806271
O O11 0.839379 0.000000 0.855667
O O12 0.810026 0.883286 0.995646
O O13 0.560511 0.500000 0.819402
O O14 0.507975 0.669158 0.805584
O O15 0.500000 0.241257 0.000000
#
# Coordination Sequence:
#
# PCOD8083569 Si02
#       6
#     8   8   8   8   8   8
#     4  10  20  34  55  80 110 143 177 222 273 327
#     4  10  20  35  56  80 105 140 185 232 269 313
#     4  10  18  35  55  77 111 140 176 225 270 318
#     4  10  20  34  53  77 107 145 183 226 271 316
#     4  10  21  35  53  80 114 144 178 223 274 332
#     4  10  18  33  53  81 108 143 181 222 274 326
#
# _framework density 20.775596
#
# number of rings (size 3 to 8) (size 9 to 14) (size 15 to 20)
#    0.000    2.000    3.333    3.500    0.000    3.333 
#    3.000    0.833    0.000    0.000    0.000    2.333 
#    0.000    0.000    0.000    0.000    0.000    0.000 
#
# Total GULP energy -297431.443346 kJ/mol
# GULP energy per Si atom -12392.976806 kJ/mol
# Density = 2.072831 g / cm^3
# Si number density = 20.775596 Si / 1000 Ang^3
#
#
#
# Elastic Constant Matrix: (Units=GPa)
#
#
# Indices 1 2 3 4 5 6 
#
# 1 159.9126 14.8354 79.2554 0.0000 -7.1809 0.0000
# 2 14.8354 22.1758 15.8699 0.0000 0.9986 0.0000
# 3 79.2554 15.8699 147.2574 0.0000 4.2943 0.0000
# 4 0.0000 0.0000 0.0000 15.8438 0.0000 -1.3221
# 5 -7.1809 0.9986 4.2943 0.0000 37.8662 0.0000
# 6 0.0000 0.0000 0.0000 -1.3221 0.0000 -1.6079
#
#
#
# Elastic Compliance Matrix: (Units=1/GPa)
#
#
# Indices 1 2 3 4 5 6 
#
# 1 0.008861 -0.002785 -0.004535 0.000000 0.002268 0.000000
# 2 -0.002785 0.049756 -0.003822 0.000000 -0.001407 0.000000
# 3 -0.004535 -0.003822 0.009698 0.000000 -0.001859 0.000000
# 4 0.000000 0.000000 0.000000 0.059064 0.000000 -0.048566
# 5 0.002268 -0.001407 -0.001859 0.000000 0.027087 0.000000
# 6 0.000000 0.000000 0.000000 -0.048566 0.000000 -0.582014
#
#
# Mechanical properties :
#
#
# Convention : Reuss Voigt Hill
#
# Bulk Modulus (GPa) = 21.72476 61.02967 41.37722
# Shear Modulus (GPa) = -12.82314 25.04612 6.11149
#
# Velocity S-wave (km/s) = -2.48709 3.47588 1.71699
# Velocity P-wave (km/s) = 1.49402 6.74895 4.88776
#
# Compressibility (1/GPa) = 0.04603042
#
# Stress axis : x y z
#
# Youngs Moduli (GPa) = 112.84907 20.09812 103.11458
#
# Poissons Ratio (x) = 0.05597 0.46766
# Poissons Ratio (y) = 0.31425 0.39415
# Poissons Ratio (z) = 0.51181 0.07682
#
# Static dielectric constant tensor:
#      x y z
#    x 4.324880 0.000000 -0.089040 
#    y 0.000000 3.328680 0.000000 
#    z -0.089040 0.000000 4.095890 
# 
# 
# High freq. dielectric constant tensor:
#      x y z
#    x 1.806590 0.000000 -0.002390 
#    y 0.000000 1.766810 0.000000 
#    z -0.002390 0.000000 1.831900 
# 
# From -- ./inp_files/143879.got.cif
#   From: 2010.06.25/outbox.cif.g09.slc.cpg/sg12_72_cif.got.tgz:143879.got - 2010.06.28 00:19:55.
