data_PCOD8083061
_publ_section_title
;
Structure prediction by ZEFSAII (Michael W. Deem and Ramdas Pophale) SiO2 
 PCOD8083061
Probable space group: C 2/M
;
_chemical_formula_sum "Si O2"
_cell_formula_units_Z 64
_cell_length_a 24.597423
_cell_length_b 18.280017
_cell_length_c 20.536889
_cell_angle_alpha 90.000000
_cell_angle_beta 22.917665
_cell_angle_gamma 90.000000
_cell_volume 3595.883959
_symmetry_space_group_name_H-M "C 2/M"
_symmetry_group_IT_number 12
_symmetry_cell_setting 'monoclinic'
loop_
_space_group_symop_operation_xyz
x,y,z
-x,y,-z
-x,-y,-z
x,-y,z
1/2+x,1/2+y,z
1/2-x,1/2+y,-z
1/2-x,1/2-y,-z
1/2+x,1/2-y,z
loop_
_atom_site_type_symbol
_atom_site_label
_atom_site_fract_x
_atom_site_fract_y
_atom_site_fract_z
Si Si1 0.054075 0.086015 0.119300
Si Si2 0.652080 0.084313 0.148782
Si Si3 0.343777 0.308002 0.095674
Si Si4 0.963410 0.327241 0.111971
Si Si5 0.450808 0.177517 0.622846
Si Si6 0.478292 0.085918 0.220819
Si Si7 0.724698 0.331022 0.556228
Si Si8 0.767031 0.723789 0.646950
O O1 0.929602 0.135854 0.285350
O O2 0.014293 0.000000 0.156932
O O3 0.182239 0.097970 0.028152
O O4 0.103027 0.115666 0.994209
O O5 0.563698 0.117193 0.305601
O O6 0.596763 0.115682 0.140382
O O7 0.615214 0.000000 0.192952
O O8 0.197463 0.282374 0.223956
O O9 0.321858 0.315712 0.197419
O O10 0.456032 0.246207 0.956600
O O11 0.006863 0.387670 0.115976
O O12 0.799320 0.303948 0.294854
O O13 0.000000 0.357410 0.000000
O O14 0.500000 0.140547 0.500000
O O15 0.570693 0.235260 0.512481
O O16 0.327613 0.113102 0.408490
O O17 0.478063 0.000000 0.218710
O O18 0.750000 0.250000 0.500000
O O19 0.755358 0.330518 0.599079
#
# Coordination Sequence:
#
# PCOD8083061 Si02
#       8
#     8   8   8   8   8   8   8   8
#     4  10  20  36  53  76 108 144 175 210 254 308
#     4   9  19  34  50  71 107 142 174 213 255 305
#     4   9  18  34  53  76 104 139 177 216 252 306
#     4  10  20  37  58  75 102 136 172 222 269 311
#     4   9  17  30  50  76 106 138 174 214 249 301
#     4  11  22  37  54  79 106 135 176 221 264 313
#     4  12  21  35  54  78 105 140 176 213 265 313
#     4  10  18  32  53  75 106 135 175 212 260 301
#
# _framework density 17.798127999999998
#
# number of rings (size 3 to 8) (size 9 to 14) (size 15 to 20)
#    0.000    2.000    3.750    0.375    0.000    0.500 
#    2.250    5.625    0.000    0.000    0.000    0.000 
#    0.000    9.000    0.000    0.000    0.000    0.000 
#
# Total GULP energy -396582.277928 kJ/mol
# GULP energy per Si atom -12393.196185 kJ/mol
# Density = 1.775762 g / cm^3
# Si number density = 17.798128 Si / 1000 Ang^3
#
#
#
# Elastic Constant Matrix: (Units=GPa)
#
#
# Indices 1 2 3 4 5 6 
#
# 1 131.3641 52.6386 52.7685 0.0002 4.9026 0.0002
# 2 52.6386 74.3734 44.2103 0.0043 -0.4082 -0.0023
# 3 52.7685 44.2103 85.9940 0.0064 -8.3414 -0.0031
# 4 0.0002 0.0043 0.0064 19.3135 0.0000 1.0855
# 5 4.9026 -0.4082 -8.3414 0.0000 27.9816 -0.0014
# 6 0.0002 -0.0023 -0.0031 1.0855 -0.0014 26.2094
#
#
#
# Elastic Compliance Matrix: (Units=1/GPa)
#
#
# Indices 1 2 3 4 5 6 
#
# 1 0.011913 -0.005615 -0.004772 0.000003 -0.003592 -0.000001
# 2 -0.005615 0.022219 -0.008085 -0.000002 -0.001102 0.000001
# 3 -0.004772 -0.008085 0.019342 -0.000005 0.006484 0.000002
# 4 0.000003 -0.000002 -0.000005 0.051898 -0.000002 -0.002149
# 5 -0.003592 -0.001102 0.006484 -0.000002 0.038284 0.000003
# 6 -0.000001 0.000001 0.000002 -0.002149 0.000003 0.038243
#
#
# Mechanical properties :
#
#
# Convention : Reuss Voigt Hill
#
# Bulk Modulus (GPa) = 60.48920 65.66290 63.07605
# Shear Modulus (GPa) = 22.28618 24.17517 23.23068
#
# Velocity S-wave (km/s) = 3.54243 3.68951 3.61672
# Velocity P-wave (km/s) = 7.12684 7.42450 7.27719
#
# Compressibility (1/GPa) = 0.01653188
#
# Stress axis : x y z
#
# Youngs Moduli (GPa) = 83.93967 45.00586 51.69971
#
# Poissons Ratio (x) = 0.25270 0.24672
# Poissons Ratio (y) = 0.47130 0.41798
# Poissons Ratio (z) = 0.40058 0.36386
#
# Static dielectric constant tensor:
#      x y z
#    x 3.470400 0.000250 0.256300 
#    y 0.000250 3.011040 -0.000450 
#    z 0.256300 -0.000450 2.774330 
# 
# 
# High freq. dielectric constant tensor:
#      x y z
#    x 1.704110 0.000000 -0.007300 
#    y 0.000000 1.647720 0.000000 
#    z -0.007300 0.000000 1.696600 
# 
# From -- ./inp_files/285209.got.cif
#   From: 2010.06.25/outbox.cif.g09.slc.cpg/sg12_143_cif.got.tgz:285209.got - 2010.06.28 00:19:55.
