data_PCOD8083833
_publ_section_title
;
Structure prediction by ZEFSAII (Michael W. Deem and Ramdas Pophale) SiO2 
 PCOD8083833
Probable space group: C 2/M
;
_chemical_formula_sum "Si O2"
_cell_formula_units_Z 48
_cell_length_a 16.359748
_cell_length_b 13.407785
_cell_length_c 15.939657
_cell_angle_alpha 90.000000
_cell_angle_beta 138.727730
_cell_angle_gamma 90.000000
_cell_volume 2306.313180
_symmetry_space_group_name_H-M "C 2/M"
_symmetry_group_IT_number 12
_symmetry_cell_setting 'monoclinic'
loop_
_space_group_symop_operation_xyz
x,y,z
-x,y,-z
-x,-y,-z
x,-y,z
1/2+x,1/2+y,z
1/2-x,1/2+y,-z
1/2-x,1/2-y,-z
1/2+x,1/2-y,z
loop_
_atom_site_type_symbol
_atom_site_label
_atom_site_fract_x
_atom_site_fract_y
_atom_site_fract_z
Si Si1 0.594339 0.885813 0.698907
Si Si2 0.809283 0.207330 0.323943
Si Si3 0.447727 0.112874 0.867189
Si Si4 0.383902 0.740749 0.562142
Si Si5 0.679242 0.115369 0.946435
Si Si6 0.598925 0.384852 0.772537
O O1 0.663121 0.821775 0.680812
O O2 0.454203 0.847241 0.608480
O O3 0.679956 0.872471 0.847234
O O4 0.586256 0.000000 0.663397
O O5 0.664609 0.189753 0.227135
O O6 0.877310 0.189932 0.465066
O O7 0.856550 0.132019 0.288768
O O8 0.551853 0.158463 0.885999
O O9 0.407001 0.000000 0.809561
O O10 0.500000 0.111293 0.000000
O O11 0.250000 0.750000 0.500000
O O12 0.468083 0.669679 0.685467
O O13 0.682424 0.000000 0.976697
O O14 0.801356 0.163956 0.084759
O O15 0.578796 0.500000 0.775432
#
# Coordination Sequence:
#
# PCOD8083833 Si02
#       6
#     8   8   8   8   8   8
#     4  10  22  41  62  81 112 159 204 239 272 332
#     4  11  22  36  58  88 116 148 193 234 280 344
#     4  10  18  33  58  89 121 146 177 230 295 353
#     4  11  25  40  55  86 115 150 199 234 285 349
#     4   9  18  35  60  89 113 146 191 229 288 349
#     4  10  20  37  60  87 119 145 177 237 298 346
#
# _framework density 20.812439000000001
#
# number of rings (size 3 to 8) (size 9 to 14) (size 15 to 20)
#    0.000    1.833    1.667    3.500    0.000    6.667 
#    3.000    0.000    0.000    0.500    0.000    0.000 
#    0.000    0.000    0.000    0.000    0.000    0.000 
#
# Total GULP energy -297550.674494 kJ/mol
# GULP energy per Si atom -12397.944771 kJ/mol
# Density = 2.076507 g / cm^3
# Si number density = 20.812439 Si / 1000 Ang^3
#
#
#
# Elastic Constant Matrix: (Units=GPa)
#
#
# Indices 1 2 3 4 5 6 
#
# 1 78.4001 19.8676 54.1966 0.0000 17.8431 0.0000
# 2 19.8676 86.2209 42.1802 0.0000 25.4575 0.0000
# 3 54.1966 42.1802 143.7647 0.0001 21.0109 0.0000
# 4 0.0000 0.0000 0.0001 -475.1651 0.0001 -81.6194
# 5 17.8431 25.4575 21.0109 0.0001 43.3593 0.0000
# 6 0.0000 0.0000 0.0000 -81.6194 0.0000 5.9534
#
#
#
# Elastic Compliance Matrix: (Units=1/GPa)
#
#
# Indices 1 2 3 4 5 6 
#
# 1 0.018013 0.000219 -0.006191 0.000000 -0.004541 0.000000
# 2 0.000219 0.015481 -0.003533 0.000000 -0.007467 0.000000
# 3 -0.006191 -0.003533 0.010386 0.000000 -0.000411 0.000000
# 4 0.000000 0.000000 0.000000 -0.000627 0.000000 -0.008600
# 5 -0.004541 -0.007467 -0.000411 0.000000 0.029515 0.000000
# 6 0.000000 0.000000 0.000000 -0.008600 0.000000 0.050067
#
#
# Mechanical properties :
#
#
# Convention : Reuss Voigt Hill
#
# Bulk Modulus (GPa) = 40.21010 60.09717 50.15363
# Shear Modulus (GPa) = 33.30314 -72.36108 -19.52897
#
# Velocity S-wave (km/s) = 4.00453 -5.90285 -3.06654
# Velocity P-wave (km/s) = 6.38309 4.18568 3.40764
#
# Compressibility (1/GPa) = 0.02486937
#
# Stress axis : x y z
#
# Youngs Moduli (GPa) = 55.51575 64.59542 96.27957
#
# Poissons Ratio (x) = -0.01414 0.59607
# Poissons Ratio (y) = -0.01215 0.34018
# Poissons Ratio (z) = 0.34370 0.22823
#
# Static dielectric constant tensor:
#      x y z
#    x 3.653650 0.000000 0.025250 
#    y 0.000000 3.695450 0.000000 
#    z 0.025250 0.000000 4.150930 
# 
# 
# High freq. dielectric constant tensor:
#      x y z
#    x 1.798430 0.000000 -0.006600 
#    y 0.000000 1.802060 0.000000 
#    z -0.006600 0.000000 1.834670 
# 
# From -- ./inp_files/278224.got.cif
#   From: 2010.06.25/outbox.cif.g09.slc.cpg/sg12_140_cif.got.tgz:278224.got - 2010.06.28 00:19:55.
