data_PCOD8083470
_publ_section_title
;
Structure prediction by ZEFSAII (Michael W. Deem and Ramdas Pophale) SiO2 
 PCOD8083470
Probable space group: C 2/M
;
_chemical_formula_sum "Si O2"
_cell_formula_units_Z 64
_cell_length_a 30.711536
_cell_length_b 8.935019
_cell_length_c 11.832438
_cell_angle_alpha 90.000000
_cell_angle_beta 88.724155
_cell_angle_gamma 90.000000
_cell_volume 3246.112553
_symmetry_space_group_name_H-M "C 2/M"
_symmetry_group_IT_number 12
_symmetry_cell_setting 'monoclinic'
loop_
_space_group_symop_operation_xyz
x,y,z
-x,y,-z
-x,-y,-z
x,-y,z
1/2+x,1/2+y,z
1/2-x,1/2+y,-z
1/2-x,1/2-y,-z
1/2+x,1/2-y,z
loop_
_atom_site_type_symbol
_atom_site_label
_atom_site_fract_x
_atom_site_fract_y
_atom_site_fract_z
Si Si1 0.550858 0.177387 0.764412
Si Si2 0.203684 0.822928 0.748373
Si Si3 0.454396 0.172738 0.758452
Si Si4 0.417331 0.171652 0.999858
Si Si5 0.290963 0.673136 0.774307
Si Si6 0.122438 0.175066 0.366732
Si Si7 0.369857 0.822473 0.393694
Si Si8 0.172391 0.825205 0.993361
O O1 0.503131 0.229488 0.725439
O O2 0.561466 0.242605 0.888415
O O3 0.587368 0.235043 0.675362
O O4 0.550179 0.000000 0.771572
O O5 0.253031 0.772298 0.721164
O O6 0.172959 0.749530 0.657302
O O7 0.200317 0.000000 0.738143
O O8 0.190413 0.763080 0.873574
O O9 0.421196 0.278890 0.695553
O O10 0.446570 0.000000 0.722593
O O11 0.450220 0.189863 0.893819
O O12 0.405466 0.000000 0.023051
O O13 0.373039 0.253001 0.971143
O O14 0.279463 0.500000 0.755852
O O15 0.336287 0.715092 0.712728
O O16 0.294084 0.711834 0.907541
O O17 0.126040 0.270884 0.479001
O O18 0.120452 0.000000 0.395794
O O19 0.365596 0.000000 0.387674
O O20 0.164123 0.000000 0.985083
#
# Coordination Sequence:
#
# PCOD8083470 Si02
#       8
#     8   8   8   8   8   8   8   8
#     4   9  19  36  59  89 120 153 192 238 288 341
#     4  11  23  38  61  91 120 149 189 240 291 346
#     4  10  20  36  61  90 119 152 194 240 288 342
#     4  10  18  32  59  90 119 152 191 235 284 343
#     4  10  22  40  61  84 117 157 192 233 288 348
#     4  11  24  42  61  83 116 154 197 245 291 340
#     4  11  23  41  63  84 114 155 199 242 288 343
#     4  10  20  36  58  87 122 154 185 231 290 348
#
# _framework density 19.715890999999999
#
# number of rings (size 3 to 8) (size 9 to 14) (size 15 to 20)
#    0.000    1.750    2.500    1.875    0.000    4.500 
#    0.000    4.375    0.000    1.500    0.000    0.000 
#    0.000    0.000    0.000    0.000    0.000    0.000 
#
# Total GULP energy -396881.157394 kJ/mol
# GULP energy per Si atom -12402.536169 kJ/mol
# Density = 1.967102 g / cm^3
# Si number density = 19.715891 Si / 1000 Ang^3
#
#
#
# Elastic Constant Matrix: (Units=GPa)
#
#
# Indices 1 2 3 4 5 6 
#
# 1 128.7767 38.0567 35.1408 0.0000 16.3893 0.0000
# 2 38.0567 41.5595 26.0979 0.0000 4.7514 0.0000
# 3 35.1408 26.0979 103.0867 0.0000 12.3109 0.0000
# 4 0.0000 0.0000 0.0000 29.1493 0.0000 3.4126
# 5 16.3893 4.7514 12.3109 0.0000 16.3427 0.0000
# 6 0.0000 0.0000 0.0000 3.4126 0.0000 30.0626
#
#
#
# Elastic Compliance Matrix: (Units=1/GPa)
#
#
# Indices 1 2 3 4 5 6 
#
# 1 0.011828 -0.009463 -0.000602 0.000000 -0.008657 0.000000
# 2 -0.009463 0.036329 -0.006421 0.000000 0.003765 0.000000
# 3 -0.000602 -0.006421 0.012347 0.000000 -0.006830 0.000000
# 4 0.000000 0.000000 0.000000 0.034768 0.000000 -0.003947
# 5 -0.008657 0.003765 -0.006830 0.000000 0.073922 0.000000
# 6 0.000000 0.000000 0.000000 -0.003947 0.000000 0.033712
#
#
# Mechanical properties :
#
#
# Convention : Reuss Voigt Hill
#
# Bulk Modulus (GPa) = 36.32245 52.44598 44.38421
# Shear Modulus (GPa) = 20.40345 26.71942 23.56144
#
# Velocity S-wave (km/s) = 3.22043 3.68533 3.46070
# Velocity P-wave (km/s) = 5.68253 6.69085 6.20720
#
# Compressibility (1/GPa) = 0.02753118
#
# Stress axis : x y z
#
# Youngs Moduli (GPa) = 84.54430 27.52606 80.98999
#
# Poissons Ratio (x) = 0.26048 0.04880
# Poissons Ratio (y) = 0.80005 0.52004
# Poissons Ratio (z) = 0.05094 0.17675
#
# Static dielectric constant tensor:
#      x y z
#    x 3.680490 0.000000 -0.059360 
#    y 0.000000 3.394550 0.000000 
#    z -0.059360 0.000000 3.665950 
# 
# 
# High freq. dielectric constant tensor:
#      x y z
#    x 1.778750 0.000000 0.002510 
#    y 0.000000 1.751080 0.000000 
#    z 0.002510 0.000000 1.771050 
# 
# From -- ./inp_files/187476.got.cif
#   From: 2010.06.25/outbox.cif.g09.slc.cpg/sg12_94_cif.got.tgz:187476.got - 2010.06.28 00:19:55.
