data_PCOD8083930
_publ_section_title
;
Structure prediction by ZEFSAII (Michael W. Deem and Ramdas Pophale) SiO2 
 PCOD8083930
Probable space group: C 2/M
;
_chemical_formula_sum "Si O2"
_cell_formula_units_Z 64
_cell_length_a 9.704552
_cell_length_b 26.684372
_cell_length_c 20.038430
_cell_angle_alpha 90.000000
_cell_angle_beta 133.278301
_cell_angle_gamma 90.000000
_cell_volume 3777.869046
_symmetry_space_group_name_H-M "C 2/M"
_symmetry_group_IT_number 12
_symmetry_cell_setting 'monoclinic'
loop_
_space_group_symop_operation_xyz
x,y,z
-x,y,-z
-x,-y,-z
x,-y,z
1/2+x,1/2+y,z
1/2-x,1/2+y,-z
1/2-x,1/2-y,-z
1/2+x,1/2-y,z
loop_
_atom_site_type_symbol
_atom_site_label
_atom_site_fract_x
_atom_site_fract_y
_atom_site_fract_z
Si Si1 0.696966 0.705525 0.814434
Si Si2 0.045601 0.347118 0.200398
Si Si3 0.494519 0.443928 0.105341
Si Si4 0.884017 0.278932 0.657103
Si Si5 0.826512 0.801663 0.901262
Si Si6 0.815683 0.556723 0.101577
Si Si7 0.891581 0.851415 0.785594
Si Si8 0.087534 0.697087 0.596045
O O1 0.563074 0.743464 0.729889
O O2 0.854108 0.742018 0.899682
O O3 0.582967 0.678572 0.834727
O O4 0.788722 0.664277 0.797029
O O5 0.863575 0.313383 0.120206
O O6 0.990080 0.405805 0.175742
O O7 0.114917 0.329442 0.297038
O O8 0.479567 0.500000 0.128657
O O9 0.663775 0.439512 0.109381
O O10 0.545861 0.409062 0.185518
O O11 0.294403 0.429238 0.003777
O O12 0.690843 0.249037 0.608691
O O13 0.912201 0.293858 0.588875
O O14 0.803664 0.831420 0.824721
O O15 0.000000 0.824231 0.000000
O O16 0.897010 0.500000 0.124222
O O17 0.737672 0.842797 0.676184
O O18 0.000000 0.672882 0.500000
#
# Coordination Sequence:
#
# PCOD8083930 Si02
#       8
#     8   8   8   8   8   8   8   8
#     4  10  21  32  45  68 104 133 162 198 242 290
#     4  11  18  32  51  66 101 132 164 207 242 285
#     4   9  17  32  51  72  95 125 168 212 248 286
#     4  10  18  34  49  73 101 134 165 198 245 298
#     4  11  20  31  48  68  94 133 170 197 233 290
#     4   9  17  29  50  75  95 123 169 213 245 284
#     4  11  20  34  50  71  98 130 167 198 250 296
#     4  11  20  32  52  75 103 131 162 205 246 296
#
# _framework density 16.940767999999998
#
# number of rings (size 3 to 8) (size 9 to 14) (size 15 to 20)
#    0.000    1.750    5.000    3.375    0.000    3.000 
#    0.000    0.625    0.000    1.875    0.000    0.000 
#    0.000    0.500    0.000    0.375    0.000    0.000 
#
# Total GULP energy -396574.533587 kJ/mol
# GULP energy per Si atom -12392.954175 kJ/mol
# Density = 1.690221 g / cm^3
# Si number density = 16.940768 Si / 1000 Ang^3
#
#
#
# Elastic Constant Matrix: (Units=GPa)
#
#
# Indices 1 2 3 4 5 6 
#
# 1 44.5372 18.8692 10.2929 0.0000 -0.5638 0.0000
# 2 18.8692 110.8628 40.9294 0.0000 -8.9687 0.0000
# 3 10.2929 40.9294 86.5597 0.0000 -11.6435 0.0000
# 4 0.0000 0.0000 0.0000 17.4730 0.0000 -0.3514
# 5 -0.5638 -8.9687 -11.6435 0.0000 14.6829 0.0000
# 6 0.0000 0.0000 0.0000 -0.3514 0.0000 18.5477
#
#
#
# Elastic Compliance Matrix: (Units=1/GPa)
#
#
# Indices 1 2 3 4 5 6 
#
# 1 0.024372 -0.003825 -0.001430 0.000000 -0.002535 0.000000
# 2 -0.003825 0.011638 -0.004603 0.000000 0.003312 0.000000
# 3 -0.001430 -0.004603 0.015127 0.000000 0.009129 0.000000
# 4 0.000000 0.000000 0.000000 0.057253 0.000000 0.001085
# 5 -0.002535 0.003312 0.009129 0.000000 0.077272 0.000000
# 6 0.000000 0.000000 0.000000 0.001085 0.000000 0.053936
#
#
# Mechanical properties :
#
#
# Convention : Reuss Voigt Hill
#
# Bulk Modulus (GPa) = 31.82565 42.46030 37.14297
# Shear Modulus (GPa) = 18.53303 21.59862 20.06583
#
# Velocity S-wave (km/s) = 3.31114 3.57452 3.44535
# Velocity P-wave (km/s) = 5.78320 6.49266 6.14817
#
# Compressibility (1/GPa) = 0.03142119
#
# Stress axis : x y z
#
# Youngs Moduli (GPa) = 41.03019 85.92179 66.10586
#
# Poissons Ratio (x) = 0.32867 0.09456
# Poissons Ratio (y) = 0.15695 0.30427
# Poissons Ratio (z) = 0.05869 0.39548
#
# Static dielectric constant tensor:
#      x y z
#    x 3.082320 0.000000 -0.021570 
#    y 0.000000 3.300670 0.000000 
#    z -0.021570 0.000000 3.038880 
# 
# 
# High freq. dielectric constant tensor:
#      x y z
#    x 1.649970 0.000000 -0.000430 
#    y 0.000000 1.633800 0.000000 
#    z -0.000430 0.000000 1.626550 
# 
# From -- ./inp_files/302666.got.cif
#   From: 2010.06.25/outbox.cif.g09.slc.cpg/sg12_152_cif.got.tgz:302666.got - 2010.06.28 00:19:55.
