data_PCOD8083953
_publ_section_title
;
Structure prediction by ZEFSAII (Michael W. Deem and Ramdas Pophale) SiO2 
 PCOD8083953
Probable space group: C 2/M
;
_chemical_formula_sum "Si O2"
_cell_formula_units_Z 56
_cell_length_a 15.368054
_cell_length_b 21.506208
_cell_length_c 14.326338
_cell_angle_alpha 90.000000
_cell_angle_beta 43.277055
_cell_angle_gamma 90.000000
_cell_volume 3245.954159
_symmetry_space_group_name_H-M "C 2/M"
_symmetry_group_IT_number 12
_symmetry_cell_setting 'monoclinic'
loop_
_space_group_symop_operation_xyz
x,y,z
-x,y,-z
-x,-y,-z
x,-y,z
1/2+x,1/2+y,z
1/2-x,1/2+y,-z
1/2-x,1/2-y,-z
1/2+x,1/2-y,z
loop_
_atom_site_type_symbol
_atom_site_label
_atom_site_fract_x
_atom_site_fract_y
_atom_site_fract_z
Si Si1 0.290373 0.873356 0.452664
Si Si2 0.980087 0.704196 0.757736
Si Si3 0.084209 0.201841 0.523032
Si Si4 0.253232 0.308205 0.332818
Si Si5 0.032576 0.206333 0.077491
Si Si6 0.628370 0.000000 0.534024
Si Si7 0.234865 0.369502 0.157799
Si Si8 0.332641 0.000000 0.714358
O O1 0.390840 0.831857 0.315791
O O2 0.148164 0.858482 0.524132
O O3 0.310669 0.853837 0.544011
O O4 0.324213 0.945483 0.433939
O O5 0.917717 0.737723 0.896743
O O6 0.882902 0.648156 0.814298
O O7 0.002093 0.755648 0.658497
O O8 0.206147 0.238960 0.389964
O O9 0.000000 0.180297 0.500000
O O10 0.404015 0.316337 0.227417
O O11 0.206889 0.326310 0.267776
O O12 0.131562 0.149110 0.994659
O O13 0.000000 0.232262 0.000000
O O14 0.477809 0.000000 0.634616
O O15 0.687468 0.000000 0.382605
O O16 0.238600 0.441181 0.184641
#
# Coordination Sequence:
#
# PCOD8083953 Si02
#       8
#     8   8   8   8   8   4   8   4
#     4  11  20  34  56  82 111 145 182 237 287 332
#     4  11  19  34  56  84 114 141 184 237 285 328
#     4  11  20  32  59  82 111 141 184 244 294 329
#     4  10  18  34  52  83 112 144 181 226 279 337
#     4  10  21  35  52  79 116 153 183 229 271 334
#     4  11  22  34  58  80 117 148 187 236 278 341
#     4  11  21  33  54  81 120 146 188 214 275 342
#     4  11  22  36  54  87 116 155 186 223 274 345
#
# _framework density 17.252246
#
# number of rings (size 3 to 8) (size 9 to 14) (size 15 to 20)
#    0.000    1.286    7.143    1.286    0.000    0.000 
#    0.000    4.286    0.000    0.000    0.000    4.000 
#    0.000    0.000    0.000    0.000    0.000    0.000 
#
# Total GULP energy -346899.696817 kJ/mol
# GULP energy per Si atom -12389.274886 kJ/mol
# Density = 1.721298 g / cm^3
# Si number density = 17.252246 Si / 1000 Ang^3
#
#
#
# Elastic Constant Matrix: (Units=GPa)
#
#
# Indices 1 2 3 4 5 6 
#
# 1 74.8125 35.8066 20.4593 0.0002 -8.4611 -0.0001
# 2 35.8066 95.5313 34.6920 0.0004 0.8647 -0.0003
# 3 20.4593 34.6920 77.9212 0.0005 -5.5046 -0.0006
# 4 0.0002 0.0004 0.0005 25.1008 -0.0004 -1.6942
# 5 -8.4611 0.8647 -5.5046 -0.0004 20.7165 0.0003
# 6 -0.0001 -0.0003 -0.0006 -1.6942 0.0003 24.1327
#
#
#
# Elastic Compliance Matrix: (Units=1/GPa)
#
#
# Indices 1 2 3 4 5 6 
#
# 1 0.017460 -0.006111 -0.001367 0.000000 0.007023 0.000000
# 2 -0.006111 0.014711 -0.005263 0.000000 -0.004509 0.000000
# 3 -0.001367 -0.005263 0.015809 0.000000 0.003862 0.000000
# 4 0.000000 0.000000 0.000000 0.040029 0.000001 0.002810
# 5 0.007023 -0.004509 0.003862 0.000001 0.052353 -0.000001
# 6 0.000000 0.000000 0.000000 0.002810 -0.000001 0.041635
#
#
# Mechanical properties :
#
#
# Convention : Reuss Voigt Hill
#
# Bulk Modulus (GPa) = 44.45394 47.79784 46.12589
# Shear Modulus (GPa) = 23.25814 24.47714 23.86764
#
# Velocity S-wave (km/s) = 3.67566 3.77076 3.72351
# Velocity P-wave (km/s) = 6.62095 6.83546 6.72906
#
# Compressibility (1/GPa) = 0.02249520
#
# Stress axis : x y z
#
# Youngs Moduli (GPa) = 57.27410 67.97856 63.25657
#
# Poissons Ratio (x) = 0.41543 0.08650
# Poissons Ratio (y) = 0.35002 0.33294
# Poissons Ratio (z) = 0.07832 0.35779
#
# Static dielectric constant tensor:
#      x y z
#    x 3.332600 0.000000 -0.048820 
#    y 0.000000 3.107300 0.000000 
#    z -0.048820 0.000000 3.317140 
# 
# 
# High freq. dielectric constant tensor:
#      x y z
#    x 1.664850 0.000000 -0.008150 
#    y 0.000000 1.640060 0.000000 
#    z -0.008150 0.000000 1.660700 
# 
# From -- ./inp_files/218278.got.cif
#   From: 2010.06.25/outbox.cif.g09.slc.cpg/sg12_110_cif.got.tgz:218278.got - 2010.06.28 00:19:55.
