data_PCOD8083824
_publ_section_title
;
Structure prediction by ZEFSAII (Michael W. Deem and Ramdas Pophale) SiO2 
 PCOD8083824
Probable space group: C 2/M
;
_chemical_formula_sum "Si O2"
_cell_formula_units_Z 48
_cell_length_a 19.209592
_cell_length_b 13.452058
_cell_length_c 9.368626
_cell_angle_alpha 90.000000
_cell_angle_beta 76.447835
_cell_angle_gamma 90.000000
_cell_volume 2353.526926
_symmetry_space_group_name_H-M "C 2/M"
_symmetry_group_IT_number 12
_symmetry_cell_setting 'monoclinic'
loop_
_space_group_symop_operation_xyz
x,y,z
-x,y,-z
-x,-y,-z
x,-y,z
1/2+x,1/2+y,z
1/2-x,1/2+y,-z
1/2-x,1/2-y,-z
1/2+x,1/2-y,z
loop_
_atom_site_type_symbol
_atom_site_label
_atom_site_fract_x
_atom_site_fract_y
_atom_site_fract_z
Si Si1 0.179303 0.108887 0.609738
Si Si2 0.787684 0.114289 0.728478
Si Si3 0.989127 0.610742 0.173418
Si Si4 0.150083 0.720988 0.821079
Si Si5 0.487371 0.390516 0.353176
Si Si6 0.403637 0.269076 0.847282
O O1 0.213460 0.131908 0.440330
O O2 0.196446 0.196691 0.712022
O O3 0.094608 0.105888 0.643369
O O4 0.206748 0.000000 0.650113
O O5 0.707708 0.134247 0.826571
O O6 0.842189 0.194424 0.769685
O O7 0.809051 0.000000 0.755312
O O8 0.980691 0.500000 0.242766
O O9 0.916667 0.675093 0.236773
O O10 0.061123 0.660720 0.206167
O O11 0.000000 0.604427 0.000000
O O12 0.124539 0.772619 0.978515
O O13 0.500000 0.334860 0.500000
O O14 0.521011 0.500000 0.352904
O O15 0.528218 0.341078 0.201114
#
# Coordination Sequence:
#
# PCOD8083824 Si02
#       6
#     8   8   8   8   8   8
#     4  10  21  36  58  86 116 155 194 234 290 346
#     4  11  23  40  61  84 116 160 197 231 288 357
#     4   9  19  36  57  81 113 152 192 233 283 343
#     4  11  22  38  58  88 119 151 193 244 291 337
#     4  10  18  33  58  86 117 152 190 232 285 349
#     4  11  21  36  60  90 113 149 195 245 290 332
#
# _framework density 20.394924
#
# number of rings (size 3 to 8) (size 9 to 14) (size 15 to 20)
#    0.000    1.667    3.333    2.000    0.000    2.000 
#    0.000    2.500    0.000    5.500    0.000    0.000 
#    0.000    0.000    0.000    0.000    0.000    0.000 
#
# Total GULP energy -297406.229451 kJ/mol
# GULP energy per Si atom -12391.926227 kJ/mol
# Density = 2.034850 g / cm^3
# Si number density = 20.394924 Si / 1000 Ang^3
#
#
#
# Elastic Constant Matrix: (Units=GPa)
#
#
# Indices 1 2 3 4 5 6 
#
# 1 73.8379 30.9286 10.5186 0.0000 -12.6769 0.0000
# 2 30.9286 122.0059 44.8165 0.0000 0.8141 0.0000
# 3 10.5186 44.8165 80.8510 0.0000 -19.7435 0.0000
# 4 0.0000 0.0000 0.0000 12.7659 0.0000 14.5871
# 5 -12.6769 0.8141 -19.7435 0.0000 24.4750 0.0000
# 6 0.0000 0.0000 0.0000 14.5871 0.0000 16.9959
#
#
#
# Elastic Compliance Matrix: (Units=1/GPa)
#
#
# Indices 1 2 3 4 5 6 
#
# 1 0.017697 -0.006115 0.004204 0.000000 0.012760 0.000000
# 2 -0.006115 0.013208 -0.009224 0.000000 -0.011047 0.000000
# 3 0.004204 -0.009224 0.021844 0.000000 0.020105 0.000000
# 4 0.000000 0.000000 0.000000 4.060669 0.000000 -3.485146
# 5 0.012760 -0.011047 0.020105 0.000000 0.064053 0.000000
# 6 0.000000 0.000000 0.000000 -3.485146 0.000000 3.050029
#
#
# Mechanical properties :
#
#
# Convention : Reuss Voigt Hill
#
# Bulk Modulus (GPa) = 32.81056 49.91358 41.36207
# Shear Modulus (GPa) = 0.68871 23.54276 12.11574
#
# Velocity S-wave (km/s) = 0.58174 3.40125 2.43997
# Velocity P-wave (km/s) = 4.07109 6.32071 5.31625
#
# Compressibility (1/GPa) = 0.03047799
#
# Stress axis : x y z
#
# Youngs Moduli (GPa) = 56.50773 75.70909 45.77931
#
# Poissons Ratio (x) = 0.46299 -0.19244
# Poissons Ratio (y) = 0.34557 0.42226
# Poissons Ratio (z) = -0.23753 0.69832
#
# Static dielectric constant tensor:
#      x y z
#    x 3.583280 0.000000 -0.215150 
#    y 0.000000 4.244700 0.000000 
#    z -0.215150 0.000000 3.679210 
# 
# 
# High freq. dielectric constant tensor:
#      x y z
#    x 1.786310 0.000000 -0.026690 
#    y 0.000000 1.801360 0.000000 
#    z -0.026690 0.000000 1.778630 
# 
# From -- ./inp_files/85705.got.cif
#   From: 2010.06.25/outbox.cif.g09.slc.cpg/sg12_43_cif.got.tgz:85705.got - 2010.06.28 00:19:55.
