data_PCOD8083278
_publ_section_title
;
Structure prediction by ZEFSAII (Michael W. Deem and Ramdas Pophale) SiO2 
 PCOD8083278
Probable space group: C 2/M
;
_chemical_formula_sum "Si O2"
_cell_formula_units_Z 48
_cell_length_a 15.505385
_cell_length_b 13.044992
_cell_length_c 19.501058
_cell_angle_alpha 90.000000
_cell_angle_beta 37.352667
_cell_angle_gamma 90.000000
_cell_volume 2393.163629
_symmetry_space_group_name_H-M "C 2/M"
_symmetry_group_IT_number 12
_symmetry_cell_setting 'monoclinic'
loop_
_space_group_symop_operation_xyz
x,y,z
-x,y,-z
-x,-y,-z
x,-y,z
1/2+x,1/2+y,z
1/2-x,1/2+y,-z
1/2-x,1/2-y,-z
1/2+x,1/2-y,z
loop_
_atom_site_type_symbol
_atom_site_label
_atom_site_fract_x
_atom_site_fract_y
_atom_site_fract_z
Si Si1 0.844381 0.614741 0.847258
Si Si2 0.912888 0.322465 0.657016
Si Si3 0.698860 0.883458 0.421789
Si Si4 0.363216 0.615013 0.635258
Si Si5 0.100139 0.733073 0.749580
Si Si6 0.524183 0.617004 0.064172
O O1 0.892531 0.500000 0.834458
O O2 0.837226 0.626207 0.769447
O O3 0.954855 0.690968 0.811717
O O4 0.689844 0.636422 0.976413
O O5 0.848945 0.365532 0.626701
O O6 0.890357 0.199290 0.677117
O O7 0.079063 0.351480 0.552111
O O8 0.835355 0.811077 0.348093
O O9 0.742510 0.000000 0.406706
O O10 0.500000 0.622261 0.500000
O O11 0.349196 0.500000 0.674487
O O12 0.215193 0.643192 0.690645
O O13 0.070436 0.799618 0.836676
O O14 0.481585 0.500000 0.111679
O O15 0.500000 0.635652 0.000000
#
# Coordination Sequence:
#
# PCOD8083278 Si02
#       6
#     8   8   8   8   8   8
#     4  11  23  37  57  85 117 151 188 232 288 342
#     4  10  18  35  56  83 111 149 192 238 279 329
#     4  10  18  32  55  83 111 147 191 238 282 326
#     4  10  19  36  57  80 111 152 195 228 270 336
#     4  11  21  36  56  83 119 152 182 233 285 339
#     4  10  21  39  64  88 109 145 193 237 282 335
#
# _framework density 20.057133
#
# number of rings (size 3 to 8) (size 9 to 14) (size 15 to 20)
#    0.000    1.667    3.333    5.500    0.000    2.000 
#    0.000    1.667    0.000   11.000    0.000    0.000 
#    0.000    0.000    0.000    0.000    0.000    0.000 
#
# Total GULP energy -297494.767115 kJ/mol
# GULP energy per Si atom -12395.615296 kJ/mol
# Density = 2.001148 g / cm^3
# Si number density = 20.057133 Si / 1000 Ang^3
#
#
#
# Elastic Constant Matrix: (Units=GPa)
#
#
# Indices 1 2 3 4 5 6 
#
# 1 34.1456 12.3451 4.5817 0.0000 -11.8692 0.0000
# 2 12.3451 133.9673 30.8510 -0.0001 -18.0887 0.0001
# 3 4.5817 30.8510 74.7565 -0.0003 -10.5313 0.0003
# 4 0.0000 -0.0001 -0.0003 25.2019 0.0001 1.0233
# 5 -11.8692 -18.0887 -10.5313 0.0001 28.0147 0.0000
# 6 0.0000 0.0001 0.0003 1.0233 0.0000 22.5554
#
#
#
# Elastic Compliance Matrix: (Units=1/GPa)
#
#
# Indices 1 2 3 4 5 6 
#
# 1 0.034569 -0.001406 0.000419 0.000000 0.013896 0.000000
# 2 -0.001406 0.008820 -0.002994 0.000000 0.003974 0.000000
# 3 0.000419 -0.002994 0.015141 0.000000 0.003936 0.000000
# 4 0.000000 0.000000 0.000000 0.039753 0.000000 -0.001804
# 5 0.013896 0.003974 0.003936 0.000000 0.045628 0.000000
# 6 0.000000 0.000000 0.000000 -0.001804 0.000000 0.044417
#
#
# Mechanical properties :
#
#
# Convention : Reuss Voigt Hill
#
# Bulk Modulus (GPa) = 19.77517 37.60279 28.68898
# Shear Modulus (GPa) = 23.45812 28.16050 25.80931
#
# Velocity S-wave (km/s) = 3.42360 3.75108 3.59108
# Velocity P-wave (km/s) = 5.05063 6.12775 5.61508
#
# Compressibility (1/GPa) = 0.05056846
#
# Stress axis : x y z
#
# Youngs Moduli (GPa) = 28.92801 113.37746 66.04512
#
# Poissons Ratio (x) = 0.15938 -0.02767
# Poissons Ratio (y) = 0.04067 0.19774
# Poissons Ratio (z) = -0.01212 0.33945
#
# Static dielectric constant tensor:
#      x y z
#    x 3.147140 0.000000 -0.253070 
#    y 0.000000 3.924930 0.000000 
#    z -0.253070 0.000000 3.966610 
# 
# 
# High freq. dielectric constant tensor:
#      x y z
#    x 1.737960 0.000000 -0.022680 
#    y 0.000000 1.792830 0.000000 
#    z -0.022680 0.000000 1.798970 
# 
# From -- ./inp_files/343554.got.cif
#   From: 2010.06.25/outbox.cif.g09.slc.cpg/sg12_172_cif.got.tgz:343554.got - 2010.06.28 00:19:55.
