data_PCOD8083377
_publ_section_title
;
Structure prediction by ZEFSAII (Michael W. Deem and Ramdas Pophale) SiO2 
 PCOD8083377
Probable space group: C 2/M
;
_chemical_formula_sum "Si O2"
_cell_formula_units_Z 44
_cell_length_a 11.379522
_cell_length_b 20.686311
_cell_length_c 10.443808
_cell_angle_alpha 90.000000
_cell_angle_beta 111.404549
_cell_angle_gamma 90.000000
_cell_volume 2288.907021
_symmetry_space_group_name_H-M "C 2/M"
_symmetry_group_IT_number 12
_symmetry_cell_setting 'monoclinic'
loop_
_space_group_symop_operation_xyz
x,y,z
-x,y,-z
-x,-y,-z
x,-y,z
1/2+x,1/2+y,z
1/2-x,1/2+y,-z
1/2-x,1/2-y,-z
1/2+x,1/2-y,z
loop_
_atom_site_type_symbol
_atom_site_label
_atom_site_fract_x
_atom_site_fract_y
_atom_site_fract_z
Si Si1 0.081108 0.573878 0.266564
Si Si2 0.500959 0.318420 0.853757
Si Si3 0.228518 0.698088 0.709780
Si Si4 0.500000 0.878239 0.500000
Si Si5 0.734448 0.337927 0.782622
Si Si6 0.602019 0.177786 0.909775
O O1 0.077885 0.500000 0.220629
O O2 0.049061 0.577385 0.404356
O O3 0.220448 0.602861 0.289536
O O4 0.976303 0.612936 0.146411
O O5 0.366232 0.330405 0.729483
O O6 0.607092 0.355017 0.810939
O O7 0.517950 0.241266 0.856037
O O8 0.500000 0.344330 0.000000
O O9 0.117197 0.666556 0.584952
O O10 0.217325 0.775406 0.685041
O O11 0.217593 0.682462 0.857011
O O12 0.847227 0.323018 0.926781
#
# Coordination Sequence:
#
# PCOD8083377 Si02
#       6
#     8   8   8   4   8   8
#     4  11  23  40  58  79 114 159 203 238 271 328
#     4  11  16  31  58  89 124 147 170 229 307 353
#     4  10  19  35  57  88 120 152 185 233 290 349
#     4  10  25  42  60  82 109 154 206 242 280 330
#     4  11  20  32  56  91 120 144 181 236 295 348
#     4  10  18  32  56  91 121 144 184 230 294 346
#
# _framework density 19.223147999999998
#
# number of rings (size 3 to 8) (size 9 to 14) (size 15 to 20)
#    0.000    1.455    5.455    1.909    0.000    2.182 
#    0.000    0.000    0.000    7.091    0.000    0.000 
#    0.000    0.000    0.000    0.000    0.000    0.000 
#
# Total GULP energy -272708.884074 kJ/mol
# GULP energy per Si atom -12395.858367 kJ/mol
# Density = 1.917940 g / cm^3
# Si number density = 19.223148 Si / 1000 Ang^3
#
#
#
# Elastic Constant Matrix: (Units=GPa)
#
#
# Indices 1 2 3 4 5 6 
#
# 1 149.4987 41.2834 28.1626 0.0000 0.7615 0.0000
# 2 41.2834 93.0948 10.5525 0.0000 4.4908 0.0000
# 3 28.1626 10.5525 52.6246 0.0000 16.3897 0.0000
# 4 0.0000 0.0000 0.0000 15.3977 0.0000 -0.1255
# 5 0.7615 4.4908 16.3897 0.0000 17.8785 0.0000
# 6 0.0000 0.0000 0.0000 -0.1255 0.0000 18.9299
#
#
#
# Elastic Compliance Matrix: (Units=1/GPa)
#
#
# Indices 1 2 3 4 5 6 
#
# 1 0.008708 -0.003488 -0.005764 0.000000 0.005789 0.000000
# 2 -0.003488 0.012402 0.000425 0.000000 -0.003356 0.000000
# 3 -0.005764 0.000425 0.030734 0.000000 -0.028036 0.000000
# 4 0.000000 0.000000 0.000000 0.064948 0.000000 0.000431
# 5 0.005789 -0.003356 -0.028036 0.000000 0.082231 0.000000
# 6 0.000000 0.000000 0.000000 0.000431 0.000000 0.052829
#
#
# Mechanical properties :
#
#
# Convention : Reuss Voigt Hill
#
# Bulk Modulus (GPa) = 29.24816 50.57943 39.91380
# Shear Modulus (GPa) = 17.79974 24.78920 21.29447
#
# Velocity S-wave (km/s) = 3.04625 3.59493 3.33190
# Velocity P-wave (km/s) = 5.25556 6.60304 5.96746
#
# Compressibility (1/GPa) = 0.03419019
#
# Stress axis : x y z
#
# Youngs Moduli (GPa) = 114.83050 80.63138 32.53770
#
# Poissons Ratio (x) = 0.28122 0.18755
# Poissons Ratio (y) = 0.40050 -0.01382
# Poissons Ratio (z) = 0.66189 -0.03425
#
# Static dielectric constant tensor:
#      x y z
#    x 4.026360 0.000000 -0.170310 
#    y 0.000000 3.048560 0.000000 
#    z -0.170310 0.000000 3.310940 
# 
# 
# High freq. dielectric constant tensor:
#      x y z
#    x 1.778610 0.000000 -0.006970 
#    y 0.000000 1.696750 0.000000 
#    z -0.006970 0.000000 1.729510 
# 
# From -- ./inp_files/131866.got.cif
#   From: 2010.06.25/outbox.cif.g09.slc.cpg/sg12_66_cif.got.tgz:131866.got - 2010.06.28 00:19:55.
