data_PCOD8083829
_publ_section_title
;
Structure prediction by ZEFSAII (Michael W. Deem and Ramdas Pophale) SiO2 
 PCOD8083829
Probable space group: C 2/M
;
_chemical_formula_sum "Si O2"
_cell_formula_units_Z 64
_cell_length_a 28.093674
_cell_length_b 8.759826
_cell_length_c 15.387511
_cell_angle_alpha 90.000000
_cell_angle_beta 57.549531
_cell_angle_gamma 90.000000
_cell_volume 3195.512635
_symmetry_space_group_name_H-M "C 2/M"
_symmetry_group_IT_number 12
_symmetry_cell_setting 'monoclinic'
loop_
_space_group_symop_operation_xyz
x,y,z
-x,y,-z
-x,-y,-z
x,-y,z
1/2+x,1/2+y,z
1/2-x,1/2+y,-z
1/2-x,1/2-y,-z
1/2+x,1/2-y,z
loop_
_atom_site_type_symbol
_atom_site_label
_atom_site_fract_x
_atom_site_fract_y
_atom_site_fract_z
Si Si1 0.372925 0.820035 0.532469
Si Si2 0.057125 0.320154 0.180354
Si Si3 0.937457 0.179812 0.314390
Si Si4 0.146731 0.823261 0.755267
Si Si5 0.257008 0.320326 0.587356
Si Si6 0.128307 0.320266 0.272897
Si Si7 0.253059 0.821393 0.903594
Si Si8 0.368777 0.675559 0.037098
O O1 0.420380 0.760500 0.420647
O O2 0.313133 0.742195 0.576212
O O3 0.393828 0.777072 0.609376
O O4 0.365418 0.000000 0.528355
O O5 0.046012 0.500000 0.196815
O O6 0.087257 0.255123 0.238070
O O7 0.095022 0.285507 0.059197
O O8 0.998832 0.232751 0.225620
O O9 0.894486 0.230472 0.281050
O O10 0.936333 0.000000 0.329326
O O11 0.203373 0.723648 0.698103
O O12 0.163910 0.000000 0.727696
O O13 0.114757 0.797508 0.878304
O O14 0.262447 0.500000 0.572932
O O15 0.250000 0.250000 0.500000
O O16 0.130061 0.500000 0.259162
O O17 0.191826 0.254670 0.199387
O O18 0.259600 0.000000 0.909338
O O19 0.250000 0.750000 0.000000
O O20 0.197121 0.780446 0.904883
O O21 0.379365 0.500000 0.998911
#
# Coordination Sequence:
#
# PCOD8083829 Si02
#       8
#     8   8   8   8   8   8   8   8
#     4  11  22  40  65  90 120 158 201 248 298 360
#     4  11  23  41  63  86 118 159 204 252 301 358
#     4  11  24  42  62  86 118 156 204 255 303 358
#     4  10  22  41  64  87 120 161 201 246 299 360
#     4  12  23  37  61  93 127 160 196 242 300 359
#     4   9  20  38  61  88 120 159 199 240 299 363
#     4  10  18  33  58  87 119 152 190 235 290 353
#     4  10  21  38  62  90 119 157 199 246 303 357
#
# _framework density 20.028085999999998
#
# number of rings (size 3 to 8) (size 9 to 14) (size 15 to 20)
#    0.000    1.500    2.500    3.000    0.000    4.000 
#    0.000   10.000    0.000    0.000    0.000    0.000 
#    0.000    0.000    0.000    0.000    0.000    0.000 
#
# Total GULP energy -396873.428294 kJ/mol
# GULP energy per Si atom -12402.294634 kJ/mol
# Density = 1.998250 g / cm^3
# Si number density = 20.028086 Si / 1000 Ang^3
#
#
#
# Elastic Constant Matrix: (Units=GPa)
#
#
# Indices 1 2 3 4 5 6 
#
# 1 63.2286 28.4033 42.5771 0.0000 -4.3356 0.0001
# 2 28.4033 71.9256 31.7613 0.0000 0.4142 0.0004
# 3 42.5771 31.7613 103.2894 0.0000 16.4517 0.0000
# 4 0.0000 0.0000 0.0000 36.1865 0.0000 -3.1053
# 5 -4.3356 0.4142 16.4517 0.0000 33.7194 0.0001
# 6 0.0001 0.0004 0.0000 -3.1053 0.0001 26.9810
#
#
#
# Elastic Compliance Matrix: (Units=1/GPa)
#
#
# Indices 1 2 3 4 5 6 
#
# 1 0.025858 -0.005743 -0.010229 0.000000 0.008386 0.000000
# 2 -0.005743 0.017545 -0.003118 0.000000 0.000567 0.000000
# 3 -0.010229 -0.003118 0.016329 0.000000 -0.009244 0.000000
# 4 0.000000 0.000000 0.000000 0.027910 0.000000 0.003212
# 5 0.008386 0.000567 -0.009244 0.000000 0.035238 0.000000
# 6 0.000000 0.000000 0.000000 0.003212 0.000000 0.037433
#
#
# Mechanical properties :
#
#
# Convention : Reuss Voigt Hill
#
# Bulk Modulus (GPa) = 46.39800 49.32520 47.86160
# Shear Modulus (GPa) = 24.30991 28.42415 26.36703
#
# Velocity S-wave (km/s) = 3.48773 3.77133 3.63230
# Velocity P-wave (km/s) = 6.27979 6.60647 6.44520
#
# Compressibility (1/GPa) = 0.02155265
#
# Stress axis : x y z
#
# Youngs Moduli (GPa) = 38.67210 56.99722 61.23998
#
# Poissons Ratio (x) = 0.32732 0.62642
# Poissons Ratio (y) = 0.22208 0.19095
# Poissons Ratio (z) = 0.39558 0.17772
#
# Static dielectric constant tensor:
#      x y z
#    x 3.853360 0.000000 0.088560 
#    y 0.000000 3.602060 0.000000 
#    z 0.088560 0.000000 3.734140 
# 
# 
# High freq. dielectric constant tensor:
#      x y z
#    x 1.783990 0.000000 0.006680 
#    y 0.000000 1.768920 0.000000 
#    z 0.006680 0.000000 1.791880 
# 
# From -- ./inp_files/249762.got.cif
#   From: 2010.06.25/outbox.cif.g09.slc.cpg/sg12_125_cif.got.tgz:249762.got - 2010.06.28 00:19:55.
