data_PCOD8083898
_publ_section_title
;
Structure prediction by ZEFSAII (Michael W. Deem and Ramdas Pophale) SiO2 
 PCOD8083898
Probable space group: C 2/M
;
_chemical_formula_sum "Si O2"
_cell_formula_units_Z 48
_cell_length_a 19.193931
_cell_length_b 20.173053
_cell_length_c 8.249671
_cell_angle_alpha 90.000000
_cell_angle_beta 135.364061
_cell_angle_gamma 90.000000
_cell_volume 2244.295540
_symmetry_space_group_name_H-M "C 2/M"
_symmetry_group_IT_number 12
_symmetry_cell_setting 'monoclinic'
loop_
_space_group_symop_operation_xyz
x,y,z
-x,y,-z
-x,-y,-z
x,-y,z
1/2+x,1/2+y,z
1/2-x,1/2+y,-z
1/2-x,1/2-y,-z
1/2+x,1/2-y,z
loop_
_atom_site_type_symbol
_atom_site_label
_atom_site_fract_x
_atom_site_fract_y
_atom_site_fract_z
Si Si1 0.655523 0.193955 0.186444
Si Si2 0.292770 0.573209 0.972075
Si Si3 0.971906 0.268977 0.716284
Si Si4 0.001945 0.876717 0.312219
Si Si5 0.786348 0.073219 0.344116
Si Si6 0.710322 0.787528 0.774579
O O1 0.600934 0.210582 0.260659
O O2 0.709425 0.123627 0.296973
O O3 0.737073 0.250521 0.287888
O O4 0.574511 0.189419 0.903552
O O5 0.254999 0.500000 0.851789
O O6 0.407453 0.578924 0.108251
O O7 0.280699 0.579848 0.142990
O O8 0.231208 0.634112 0.796408
O O9 0.005832 0.193169 0.791798
O O10 0.909389 0.279306 0.445313
O O11 0.100891 0.913042 0.415228
O O12 0.000000 0.863571 0.500000
O O13 0.756520 0.000000 0.354171
O O14 0.750000 0.750000 0.000000
#
# Coordination Sequence:
#
# PCOD8083898 Si02
#       6
#     8   8   8   8   8   8
#     4  11  23  40  59  89 120 161 200 251 294 351
#     4  10  20  35  57  91 126 150 189 252 310 357
#     4  11  24  37  61  89 123 153 205 252 295 349
#     4  10  18  33  60  91 119 151 194 248 301 358
#     4  10  20  36  59  87 120 160 203 243 299 359
#     4  12  21  38  63  90 119 158 202 248 295 358
#
# _framework density 21.387557999999999
#
# number of rings (size 3 to 8) (size 9 to 14) (size 15 to 20)
#    0.000    1.333    5.000    2.000    0.000    2.000 
#    0.000    3.333    0.000    3.000    0.000    0.000 
#    0.000    0.000    0.000    0.000    0.000    0.000 
#
# Total GULP energy -297494.082590 kJ/mol
# GULP energy per Si atom -12395.586775 kJ/mol
# Density = 2.133888 g / cm^3
# Si number density = 21.387558 Si / 1000 Ang^3
#
#
#
# Elastic Constant Matrix: (Units=GPa)
#
#
# Indices 1 2 3 4 5 6 
#
# 1 39.3877 27.4562 -6.3331 0.0000 15.1723 0.0000
# 2 27.4562 167.7042 10.1618 0.0000 11.8561 0.0000
# 3 -6.3331 10.1618 75.9891 0.0000 16.8344 0.0000
# 4 0.0000 0.0000 0.0000 17.3076 0.0000 17.4331
# 5 15.1723 11.8561 16.8344 0.0000 24.5389 0.0000
# 6 0.0000 0.0000 0.0000 17.4331 0.0000 22.3893
#
#
#
# Elastic Compliance Matrix: (Units=1/GPa)
#
#
# Indices 1 2 3 4 5 6 
#
# 1 0.043435 -0.005540 0.011459 0.000000 -0.032040 0.000000
# 2 -0.005540 0.006883 -0.001656 0.000000 0.001236 0.000000
# 3 0.011459 -0.001656 0.018548 0.000000 -0.019009 0.000000
# 4 0.000000 0.000000 0.000000 0.267839 0.000000 -0.208549
# 5 -0.032040 0.001236 -0.019009 0.000000 0.073006 0.000000
# 6 0.000000 0.000000 0.000000 -0.208549 0.000000 0.207048
#
#
# Mechanical properties :
#
#
# Convention : Reuss Voigt Hill
#
# Bulk Modulus (GPa) = 12.92138 38.40563 25.66351
# Shear Modulus (GPa) = 7.88606 29.63354 18.75980
#
# Velocity S-wave (km/s) = 1.92230 3.72634 2.96486
# Velocity P-wave (km/s) = 3.31385 6.04236 4.87297
#
# Compressibility (1/GPa) = 0.07739109
#
# Stress axis : x y z
#
# Youngs Moduli (GPa) = 23.02273 145.28794 53.91561
#
# Poissons Ratio (x) = 0.80494 -0.61782
# Poissons Ratio (y) = 0.12755 0.08929
# Poissons Ratio (z) = -0.26382 0.24060
#
# Static dielectric constant tensor:
#      x y z
#    x 3.764850 0.000000 0.267770 
#    y 0.000000 3.952950 0.000000 
#    z 0.267770 0.000000 4.187310 
# 
# 
# High freq. dielectric constant tensor:
#      x y z
#    x 1.831130 0.000000 0.015240 
#    y 0.000000 1.831600 0.000000 
#    z 0.015240 0.000000 1.830080 
# 
# From -- ./inp_files/63587.got.cif
#   From: 2010.06.25/outbox.cif.g09.slc.cpg/sg12_32_cif.got.tgz:63587.got - 2010.06.28 00:19:55.
