data_PCOD8083333
_publ_section_title
;
Structure prediction by ZEFSAII (Michael W. Deem and Ramdas Pophale) SiO2 
 PCOD8083333
Probable space group: C 2/M
;
_chemical_formula_sum "Si O2"
_cell_formula_units_Z 48
_cell_length_a 20.166078
_cell_length_b 8.858984
_cell_length_c 13.786124
_cell_angle_alpha 90.000000
_cell_angle_beta 89.820738
_cell_angle_gamma 90.000000
_cell_volume 2462.892265
_symmetry_space_group_name_H-M "C 2/M"
_symmetry_group_IT_number 12
_symmetry_cell_setting 'monoclinic'
loop_
_space_group_symop_operation_xyz
x,y,z
-x,y,-z
-x,-y,-z
x,-y,z
1/2+x,1/2+y,z
1/2-x,1/2+y,-z
1/2-x,1/2-y,-z
1/2+x,1/2-y,z
loop_
_atom_site_type_symbol
_atom_site_label
_atom_site_fract_x
_atom_site_fract_y
_atom_site_fract_z
Si Si1 0.058046 0.822185 0.425834
Si Si2 0.122172 0.178447 0.862651
Si Si3 0.696630 0.821134 0.429483
Si Si4 0.484638 0.679404 0.784446
Si Si5 0.261704 0.177319 0.784122
Si Si6 0.133768 0.179137 0.080262
O O1 0.124282 0.737730 0.459676
O O2 0.036282 0.760095 0.320880
O O3 0.000000 0.780335 0.500000
O O4 0.072652 0.000000 0.424679
O O5 0.184678 0.222991 0.795969
O O6 0.056282 0.247049 0.813236
O O7 0.114379 0.000000 0.870638
O O8 0.130483 0.243626 0.971194
O O9 0.750000 0.750000 0.500000
O O10 0.713091 0.766563 0.320335
O O11 0.699904 0.000000 0.438617
O O12 0.487969 0.500000 0.781559
O O13 0.431387 0.736586 0.862999
O O14 0.300995 0.258154 0.869336
O O15 0.271834 0.000000 0.796439
O O16 0.137934 0.000000 0.081804
#
# Coordination Sequence:
#
# PCOD8083333 Si02
#       6
#     8   8   8   8   8   8
#     4  10  21  37  61  87 111 144 188 236 286 341
#     4   9  18  31  52  82 111 144 185 225 268 322
#     4  11  24  40  60  83 113 149 188 235 284 338
#     4   9  17  31  53  81 110 139 179 228 271 320
#     4  10  21  36  55  79 111 147 180 222 277 334
#     4  10  18  32  56  82 109 142 184 230 271 320
#
# _framework density 19.489281999999999
#
# number of rings (size 3 to 8) (size 9 to 14) (size 15 to 20)
#    0.000    2.167    1.667    1.500    2.333    3.000 
#    0.000    0.000    0.000    4.000    0.000    0.000 
#    0.000    0.000    0.000    0.000    0.000    0.000 
#
# Total GULP energy -297651.016621 kJ/mol
# GULP energy per Si atom -12402.125693 kJ/mol
# Density = 1.944492 g / cm^3
# Si number density = 19.489282 Si / 1000 Ang^3
#
#
#
# Elastic Constant Matrix: (Units=GPa)
#
#
# Indices 1 2 3 4 5 6 
#
# 1 156.9907 32.1879 59.1872 0.0000 8.3769 0.0000
# 2 32.1879 27.9923 27.3706 0.0000 0.6109 0.0000
# 3 59.1872 27.3706 111.7896 0.0000 3.7800 0.0000
# 4 0.0000 0.0000 0.0000 18.4024 0.0000 6.8867
# 5 8.3769 0.6109 3.7800 0.0000 42.8189 0.0000
# 6 0.0000 0.0000 0.0000 6.8867 0.0000 25.0502
#
#
#
# Elastic Compliance Matrix: (Units=1/GPa)
#
#
# Indices 1 2 3 4 5 6 
#
# 1 0.009098 -0.007583 -0.002913 0.000000 -0.001415 0.000000
# 2 -0.007583 0.053294 -0.009085 0.000000 0.001525 0.000000
# 3 -0.002913 -0.009085 0.012726 0.000000 -0.000424 0.000000
# 4 0.000000 0.000000 0.000000 0.060573 0.000000 -0.016652
# 5 -0.001415 0.001525 -0.000424 0.000000 0.023647 0.000000
# 6 0.000000 0.000000 0.000000 -0.016652 0.000000 0.044498
#
#
# Mechanical properties :
#
#
# Convention : Reuss Voigt Hill
#
# Bulk Modulus (GPa) = 27.81133 59.36265 43.58699
# Shear Modulus (GPa) = 19.60922 29.12278 24.36600
#
# Velocity S-wave (km/s) = 3.17543 3.86981 3.53969
# Velocity P-wave (km/s) = 5.26741 7.10580 6.25452
#
# Compressibility (1/GPa) = 0.03595657
#
# Stress axis : x y z
#
# Youngs Moduli (GPa) = 109.91316 18.76391 78.57811
#
# Poissons Ratio (x) = 0.14229 0.22886
# Poissons Ratio (y) = 0.83347 0.71390
# Poissons Ratio (z) = 0.32013 0.17047
#
# Static dielectric constant tensor:
#      x y z
#    x 3.739580 0.000000 -0.023090 
#    y 0.000000 3.116320 0.000000 
#    z -0.023090 0.000000 3.768040 
# 
# 
# High freq. dielectric constant tensor:
#      x y z
#    x 1.777280 0.000000 -0.000640 
#    y 0.000000 1.713120 0.000000 
#    z -0.000640 0.000000 1.770620 
# 
# From -- ./inp_files/221509.got.cif
#   From: 2010.06.25/outbox.cif.g09.slc.cpg/sg12_111_cif.got.tgz:221509.got - 2010.06.28 00:19:55.
