data_PCOD8083666
_publ_section_title
;
Structure prediction by ZEFSAII (Michael W. Deem and Ramdas Pophale) SiO2 
 PCOD8083666
Probable space group: C 2/M
;
_chemical_formula_sum "Si O2"
_cell_formula_units_Z 64
_cell_length_a 25.736470
_cell_length_b 9.431284
_cell_length_c 15.086886
_cell_angle_alpha 90.000000
_cell_angle_beta 102.977384
_cell_angle_gamma 90.000000
_cell_volume 3568.476858
_symmetry_space_group_name_H-M "C 2/M"
_symmetry_group_IT_number 12
_symmetry_cell_setting 'monoclinic'
loop_
_space_group_symop_operation_xyz
x,y,z
-x,y,-z
-x,-y,-z
x,-y,z
1/2+x,1/2+y,z
1/2-x,1/2+y,-z
1/2-x,1/2-y,-z
1/2+x,1/2-y,z
loop_
_atom_site_type_symbol
_atom_site_label
_atom_site_fract_x
_atom_site_fract_y
_atom_site_fract_z
Si Si1 0.045375 0.847078 0.083813
Si Si2 0.382711 0.166856 0.669505
Si Si3 0.387387 0.166110 0.188947
Si Si4 0.197842 0.665881 0.506873
Si Si5 0.699581 0.834172 0.709948
Si Si6 0.803932 0.339109 0.792698
Si Si7 0.371327 0.839331 0.981697
Si Si8 0.993548 0.331572 0.772390
O O1 0.092534 0.778359 0.047323
O O2 0.021584 0.731867 0.139912
O O3 0.063453 0.000000 0.133850
O O4 0.000000 0.888385 0.000000
O O5 0.350502 0.225498 0.572338
O O6 0.354363 0.213300 0.751467
O O7 0.444928 0.217676 0.688591
O O8 0.383012 0.000000 0.664612
O O9 0.346865 0.231239 0.245572
O O10 0.447425 0.226337 0.230675
O O11 0.389945 0.000000 0.205326
O O12 0.364178 0.201499 0.082279
O O13 0.208565 0.500000 0.493841
O O14 0.250000 0.750000 0.500000
O O15 0.182498 0.695427 0.602474
O O16 0.754662 0.759903 0.753329
O O17 0.707989 0.000000 0.731265
O O18 0.789261 0.500000 0.759836
O O19 0.816981 0.331857 0.902905
O O20 0.394976 0.000000 0.984270
O O21 0.995184 0.500000 0.783454
#
# Coordination Sequence:
#
# PCOD8083666 Si02
#       8
#     8   8   8   8   8   8   8   8
#     4  11  21  30  45  75 110 134 165 216 261 295
#     4   9  17  30  51  81 105 122 163 219 257 296
#     4   9  19  34  53  74 100 137 182 210 239 303
#     4  10  19  33  54  77 104 130 162 209 263 309
#     4  10  21  36  52  75 105 137 169 210 260 310
#     4  10  19  32  52  78 104 131 171 216 255 301
#     4  10  19  33  53  74  99 138 180 212 246 299
#     4  10  18  33  56  75  98 139 178 210 249 300
#
# _framework density 17.934823000000002
#
# number of rings (size 3 to 8) (size 9 to 14) (size 15 to 20)
#    0.000    2.125    3.750    0.375    0.000    1.500 
#    0.000    2.500    0.000    3.750    0.000    0.000 
#    0.000    3.000    0.000    0.000    0.000    0.000 
#
# Total GULP energy -396457.399911 kJ/mol
# GULP energy per Si atom -12389.293747 kJ/mol
# Density = 1.789400 g / cm^3
# Si number density = 17.934823 Si / 1000 Ang^3
#
#
#
# Elastic Constant Matrix: (Units=GPa)
#
#
# Indices 1 2 3 4 5 6 
#
# 1 99.1958 22.5377 68.6132 0.0000 7.0253 0.0000
# 2 22.5377 37.4817 22.4022 0.0000 0.5075 0.0000
# 3 68.6132 22.4022 118.1301 0.0000 13.1281 0.0000
# 4 0.0000 0.0000 0.0000 14.3985 0.0000 4.8505
# 5 7.0253 0.5075 13.1281 0.0000 32.3654 0.0000
# 6 0.0000 0.0000 0.0000 4.8505 0.0000 20.4978
#
#
#
# Elastic Compliance Matrix: (Units=1/GPa)
#
#
# Indices 1 2 3 4 5 6 
#
# 1 0.017664 -0.005062 -0.009302 0.000000 0.000018 0.000000
# 2 -0.005062 0.031656 -0.003278 0.000000 0.001932 0.000000
# 3 -0.009302 -0.003278 0.014933 0.000000 -0.003987 0.000000
# 4 0.000000 0.000000 0.000000 0.075468 0.000000 -0.017858
# 5 0.000018 0.001932 -0.003987 0.000000 0.032480 0.000000
# 6 0.000000 0.000000 0.000000 -0.017858 0.000000 0.053012
#
#
# Mechanical properties :
#
#
# Convention : Reuss Voigt Hill
#
# Bulk Modulus (GPa) = 34.51887 53.54599 44.03243
# Shear Modulus (GPa) = 18.50809 22.86930 20.68869
#
# Velocity S-wave (km/s) = 3.21590 3.57478 3.40008
# Velocity P-wave (km/s) = 5.75135 6.85269 6.32603
#
# Compressibility (1/GPa) = 0.02896966
#
# Stress axis : x y z
#
# Youngs Moduli (GPa) = 56.61283 31.58917 66.96770
#
# Poissons Ratio (x) = 0.15991 0.62291
# Poissons Ratio (y) = 0.28658 0.21951
# Poissons Ratio (z) = 0.52660 0.10354
#
# Static dielectric constant tensor:
#      x y z
#    x 3.565490 0.000000 0.209020 
#    y 0.000000 3.147080 0.000000 
#    z 0.209020 0.000000 3.672500 
# 
# 
# High freq. dielectric constant tensor:
#      x y z
#    x 1.686610 0.000000 0.015520 
#    y 0.000000 1.670570 0.000000 
#    z 0.015520 0.000000 1.692340 
# 
# From -- ./inp_files/244080.got.cif
#   From: 2010.06.25/outbox.cif.g09.slc.cpg/sg12_123_cif.got.tgz:244080.got - 2010.06.28 00:19:55.
