data_PCOD8083784
_publ_section_title
;
Structure prediction by ZEFSAII (Michael W. Deem and Ramdas Pophale) SiO2 
 PCOD8083784
Probable space group: C 2/M
;
_chemical_formula_sum "Si O2"
_cell_formula_units_Z 52
_cell_length_a 9.916779
_cell_length_b 17.255087
_cell_length_c 21.195304
_cell_angle_alpha 90.000000
_cell_angle_beta 131.373006
_cell_angle_gamma 90.000000
_cell_volume 2721.656524
_symmetry_space_group_name_H-M "C 2/M"
_symmetry_group_IT_number 12
_symmetry_cell_setting 'monoclinic'
loop_
_space_group_symop_operation_xyz
x,y,z
-x,y,-z
-x,-y,-z
x,-y,z
1/2+x,1/2+y,z
1/2-x,1/2+y,-z
1/2-x,1/2-y,-z
1/2+x,1/2-y,z
loop_
_atom_site_type_symbol
_atom_site_label
_atom_site_fract_x
_atom_site_fract_y
_atom_site_fract_z
Si Si1 0.681014 0.585764 0.515680
Si Si2 0.500000 0.667870 0.000000
Si Si3 0.441858 0.408295 0.333479
Si Si4 0.493610 0.237814 0.881902
Si Si5 0.641071 0.089190 0.863744
Si Si6 0.915154 0.204830 0.220858
Si Si7 0.113770 0.649796 0.312899
O O1 0.500000 0.587873 0.500000
O O2 0.759879 0.500000 0.536889
O O3 0.627484 0.613005 0.428239
O O4 0.838206 0.633190 0.599132
O O5 0.583907 0.724984 0.972410
O O6 0.349861 0.611850 0.923859
O O7 0.406164 0.500000 0.323683
O O8 0.448642 0.378928 0.263318
O O9 0.280124 0.364626 0.317929
O O10 0.549319 0.148558 0.885443
O O11 0.550309 0.296189 0.843215
O O12 0.280612 0.239425 0.826676
O O13 0.551794 0.099400 0.766787
O O14 0.618374 0.000000 0.879400
O O15 0.063330 0.260580 0.297705
#
# Coordination Sequence:
#
# PCOD8083784 Si02
#       7
#     8   4   8   8   8   8   8
#     4   8  15  28  52  85 118 154 196 239 286 336
#     4  12  23  44  63  88 116 156 190 246 297 358
#     4  10  19  35  59  87 121 156 197 246 285 336
#     4  11  23  41  64  86 118 155 196 234 302 354
#     4  11  22  37  62  89 118 152 194 243 289 346
#     4  11  21  37  61  89 115 156 199 237 287 357
#     4  10  18  33  57  86 118 154 198 237 287 340
#
# _framework density 19.106012
#
# number of rings (size 3 to 8) (size 9 to 14) (size 15 to 20)
#    0.000    1.692    6.154    3.000    0.000    0.615 
#    0.000    1.923    0.000    0.000    0.000    2.154 
#    0.000    0.000    0.000    0.000    0.000    0.000 
#
# Total GULP energy -322140.061463 kJ/mol
# GULP energy per Si atom -12390.002364 kJ/mol
# Density = 1.906253 g / cm^3
# Si number density = 19.106012 Si / 1000 Ang^3
#
#
#
# Elastic Constant Matrix: (Units=GPa)
#
#
# Indices 1 2 3 4 5 6 
#
# 1 69.1292 15.3344 24.1501 0.0000 -6.2351 0.0000
# 2 15.3344 71.6075 26.9039 0.0000 0.5444 0.0000
# 3 24.1501 26.9039 93.2323 0.0000 4.8783 0.0000
# 4 0.0000 0.0000 0.0000 29.0966 0.0000 -0.6620
# 5 -6.2351 0.5444 4.8783 0.0000 28.8115 0.0000
# 6 0.0000 0.0000 0.0000 -0.6620 0.0000 19.9825
#
#
#
# Elastic Compliance Matrix: (Units=1/GPa)
#
#
# Indices 1 2 3 4 5 6 
#
# 1 0.016704 -0.002130 -0.003938 0.000000 0.004322 0.000000
# 2 -0.002130 0.015941 -0.004044 0.000000 -0.000077 0.000000
# 3 -0.003938 -0.004044 0.013069 0.000000 -0.002989 0.000000
# 4 0.000000 0.000000 0.000000 0.034394 0.000000 0.001139
# 5 0.004322 -0.000077 -0.002989 0.000000 0.036151 0.000000
# 6 0.000000 0.000000 0.000000 0.001139 0.000000 0.050082
#
#
# Mechanical properties :
#
#
# Convention : Reuss Voigt Hill
#
# Bulk Modulus (GPa) = 39.23260 40.74953 39.99107
# Shear Modulus (GPa) = 25.63268 26.75015 26.19142
#
# Velocity S-wave (km/s) = 3.66676 3.74584 3.70651
# Velocity P-wave (km/s) = 6.20529 6.33110 6.26851
#
# Compressibility (1/GPa) = 0.02548901
#
# Stress axis : x y z
#
# Youngs Moduli (GPa) = 59.86647 62.73019 76.51423
#
# Poissons Ratio (x) = 0.13363 0.30133
# Poissons Ratio (y) = 0.12753 0.30945
# Poissons Ratio (z) = 0.23577 0.25370
#
# Static dielectric constant tensor:
#      x y z
#    x 3.245150 0.000000 -0.027440 
#    y 0.000000 3.404620 0.000000 
#    z -0.027440 0.000000 4.025380 
# 
# 
# High freq. dielectric constant tensor:
#      x y z
#    x 1.705160 0.000000 0.007780 
#    y 0.000000 1.728180 0.000000 
#    z 0.007780 0.000000 1.767260 
# 
# From -- ./inp_files/301203.got.cif
#   From: 2010.06.25/outbox.cif.g09.slc.cpg/sg12_151_cif.got.tgz:301203.got - 2010.06.28 00:19:55.
