data_PCOD8083458
_publ_section_title
;
Structure prediction by ZEFSAII (Michael W. Deem and Ramdas Pophale) SiO2 
 PCOD8083458
Probable space group: C 2/M
;
_chemical_formula_sum "Si O2"
_cell_formula_units_Z 40
_cell_length_a 18.445498
_cell_length_b 20.816504
_cell_length_c 8.933128
_cell_angle_alpha 90.000000
_cell_angle_beta 33.453134
_cell_angle_gamma 90.000000
_cell_volume 1890.836816
_symmetry_space_group_name_H-M "C 2/M"
_symmetry_group_IT_number 12
_symmetry_cell_setting 'monoclinic'
loop_
_space_group_symop_operation_xyz
x,y,z
-x,y,-z
-x,-y,-z
x,-y,z
1/2+x,1/2+y,z
1/2-x,1/2+y,-z
1/2-x,1/2-y,-z
1/2+x,1/2-y,z
loop_
_atom_site_type_symbol
_atom_site_label
_atom_site_fract_x
_atom_site_fract_y
_atom_site_fract_z
Si Si1 0.858916 0.428717 0.810808
Si Si2 0.398288 0.883473 0.063036
Si Si3 0.815935 0.181053 0.385592
Si Si4 0.747027 0.313637 0.834091
Si Si5 0.003243 0.256072 0.739132
O O1 0.811148 0.500000 0.844516
O O2 0.761073 0.373912 0.920807
O O3 0.000000 0.412631 0.500000
O O4 0.867864 0.427909 0.974318
O O5 0.259987 0.870070 0.381380
O O6 0.500000 0.919548 0.000000
O O7 0.475020 0.818788 0.885199
O O8 0.750000 0.250000 0.500000
O O9 0.809873 0.157750 0.224380
O O10 0.957017 0.196128 0.219452
O O11 0.883503 0.273683 0.576745
O O12 0.635803 0.265819 0.096979
#
# Coordination Sequence:
#
# PCOD8083458 Si02
#       5
#     8   8   8   8   8
#     4  11  25  42  58  82 121 167 211 246 282 345
#     4  12  19  36  59  87 121 150 194 248 303 357
#     4  10  18  32  58  90 125 152 181 241 310 367
#     4  11  21  38  60  92 128 154 191 245 304 359
#     4  11  19  34  61  97 125 149 185 243 313 368
#
# _framework density 21.154655999999999
#
# number of rings (size 3 to 8) (size 9 to 14) (size 15 to 20)
#    0.000    1.000   10.000    0.600    0.000    1.200 
#    3.600    1.000    0.000    4.800    0.000    0.000 
#    0.000    0.000    0.000    0.000    0.000    0.000 
#
# Total GULP energy -247845.432908 kJ/mol
# GULP energy per Si atom -12392.271645 kJ/mol
# Density = 2.110651 g / cm^3
# Si number density = 21.154656 Si / 1000 Ang^3
#
#
#
# Elastic Constant Matrix: (Units=GPa)
#
#
# Indices 1 2 3 4 5 6 
#
# 1 91.4988 44.0805 33.3859 0.0000 0.5852 0.0000
# 2 44.0805 71.1111 27.1629 -0.0001 -5.4140 0.0001
# 3 33.3859 27.1629 93.5662 0.0001 -14.9033 0.0000
# 4 0.0000 -0.0001 0.0001 4.1963 -0.0001 3.6545
# 5 0.5852 -5.4140 -14.9033 -0.0001 37.6585 0.0000
# 6 0.0000 0.0001 0.0000 3.6545 0.0000 18.5608
#
#
#
# Elastic Compliance Matrix: (Units=1/GPa)
#
#
# Indices 1 2 3 4 5 6 
#
# 1 0.016754 -0.009166 -0.003809 0.000000 -0.003085 0.000000
# 2 -0.009166 0.020839 -0.002433 0.000001 0.002176 0.000000
# 3 -0.003809 -0.002433 0.013561 -0.000001 0.005076 0.000000
# 4 0.000000 0.000001 -0.000001 0.287622 0.000000 -0.056630
# 5 -0.003085 0.002176 0.005076 0.000000 0.028924 0.000000
# 6 0.000000 0.000000 0.000000 -0.056630 0.000000 0.065027
#
#
# Mechanical properties :
#
#
# Convention : Reuss Voigt Hill
#
# Bulk Modulus (GPa) = 49.16327 51.71497 50.43912
# Shear Modulus (GPa) = 10.63100 22.18624 16.40862
#
# Velocity S-wave (km/s) = 2.24417 3.24198 2.78807
# Velocity P-wave (km/s) = 5.47772 6.20589 5.85314
#
# Compressibility (1/GPa) = 0.02034039
#
# Stress axis : x y z
#
# Youngs Moduli (GPa) = 59.68637 47.98683 73.73851
#
# Poissons Ratio (x) = 0.43983 0.28085
# Poissons Ratio (y) = 0.54707 0.17939
# Poissons Ratio (z) = 0.22733 0.11674
#
# Static dielectric constant tensor:
#      x y z
#    x 4.918940 0.000000 -0.367970 
#    y 0.000000 3.347790 0.000000 
#    z -0.367970 0.000000 4.116750 
# 
# 
# High freq. dielectric constant tensor:
#      x y z
#    x 1.842530 0.000000 0.005250 
#    y 0.000000 1.770790 0.000000 
#    z 0.005250 0.000000 1.830190 
# 
# From -- ./inp_files/77183.got.cif
#   From: 2010.06.25/outbox.cif.g09.slc.cpg/sg12_39_cif.got.tgz:77183.got - 2010.06.28 00:19:55.
