data_PCOD8083294
_publ_section_title
;
Structure prediction by ZEFSAII (Michael W. Deem and Ramdas Pophale) SiO2 
 PCOD8083294
Probable space group: C 2/M
;
_chemical_formula_sum "Si O2"
_cell_formula_units_Z 64
_cell_length_a 22.731567
_cell_length_b 11.214207
_cell_length_c 19.381603
_cell_angle_alpha 90.000000
_cell_angle_beta 137.018649
_cell_angle_gamma 90.000000
_cell_volume 3368.366433
_symmetry_space_group_name_H-M "C 2/M"
_symmetry_group_IT_number 12
_symmetry_cell_setting 'monoclinic'
loop_
_space_group_symop_operation_xyz
x,y,z
-x,y,-z
-x,-y,-z
x,-y,z
1/2+x,1/2+y,z
1/2-x,1/2+y,-z
1/2-x,1/2-y,-z
1/2+x,1/2-y,z
loop_
_atom_site_type_symbol
_atom_site_label
_atom_site_fract_x
_atom_site_fract_y
_atom_site_fract_z
Si Si1 0.283648 0.138255 0.575761
Si Si2 0.972701 0.865362 0.052499
Si Si3 0.498712 0.361924 0.657261
Si Si4 0.649361 0.870999 0.901006
Si Si5 0.529708 0.228682 0.235772
Si Si6 0.288287 0.707377 0.925426
Si Si7 0.826221 0.140503 0.258877
Si Si8 0.858450 0.863784 0.436556
O O1 0.250000 0.250000 0.500000
O O2 0.382594 0.154723 0.682609
O O3 0.231880 0.147303 0.602167
O O4 0.271909 0.000000 0.535293
O O5 0.014953 0.777679 0.145597
O O6 0.006735 0.000000 0.093710
O O7 0.868347 0.869672 0.966608
O O8 0.000000 0.819228 0.000000
O O9 0.487271 0.500000 0.634813
O O10 0.468543 0.338294 0.709207
O O11 0.597492 0.324566 0.728990
O O12 0.433993 0.299519 0.546265
O O13 0.546941 0.855785 0.801844
O O14 0.704045 0.867988 0.876223
O O15 0.665286 0.000000 0.948410
O O16 0.679614 0.770919 0.978534
O O17 0.261509 0.799704 0.842921
O O18 0.849581 0.195890 0.353672
O O19 0.809643 0.000000 0.248066
O O20 0.884509 0.000000 0.445451
#
# Coordination Sequence:
#
# PCOD8083294 Si02
#       8
#     8   8   8   8   8   8   8   8
#     4  11  23  39  62  89 120 156 200 247 292 347
#     4  10  23  40  57  80 113 152 194 240 290 353
#     4  10  18  32  55  85 112 143 189 238 287 342
#     4  10  20  35  53  78 109 137 177 234 285 335
#     4  11  21  36  58  83 109 152 190 237 285 345
#     4  10  20  34  56  81 104 142 186 228 287 343
#     4  10  19  32  55  84 115 147 184 235 294 345
#     4   9  19  34  53  81 115 150 188 237 288 343
#
# _framework density 19.000308
#
# number of rings (size 3 to 8) (size 9 to 14) (size 15 to 20)
#    0.000    1.875    2.500    1.875    1.750    2.000 
#    0.000    0.000    0.000    2.250    0.000    1.750 
#    0.000    0.000    0.000    0.000    0.000    0.000 
#
# Total GULP energy -396506.605594 kJ/mol
# GULP energy per Si atom -12390.831425 kJ/mol
# Density = 1.895706 g / cm^3
# Si number density = 19.000308 Si / 1000 Ang^3
#
#
#
# Elastic Constant Matrix: (Units=GPa)
#
#
# Indices 1 2 3 4 5 6 
#
# 1 77.9334 30.4192 31.1304 0.0000 -6.7044 0.0000
# 2 30.4192 66.6665 20.1989 0.0000 3.9800 0.0000
# 3 31.1304 20.1989 90.1474 0.0000 0.6183 0.0000
# 4 0.0000 0.0000 0.0000 23.8014 0.0000 -3.7139
# 5 -6.7044 3.9800 0.6183 0.0000 35.1044 0.0000
# 6 0.0000 0.0000 0.0000 -3.7139 0.0000 9.7102
#
#
#
# Elastic Compliance Matrix: (Units=1/GPa)
#
#
# Indices 1 2 3 4 5 6 
#
# 1 0.017752 -0.006961 -0.004600 0.000000 0.004261 0.000000
# 2 -0.006961 0.018932 -0.001814 0.000000 -0.003444 0.000000
# 3 -0.004600 -0.001814 0.013094 0.000000 -0.000903 0.000000
# 4 0.000000 0.000000 0.000000 0.044681 0.000000 0.017089
# 5 0.004261 -0.003444 -0.000903 0.000000 0.029707 0.000000
# 6 0.000000 0.000000 0.000000 0.017089 0.000000 0.109521
#
#
# Mechanical properties :
#
#
# Convention : Reuss Voigt Hill
#
# Bulk Modulus (GPa) = 43.42627 44.24938 43.83782
# Shear Modulus (GPa) = 18.64885 23.92311 21.28598
#
# Velocity S-wave (km/s) = 3.13629 3.55222 3.35071
# Velocity P-wave (km/s) = 6.00169 6.33748 6.17187
#
# Compressibility (1/GPa) = 0.02302754
#
# Stress axis : x y z
#
# Youngs Moduli (GPa) = 56.33025 52.82183 76.36975
#
# Poissons Ratio (x) = 0.36769 0.35130
# Poissons Ratio (y) = 0.39211 0.13857
# Poissons Ratio (z) = 0.25912 0.09584
#
# Static dielectric constant tensor:
#      x y z
#    x 3.712650 0.000000 0.158440 
#    y 0.000000 3.247440 0.000000 
#    z 0.158440 0.000000 3.596940 
# 
# 
# High freq. dielectric constant tensor:
#      x y z
#    x 1.746670 0.000000 0.009110 
#    y 0.000000 1.708880 0.000000 
#    z 0.009110 0.000000 1.739570 
# 
# From -- ./inp_files/283306.got.cif
#   From: 2010.06.25/outbox.cif.g09.slc.cpg/sg12_142_cif.got.tgz:283306.got - 2010.06.28 00:19:55.
