data_PCOD8083907
_publ_section_title
;
Structure prediction by ZEFSAII (Michael W. Deem and Ramdas Pophale) SiO2 
 PCOD8083907
Probable space group: C 2/M
;
_chemical_formula_sum "Si O2"
_cell_formula_units_Z 64
_cell_length_a 22.366409
_cell_length_b 17.739933
_cell_length_c 17.376804
_cell_angle_alpha 90.000000
_cell_angle_beta 149.242004
_cell_angle_gamma 90.000000
_cell_volume 3526.061785
_symmetry_space_group_name_H-M "C 2/M"
_symmetry_group_IT_number 12
_symmetry_cell_setting 'monoclinic'
loop_
_space_group_symop_operation_xyz
x,y,z
-x,y,-z
-x,-y,-z
x,-y,z
1/2+x,1/2+y,z
1/2-x,1/2+y,-z
1/2-x,1/2-y,-z
1/2+x,1/2-y,z
loop_
_atom_site_type_symbol
_atom_site_label
_atom_site_fract_x
_atom_site_fract_y
_atom_site_fract_z
Si Si1 0.910540 0.300078 0.618099
Si Si2 0.275501 0.914503 0.561509
Si Si3 0.308668 0.586316 0.107530
Si Si4 0.675502 0.808720 0.865478
Si Si5 0.513264 0.269746 0.145309
Si Si6 0.734965 0.205324 0.150136
Si Si7 0.729959 0.790351 0.319487
Si Si8 0.990482 0.083737 0.781609
O O1 0.859057 0.380687 0.587397
O O2 0.913686 0.246465 0.695890
O O3 0.829124 0.262174 0.464693
O O4 0.038150 0.308046 0.724391
O O5 0.287328 0.868189 0.653803
O O6 0.144820 0.911402 0.386554
O O7 0.315391 0.000000 0.622279
O O8 0.287047 0.500000 0.105808
O O9 0.284889 0.634779 0.157547
O O10 0.439718 0.601274 0.220682
O O11 0.221767 0.608898 0.940860
O O12 0.703260 0.783617 0.808699
O O13 0.750000 0.750000 0.000000
O O14 0.605995 0.255413 0.179285
O O15 0.475189 0.357404 0.112172
O O16 0.404324 0.213324 0.016925
O O17 0.766058 0.190165 0.272685
O O18 0.024704 0.000000 0.848909
#
# Coordination Sequence:
#
# PCOD8083907 Si02
#       8
#     8   8   8   8   8   8   8   8
#     4  11  19  36  59  81 105 148 198 231 264 322
#     4  10  21  36  57  84 115 146 183 230 278 328
#     4  10  20  35  58  83 108 146 190 227 271 334
#     4  10  19  35  58  79 104 147 195 229 266 321
#     4  11  17  38  59  78 111 147 192 231 265 323
#     4  11  22  36  56  83 120 146 177 230 287 329
#     4  11  23  34  56  88 113 147 183 228 281 340
#     4  10  18  33  61  86 104 137 189 238 272 315
#
# _framework density 18.150562000000001
#
# number of rings (size 3 to 8) (size 9 to 14) (size 15 to 20)
#    0.000    1.500    6.250    1.875    0.000    1.500 
#    0.000    0.000    0.000    8.250    0.000    1.750 
#    0.000    0.000    0.000    0.000    0.000    0.000 
#
# Total GULP energy -396675.605055 kJ/mol
# GULP energy per Si atom -12396.112658 kJ/mol
# Density = 1.810925 g / cm^3
# Si number density = 18.150562 Si / 1000 Ang^3
#
#
#
# Elastic Constant Matrix: (Units=GPa)
#
#
# Indices 1 2 3 4 5 6 
#
# 1 107.0840 52.1169 41.6349 0.0000 13.6168 0.0000
# 2 52.1169 107.2075 34.9176 -0.0001 -4.5749 -0.0001
# 3 41.6349 34.9176 66.0358 0.0000 18.0200 0.0000
# 4 0.0000 -0.0001 0.0000 18.5974 0.0000 3.8773
# 5 13.6168 -4.5749 18.0200 0.0000 36.3262 0.0000
# 6 0.0000 -0.0001 0.0000 3.8773 0.0000 25.0129
#
#
#
# Elastic Compliance Matrix: (Units=1/GPa)
#
#
# Indices 1 2 3 4 5 6 
#
# 1 0.014509 -0.005478 -0.005296 0.000000 -0.003501 0.000000
# 2 -0.005478 0.014202 -0.005904 0.000000 0.006771 0.000000
# 3 -0.005296 -0.005904 0.024594 0.000000 -0.010959 0.000000
# 4 0.000000 0.000000 0.000000 0.055567 0.000000 -0.008614
# 5 -0.003501 0.006771 -0.010959 0.000000 0.035130 0.000000
# 6 0.000000 0.000000 0.000000 -0.008614 0.000000 0.041315
#
#
# Mechanical properties :
#
#
# Convention : Reuss Voigt Hill
#
# Bulk Modulus (GPa) = 50.12226 59.74068 54.93147
# Shear Modulus (GPa) = 22.19058 26.09781 24.14420
#
# Velocity S-wave (km/s) = 3.50034 3.79601 3.65117
# Velocity P-wave (km/s) = 6.63409 7.22484 6.93576
#
# Compressibility (1/GPa) = 0.01995122
#
# Stress axis : x y z
#
# Youngs Moduli (GPa) = 68.92435 70.41090 40.65997
#
# Poissons Ratio (x) = 0.38569 0.21532
# Poissons Ratio (y) = 0.37755 0.24004
# Poissons Ratio (z) = 0.36500 0.41568
#
# Static dielectric constant tensor:
#      x y z
#    x 3.512480 0.000000 0.208550 
#    y 0.000000 3.622920 0.000000 
#    z 0.208550 0.000000 3.173450 
# 
# 
# High freq. dielectric constant tensor:
#      x y z
#    x 1.702890 0.000000 0.029050 
#    y 0.000000 1.698100 0.000000 
#    z 0.029050 0.000000 1.686610 
# 
# From -- ./inp_files/290475.got.cif
#   From: 2010.06.25/outbox.cif.g09.slc.cpg/sg12_146_cif.got.tgz:290475.got - 2010.06.28 00:19:55.
