data_PCOD8083761
_publ_section_title
;
Structure prediction by ZEFSAII (Michael W. Deem and Ramdas Pophale) SiO2 
 PCOD8083761
Probable space group: C 2/M
;
_chemical_formula_sum "Si O2"
_cell_formula_units_Z 64
_cell_length_a 20.569051
_cell_length_b 8.742054
_cell_length_c 22.781611
_cell_angle_alpha 90.000000
_cell_angle_beta 125.135856
_cell_angle_gamma 90.000000
_cell_volume 3350.069497
_symmetry_space_group_name_H-M "C 2/M"
_symmetry_group_IT_number 12
_symmetry_cell_setting 'monoclinic'
loop_
_space_group_symop_operation_xyz
x,y,z
-x,y,-z
-x,-y,-z
x,-y,z
1/2+x,1/2+y,z
1/2-x,1/2+y,-z
1/2-x,1/2-y,-z
1/2+x,1/2-y,z
loop_
_atom_site_type_symbol
_atom_site_label
_atom_site_fract_x
_atom_site_fract_y
_atom_site_fract_z
Si Si1 0.982349 0.682178 0.164885
Si Si2 0.303553 0.820298 0.077288
Si Si3 0.412217 0.180030 0.453298
Si Si4 0.978146 0.681559 0.686528
Si Si5 0.164811 0.318162 0.468440
Si Si6 0.445637 0.181483 0.918524
Si Si7 0.734955 0.820379 0.156796
Si Si8 0.636184 0.819708 0.700932
O O1 0.983695 0.500000 0.165154
O O2 0.892462 0.743880 0.116634
O O3 0.023206 0.740929 0.246641
O O4 0.026288 0.748101 0.129976
O O5 0.270303 0.776359 0.122610
O O6 0.303255 0.000000 0.069749
O O7 0.250000 0.750000 0.000000
O O8 0.500000 0.254209 0.500000
O O9 0.361044 0.243817 0.480987
O O10 0.370503 0.221277 0.370818
O O11 0.421312 0.000000 0.466231
O O12 0.978934 0.500000 0.684519
O O13 0.058045 0.738640 0.695190
O O14 0.899638 0.742877 0.612618
O O15 0.169990 0.500000 0.469120
O O16 0.250000 0.250000 0.500000
O O17 0.355368 0.233395 0.880875
O O18 0.453348 0.000000 0.921377
O O19 0.500000 0.246889 0.000000
O O20 0.786784 0.776479 0.240150
O O21 0.739406 0.000000 0.145663
O O22 0.649404 0.000000 0.718466
#
# Coordination Sequence:
#
# PCOD8083761 Si02
#       8
#     8   8   8   8   8   8   8   8
#     4   9  17  31  54  79 100 136 188 227 261 316
#     4  11  21  35  58  84 110 141 183 231 273 320
#     4   9  16  30  56  81 101 138 192 232 261 316
#     4   9  16  30  54  79 102 136 183 228 266 317
#     4  10  20  34  54  81 111 142 180 227 275 327
#     4   9  18  33  51  73 104 141 180 220 261 318
#     4  11  22  35  54  83 114 142 176 225 280 329
#     4  10  18  33  57  82 106 138 184 233 274 318
#
# _framework density 19.104081999999998
#
# number of rings (size 3 to 8) (size 9 to 14) (size 15 to 20)
#    0.000    2.250    2.500    1.500    0.000    3.000 
#    0.000    2.500    0.000    9.000    0.000    0.000 
#    0.000    0.000    0.000    0.000    0.000    0.000 
#
# Total GULP energy -396742.255163 kJ/mol
# GULP energy per Si atom -12398.195474 kJ/mol
# Density = 1.906060 g / cm^3
# Si number density = 19.104082 Si / 1000 Ang^3
#
#
#
# Elastic Constant Matrix: (Units=GPa)
#
#
# Indices 1 2 3 4 5 6 
#
# 1 134.6840 13.4511 64.6175 0.0000 5.0352 0.0000
# 2 13.4511 17.8631 18.0723 0.0000 3.9571 0.0000
# 3 64.6175 18.0723 146.2756 0.0000 7.1701 0.0000
# 4 0.0000 0.0000 0.0000 24.1499 0.0000 5.8159
# 5 5.0352 3.9571 7.1701 0.0000 42.1220 0.0000
# 6 0.0000 0.0000 0.0000 5.8159 0.0000 21.3547
#
#
#
# Elastic Compliance Matrix: (Units=1/GPa)
#
#
# Indices 1 2 3 4 5 6 
#
# 1 0.009596 -0.003320 -0.003820 0.000000 -0.000185 0.000000
# 2 -0.003320 0.066065 -0.006465 0.000000 -0.004709 0.000000
# 3 -0.003820 -0.006465 0.009348 0.000000 -0.000527 0.000000
# 4 0.000000 0.000000 0.000000 0.044315 0.000000 -0.012069
# 5 -0.000185 -0.004709 -0.000527 0.000000 0.024295 0.000000
# 6 0.000000 0.000000 0.000000 -0.012069 0.000000 0.050115
#
#
# Mechanical properties :
#
#
# Convention : Reuss Voigt Hill
#
# Bulk Modulus (GPa) = 17.30114 54.56716 35.93415
# Shear Modulus (GPa) = 19.98322 31.03743 25.51033
#
# Velocity S-wave (km/s) = 3.23773 4.03507 3.65819
# Velocity P-wave (km/s) = 4.80136 7.09465 6.05752
#
# Compressibility (1/GPa) = 0.05779967
#
# Stress axis : x y z
#
# Youngs Moduli (GPa) = 104.21120 15.13662 106.97094
#
# Poissons Ratio (x) = 0.05026 0.40860
# Poissons Ratio (y) = 0.34602 0.69153
# Poissons Ratio (z) = 0.39806 0.09785
#
# Static dielectric constant tensor:
#      x y z
#    x 3.605960 0.000000 -0.151310 
#    y 0.000000 2.948110 0.000000 
#    z -0.151310 0.000000 3.672570 
# 
# 
# High freq. dielectric constant tensor:
#      x y z
#    x 1.749730 0.000000 -0.004470 
#    y 0.000000 1.687350 0.000000 
#    z -0.004470 0.000000 1.763480 
# 
# From -- ./inp_files/346183.got.cif
#   From: 2010.06.25/outbox.cif.g09.slc.cpg/sg12_174_cif.got.tgz:346183.got - 2010.06.28 00:19:55.
