data_PCOD8083669
_publ_section_title
;
Structure prediction by ZEFSAII (Michael W. Deem and Ramdas Pophale) SiO2 
 PCOD8083669
Probable space group: C 2/M
;
_chemical_formula_sum "Si O2"
_cell_formula_units_Z 56
_cell_length_a 11.210038
_cell_length_b 14.050298
_cell_length_c 26.704239
_cell_angle_alpha 90.000000
_cell_angle_beta 138.942784
_cell_angle_gamma 90.000000
_cell_volume 2762.575422
_symmetry_space_group_name_H-M "C 2/M"
_symmetry_group_IT_number 12
_symmetry_cell_setting 'monoclinic'
loop_
_space_group_symop_operation_xyz
x,y,z
-x,y,-z
-x,-y,-z
x,-y,z
1/2+x,1/2+y,z
1/2-x,1/2+y,-z
1/2-x,1/2-y,-z
1/2+x,1/2-y,z
loop_
_atom_site_type_symbol
_atom_site_label
_atom_site_fract_x
_atom_site_fract_y
_atom_site_fract_z
Si Si1 0.038996 0.891183 0.706658
Si Si2 0.955016 0.138829 0.041492
Si Si3 0.932726 0.210668 0.185197
Si Si4 0.889239 0.391510 0.417481
Si Si5 0.847695 0.653816 0.985410
Si Si6 0.350316 0.209715 0.307219
Si Si7 0.832405 0.606724 0.202461
O O1 0.130505 0.850936 0.786556
O O2 0.108186 0.822361 0.684100
O O3 0.823084 0.883454 0.639071
O O4 0.102518 0.000000 0.717708
O O5 0.756849 0.101943 0.000813
O O6 0.112516 0.105898 0.129374
O O7 0.954513 0.253852 0.039818
O O8 0.000000 0.097675 0.000000
O O9 0.821269 0.180866 0.102114
O O10 0.905797 0.324204 0.182302
O O11 0.139566 0.187131 0.241957
O O12 0.945572 0.500000 0.424083
O O13 0.946363 0.328298 0.387830
O O14 0.000000 0.351710 0.500000
O O15 0.000000 0.595880 0.000000
O O16 0.416609 0.148550 0.280571
O O17 0.907598 0.500000 0.219235
#
# Coordination Sequence:
#
# PCOD8083669 Si02
#       7
#     8   8   8   8   8   8   8
#     4   9  20  35  56  83 110 145 187 230 279 338
#     4  10  19  32  51  77 106 146 183 241 295 350
#     4  10  19  36  54  77 105 147 187 233 291 337
#     4   9  18  35  58  87 118 146 182 227 273 333
#     4  10  18  33  56  76 102 151 195 241 292 356
#     4  10  20  35  59  81 109 152 187 228 286 340
#     4  11  21  34  53  82 109 141 192 239 286 347
#
# _framework density 20.270941000000001
#
# number of rings (size 3 to 8) (size 9 to 14) (size 15 to 20)
#    0.000    2.143    4.286    0.429    0.000    2.000 
#    0.000    0.000    0.000    2.143    0.000    0.000 
#    0.000    0.000    0.000    0.000    0.000    0.000 
#
# Total GULP energy -346920.516109 kJ/mol
# GULP energy per Si atom -12390.018432 kJ/mol
# Density = 2.022480 g / cm^3
# Si number density = 20.270941 Si / 1000 Ang^3
#
#
#
# Elastic Constant Matrix: (Units=GPa)
#
#
# Indices 1 2 3 4 5 6 
#
# 1 103.8552 12.5398 13.2529 0.0000 -18.0124 0.0000
# 2 12.5398 112.5665 37.8937 0.0000 -20.8289 0.0000
# 3 13.2529 37.8937 80.4126 0.0000 -22.3914 0.0000
# 4 0.0000 0.0000 0.0000 12.9302 0.0000 1.6899
# 5 -18.0124 -20.8289 -22.3914 0.0000 22.5067 0.0000
# 6 0.0000 0.0000 0.0000 1.6899 0.0000 6.3934
#
#
#
# Elastic Compliance Matrix: (Units=1/GPa)
#
#
# Indices 1 2 3 4 5 6 
#
# 1 0.011239 0.000351 0.000799 0.000000 0.010113 0.000000
# 2 0.000351 0.011346 -0.003323 0.000000 0.007475 0.000000
# 3 0.000799 -0.003323 0.018247 0.000000 0.015717 0.000000
# 4 0.000000 0.000000 0.000000 0.080105 0.000000 -0.021174
# 5 0.010113 0.007475 0.015717 0.000000 0.075079 0.000000
# 6 0.000000 0.000000 0.000000 -0.021174 0.000000 0.162007
#
#
# Mechanical properties :
#
#
# Convention : Reuss Voigt Hill
#
# Bulk Modulus (GPa) = 27.40945 47.13412 37.27179
# Shear Modulus (GPa) = 13.34997 23.90927 18.62962
#
# Velocity S-wave (km/s) = 2.56906 3.43809 3.03484
# Velocity P-wave (km/s) = 4.72768 6.25005 5.54140
#
# Compressibility (1/GPa) = 0.03648376
#
# Stress axis : x y z
#
# Youngs Moduli (GPa) = 88.97914 88.13341 54.80420
#
# Poissons Ratio (x) = -0.03089 -0.04377
# Poissons Ratio (y) = -0.03119 0.18213
# Poissons Ratio (z) = -0.07107 0.29289
#
# Static dielectric constant tensor:
#      x y z
#    x 3.930030 0.000000 -0.181870 
#    y 0.000000 3.583120 0.000000 
#    z -0.181870 0.000000 3.609050 
# 
# 
# High freq. dielectric constant tensor:
#      x y z
#    x 1.786620 0.000000 -0.011590 
#    y 0.000000 1.773550 0.000000 
#    z -0.011590 0.000000 1.775010 
# 
# From -- ./inp_files/358240.got.cif
#   From: 2010.06.25/outbox.cif.g09.slc.cpg/sg12_180_cif.got.tgz:358240.got - 2010.06.28 00:19:55.
