data_PCOD8083606
_publ_section_title
;
Structure prediction by ZEFSAII (Michael W. Deem and Ramdas Pophale) SiO2 
 PCOD8083606
Probable space group: C 2/M
;
_chemical_formula_sum "Si O2"
_cell_formula_units_Z 64
_cell_length_a 19.853962
_cell_length_b 18.907946
_cell_length_c 10.785814
_cell_angle_alpha 90.000000
_cell_angle_beta 123.169941
_cell_angle_gamma 90.000000
_cell_volume 3389.195549
_symmetry_space_group_name_H-M "C 2/M"
_symmetry_group_IT_number 12
_symmetry_cell_setting 'monoclinic'
loop_
_space_group_symop_operation_xyz
x,y,z
-x,y,-z
-x,-y,-z
x,-y,z
1/2+x,1/2+y,z
1/2-x,1/2+y,-z
1/2-x,1/2-y,-z
1/2+x,1/2-y,z
loop_
_atom_site_type_symbol
_atom_site_label
_atom_site_fract_x
_atom_site_fract_y
_atom_site_fract_z
Si Si1 0.318320 0.811175 0.475887
Si Si2 0.038229 0.794529 0.415855
Si Si3 0.630184 0.309295 0.842600
Si Si4 0.461100 0.920046 0.843049
Si Si5 0.127522 0.081275 0.629560
Si Si6 0.767667 0.761154 0.838233
Si Si7 0.552714 0.916404 0.438246
Si Si8 0.290352 0.132923 0.706662
O O1 0.384573 0.748542 0.551587
O O2 0.247407 0.798987 0.307198
O O3 0.359418 0.882750 0.466819
O O4 0.277798 0.819476 0.569979
O O5 0.000000 0.758124 0.500000
O O6 0.064730 0.874449 0.481433
O O7 0.965661 0.792806 0.241665
O O8 0.636310 0.383961 0.775712
O O9 0.681153 0.249445 0.819140
O O10 0.670129 0.309157 0.019794
O O11 0.486273 0.889373 0.732917
O O12 0.365536 0.917975 0.762909
O O13 0.492216 0.000000 0.876943
O O14 0.500000 0.878644 0.000000
O O15 0.213718 0.083319 0.649298
O O16 0.098844 0.000000 0.612192
O O17 0.804061 0.684047 0.839928
O O18 0.500000 0.889808 0.500000
O O19 0.563535 0.000000 0.449717
#
# Coordination Sequence:
#
# PCOD8083606 Si02
#       8
#     8   8   8   8   8   8   8   8
#     4  11  19  33  58  77 111 143 181 225 264 326
#     4  10  18  33  54  84 107 137 184 228 272 322
#     4   9  20  35  52  81 112 135 178 223 284 326
#     4   9  18  33  50  74 107 142 182 227 268 320
#     4  10  20  36  58  81 106 143 190 236 276 322
#     4  10  19  34  52  78 111 140 168 223 273 332
#     4   9  19  33  49  74 105 143 185 220 265 322
#     4  10  20  33  54  79 109 142 185 217 273 326
#
# _framework density 18.883537
#
# number of rings (size 3 to 8) (size 9 to 14) (size 15 to 20)
#    0.000    2.250    3.750    1.125    0.000    4.750 
#    4.500    0.625    0.000    0.000    0.000    0.875 
#    0.000    0.000    0.000    0.000    0.000    0.000 
#
# Total GULP energy -396419.139873 kJ/mol
# GULP energy per Si atom -12388.098121 kJ/mol
# Density = 1.884056 g / cm^3
# Si number density = 18.883537 Si / 1000 Ang^3
#
#
#
# Elastic Constant Matrix: (Units=GPa)
#
#
# Indices 1 2 3 4 5 6 
#
# 1 69.8464 7.0520 40.7953 0.0000 -7.0390 0.0000
# 2 7.0520 71.3560 32.6883 0.0000 1.0599 0.0000
# 3 40.7953 32.6883 139.3199 0.0000 4.6768 0.0000
# 4 0.0000 0.0000 0.0000 13.8926 0.0000 3.0728
# 5 -7.0390 1.0599 4.6768 0.0000 25.8434 0.0000
# 6 0.0000 0.0000 0.0000 3.0728 0.0000 21.5553
#
#
#
# Elastic Compliance Matrix: (Units=1/GPa)
#
#
# Indices 1 2 3 4 5 6 
#
# 1 0.018166 0.000722 -0.005688 0.000000 0.005948 0.000000
# 2 0.000722 0.015731 -0.003911 0.000000 0.000259 0.000000
# 3 -0.005688 -0.003911 0.009868 0.000000 -0.003175 0.000000
# 4 0.000000 0.000000 0.000000 0.074324 0.000000 -0.010595
# 5 0.005948 0.000259 -0.003175 0.000000 0.040878 0.000000
# 6 0.000000 0.000000 0.000000 -0.010595 0.000000 0.047903
#
#
# Mechanical properties :
#
#
# Convention : Reuss Voigt Hill
#
# Bulk Modulus (GPa) = 38.44704 49.06595 43.75649
# Shear Modulus (GPa) = 21.43216 25.59071 23.51143
#
# Velocity S-wave (km/s) = 3.37258 3.68528 3.53239
# Velocity P-wave (km/s) = 5.96406 6.64441 6.31341
#
# Compressibility (1/GPa) = 0.02600980
#
# Stress axis : x y z
#
# Youngs Moduli (GPa) = 55.04765 63.57015 101.34172
#
# Poissons Ratio (x) = -0.04591 0.57648
# Poissons Ratio (y) = -0.03976 0.39635
# Poissons Ratio (z) = 0.31314 0.24862
#
# Static dielectric constant tensor:
#      x y z
#    x 3.550040 0.000000 -0.133750 
#    y 0.000000 3.239660 0.000000 
#    z -0.133750 0.000000 3.673010 
# 
# 
# High freq. dielectric constant tensor:
#      x y z
#    x 1.733990 0.000000 -0.001310 
#    y 0.000000 1.712560 0.000000 
#    z -0.001310 0.000000 1.724190 
# 
# From -- ./inp_files/177138.got.cif
#   From: 2010.06.25/outbox.cif.g09.slc.cpg/sg12_89_cif.got.tgz:177138.got - 2010.06.28 00:19:55.
