data_PCOD8083292
_publ_section_title
;
Structure prediction by ZEFSAII (Michael W. Deem and Ramdas Pophale) SiO2 
 PCOD8083292
Probable space group: C 2/M
;
_chemical_formula_sum "Si O2"
_cell_formula_units_Z 52
_cell_length_a 18.623003
_cell_length_b 26.680023
_cell_length_c 6.529247
_cell_angle_alpha 90.000000
_cell_angle_beta 52.572694
_cell_angle_gamma 90.000000
_cell_volume 2576.249475
_symmetry_space_group_name_H-M "C 2/M"
_symmetry_group_IT_number 12
_symmetry_cell_setting 'monoclinic'
loop_
_space_group_symop_operation_xyz
x,y,z
-x,y,-z
-x,-y,-z
x,-y,z
1/2+x,1/2+y,z
1/2-x,1/2+y,-z
1/2-x,1/2-y,-z
1/2+x,1/2-y,z
loop_
_atom_site_type_symbol
_atom_site_label
_atom_site_fract_x
_atom_site_fract_y
_atom_site_fract_z
Si Si1 0.702395 0.633797 0.832411
Si Si2 0.860798 0.301645 0.436796
Si Si3 0.912343 0.196638 0.260598
Si Si4 0.000000 0.339809 0.500000
Si Si5 0.095133 0.887217 0.416857
Si Si6 0.761908 0.058916 0.561350
Si Si7 0.088981 0.616495 0.968643
O O1 0.778708 0.676503 0.710893
O O2 0.622270 0.655187 0.835282
O O3 0.739624 0.583181 0.662500
O O4 0.668122 0.621450 0.114831
O O5 0.843964 0.243002 0.416069
O O6 0.874360 0.332782 0.203558
O O7 0.948122 0.304344 0.430925
O O8 0.929506 0.166627 0.441068
O O9 0.000000 0.220341 0.000000
O O10 0.065960 0.374427 0.247697
O O11 0.145977 0.925042 0.481830
O O12 0.000000 0.910684 0.500000
O O13 0.669337 0.075826 0.833916
O O14 0.762034 0.000000 0.536182
O O15 0.000000 0.596745 0.000000
#
# Coordination Sequence:
#
# PCOD8083292 Si02
#       7
#     8   8   8   4   8   8   8
#     4  10  22  41  58  82 117 151 188 242 292 331
#     4  10  21  34  57  86 119 156 193 226 272 341
#     4  11  21  35  57  84 116 154 193 230 277 339
#     4  10  18  32  55  84 120 156 183 222 278 334
#     4  11  23  39  60  83 117 154 190 244 292 339
#     4  10  23  41  62  85 111 147 197 246 295 350
#     4   9  19  37  57  86 121 154 186 234 286 339
#
# _framework density 20.184381999999999
#
# number of rings (size 3 to 8) (size 9 to 14) (size 15 to 20)
#    0.000    1.846    1.538    2.769    1.077    3.077 
#    0.000    1.154    0.000    0.000    0.000    0.000 
#    0.000    0.000    0.000    0.000    0.000    0.000 
#
# Total GULP energy -322354.437278 kJ/mol
# GULP energy per Si atom -12398.247588 kJ/mol
# Density = 2.013844 g / cm^3
# Si number density = 20.184382 Si / 1000 Ang^3
#
#
#
# Elastic Constant Matrix: (Units=GPa)
#
#
# Indices 1 2 3 4 5 6 
#
# 1 50.6101 14.2178 -0.1248 0.0000 -6.4923 0.0000
# 2 14.2178 115.1702 28.0998 0.0000 1.0863 0.0000
# 3 -0.1248 28.0998 119.2825 0.0000 0.9592 0.0000
# 4 0.0000 0.0000 0.0000 10.9269 0.0000 -4.1248
# 5 -6.4923 1.0863 0.9592 0.0000 32.6822 0.0000
# 6 0.0000 0.0000 0.0000 -4.1248 0.0000 18.8409
#
#
#
# Elastic Compliance Matrix: (Units=1/GPa)
#
#
# Indices 1 2 3 4 5 6 
#
# 1 0.021095 -0.002802 0.000648 0.000000 0.004265 0.000000
# 2 -0.002802 0.009587 -0.002255 0.000000 -0.000809 0.000000
# 3 0.000648 -0.002255 0.008916 0.000000 -0.000058 0.000000
# 4 0.000000 0.000000 0.000000 0.099761 0.000000 0.021840
# 5 0.004265 -0.000809 -0.000058 0.000000 0.031473 0.000000
# 6 0.000000 0.000000 0.000000 0.021840 0.000000 0.057857
#
#
# Mechanical properties :
#
#
# Convention : Reuss Voigt Hill
#
# Bulk Modulus (GPa) = 32.49011 41.04983 36.76997
# Shear Modulus (GPa) = 20.18021 28.68134 24.43078
#
# Velocity S-wave (km/s) = 3.16538 3.77366 3.48283
# Velocity P-wave (km/s) = 5.43057 6.27447 5.86771
#
# Compressibility (1/GPa) = 0.03077859
#
# Stress axis : x y z
#
# Youngs Moduli (GPa) = 47.40495 104.31308 112.16085
#
# Poissons Ratio (x) = 0.29234 -0.07268
# Poissons Ratio (y) = 0.13285 0.25290
# Poissons Ratio (z) = -0.03072 0.23520
#
# Static dielectric constant tensor:
#      x y z
#    x 3.741650 0.000000 -0.073520 
#    y 0.000000 3.305310 0.000000 
#    z -0.073520 0.000000 3.808340 
# 
# 
# High freq. dielectric constant tensor:
#      x y z
#    x 1.795360 0.000000 -0.006680 
#    y 0.000000 1.756110 0.000000 
#    z -0.006680 0.000000 1.798560 
# 
# From -- ./inp_files/22425.got.cif
#   From: 2010.06.25/outbox.cif.g09.slc.cpg/sg12_12_cif.got.tgz:22425.got - 2010.06.28 00:19:55.
