data_PCOD8083800
_publ_section_title
;
Structure prediction by ZEFSAII (Michael W. Deem and Ramdas Pophale) SiO2 
 PCOD8083800
Probable space group: C 2/M
;
_chemical_formula_sum "Si O2"
_cell_formula_units_Z 64
_cell_length_a 29.099548
_cell_length_b 9.000311
_cell_length_c 14.092194
_cell_angle_alpha 90.000000
_cell_angle_beta 59.358445
_cell_angle_gamma 90.000000
_cell_volume 3175.476826
_symmetry_space_group_name_H-M "C 2/M"
_symmetry_group_IT_number 12
_symmetry_cell_setting 'monoclinic'
loop_
_space_group_symop_operation_xyz
x,y,z
-x,y,-z
-x,-y,-z
x,-y,z
1/2+x,1/2+y,z
1/2-x,1/2+y,-z
1/2-x,1/2-y,-z
1/2+x,1/2-y,z
loop_
_atom_site_type_symbol
_atom_site_label
_atom_site_fract_x
_atom_site_fract_y
_atom_site_fract_z
Si Si1 0.456623 0.329170 0.474165
Si Si2 0.963776 0.170748 0.762728
Si Si3 0.710544 0.166791 0.972498
Si Si4 0.661245 0.676951 0.362579
Si Si5 0.368260 0.832471 0.784144
Si Si6 0.048258 0.823218 0.011954
Si Si7 0.166565 0.828277 0.843135
Si Si8 0.750550 0.673478 0.600703
O O1 0.500000 0.254520 0.500000
O O2 0.450937 0.500000 0.510548
O O3 0.476767 0.312978 0.343760
O O4 0.397346 0.261340 0.544507
O O5 0.926085 0.257903 0.729226
O O6 0.944877 0.000000 0.783537
O O7 0.961155 0.236752 0.871447
O O8 0.653960 0.168306 0.085636
O O9 0.731262 0.000000 0.932786
O O10 0.750000 0.250000 0.000000
O O11 0.704164 0.244424 0.878177
O O12 0.667369 0.500000 0.361225
O O13 0.669900 0.736591 0.246038
O O14 0.703827 0.750662 0.385964
O O15 0.372488 0.000000 0.740254
O O16 0.105449 0.768374 0.910103
O O17 0.045452 0.000000 0.013024
O O18 0.000000 0.756268 0.000000
O O19 0.192685 0.803804 0.712073
O O20 0.167194 0.000000 0.872189
O O21 0.763278 0.500000 0.575618
O O22 0.750000 0.750000 0.500000
#
# Coordination Sequence:
#
# PCOD8083800 Si02
#       8
#     8   8   8   8   8   8   8   8
#     4   9  17  31  54  86 116 149 197 247 292 347
#     4  10  18  33  58  82 111 153 197 241 292 353
#     4  11  23  36  55  84 119 157 196 241 294 355
#     4  11  22  38  62  89 120 158 203 251 300 350
#     4  11  22  35  53  83 122 156 192 241 297 358
#     4   9  18  33  58  90 116 144 190 244 294 345
#     4  10  21  39  63  89 117 150 194 247 295 345
#     4  11  25  44  64  88 120 157 201 248 296 351
#
# _framework density 20.154453
#
# number of rings (size 3 to 8) (size 9 to 14) (size 15 to 20)
#    0.000    1.750    2.500    2.250    0.000    6.500 
#    0.000    5.625    0.000    1.500    0.000    0.000 
#    0.000    0.000    0.000    0.000    0.000    0.000 
#
# Total GULP energy -396744.795022 kJ/mol
# GULP energy per Si atom -12398.274844 kJ/mol
# Density = 2.010858 g / cm^3
# Si number density = 20.154453 Si / 1000 Ang^3
#
#
#
# Elastic Constant Matrix: (Units=GPa)
#
#
# Indices 1 2 3 4 5 6 
#
# 1 116.7856 37.6724 45.5770 0.0000 11.4564 0.0000
# 2 37.6724 89.5951 37.8738 0.0000 8.1639 0.0000
# 3 45.5770 37.8738 117.8497 0.0000 9.5072 0.0000
# 4 0.0000 0.0000 0.0000 25.6790 0.0000 3.9231
# 5 11.4564 8.1639 9.5072 0.0000 33.3661 0.0000
# 6 0.0000 0.0000 0.0000 3.9231 0.0000 27.2948
#
#
#
# Elastic Compliance Matrix: (Units=1/GPa)
#
#
# Indices 1 2 3 4 5 6 
#
# 1 0.010977 -0.003124 -0.003070 0.000000 -0.002130 0.000000
# 2 -0.003124 0.013940 -0.003156 0.000000 -0.001439 0.000000
# 3 -0.003070 -0.003156 0.010787 0.000000 -0.001248 0.000000
# 4 0.000000 0.000000 0.000000 0.039817 0.000000 -0.005723
# 5 -0.002130 -0.001439 -0.001248 0.000000 0.031409 0.000000
# 6 0.000000 0.000000 0.000000 -0.005723 0.000000 0.037460
#
#
# Mechanical properties :
#
#
# Convention : Reuss Voigt Hill
#
# Bulk Modulus (GPa) = 58.80229 62.94184 60.87207
# Shear Modulus (GPa) = 29.62832 30.80847 30.21839
#
# Velocity S-wave (km/s) = 3.83830 3.91400 3.87633
# Velocity P-wave (km/s) = 6.99161 7.19190 7.09246
#
# Compressibility (1/GPa) = 0.01700614
#
# Stress axis : x y z
#
# Youngs Moduli (GPa) = 91.09689 71.73606 92.70173
#
# Poissons Ratio (x) = 0.22411 0.28455
# Poissons Ratio (y) = 0.28459 0.29254
# Poissons Ratio (z) = 0.27962 0.22638
#
# Static dielectric constant tensor:
#      x y z
#    x 3.672760 0.000000 -0.103690 
#    y 0.000000 3.455060 0.000000 
#    z -0.103690 0.000000 3.955110 
# 
# 
# High freq. dielectric constant tensor:
#      x y z
#    x 1.778080 0.000000 -0.009450 
#    y 0.000000 1.759670 0.000000 
#    z -0.009450 0.000000 1.801860 
# 
# From -- ./inp_files/249102.got.cif
#   From: 2010.06.25/outbox.cif.g09.slc.cpg/sg12_125_cif.got.tgz:249102.got - 2010.06.28 00:19:55.
