data_PCOD8083902
_publ_section_title
;
Structure prediction by ZEFSAII (Michael W. Deem and Ramdas Pophale) SiO2 
 PCOD8083902
Probable space group: C 2/M
;
_chemical_formula_sum "Si O2"
_cell_formula_units_Z 48
_cell_length_a 15.143752
_cell_length_b 14.043558
_cell_length_c 24.504973
_cell_angle_alpha 90.000000
_cell_angle_beta 151.799409
_cell_angle_gamma 90.000000
_cell_volume 2462.757750
_symmetry_space_group_name_H-M "C 2/M"
_symmetry_group_IT_number 12
_symmetry_cell_setting 'monoclinic'
loop_
_space_group_symop_operation_xyz
x,y,z
-x,y,-z
-x,-y,-z
x,-y,z
1/2+x,1/2+y,z
1/2-x,1/2+y,-z
1/2-x,1/2-y,-z
1/2+x,1/2-y,z
loop_
_atom_site_type_symbol
_atom_site_label
_atom_site_fract_x
_atom_site_fract_y
_atom_site_fract_z
Si Si1 0.027199 0.000000 0.950168
Si Si2 0.805167 0.300827 0.368942
Si Si3 0.563248 0.303848 0.766026
Si Si4 0.228709 0.000000 0.280374
Si Si5 0.669091 0.703062 0.010364
Si Si6 0.545829 0.000000 0.090373
Si Si7 0.791807 0.697525 0.792168
Si Si8 0.649953 0.500000 0.863092
O O1 0.145846 0.909901 0.993610
O O2 0.814936 0.000000 0.808335
O O3 0.000000 0.000000 0.000000
O O4 0.654096 0.300582 0.335624
O O5 0.834933 0.405710 0.358631
O O6 0.740725 0.226477 0.288109
O O7 0.000000 0.266612 0.500000
O O8 0.682267 0.224744 0.862094
O O9 0.600513 0.282424 0.722280
O O10 0.647309 0.408034 0.822966
O O11 0.019258 0.000000 0.188174
O O12 0.750000 0.750000 0.000000
O O13 0.464024 0.744239 0.911919
O O14 0.659867 0.087437 0.176723
O O15 0.500000 0.000000 0.000000
O O16 0.336966 0.000000 0.001845
#
# Coordination Sequence:
#
# PCOD8083902 Si02
#       8
#     4   8   8   4   8   4   8   4
#     4  12  24  37  61 100 139 163 200 265 342 407
#     4  11  25  43  62  86 118 166 223 265 306 367
#     4  11  21  38  61  92 126 159 203 259 321 383
#     4  10  21  40  63  85 116 165 205 261 318 377
#     4  12  22  38  59  96 132 169 196 252 327 406
#     4  12  20  34  61  97 126 157 194 248 316 398
#     4  12  22  37  63  91 127 161 204 259 321 379
#     4  10  18  33  60  94 124 149 205 245 305 391
#
# _framework density 19.490347
#
# number of rings (size 3 to 8) (size 9 to 14) (size 15 to 20)
#    0.000    0.667    6.667    2.750    0.000    0.667 
#    0.000    0.417    0.000    0.000    0.000    0.000 
#    0.000    0.000    0.000    0.000    0.000    0.000 
#
# Total GULP energy -297524.239020 kJ/mol
# GULP energy per Si atom -12396.843293 kJ/mol
# Density = 1.944599 g / cm^3
# Si number density = 19.490347 Si / 1000 Ang^3
#
#
#
# Elastic Constant Matrix: (Units=GPa)
#
#
# Indices 1 2 3 4 5 6 
#
# 1 106.0351 25.4781 19.9711 0.0006 13.2365 0.0001
# 2 25.4781 133.8172 23.0466 0.0009 3.4774 0.0000
# 3 19.9711 23.0466 90.4367 0.0021 15.5532 -0.0007
# 4 0.0006 0.0009 0.0021 17.5868 0.0000 6.5298
# 5 13.2365 3.4774 15.5532 0.0000 23.4555 -0.0003
# 6 0.0001 0.0000 -0.0007 6.5298 -0.0003 -4.8536
#
#
#
# Elastic Compliance Matrix: (Units=1/GPa)
#
#
# Indices 1 2 3 4 5 6 
#
# 1 0.010675 -0.001720 -0.001046 0.000000 -0.005075 0.000000
# 2 -0.001720 0.008094 -0.001855 0.000000 0.001001 0.000000
# 3 -0.001046 -0.001855 0.013107 -0.000001 -0.007826 -0.000002
# 4 0.000000 0.000000 -0.000001 0.037919 0.000001 0.051015
# 5 -0.005075 0.001001 -0.007826 0.000001 0.050539 0.000000
# 6 0.000000 0.000000 -0.000002 0.051015 0.000000 -0.137400
#
#
# Mechanical properties :
#
#
# Convention : Reuss Voigt Hill
#
# Bulk Modulus (GPa) = 44.18288 51.92007 48.05147
# Shear Modulus (GPa) = -17894.24634 24.69063 -8934.77785
#
# Velocity S-wave (km/s) = -95.92191 3.56309 -67.78022
# Velocity P-wave (km/s) = 110.65848 6.60486 78.10786
#
# Compressibility (1/GPa) = 0.02263320
#
# Stress axis : x y z
#
# Youngs Moduli (GPa) = 93.67860 123.55027 76.29502
#
# Poissons Ratio (x) = 0.21255 0.07981
# Poissons Ratio (y) = 0.16116 0.14151
# Poissons Ratio (z) = 0.09799 0.22916
#
# Static dielectric constant tensor:
#      x y z
#    x 3.871940 0.000000 0.050300 
#    y 0.000000 3.921210 0.000000 
#    z 0.050300 0.000000 3.294040 
# 
# 
# High freq. dielectric constant tensor:
#      x y z
#    x 1.769040 0.000000 0.007930 
#    y 0.000000 1.766090 0.000000 
#    z 0.007930 0.000000 1.722430 
# 
# From -- ./inp_files/340250.got.cif
#   From: 2010.06.25/outbox.cif.g09.slc.cpg/sg12_171_cif.got.tgz:340250.got - 2010.06.28 00:19:55.
