data_PCOD8083226
_publ_section_title
;
Structure prediction by ZEFSAII (Michael W. Deem and Ramdas Pophale) SiO2 
 PCOD8083226
Probable space group: C 2/M
;
_chemical_formula_sum "Si O2"
_cell_formula_units_Z 64
_cell_length_a 24.055331
_cell_length_b 8.918750
_cell_length_c 19.591359
_cell_angle_alpha 90.000000
_cell_angle_beta 127.582743
_cell_angle_gamma 90.000000
_cell_volume 3330.922837
_symmetry_space_group_name_H-M "C 2/M"
_symmetry_group_IT_number 12
_symmetry_cell_setting 'monoclinic'
loop_
_space_group_symop_operation_xyz
x,y,z
-x,y,-z
-x,-y,-z
x,-y,z
1/2+x,1/2+y,z
1/2-x,1/2+y,-z
1/2-x,1/2-y,-z
1/2+x,1/2-y,z
loop_
_atom_site_type_symbol
_atom_site_label
_atom_site_fract_x
_atom_site_fract_y
_atom_site_fract_z
Si Si1 0.934041 0.824985 0.589275
Si Si2 0.903339 0.823464 0.087101
Si Si3 0.411798 0.325881 0.328642
Si Si4 0.173055 0.822217 0.601131
Si Si5 0.827795 0.677222 0.150292
Si Si6 0.316771 0.323638 0.896610
Si Si7 0.946600 0.821254 0.750993
Si Si8 0.682840 0.678508 0.256077
O O1 0.869155 0.760879 0.496632
O O2 0.936849 0.754088 0.667393
O O3 0.005429 0.794998 0.600692
O O4 0.921909 0.000000 0.589124
O O5 0.844145 0.747851 0.089315
O O6 0.980632 0.760721 0.162239
O O7 0.899259 0.000000 0.097070
O O8 0.884053 0.783978 0.994002
O O9 0.397877 0.500000 0.301163
O O10 0.371425 0.274519 0.365972
O O11 0.387722 0.226057 0.247526
O O12 0.247721 0.742723 0.657083
O O13 0.183140 0.000000 0.606401
O O14 0.826668 0.500000 0.141957
O O15 0.753619 0.741690 0.121617
O O16 0.307833 0.500000 0.882787
O O17 0.326029 0.257047 0.827493
O O18 0.883276 0.762557 0.750343
O O19 0.948723 0.000000 0.751189
O O20 0.687210 0.500000 0.260327
#
# Coordination Sequence:
#
# PCOD8083226 Si02
#       8
#     8   8   8   8   8   8   8   8
#     4   9  17  32  53  80 106 129 171 223 256 291
#     4  10  19  35  56  78 101 135 179 214 250 303
#     4  10  18  32  55  78 102 137 174 210 254 307
#     4  10  20  33  54  80 104 135 174 214 257 305
#     4  11  20  32  51  79 111 138 161 205 267 314
#     4   9  19  33  52  77 107 136 169 213 256 304
#     4   9  18  32  55  78  99 134 178 220 255 294
#     4  10  20  36  53  74 106 140 172 213 262 303
#
# _framework density 19.213895000000001
#
# number of rings (size 3 to 8) (size 9 to 14) (size 15 to 20)
#    0.000    2.250    2.500    1.125    0.000    2.500 
#    0.000    5.000    0.000    1.500    0.000    1.750 
#    0.000    0.000    0.000    0.000    0.000    0.000 
#
# Total GULP energy -396754.439661 kJ/mol
# GULP energy per Si atom -12398.576239 kJ/mol
# Density = 1.917016 g / cm^3
# Si number density = 19.213895 Si / 1000 Ang^3
#
#
#
# Elastic Constant Matrix: (Units=GPa)
#
#
# Indices 1 2 3 4 5 6 
#
# 1 126.8611 12.9303 48.3744 0.0000 8.0257 0.0000
# 2 12.9303 20.7428 13.3763 0.0000 0.4091 0.0000
# 3 48.3744 13.3763 134.5970 0.0000 4.7757 0.0000
# 4 0.0000 0.0000 0.0000 21.0366 0.0000 2.8811
# 5 8.0257 0.4091 4.7757 0.0000 22.0575 0.0000
# 6 0.0000 0.0000 0.0000 2.8811 0.0000 20.7394
#
#
#
# Elastic Compliance Matrix: (Units=1/GPa)
#
#
# Indices 1 2 3 4 5 6 
#
# 1 0.009593 -0.004023 -0.002949 0.000000 -0.002777 0.000000
# 2 -0.004023 0.053199 -0.003888 0.000000 0.001319 0.000000
# 3 -0.002949 -0.003888 0.008904 0.000000 -0.000783 0.000000
# 4 0.000000 0.000000 0.000000 0.048458 0.000000 -0.006732
# 5 -0.002777 0.001319 -0.000783 0.000000 0.046491 0.000000
# 6 0.000000 0.000000 0.000000 -0.006732 0.000000 0.049153
#
#
# Mechanical properties :
#
#
# Convention : Reuss Voigt Hill
#
# Bulk Modulus (GPa) = 20.01014 47.95141 33.98078
# Shear Modulus (GPa) = 19.67137 26.60137 23.13637
#
# Velocity S-wave (km/s) = 3.20317 3.72490 3.47385
# Velocity P-wave (km/s) = 4.91095 6.59626 5.81499
#
# Compressibility (1/GPa) = 0.04997466
#
# Stress axis : x y z
#
# Youngs Moduli (GPa) = 104.24205 18.79751 112.31252
#
# Poissons Ratio (x) = 0.07563 0.33125
# Poissons Ratio (y) = 0.41939 0.43664
# Poissons Ratio (z) = 0.30745 0.07308
#
# Static dielectric constant tensor:
#      x y z
#    x 3.677970 0.000000 -0.100200 
#    y 0.000000 3.034710 0.000000 
#    z -0.100200 0.000000 3.791090 
# 
# 
# High freq. dielectric constant tensor:
#      x y z
#    x 1.748370 0.000000 -0.000960 
#    y 0.000000 1.695750 0.000000 
#    z -0.000960 0.000000 1.763390 
# 
# From -- ./inp_files/295801.got.cif
#   From: 2010.06.25/outbox.cif.g09.slc.cpg/sg12_148_cif.got.tgz:295801.got - 2010.06.28 00:19:55.
