data_PCOD8083683
_publ_section_title
;
Structure prediction by ZEFSAII (Michael W. Deem and Ramdas Pophale) SiO2 
 PCOD8083683
Probable space group: C 2/M
;
_chemical_formula_sum "Si O2"
_cell_formula_units_Z 56
_cell_length_a 13.294866
_cell_length_b 19.598400
_cell_length_c 16.734376
_cell_angle_alpha 90.000000
_cell_angle_beta 46.511715
_cell_angle_gamma 90.000000
_cell_volume 3163.446984
_symmetry_space_group_name_H-M "C 2/M"
_symmetry_group_IT_number 12
_symmetry_cell_setting 'monoclinic'
loop_
_space_group_symop_operation_xyz
x,y,z
-x,y,-z
-x,-y,-z
x,-y,z
1/2+x,1/2+y,z
1/2-x,1/2+y,-z
1/2-x,1/2-y,-z
1/2+x,1/2-y,z
loop_
_atom_site_type_symbol
_atom_site_label
_atom_site_fract_x
_atom_site_fract_y
_atom_site_fract_z
Si Si1 0.707131 0.574699 0.990543
Si Si2 0.155757 0.829761 0.883406
Si Si3 0.092086 0.078473 0.774852
Si Si4 0.814467 0.805939 0.759477
Si Si5 0.623248 0.674657 0.619656
Si Si6 0.652512 0.922722 0.928396
Si Si7 0.654983 0.278866 0.433809
O O1 0.697714 0.500000 0.954681
O O2 0.568478 0.587522 0.117166
O O3 0.831003 0.578872 0.985288
O O4 0.739585 0.629546 0.905128
O O5 0.173478 0.872226 0.791767
O O6 0.218923 0.755419 0.841297
O O7 0.000000 0.823828 0.000000
O O8 0.119550 0.102647 0.668490
O O9 0.141390 0.000000 0.755885
O O10 0.764962 0.876951 0.822736
O O11 0.797531 0.815365 0.673352
O O12 0.970551 0.790524 0.704986
O O13 0.657621 0.666592 0.506106
O O14 0.738789 0.719277 0.601279
O O15 0.667960 0.000000 0.886958
O O16 0.500000 0.892692 0.000000
O O17 0.500000 0.249131 0.500000
#
# Coordination Sequence:
#
# PCOD8083683 Si02
#       7
#     8   8   8   8   8   8   8
#     4   9  18  33  49  72 109 144 177 218 263 312
#     4  10  20  32  50  83 111 140 178 220 267 310
#     4  10  18  33  56  79 106 138 178 219 265 321
#     4  11  20  33  54  80 107 138 183 226 261 319
#     4  10  19  35  56  80 101 141 176 216 280 321
#     4  10  21  35  50  72 109 154 183 212 263 315
#     4   9  20  36  55  78 105 131 172 226 280 326
#
# _framework density 17.702207999999999
#
# number of rings (size 3 to 8) (size 9 to 14) (size 15 to 20)
#    0.000    2.143    2.857    0.857    0.000    3.429 
#    0.000    0.714    0.000    3.000    0.000    0.000 
#    0.000    0.000    0.000    0.000    0.000    0.000 
#
# Total GULP energy -346999.978568 kJ/mol
# GULP energy per Si atom -12392.856377 kJ/mol
# Density = 1.766192 g / cm^3
# Si number density = 17.702208 Si / 1000 Ang^3
#
#
#
# Elastic Constant Matrix: (Units=GPa)
#
#
# Indices 1 2 3 4 5 6 
#
# 1 99.4984 35.1743 37.0783 0.0001 5.4325 -0.0001
# 2 35.1743 90.9256 43.5792 -0.0001 14.1553 0.0001
# 3 37.0783 43.5792 71.7698 0.0002 17.3940 -0.0002
# 4 0.0001 -0.0001 0.0002 18.1632 -0.0002 5.8649
# 5 5.4325 14.1553 17.3940 -0.0002 27.4531 0.0002
# 6 -0.0001 0.0001 -0.0002 5.8649 0.0002 24.1792
#
#
#
# Elastic Compliance Matrix: (Units=1/GPa)
#
#
# Indices 1 2 3 4 5 6 
#
# 1 0.012975 -0.002682 -0.005656 0.000000 0.002399 0.000000
# 2 -0.002682 0.016202 -0.007746 0.000000 -0.002916 0.000000
# 3 -0.005656 -0.007746 0.024006 -0.000001 -0.010097 0.000000
# 4 0.000000 0.000000 -0.000001 0.059735 0.000001 -0.014489
# 5 0.002399 -0.002916 -0.010097 0.000001 0.043852 -0.000001
# 6 0.000000 0.000000 0.000000 -0.014489 -0.000001 0.044872
#
#
# Mechanical properties :
#
#
# Convention : Reuss Voigt Hill
#
# Bulk Modulus (GPa) = 47.58472 54.87303 51.22888
# Shear Modulus (GPa) = 20.76283 23.71658 22.23971
#
# Velocity S-wave (km/s) = 3.42847 3.66423 3.54831
# Velocity P-wave (km/s) = 6.52775 6.99766 6.76679
#
# Compressibility (1/GPa) = 0.02101515
#
# Stress axis : x y z
#
# Youngs Moduli (GPa) = 77.06885 61.72154 41.65637
#
# Poissons Ratio (x) = 0.16554 0.23562
# Poissons Ratio (y) = 0.20670 0.32266
# Poissons Ratio (z) = 0.43593 0.47807
#
# Static dielectric constant tensor:
#      x y z
#    x 3.551610 0.000000 0.131470 
#    y 0.000000 3.131550 0.000000 
#    z 0.131470 0.000000 3.275160 
# 
# 
# High freq. dielectric constant tensor:
#      x y z
#    x 1.702680 0.000000 0.010060 
#    y 0.000000 1.666150 0.000000 
#    z 0.010060 0.000000 1.669280 
# 
# From -- ./inp_files/133152.got.cif
#   From: 2010.06.25/outbox.cif.g09.slc.cpg/sg12_67_cif.got.tgz:133152.got - 2010.06.28 00:19:55.
