data_PCOD8083582
_publ_section_title
;
Structure prediction by ZEFSAII (Michael W. Deem and Ramdas Pophale) SiO2 
 PCOD8083582
Probable space group: C 2/M
;
_chemical_formula_sum "Si O2"
_cell_formula_units_Z 56
_cell_length_a 30.284746
_cell_length_b 12.083609
_cell_length_c 8.510825
_cell_angle_alpha 90.000000
_cell_angle_beta 70.874335
_cell_angle_gamma 90.000000
_cell_volume 2942.613182
_symmetry_space_group_name_H-M "C 2/M"
_symmetry_group_IT_number 12
_symmetry_cell_setting 'monoclinic'
loop_
_space_group_symop_operation_xyz
x,y,z
-x,y,-z
-x,-y,-z
x,-y,z
1/2+x,1/2+y,z
1/2-x,1/2+y,-z
1/2-x,1/2-y,-z
1/2+x,1/2-y,z
loop_
_atom_site_type_symbol
_atom_site_label
_atom_site_fract_x
_atom_site_fract_y
_atom_site_fract_z
Si Si1 0.615892 0.632270 0.005959
Si Si2 0.467192 0.623568 0.406240
Si Si3 0.723219 0.623932 0.359712
Si Si4 0.954190 0.735419 0.130804
Si Si5 0.874951 0.627540 0.404320
Si Si6 0.304926 0.275277 0.294158
Si Si7 0.125908 0.806164 0.346309
O O1 0.608518 0.500000 0.029981
O O2 0.575024 0.687928 0.953573
O O3 0.665655 0.656846 0.867293
O O4 0.615103 0.693126 0.174681
O O5 0.500000 0.680849 0.500000
O O6 0.485297 0.500000 0.358439
O O7 0.475851 0.684679 0.234993
O O8 0.412733 0.621679 0.517594
O O9 0.741517 0.500000 0.307658
O O10 0.714150 0.637630 0.556399
O O11 0.762255 0.712119 0.257264
O O12 0.676372 0.640778 0.314540
O O13 0.922953 0.641621 0.250347
O O14 0.000000 0.678775 0.000000
O O15 0.863863 0.500000 0.443320
O O16 0.834127 0.682164 0.351194
O O17 0.877302 0.682967 0.574875
#
# Coordination Sequence:
#
# PCOD8083582 Si02
#       7
#     8   8   8   8   8   8   8
#     4  11  21  35  54  79 114 143 169 213 265 314
#     4  10  19  32  52  77 107 141 173 210 262 317
#     4  10  18  33  54  75 105 140 177 219 263 310
#     4  10  21  34  53  81 108 135 176 219 260 316
#     4   9  19  38  57  73 102 140 179 223 266 307
#     4   9  20  33  53  81 103 135 181 220 261 316
#     4  10  21  34  52  78 105 138 179 216 258 316
#
# _framework density 19.030702999999999
#
# number of rings (size 3 to 8) (size 9 to 14) (size 15 to 20)
#    0.000    2.143    0.000    4.286    0.000    3.143 
#    0.000    4.286    0.000   14.571    0.000    0.000 
#    0.000    0.000    0.000    0.000    0.000    0.000 
#
# Total GULP energy -347150.229978 kJ/mol
# GULP energy per Si atom -12398.222499 kJ/mol
# Density = 1.898739 g / cm^3
# Si number density = 19.030703 Si / 1000 Ang^3
#
#
#
# Elastic Constant Matrix: (Units=GPa)
#
#
# Indices 1 2 3 4 5 6 
#
# 1 86.4421 15.3795 15.8253 0.0000 3.3008 0.0000
# 2 15.3795 85.1389 16.4612 0.0000 11.2003 0.0000
# 3 15.8253 16.4612 79.1653 0.0000 6.9667 0.0000
# 4 0.0000 0.0000 0.0000 13.8595 0.0000 2.0771
# 5 3.3008 11.2003 6.9667 0.0000 38.7787 0.0000
# 6 0.0000 0.0000 0.0000 2.0771 0.0000 16.6017
#
#
#
# Elastic Compliance Matrix: (Units=1/GPa)
#
#
# Indices 1 2 3 4 5 6 
#
# 1 0.012272 -0.001797 -0.002066 0.000000 -0.000154 0.000000
# 2 -0.001797 0.012886 -0.002038 0.000000 -0.003203 0.000000
# 3 -0.002066 -0.002038 0.013617 0.000000 -0.001682 0.000000
# 4 0.000000 0.000000 0.000000 0.073532 0.000000 -0.009200
# 5 -0.000154 -0.003203 -0.001682 0.000000 0.027028 0.000000
# 6 0.000000 0.000000 0.000000 -0.009200 0.000000 0.061386
#
#
# Mechanical properties :
#
#
# Convention : Reuss Voigt Hill
#
# Bulk Modulus (GPa) = 37.07589 38.45314 37.76451
# Shear Modulus (GPa) = 22.57208 27.38666 24.97937
#
# Velocity S-wave (km/s) = 3.44770 3.79763 3.62689
# Velocity P-wave (km/s) = 5.94754 6.28324 6.11769
#
# Compressibility (1/GPa) = 0.02697171
#
# Stress axis : x y z
#
# Youngs Moduli (GPa) = 81.48434 77.60638 73.43973
#
# Poissons Ratio (x) = 0.13947 0.15173
# Poissons Ratio (y) = 0.14644 0.14969
# Poissons Ratio (z) = 0.16835 0.15818
#
# Static dielectric constant tensor:
#      x y z
#    x 3.634420 0.000000 -0.081270 
#    y 0.000000 3.207020 0.000000 
#    z -0.081270 0.000000 3.510430 
# 
# 
# High freq. dielectric constant tensor:
#      x y z
#    x 1.754150 0.000000 -0.005890 
#    y 0.000000 1.717320 0.000000 
#    z -0.005890 0.000000 1.734470 
# 
# From -- ./inp_files/109859.got.cif
#   From: 2010.06.25/outbox.cif.g09.slc.cpg/sg12_55_cif.got.tgz:109859.got - 2010.06.28 00:19:55.
