data_PCOD8083238
_publ_section_title
;
Structure prediction by ZEFSAII (Michael W. Deem and Ramdas Pophale) SiO2 
 PCOD8083238
Probable space group: C 2/M
;
_chemical_formula_sum "Si O2"
_cell_formula_units_Z 64
_cell_length_a 18.671852
_cell_length_b 9.241107
_cell_length_c 31.627817
_cell_angle_alpha 90.000000
_cell_angle_beta 140.303022
_cell_angle_gamma 90.000000
_cell_volume 3485.748486
_symmetry_space_group_name_H-M "C 2/M"
_symmetry_group_IT_number 12
_symmetry_cell_setting 'monoclinic'
loop_
_space_group_symop_operation_xyz
x,y,z
-x,y,-z
-x,-y,-z
x,-y,z
1/2+x,1/2+y,z
1/2-x,1/2+y,-z
1/2-x,1/2-y,-z
1/2+x,1/2-y,z
loop_
_atom_site_type_symbol
_atom_site_label
_atom_site_fract_x
_atom_site_fract_y
_atom_site_fract_z
Si Si1 0.584172 0.170825 0.268688
Si Si2 0.451073 0.671850 0.523364
Si Si3 0.715109 0.834699 0.783514
Si Si4 0.301767 0.170224 0.594322
Si Si5 0.994273 0.671473 0.369737
Si Si6 0.414761 0.333910 0.812199
Si Si7 0.833393 0.165024 0.067356
Si Si8 0.854139 0.167379 0.171849
O O1 0.668894 0.212846 0.344438
O O2 0.633129 0.237694 0.247855
O O3 0.466340 0.240621 0.226699
O O4 0.569025 0.000000 0.256916
O O5 0.500000 0.718597 0.500000
O O6 0.460608 0.500000 0.533147
O O7 0.323193 0.728662 0.470716
O O8 0.520808 0.749450 0.592108
O O9 0.612904 0.785693 0.707139
O O10 0.833351 0.816020 0.814384
O O11 0.727858 0.731551 0.829902
O O12 0.696036 0.000000 0.789244
O O13 0.393437 0.231700 0.602749
O O14 0.304378 0.000000 0.590698
O O15 0.998533 0.500000 0.379202
O O16 0.422394 0.500000 0.799871
O O17 0.539007 0.279746 0.881450
O O18 0.798489 0.186832 0.100477
O O19 0.823951 0.000000 0.049097
O O20 0.750000 0.250000 0.000000
O O21 0.880440 0.000000 0.192799
#
# Coordination Sequence:
#
# PCOD8083238 Si02
#       8
#     8   8   8   8   8   8   8   8
#     4  10  18  32  55  79 105 141 181 221 270 326
#     4  10  22  37  52  73 105 140 175 223 277 325
#     4  10  20  36  57  80 111 146 178 223 279 325
#     4   9  18  34  53  74 103 135 176 223 266 321
#     4  10  20  36  55  75 102 137 180 223 265 323
#     4   9  20  36  53  80 115 142 176 226 269 311
#     4   9  19  36  57  81 110 144 180 219 259 311
#     4  10  20  35  55  83 115 140 177 226 264 313
#
# _framework density 18.360475999999998
#
# number of rings (size 3 to 8) (size 9 to 14) (size 15 to 20)
#    0.000    2.375    1.250    1.875    1.750    3.750 
#    0.000    1.875    0.000    3.750    0.000    0.000 
#    0.000    0.000    0.000    0.000    0.000    0.000 
#
# Total GULP energy -396771.272226 kJ/mol
# GULP energy per Si atom -12399.102257 kJ/mol
# Density = 1.831869 g / cm^3
# Si number density = 18.360476 Si / 1000 Ang^3
#
#
#
# Elastic Constant Matrix: (Units=GPa)
#
#
# Indices 1 2 3 4 5 6 
#
# 1 105.4854 35.2730 47.1255 -0.0001 -6.6056 0.0000
# 2 35.2730 60.0938 37.4692 -0.0001 -14.0182 0.0000
# 3 47.1255 37.4692 96.9107 0.0000 -10.8301 0.0000
# 4 -0.0001 -0.0001 0.0000 28.5550 0.0000 -8.5477
# 5 -6.6056 -14.0182 -10.8301 0.0000 21.5510 0.0000
# 6 0.0000 0.0000 0.0000 -8.5477 0.0000 29.5533
#
#
#
# Elastic Compliance Matrix: (Units=1/GPa)
#
#
# Indices 1 2 3 4 5 6 
#
# 1 0.013176 -0.005291 -0.004551 0.000000 -0.001690 0.000000
# 2 -0.005291 0.026601 -0.006314 0.000000 0.012508 0.000000
# 3 -0.004551 -0.006314 0.015212 0.000000 0.002143 0.000000
# 4 0.000000 0.000000 0.000000 0.038339 0.000000 0.011089
# 5 -0.001690 0.012508 0.002143 0.000000 0.055097 0.000000
# 6 0.000000 0.000000 0.000000 0.011089 0.000000 0.037044
#
#
# Mechanical properties :
#
#
# Convention : Reuss Voigt Hill
#
# Bulk Modulus (GPa) = 44.09475 55.80278 49.94877
# Shear Modulus (GPa) = 22.18858 25.44002 23.81430
#
# Velocity S-wave (km/s) = 3.48012 3.72638 3.60535
# Velocity P-wave (km/s) = 6.34165 6.99810 6.67795
#
# Compressibility (1/GPa) = 0.02267844
#
# Stress axis : x y z
#
# Youngs Moduli (GPa) = 75.89370 37.59249 65.73601
#
# Poissons Ratio (x) = 0.19890 0.29913
# Poissons Ratio (y) = 0.40155 0.41507
# Poissons Ratio (z) = 0.34536 0.23737
#
# Static dielectric constant tensor:
#      x y z
#    x 3.576770 0.000000 -0.012000 
#    y 0.000000 3.293570 0.000000 
#    z -0.012000 0.000000 3.310900 
# 
# 
# High freq. dielectric constant tensor:
#      x y z
#    x 1.717850 0.000000 -0.006340 
#    y 0.000000 1.699710 0.000000 
#    z -0.006340 0.000000 1.701780 
# 
# From -- ./inp_files/314000.got.cif
#   From: 2010.06.25/outbox.cif.g09.slc.cpg/sg12_157_cif.got.tgz:314000.got - 2010.06.28 00:19:55.
