data_PCOD8083029
_publ_section_title
;
Structure prediction by ZEFSAII (Michael W. Deem and Ramdas Pophale) SiO2 
 PCOD8083029
Probable space group: C 2/M
;
_chemical_formula_sum "Si O2"
_cell_formula_units_Z 64
_cell_length_a 12.805523
_cell_length_b 19.840726
_cell_length_c 28.554210
_cell_angle_alpha 90.000000
_cell_angle_beta 151.302473
_cell_angle_gamma 90.000000
_cell_volume 3483.647434
_symmetry_space_group_name_H-M "C 2/M"
_symmetry_group_IT_number 12
_symmetry_cell_setting 'monoclinic'
loop_
_space_group_symop_operation_xyz
x,y,z
-x,y,-z
-x,-y,-z
x,-y,z
1/2+x,1/2+y,z
1/2-x,1/2+y,-z
1/2-x,1/2-y,-z
1/2+x,1/2-y,z
loop_
_atom_site_type_symbol
_atom_site_label
_atom_site_fract_x
_atom_site_fract_y
_atom_site_fract_z
Si Si1 0.506892 0.801537 0.876142
Si Si2 0.750364 0.273398 0.299513
Si Si3 0.074179 0.649986 0.368957
Si Si4 0.502679 0.694047 0.055551
Si Si5 0.945691 0.149015 0.586620
Si Si6 0.647811 0.924767 0.230714
Si Si7 0.744189 0.288687 0.398667
Si Si8 0.654119 0.922923 0.799968
O O1 0.451646 0.761168 0.806516
O O2 0.408562 0.759647 0.881384
O O3 0.385642 0.873524 0.825790
O O4 0.761305 0.816953 0.980631
O O5 0.663150 0.304350 0.313871
O O6 0.850753 0.332927 0.307908
O O7 0.943993 0.219254 0.386666
O O8 0.254971 0.625500 0.476972
O O9 0.167188 0.713446 0.378213
O O10 0.017681 0.592241 0.309091
O O11 0.641300 0.627500 0.121533
O O12 0.500000 0.711163 0.000000
O O13 0.856762 0.158788 0.604379
O O14 0.118616 0.088603 0.653887
O O15 0.460365 0.912566 0.195216
O O16 0.639556 0.000000 0.207489
O O17 0.000000 0.296145 0.500000
O O18 0.736032 0.000000 0.826955
#
# Coordination Sequence:
#
# PCOD8083029 Si02
#       8
#     8   8   8   8   8   8   8   8
#     4  10  21  36  60  89 112 145 183 238 299 337
#     4  10  18  32  52  83 116 143 185 236 288 341
#     4  11  19  32  51  80 121 148 187 240 278 337
#     4  11  22  38  60  89 116 139 186 242 291 348
#     4  10  20  31  51  83 115 152 196 234 281 329
#     4  10  22  39  57  83 118 155 195 233 282 346
#     4  11  18  29  53  84 110 151 193 237 289 333
#     4  11  24  39  58  84 117 158 192 231 293 353
#
# _framework density 18.371548000000001
#
# number of rings (size 3 to 8) (size 9 to 14) (size 15 to 20)
#    0.000    1.500    5.000    2.250    0.000    1.250 
#    0.000    1.250    0.000    1.500    0.000    0.000 
#    0.000    0.000    0.000    0.000    0.000    0.000 
#
# Total GULP energy -396753.165750 kJ/mol
# GULP energy per Si atom -12398.536430 kJ/mol
# Density = 1.832973 g / cm^3
# Si number density = 18.371548 Si / 1000 Ang^3
#
#
#
# Elastic Constant Matrix: (Units=GPa)
#
#
# Indices 1 2 3 4 5 6 
#
# 1 60.9422 40.6246 22.2932 0.0009 -4.6447 -0.0001
# 2 40.6246 115.6726 49.9097 -0.0002 -6.9073 -0.0001
# 3 22.2932 49.9097 93.4585 -0.0024 -5.0934 0.0012
# 4 0.0009 -0.0002 -0.0024 18.5269 0.0004 1.5347
# 5 -4.6447 -6.9073 -5.0934 0.0004 34.6096 -0.0003
# 6 -0.0001 -0.0001 0.0012 1.5347 -0.0003 23.2237
#
#
#
# Elastic Compliance Matrix: (Units=1/GPa)
#
#
# Indices 1 2 3 4 5 6 
#
# 1 0.021630 -0.006916 -0.001394 -0.000001 0.001317 0.000000
# 2 -0.006916 0.013510 -0.005513 0.000000 0.000957 0.000000
# 3 -0.001394 -0.005513 0.014019 0.000002 0.000776 -0.000001
# 4 -0.000001 0.000000 0.000002 0.054273 -0.000001 -0.003587
# 5 0.001317 0.000957 0.000776 -0.000001 0.029376 0.000000
# 6 0.000000 0.000000 -0.000001 -0.003587 0.000000 0.043297
#
#
# Mechanical properties :
#
#
# Convention : Reuss Voigt Hill
#
# Bulk Modulus (GPa) = 46.48562 55.08091 50.78327
# Shear Modulus (GPa) = 23.70564 25.75509 24.73037
#
# Velocity S-wave (km/s) = 3.59603 3.74826 3.67294
# Velocity P-wave (km/s) = 6.52686 6.98422 6.75941
#
# Compressibility (1/GPa) = 0.02151203
#
# Stress axis : x y z
#
# Youngs Moduli (GPa) = 46.23242 74.02013 71.33303
#
# Poissons Ratio (x) = 0.51194 0.09945
# Poissons Ratio (y) = 0.31975 0.39324
# Poissons Ratio (z) = 0.06446 0.40805
#
# Static dielectric constant tensor:
#      x y z
#    x 3.545410 0.000000 -0.076160 
#    y 0.000000 3.152120 0.000000 
#    z -0.076160 0.000000 3.534680 
# 
# 
# High freq. dielectric constant tensor:
#      x y z
#    x 1.707800 0.000000 -0.001470 
#    y 0.000000 1.674380 0.000000 
#    z -0.001470 0.000000 1.724580 
# 
# From -- ./inp_files/359013.got.cif
#   From: 2010.06.25/outbox.cif.g09.slc.cpg/sg12_180_cif.got.tgz:359013.got - 2010.06.28 00:19:55.
