data_PCOD8083144
_publ_section_title
;
Structure prediction by ZEFSAII (Michael W. Deem and Ramdas Pophale) SiO2 
 PCOD8083144
Probable space group: C 2/M
;
_chemical_formula_sum "Si O2"
_cell_formula_units_Z 56
_cell_length_a 20.460962
_cell_length_b 9.471923
_cell_length_c 17.444790
_cell_angle_alpha 90.000000
_cell_angle_beta 71.030266
_cell_angle_gamma 90.000000
_cell_volume 3197.267286
_symmetry_space_group_name_H-M "C 2/M"
_symmetry_group_IT_number 12
_symmetry_cell_setting 'monoclinic'
loop_
_space_group_symop_operation_xyz
x,y,z
-x,y,-z
-x,-y,-z
x,-y,z
1/2+x,1/2+y,z
1/2-x,1/2+y,-z
1/2-x,1/2-y,-z
1/2+x,1/2-y,z
loop_
_atom_site_type_symbol
_atom_site_label
_atom_site_fract_x
_atom_site_fract_y
_atom_site_fract_z
Si Si1 0.053291 0.833928 0.080344
Si Si2 0.323572 0.834465 0.249075
Si Si3 0.332165 0.664204 0.660883
Si Si4 0.932555 0.835017 0.756668
Si Si5 0.922879 0.338187 0.512245
Si Si6 0.565974 0.161281 0.666548
Si Si7 0.098893 0.167326 0.901930
O O1 0.085115 0.785075 0.149577
O O2 0.974234 0.780942 0.105391
O O3 0.049883 0.000000 0.073354
O O4 0.099835 0.781869 0.990919
O O5 0.247240 0.790199 0.304155
O O6 0.374995 0.788772 0.297442
O O7 0.340978 0.749440 0.165244
O O8 0.327756 0.000000 0.229223
O O9 0.340437 0.500000 0.638459
O O10 0.367225 0.701321 0.728966
O O11 0.367098 0.748754 0.579207
O O12 0.998840 0.756159 0.699443
O O13 0.950578 0.000000 0.749085
O O14 0.917765 0.500000 0.541683
O O15 0.904240 0.321794 0.430175
O O16 0.000000 0.280795 0.500000
O O17 0.544327 0.000000 0.690802
O O18 0.110660 0.000000 0.888400
#
# Coordination Sequence:
#
# PCOD8083144 Si02
#       7
#     8   8   8   8   8   8   8
#     4   8  15  28  50  78 102 125 166 216 249 283
#     4  10  21  36  50  73 109 139 163 201 256 306
#     4  10  22  36  52  75 105 137 166 204 254 304
#     4  10  18  32  54  77  99 130 172 210 245 293
#     4  10  20  35  54  76 101 130 168 212 254 295
#     4  10  20  34  53  74 101 134 166 207 253 297
#     4   9  16  30  52  76 101 131 169 210 248 291
#
# _framework density 17.514958
#
# number of rings (size 3 to 8) (size 9 to 14) (size 15 to 20)
#    0.000    2.429    2.857    0.857    0.000    2.000 
#    0.000    2.857    0.000    0.000    0.000    0.000 
#    0.000    0.000    0.000    0.000    0.000    0.000 
#
# Total GULP energy -347164.625885 kJ/mol
# GULP energy per Si atom -12398.736639 kJ/mol
# Density = 1.747509 g / cm^3
# Si number density = 17.514958 Si / 1000 Ang^3
#
#
#
# Elastic Constant Matrix: (Units=GPa)
#
#
# Indices 1 2 3 4 5 6 
#
# 1 75.3674 27.9228 38.9110 0.0000 -6.3822 0.0000
# 2 27.9228 40.5605 41.8788 0.0000 -7.5674 0.0001
# 3 38.9110 41.8788 119.4557 0.0000 -4.0904 0.0000
# 4 0.0000 0.0000 0.0000 30.8786 0.0000 -4.9299
# 5 -6.3822 -7.5674 -4.0904 0.0000 30.7131 0.0000
# 6 0.0000 0.0001 0.0000 -4.9299 0.0000 19.7825
#
#
#
# Elastic Compliance Matrix: (Units=1/GPa)
#
#
# Indices 1 2 3 4 5 6 
#
# 1 0.018276 -0.009838 -0.002468 0.000000 0.001045 0.000000
# 2 -0.009838 0.045867 -0.012616 0.000000 0.007577 0.000000
# 3 -0.002468 -0.012616 0.013536 0.000000 -0.001819 0.000000
# 4 0.000000 0.000000 0.000000 0.033727 0.000000 0.008405
# 5 0.001045 0.007577 -0.001819 0.000000 0.034401 0.000000
# 6 0.000000 0.000000 0.000000 0.008405 0.000000 0.052644
#
#
# Mechanical properties :
#
#
# Convention : Reuss Voigt Hill
#
# Bulk Modulus (GPa) = 35.92715 50.31209 43.11962
# Shear Modulus (GPa) = 19.41185 24.71956 22.06570
#
# Velocity S-wave (km/s) = 3.33273 3.76086 3.55325
# Velocity P-wave (km/s) = 5.94695 6.90263 6.44254
#
# Compressibility (1/GPa) = 0.02783410
#
# Stress axis : x y z
#
# Youngs Moduli (GPa) = 54.71610 21.80213 73.87727
#
# Poissons Ratio (x) = 0.21449 0.18235
# Poissons Ratio (y) = 0.53831 0.93203
# Poissons Ratio (z) = 0.13506 0.27506
#
# Static dielectric constant tensor:
#      x y z
#    x 3.250120 0.000000 0.222350 
#    y 0.000000 3.073340 0.000000 
#    z 0.222350 0.000000 3.441400 
# 
# 
# High freq. dielectric constant tensor:
#      x y z
#    x 1.663840 0.000000 0.013640 
#    y 0.000000 1.658630 0.000000 
#    z 0.013640 0.000000 1.687210 
# 
# From -- ./inp_files/280914.got.cif
#   From: 2010.06.25/outbox.cif.g09.slc.cpg/sg12_141_cif.got.tgz:280914.got - 2010.06.28 00:19:55.
