data_PCOD8083000
_publ_section_title
;
Structure prediction by ZEFSAII (Michael W. Deem and Ramdas Pophale) SiO2 
 PCOD8083000
Probable space group: C 2/M
;
_chemical_formula_sum "Si O2"
_cell_formula_units_Z 48
_cell_length_a 24.806810
_cell_length_b 8.744750
_cell_length_c 19.739047
_cell_angle_alpha 90.000000
_cell_angle_beta 33.968019
_cell_angle_gamma 90.000000
_cell_volume 2392.470239
_symmetry_space_group_name_H-M "C 2/M"
_symmetry_group_IT_number 12
_symmetry_cell_setting 'monoclinic'
loop_
_space_group_symop_operation_xyz
x,y,z
-x,y,-z
-x,-y,-z
x,-y,z
1/2+x,1/2+y,z
1/2-x,1/2+y,-z
1/2-x,1/2-y,-z
1/2+x,1/2-y,z
loop_
_atom_site_type_symbol
_atom_site_label
_atom_site_fract_x
_atom_site_fract_y
_atom_site_fract_z
Si Si1 0.126066 0.177716 0.213960
Si Si2 0.545606 0.318785 0.156633
Si Si3 0.303486 0.318739 0.105944
Si Si4 0.669583 0.318343 0.632908
Si Si5 0.537274 0.828011 0.536652
Si Si6 0.246258 0.181256 0.695870
O O1 0.111303 0.231085 0.151716
O O2 0.209962 0.274401 0.160473
O O3 0.025149 0.209942 0.355588
O O4 0.151756 0.000000 0.192724
O O5 0.536627 0.500000 0.163527
O O6 0.436555 0.253502 0.275651
O O7 0.599940 0.257953 0.032352
O O8 0.304842 0.500000 0.107174
O O9 0.299524 0.251186 0.186636
O O10 0.676099 0.500000 0.620192
O O11 0.750000 0.250000 0.500000
O O12 0.686602 0.264432 0.692678
O O13 0.500000 0.833749 0.500000
O O14 0.644773 0.759653 0.425720
O O15 0.532935 0.000000 0.572330
O O16 0.247626 0.000000 0.700593
#
# Coordination Sequence:
#
# PCOD8083000 Si02
#       6
#     8   8   8   8   8   8
#     4  11  21  33  50  79 111 140 174 216 264 315
#     4   9  20  35  54  78 107 139 176 217 261 311
#     4  10  19  36  56  76 104 141 177 218 263 306
#     4  10  20  37  57  80 106 135 173 217 261 314
#     4  10  18  32  52  76 105 137 174 215 257 308
#     4   9  18  32  55  81 103 132 177 220 257 304
#
# _framework density 20.062946
#
# number of rings (size 3 to 8) (size 9 to 14) (size 15 to 20)
#    0.000    2.167    1.667    2.000    0.000    1.000 
#    0.000    6.667    0.000    0.000    0.000    2.333 
#    0.000    0.000    0.000    0.000    0.000    0.000 
#
# Total GULP energy -297525.036005 kJ/mol
# GULP energy per Si atom -12396.876500 kJ/mol
# Density = 2.001728 g / cm^3
# Si number density = 20.062946 Si / 1000 Ang^3
#
#
#
# Elastic Constant Matrix: (Units=GPa)
#
#
# Indices 1 2 3 4 5 6 
#
# 1 115.7429 8.9668 59.3586 0.0258 14.3887 -0.0088
# 2 8.9668 12.1061 10.2024 0.0235 5.6042 -0.0190
# 3 59.3586 10.2024 152.1707 0.0318 16.0376 -0.0290
# 4 0.0258 0.0235 0.0318 38.7182 -0.0144 9.0609
# 5 14.3887 5.6042 16.0376 -0.0144 27.8402 0.0046
# 6 -0.0088 -0.0190 -0.0290 9.0609 0.0046 24.7056
#
#
#
# Elastic Compliance Matrix: (Units=1/GPa)
#
#
# Indices 1 2 3 4 5 6 
#
# 1 0.011254 -0.003786 -0.003836 -0.000003 -0.002844 -0.000002
# 2 -0.003786 0.095279 -0.003296 -0.000082 -0.015324 0.000101
# 3 -0.003836 -0.003296 0.008528 -0.000005 -0.002266 0.000008
# 4 -0.000003 -0.000082 -0.000005 0.028253 0.000037 -0.010362
# 5 -0.002844 -0.015324 -0.002266 0.000037 0.041780 -0.000037
# 6 -0.000002 0.000101 0.000008 -0.010362 -0.000037 0.044277
#
#
# Mechanical properties :
#
#
# Convention : Reuss Voigt Hill
#
# Bulk Modulus (GPa) = 10.72680 48.56391 29.64535
# Shear Modulus (GPa) = 17.71275 31.68561 24.69918
#
# Velocity S-wave (km/s) = 2.97452 3.97836 3.51249
# Velocity P-wave (km/s) = 4.14188 6.73509 5.59092
#
# Compressibility (1/GPa) = 0.09322445
#
# Stress axis : x y z
#
# Youngs Moduli (GPa) = 88.85523 10.49546 117.26184
#
# Poissons Ratio (x) = 0.03973 0.44987
# Poissons Ratio (y) = 0.33640 0.38651
# Poissons Ratio (z) = 0.34089 0.03459
#
# Static dielectric constant tensor:
#      x y z
#    x 4.435250 0.000000 0.796460 
#    y 0.000000 3.228290 0.000010 
#    z 0.796460 0.000010 4.853610 
# 
# 
# High freq. dielectric constant tensor:
#      x y z
#    x 1.790460 0.000000 0.005340 
#    y 0.000000 1.734570 0.000000 
#    z 0.005340 0.000000 1.796800 
# 
# From -- ./inp_files/327162.got.cif
#   From: 2010.06.25/outbox.cif.g09.slc.cpg/sg12_164_cif.got.tgz:327162.got - 2010.06.28 00:19:55.
