data_PCOD8083117
_publ_section_title
;
Structure prediction by ZEFSAII (Michael W. Deem and Ramdas Pophale) SiO2 
 PCOD8083117
Probable space group: C 2/M
;
_chemical_formula_sum "Si O2"
_cell_formula_units_Z 48
_cell_length_a 27.300916
_cell_length_b 9.081724
_cell_length_c 11.804991
_cell_angle_alpha 90.000000
_cell_angle_beta 73.060020
_cell_angle_gamma 90.000000
_cell_volume 2799.924519
_symmetry_space_group_name_H-M "C 2/M"
_symmetry_group_IT_number 12
_symmetry_cell_setting 'monoclinic'
loop_
_space_group_symop_operation_xyz
x,y,z
-x,y,-z
-x,-y,-z
x,-y,z
1/2+x,1/2+y,z
1/2-x,1/2+y,-z
1/2-x,1/2-y,-z
1/2+x,1/2-y,z
loop_
_atom_site_type_symbol
_atom_site_label
_atom_site_fract_x
_atom_site_fract_y
_atom_site_fract_z
Si Si1 0.567500 0.173640 0.243989
Si Si2 0.468838 0.331814 0.367886
Si Si3 0.389381 0.326952 0.242139
Si Si4 0.695755 0.674115 0.538065
Si Si5 0.945230 0.827265 0.984949
Si Si6 0.118599 0.833359 0.395764
O O1 0.517347 0.225965 0.345189
O O2 0.568346 0.238728 0.117720
O O3 0.615932 0.231953 0.285205
O O4 0.570272 0.000000 0.233992
O O5 0.487273 0.500000 0.332674
O O6 0.436367 0.266385 0.284902
O O7 0.435811 0.325364 0.503790
O O8 0.389957 0.500000 0.263121
O O9 0.335093 0.269555 0.328556
O O10 0.399690 0.286868 0.104455
O O11 0.703534 0.500000 0.535442
O O12 0.750000 0.750000 0.500000
O O13 0.663887 0.721622 0.447990
O O14 0.945967 0.000000 0.956487
O O15 0.000000 0.779711 0.000000
O O16 0.129524 0.000000 0.349675
#
# Coordination Sequence:
#
# PCOD8083117 Si02
#       6
#     8   8   8   8   8   8
#     4  12  23  30  42  70 109 139 162 202 253 297
#     4   9  16  31  51  69  93 131 176 209 235 284
#     4   8  15  30  52  76  97 125 169 210 239 284
#     4   9  18  34  57  81 101 122 157 208 260 302
#     4  10  18  32  54  71  93 136 182 208 231 283
#     4   9  19  34  52  71  95 131 174 209 239 293
#
# _framework density 17.143319000000002
#
# number of rings (size 3 to 8) (size 9 to 14) (size 15 to 20)
#    0.000    2.500    1.667    4.000    0.000    3.667 
#    0.000    3.333    0.000    1.000    0.000    0.000 
#    0.000    0.000    0.000    0.000    0.000    0.000 
#
# Total GULP energy -297447.926455 kJ/mol
# GULP energy per Si atom -12393.663602 kJ/mol
# Density = 1.710430 g / cm^3
# Si number density = 17.143319 Si / 1000 Ang^3
#
#
#
# Elastic Constant Matrix: (Units=GPa)
#
#
# Indices 1 2 3 4 5 6 
#
# 1 104.3232 45.0803 67.2838 0.0000 -0.2866 0.0000
# 2 45.0803 74.4767 54.7848 0.0000 9.5504 0.0000
# 3 67.2838 54.7848 109.8305 0.0000 13.7547 0.0000
# 4 0.0000 0.0000 0.0000 16.6865 0.0000 -2.1250
# 5 -0.2866 9.5504 13.7547 0.0000 21.4591 0.0000
# 6 0.0000 0.0000 0.0000 -2.1250 0.0000 23.8200
#
#
#
# Elastic Compliance Matrix: (Units=1/GPa)
#
#
# Indices 1 2 3 4 5 6 
#
# 1 0.017919 -0.004867 -0.009624 0.000000 0.008574 0.000000
# 2 -0.004867 0.022697 -0.007684 0.000000 -0.005241 0.000000
# 3 -0.009624 -0.007684 0.020029 0.000000 -0.009547 0.000000
# 4 0.000000 0.000000 0.000000 0.060617 0.000000 0.005408
# 5 0.008574 -0.005241 -0.009547 0.000000 0.055167 0.000000
# 6 0.000000 0.000000 0.000000 0.005408 0.000000 0.042464
#
#
# Mechanical properties :
#
#
# Convention : Reuss Voigt Hill
#
# Bulk Modulus (GPa) = 61.36170 69.21425 65.28797
# Shear Modulus (GPa) = 18.60998 20.49188 19.55093
#
# Velocity S-wave (km/s) = 3.29835 3.46110 3.38070
# Velocity P-wave (km/s) = 7.09764 7.51225 7.30789
#
# Compressibility (1/GPa) = 0.01629681
#
# Stress axis : x y z
#
# Youngs Moduli (GPa) = 55.80700 44.05865 49.92785
#
# Poissons Ratio (x) = 0.21441 0.48049
# Poissons Ratio (y) = 0.27159 0.38364
# Poissons Ratio (z) = 0.53707 0.33854
#
# Static dielectric constant tensor:
#      x y z
#    x 3.088020 0.000000 0.023800 
#    y 0.000000 2.918620 0.000000 
#    z 0.023800 0.000000 3.370470 
# 
# 
# High freq. dielectric constant tensor:
#      x y z
#    x 1.636400 0.000000 0.012230 
#    y 0.000000 1.633040 0.000000 
#    z 0.012230 0.000000 1.665700 
# 
# From -- ./inp_files/179199.got.cif
#   From: 2010.06.25/outbox.cif.g09.slc.cpg/sg12_90_cif.got.tgz:179199.got - 2010.06.28 00:19:55.
