data_PCOD8083462
_publ_section_title
;
Structure prediction by ZEFSAII (Michael W. Deem and Ramdas Pophale) SiO2 
 PCOD8083462
Probable space group: C 2/M
;
_chemical_formula_sum "Si O2"
_cell_formula_units_Z 64
_cell_length_a 9.754540
_cell_length_b 14.855415
_cell_length_c 21.575111
_cell_angle_alpha 90.000000
_cell_angle_beta 90.096894
_cell_angle_gamma 90.000000
_cell_volume 3126.396101
_symmetry_space_group_name_H-M "C 2/M"
_symmetry_group_IT_number 12
_symmetry_cell_setting 'monoclinic'
loop_
_space_group_symop_operation_xyz
x,y,z
-x,y,-z
-x,-y,-z
x,-y,z
1/2+x,1/2+y,z
1/2-x,1/2+y,-z
1/2-x,1/2-y,-z
1/2+x,1/2-y,z
loop_
_atom_site_type_symbol
_atom_site_label
_atom_site_fract_x
_atom_site_fract_y
_atom_site_fract_z
Si Si1 0.319899 0.401285 0.086734
Si Si2 0.143971 0.604541 0.971608
Si Si3 0.497170 0.743961 0.652251
Si Si4 0.250126 0.215774 0.734970
Si Si5 0.901920 0.403476 0.813335
Si Si6 0.409657 0.105602 0.440094
Si Si7 0.867850 0.278738 0.145790
Si Si8 0.406532 0.599210 0.559667
O O1 0.395664 0.500000 0.089802
O O2 0.176644 0.410016 0.122179
O O3 0.408054 0.319903 0.116704
O O4 0.273976 0.378485 0.016599
O O5 0.127635 0.500000 0.954703
O O6 0.182957 0.656927 0.909038
O O7 0.000000 0.640631 0.000000
O O8 0.349168 0.744181 0.683574
O O9 0.600650 0.714079 0.705765
O O10 0.538312 0.838059 0.619493
O O11 0.490310 0.665812 0.602612
O O12 0.301547 0.115960 0.754701
O O13 0.248575 0.269362 0.801161
O O14 0.974429 0.500000 0.800912
O O15 0.005835 0.321165 0.817529
O O16 0.500000 0.133238 0.500000
O O17 0.250498 0.129758 0.454429
O O18 0.429572 0.000000 0.424955
O O19 0.500000 0.595612 0.500000
O O20 0.400644 0.500000 0.590373
#
# Coordination Sequence:
#
# PCOD8083462 Si02
#       8
#     8   8   8   8   8   8   8   8
#     4   9  19  34  56  86 118 152 203 263 317 385
#     4  10  18  32  58  92 118 153 212 267 323 392
#     4  12  23  43  65  90 128 173 217 264 306 378
#     4  11  25  40  59  91 126 167 221 259 309 372
#     4  10  20  38  62  88 119 159 209 262 310 375
#     4  10  23  42  66  98 132 167 212 263 317 375
#     4  11  20  36  59  87 124 162 207 262 324 372
#     4  10  23  42  66  98 132 165 205 262 325 375
#
# _framework density 20.470855
#
# number of rings (size 3 to 8) (size 9 to 14) (size 15 to 20)
#    0.000    1.625    3.750    1.125    1.750    2.000 
#    0.000    1.250    0.000    7.125    0.000    0.000 
#    0.000    0.000    0.000    0.000    0.000    0.000 
#
# Total GULP energy -396554.622014 kJ/mol
# GULP energy per Si atom -12392.331938 kJ/mol
# Density = 2.042426 g / cm^3
# Si number density = 20.470855 Si / 1000 Ang^3
#
#
#
# Elastic Constant Matrix: (Units=GPa)
#
#
# Indices 1 2 3 4 5 6 
#
# 1 64.8185 35.3247 27.4520 0.0000 3.2964 0.0000
# 2 35.3247 124.4047 52.2941 0.0000 11.3019 0.0000
# 3 27.4520 52.2941 99.7049 0.0000 4.0326 0.0000
# 4 0.0000 0.0000 0.0000 14.8700 0.0000 5.5143
# 5 3.2964 11.3019 4.0326 0.0000 31.1816 0.0000
# 6 0.0000 0.0000 0.0000 5.5143 0.0000 27.1352
#
#
#
# Elastic Compliance Matrix: (Units=1/GPa)
#
#
# Indices 1 2 3 4 5 6 
#
# 1 0.018960 -0.004079 -0.003076 0.000000 -0.000128 0.000000
# 2 -0.004079 0.011487 -0.004776 0.000000 -0.003115 0.000000
# 3 -0.003076 -0.004776 0.013368 0.000000 0.000327 0.000000
# 4 0.000000 0.000000 0.000000 0.072731 0.000000 -0.014780
# 5 -0.000128 -0.003115 0.000327 0.000000 0.033170 0.000000
# 6 0.000000 0.000000 0.000000 -0.014780 0.000000 0.039856
#
#
# Mechanical properties :
#
#
# Convention : Reuss Voigt Hill
#
# Bulk Modulus (GPa) = 50.11558 57.67441 53.89500
# Shear Modulus (GPa) = 22.71860 26.22785 24.47322
#
# Velocity S-wave (km/s) = 3.33498 3.58331 3.46137
# Velocity P-wave (km/s) = 6.27408 6.73463 6.50843
#
# Compressibility (1/GPa) = 0.01995387
#
# Stress axis : x y z
#
# Youngs Moduli (GPa) = 52.74305 87.05484 74.80562
#
# Poissons Ratio (x) = 0.35511 0.23007
# Poissons Ratio (y) = 0.21515 0.35725
# Poissons Ratio (z) = 0.16222 0.41575
#
# Static dielectric constant tensor:
#      x y z
#    x 3.544870 0.000000 0.026600 
#    y 0.000000 3.976150 0.000000 
#    z 0.026600 0.000000 3.764920 
# 
# 
# High freq. dielectric constant tensor:
#      x y z
#    x 1.781270 0.000000 0.005360 
#    y 0.000000 1.803910 0.000000 
#    z 0.005360 0.000000 1.806360 
# 
# From -- ./inp_files/332954.got.cif
#   From: 2010.06.25/outbox.cif.g09.slc.cpg/sg12_167_cif.got.tgz:332954.got - 2010.06.28 00:19:55.
