data_PCOD8083451
_publ_section_title
;
Structure prediction by ZEFSAII (Michael W. Deem and Ramdas Pophale) SiO2 
 PCOD8083451
Probable space group: C 2/M
;
_chemical_formula_sum "Si O2"
_cell_formula_units_Z 40
_cell_length_a 18.849942
_cell_length_b 22.486978
_cell_length_c 8.436942
_cell_angle_alpha 90.000000
_cell_angle_beta 31.287036
_cell_angle_gamma 90.000000
_cell_volume 1857.231522
_symmetry_space_group_name_H-M "C 2/M"
_symmetry_group_IT_number 12
_symmetry_cell_setting 'monoclinic'
loop_
_space_group_symop_operation_xyz
x,y,z
-x,y,-z
-x,-y,-z
x,-y,z
1/2+x,1/2+y,z
1/2-x,1/2+y,-z
1/2-x,1/2-y,-z
1/2+x,1/2-y,z
loop_
_atom_site_type_symbol
_atom_site_label
_atom_site_fract_x
_atom_site_fract_y
_atom_site_fract_z
Si Si1 0.134931 0.000000 0.137985
Si Si2 0.301156 0.625898 0.038855
Si Si3 0.052899 0.821245 0.722238
Si Si4 0.697791 0.121900 0.883079
Si Si5 0.891493 0.500000 0.853133
Si Si6 0.545006 0.198407 0.594248
O O1 0.000000 0.000000 0.500000
O O2 0.158383 0.941508 0.984862
O O3 0.243077 0.000000 0.068472
O O4 0.163158 0.648618 0.384949
O O5 0.429821 0.665766 0.836890
O O6 0.275789 0.628724 0.900443
O O7 0.178745 0.868713 0.477641
O O8 0.104169 0.756395 0.568900
O O9 0.000000 0.821110 0.000000
O O10 0.588421 0.173914 0.061172
O O11 0.608663 0.060361 0.040980
O O12 0.000000 0.500000 0.500000
O O13 0.500000 0.211198 0.500000
#
# Coordination Sequence:
#
# PCOD8083451 Si02
#       6
#     4   8   8   8   4   8
#     4  10  18  32  58  87 114 143 176 223 283 340
#     4  10  20  37  60  86 113 144 186 237 287 337
#     4  12  25  38  54  80 117 158 195 231 276 332
#     4  10  20  37  61  88 114 145 185 233 286 339
#     4  10  18  34  62  93 116 137 178 235 289 338
#     4  10  21  37  60  86 112 145 189 238 286 335
#
# _framework density 21.537433
#
# number of rings (size 3 to 8) (size 9 to 14) (size 15 to 20)
#    0.000    1.600    0.000    8.400    0.000    6.400 
#    0.000    2.000    0.000    0.000    0.000    9.800 
#    0.000    0.000    0.000    0.000    0.000    0.000 
#
# Total GULP energy -247813.289381 kJ/mol
# GULP energy per Si atom -12390.664469 kJ/mol
# Density = 2.148841 g / cm^3
# Si number density = 21.537433 Si / 1000 Ang^3
#
#
#
# Elastic Constant Matrix: (Units=GPa)
#
#
# Indices 1 2 3 4 5 6 
#
# 1 14.9694 31.4654 27.2617 0.0008 -5.1051 -0.0008
# 2 31.4654 144.5807 73.3340 0.0004 5.2158 0.0001
# 3 27.2617 73.3340 163.7597 0.0021 -9.6362 -0.0011
# 4 0.0008 0.0004 0.0021 36.9045 -0.0015 -11.7814
# 5 -5.1051 5.2158 -9.6362 -0.0015 23.5847 0.0009
# 6 -0.0008 0.0001 -0.0011 -11.7814 0.0009 5.2872
#
#
#
# Elastic Compliance Matrix: (Units=1/GPa)
#
#
# Indices 1 2 3 4 5 6 
#
# 1 0.168896 -0.032444 -0.011286 0.000016 0.039123 0.000053
# 2 -0.032444 0.015509 -0.002212 -0.000004 -0.011357 -0.000012
# 3 -0.011286 -0.002212 0.009079 -0.000001 0.001756 -0.000001
# 4 0.000016 -0.000004 -0.000001 0.093879 0.000002 0.209191
# 5 0.039123 -0.011357 0.001756 0.000002 0.054098 0.000003
# 6 0.000053 -0.000012 -0.000001 0.209191 0.000003 0.655279
#
#
# Mechanical properties :
#
#
# Convention : Reuss Voigt Hill
#
# Bulk Modulus (GPa) = 9.84253 65.27022 37.55638
# Shear Modulus (GPa) = 4.45438 25.90517 15.17977
#
# Velocity S-wave (km/s) = 1.43968 3.47190 2.65770
# Velocity P-wave (km/s) = 2.70988 6.81494 5.18589
#
# Compressibility (1/GPa) = 0.10159993
#
# Stress axis : x y z
#
# Youngs Moduli (GPa) = 5.92081 64.47703 110.13976
#
# Poissons Ratio (x) = 2.09191 1.24299
# Poissons Ratio (y) = 0.19210 0.24368
# Poissons Ratio (z) = 0.06682 0.14265
#
# Static dielectric constant tensor:
#      x y z
#    x 3.443220 0.000010 -0.291380 
#    y 0.000010 6.375570 0.000000 
#    z -0.291380 0.000000 3.886890 
# 
# 
# High freq. dielectric constant tensor:
#      x y z
#    x 1.795810 0.000000 -0.033270 
#    y 0.000000 1.860080 0.000000 
#    z -0.033270 0.000000 1.854350 
# 
# From -- ./inp_files/90562.got.cif
#   From: 2010.06.25/outbox.cif.g09.slc.cpg/sg12_46_cif.got.tgz:90562.got - 2010.06.28 00:19:55.
