data_PCOD8083102
_publ_section_title
;
Structure prediction by ZEFSAII (Michael W. Deem and Ramdas Pophale) SiO2 
 PCOD8083102
Probable space group: C 2/M
;
_chemical_formula_sum "Si O2"
_cell_formula_units_Z 64
_cell_length_a 21.605483
_cell_length_b 13.365423
_cell_length_c 28.906296
_cell_angle_alpha 90.000000
_cell_angle_beta 157.153392
_cell_angle_gamma 90.000000
_cell_volume 3240.916029
_symmetry_space_group_name_H-M "C 2/M"
_symmetry_group_IT_number 12
_symmetry_cell_setting 'monoclinic'
loop_
_space_group_symop_operation_xyz
x,y,z
-x,y,-z
-x,-y,-z
x,-y,z
1/2+x,1/2+y,z
1/2-x,1/2+y,-z
1/2-x,1/2-y,-z
1/2+x,1/2-y,z
loop_
_atom_site_type_symbol
_atom_site_label
_atom_site_fract_x
_atom_site_fract_y
_atom_site_fract_z
Si Si1 0.356610 0.613772 0.524933
Si Si2 0.133522 0.608301 0.905913
Si Si3 0.504716 0.110650 0.718995
Si Si4 0.475807 0.619004 0.171810
Si Si5 0.556443 0.323989 0.745559
Si Si6 0.088298 0.723006 0.187041
Si Si7 0.409194 0.613942 0.389732
Si Si8 0.412097 0.114342 0.986702
O O1 0.356917 0.500000 0.509835
O O2 0.175010 0.649484 0.394429
O O3 0.418071 0.627182 0.619420
O O4 0.476971 0.664068 0.570871
O O5 0.132804 0.500000 0.929604
O O6 0.119031 0.597579 0.841333
O O7 0.974773 0.664283 0.811791
O O8 0.300270 0.657631 0.035813
O O9 0.577478 0.207424 0.743172
O O10 0.503023 0.000000 0.692227
O O11 0.499135 0.500000 0.188136
O O12 0.501256 0.664233 0.240788
O O13 0.589483 0.663401 0.208724
O O14 0.721853 0.379968 0.849775
O O15 0.261111 0.688590 0.290391
O O16 0.965553 0.697106 0.061040
O O17 0.500000 0.613354 0.500000
O O18 0.352804 0.500000 0.338689
O O19 0.455473 0.000000 0.031168
O O20 0.500000 0.142413 0.000000
#
# Coordination Sequence:
#
# PCOD8083102 Si02
#       8
#     8   8   8   8   8   8   8   8
#     4  10  21  37  57  84 116 149 186 234 288 342
#     4  10  18  32  53  80 112 141 178 228 278 328
#     4  10  21  36  56  84 115 147 191 235 276 335
#     4  11  23  36  55  86 117 151 191 235 280 336
#     4  12  21  37  58  84 119 155 183 229 291 343
#     4  12  20  34  56  81 113 150 188 228 281 340
#     4  10  21  36  57  84 112 143 186 237 287 337
#     4  11  23  37  58  89 119 148 186 233 290 349
#
# _framework density 19.747502999999998
#
# number of rings (size 3 to 8) (size 9 to 14) (size 15 to 20)
#    0.000    1.250    2.500    5.250    0.000    4.000 
#    0.000    0.000    0.000    4.125    0.000    0.000 
#    0.000    0.000    0.000    0.000    0.000    0.000 
#
# Total GULP energy -396427.099069 kJ/mol
# GULP energy per Si atom -12388.346846 kJ/mol
# Density = 1.970256 g / cm^3
# Si number density = 19.747503 Si / 1000 Ang^3
#
#
#
# Elastic Constant Matrix: (Units=GPa)
#
#
# Indices 1 2 3 4 5 6 
#
# 1 79.3702 23.8672 26.5740 -0.0008 -8.1336 -0.0006
# 2 23.8672 83.9826 10.1449 0.0070 5.9493 -0.0012
# 3 26.5740 10.1449 84.0936 0.0379 -10.3313 -0.0025
# 4 -0.0008 0.0070 0.0379 19.4048 0.0076 0.4278
# 5 -8.1336 5.9493 -10.3313 0.0076 25.6823 -0.0015
# 6 -0.0006 -0.0012 -0.0025 0.4278 -0.0015 22.9539
#
#
#
# Elastic Compliance Matrix: (Units=1/GPa)
#
#
# Indices 1 2 3 4 5 6 
#
# 1 0.015638 -0.004285 -0.003886 0.000008 0.004382 0.000000
# 2 -0.004285 0.013575 -0.000880 -0.000001 -0.004856 0.000000
# 3 -0.003886 -0.000880 0.013781 -0.000029 0.004517 0.000002
# 4 0.000008 -0.000001 -0.000029 0.051555 -0.000024 -0.000961
# 5 0.004382 -0.004856 0.004517 -0.000024 0.043267 0.000004
# 6 0.000000 0.000000 0.000002 -0.000961 0.000004 0.043584
#
#
# Mechanical properties :
#
#
# Convention : Reuss Voigt Hill
#
# Bulk Modulus (GPa) = 40.17568 40.95762 40.56665
# Shear Modulus (GPa) = 24.06162 26.06552 25.06357
#
# Velocity S-wave (km/s) = 3.49444 3.63704 3.56645
# Velocity P-wave (km/s) = 6.05560 6.19864 6.12754
#
# Compressibility (1/GPa) = 0.02489068
#
# Stress axis : x y z
#
# Youngs Moduli (GPa) = 63.94674 73.66295 72.56507
#
# Poissons Ratio (x) = 0.31566 0.28202
# Poissons Ratio (y) = 0.27402 0.06387
# Poissons Ratio (z) = 0.24852 0.06483
#
# Static dielectric constant tensor:
#      x y z
#    x 3.519170 0.000000 -0.023520 
#    y 0.000000 3.966470 -0.000030 
#    z -0.023520 -0.000030 3.671230 
# 
# 
# High freq. dielectric constant tensor:
#      x y z
#    x 1.748090 0.000000 -0.015040 
#    y 0.000000 1.764560 0.000000 
#    z -0.015040 0.000000 1.770310 
# 
# From -- ./inp_files/381489.got.cif
#   From: 2010.06.25/outbox.cif.g09.slc.cpg/sg12_191_cif.got.tgz:381489.got - 2010.06.28 00:19:55.
