data_PCOD8083187
_publ_section_title
;
Structure prediction by ZEFSAII (Michael W. Deem and Ramdas Pophale) SiO2 
 PCOD8083187
Probable space group: C 2/M
;
_chemical_formula_sum "Si O2"
_cell_formula_units_Z 64
_cell_length_a 32.450360
_cell_length_b 8.599656
_cell_length_c 14.991044
_cell_angle_alpha 90.000000
_cell_angle_beta 47.730266
_cell_angle_gamma 90.000000
_cell_volume 3095.681535
_symmetry_space_group_name_H-M "C 2/M"
_symmetry_group_IT_number 12
_symmetry_cell_setting 'monoclinic'
loop_
_space_group_symop_operation_xyz
x,y,z
-x,y,-z
-x,-y,-z
x,-y,z
1/2+x,1/2+y,z
1/2-x,1/2+y,-z
1/2-x,1/2-y,-z
1/2+x,1/2-y,z
loop_
_atom_site_type_symbol
_atom_site_label
_atom_site_fract_x
_atom_site_fract_y
_atom_site_fract_z
Si Si1 0.736235 0.684703 0.923609
Si Si2 0.373358 0.817841 0.870788
Si Si3 0.070521 0.180856 0.733383
Si Si4 0.346793 0.316164 0.718520
Si Si5 0.864746 0.183809 0.184616
Si Si6 0.138967 0.681991 0.482067
Si Si7 0.942945 0.818796 0.911281
Si Si8 0.249663 0.316728 0.599489
O O1 0.739220 0.500000 0.914761
O O2 0.783232 0.758494 0.791930
O O3 0.750000 0.750000 0.000000
O O4 0.673883 0.743292 0.994735
O O5 0.372529 0.747907 0.772768
O O6 0.430563 0.774566 0.837481
O O7 0.364195 0.000000 0.875446
O O8 0.106227 0.235739 0.765942
O O9 0.088999 0.282788 0.622446
O O10 0.006119 0.213925 0.847953
O O11 0.081111 0.000000 0.696859
O O12 0.349298 0.500000 0.718320
O O13 0.380952 0.249132 0.584899
O O14 0.803649 0.258188 0.267005
O O15 0.858202 0.000000 0.189487
O O16 0.903376 0.243775 0.047844
O O17 0.150094 0.500000 0.459429
O O18 0.194877 0.767104 0.431006
O O19 0.932948 0.000000 0.907515
O O20 0.247632 0.500000 0.595210
O O21 0.250000 0.250000 0.500000
#
# Coordination Sequence:
#
# PCOD8083187 Si02
#       8
#     8   8   8   8   8   8   8   8
#     4  10  18  32  54  81 115 154 195 242 300 362
#     4  11  22  38  58  86 124 163 206 257 309 365
#     4  10  21  41  66  91 123 164 210 258 309 368
#     4  11  22  39  62  88 120 160 206 256 309 372
#     4  10  21  39  65  94 127 163 205 254 309 373
#     4  12  25  41  63  92 127 167 207 253 311 377
#     4  10  22  40  64  93 124 164 211 258 310 368
#     4  12  24  40  62  92 129 167 207 256 310 369
#
# _framework density 20.673962
#
# number of rings (size 3 to 8) (size 9 to 14) (size 15 to 20)
#    0.000    1.250    1.250    7.500    1.750    2.500 
#    0.000    0.625    0.000    6.000    0.000    0.000 
#    0.000    0.000    0.000    0.000    0.000    0.000 
#
# Total GULP energy -396864.702485 kJ/mol
# GULP energy per Si atom -12402.021953 kJ/mol
# Density = 2.062691 g / cm^3
# Si number density = 20.673962 Si / 1000 Ang^3
#
#
#
# Elastic Constant Matrix: (Units=GPa)
#
#
# Indices 1 2 3 4 5 6 
#
# 1 58.3474 12.3128 34.0286 -0.0001 3.8336 0.0000
# 2 12.3128 87.1404 43.6423 -0.0001 7.1744 0.0004
# 3 34.0286 43.6423 121.2187 0.0000 7.1024 -0.0001
# 4 -0.0001 -0.0001 0.0000 32.0262 0.0000 -0.3130
# 5 3.8336 7.1744 7.1024 0.0000 32.6450 0.0000
# 6 0.0000 0.0004 -0.0001 -0.3130 0.0000 28.8281
#
#
#
# Elastic Compliance Matrix: (Units=1/GPa)
#
#
# Indices 1 2 3 4 5 6 
#
# 1 0.020538 0.000059 -0.005717 0.000000 -0.001181 0.000000
# 2 0.000059 0.014131 -0.004985 0.000000 -0.002028 0.000000
# 3 -0.005717 -0.004985 0.011695 0.000000 -0.000777 0.000000
# 4 0.000000 0.000000 0.000000 0.031228 0.000000 0.000339
# 5 -0.001181 -0.002028 -0.000777 0.000000 0.031386 0.000000
# 6 0.000000 0.000000 0.000000 0.000339 0.000000 0.034692
#
#
# Mechanical properties :
#
#
# Convention : Reuss Voigt Hill
#
# Bulk Modulus (GPa) = 39.87829 49.63042 44.75436
# Shear Modulus (GPa) = 28.84882 30.48139 29.66511
#
# Velocity S-wave (km/s) = 3.73958 3.84394 3.79212
# Velocity P-wave (km/s) = 6.16255 6.61510 6.39283
#
# Compressibility (1/GPa) = 0.02507630
#
# Stress axis : x y z
#
# Youngs Moduli (GPa) = 48.68930 70.76557 85.50695
#
# Poissons Ratio (x) = -0.00415 0.48888
# Poissons Ratio (y) = -0.00286 0.42628
# Poissons Ratio (z) = 0.27838 0.35279
#
# Static dielectric constant tensor:
#      x y z
#    x 3.817650 0.000000 -0.084220 
#    y 0.000000 3.686600 0.000000 
#    z -0.084220 0.000000 4.152050 
# 
# 
# High freq. dielectric constant tensor:
#      x y z
#    x 1.807180 0.000000 0.009050 
#    y 0.000000 1.810930 0.000000 
#    z 0.009050 0.000000 1.808990 
# 
# From -- ./inp_files/249770.got.cif
#   From: 2010.06.25/outbox.cif.g09.slc.cpg/sg12_125_cif.got.tgz:249770.got - 2010.06.28 00:19:55.
