data_PCOD8083512
_publ_section_title
;
Structure prediction by ZEFSAII (Michael W. Deem and Ramdas Pophale) SiO2 
 PCOD8083512
Probable space group: C 2/M
;
_chemical_formula_sum "Si O2"
_cell_formula_units_Z 64
_cell_length_a 24.198621
_cell_length_b 13.561386
_cell_length_c 22.627014
_cell_angle_alpha 90.000000
_cell_angle_beta 150.179123
_cell_angle_gamma 90.000000
_cell_volume 3692.595786
_symmetry_space_group_name_H-M "C 2/M"
_symmetry_group_IT_number 12
_symmetry_cell_setting 'monoclinic'
loop_
_space_group_symop_operation_xyz
x,y,z
-x,y,-z
-x,-y,-z
x,-y,z
1/2+x,1/2+y,z
1/2-x,1/2+y,-z
1/2-x,1/2-y,-z
1/2+x,1/2-y,z
loop_
_atom_site_type_symbol
_atom_site_label
_atom_site_fract_x
_atom_site_fract_y
_atom_site_fract_z
Si Si1 0.308318 0.613247 0.085657
Si Si2 0.423782 0.199147 0.156274
Si Si3 0.247623 0.114310 0.712825
Si Si4 0.098436 0.616564 0.410413
Si Si5 0.417011 0.714577 0.527567
Si Si6 0.774741 0.108716 0.483819
Si Si7 0.573874 0.109073 0.206349
Si Si8 0.354575 0.612198 0.261430
O O1 0.339981 0.500000 0.101018
O O2 0.403961 0.684103 0.147558
O O3 0.297910 0.633029 0.146138
O O4 0.191459 0.639988 0.947909
O O5 0.497540 0.152242 0.275910
O O6 0.482759 0.185166 0.146840
O O7 0.158569 0.183087 0.597129
O O8 0.374166 0.140305 0.809349
O O9 0.237665 0.133161 0.773638
O O10 0.221487 0.000000 0.672590
O O11 0.090618 0.500000 0.411200
O O12 0.088948 0.667455 0.466305
O O13 0.217505 0.647402 0.491289
O O14 0.377665 0.672332 0.555308
O O15 0.541948 0.682919 0.630423
O O16 0.680120 0.105348 0.346843
O O17 0.823350 0.000000 0.539978
O O18 0.518474 0.000000 0.151852
O O19 0.398070 0.500000 0.305887
#
# Coordination Sequence:
#
# PCOD8083512 Si02
#       8
#     8   8   8   8   8   8   8   8
#     4  10  20  32  49  75 100 119 151 194 234 282
#     4  10  18  33  51  68  96 129 152 186 241 280
#     4   9  18  31  49  70  96 126 157 190 232 282
#     4  10  19  30  44  66  92 126 163 192 225 275
#     4  11  17  27  45  68  90 128 156 189 227 276
#     4   8  15  26  42  65  94 120 153 190 228 278
#     4   8  14  27  48  70  90 123 162 189 220 276
#     4  10  19  31  46  71 100 122 151 193 236 282
#
# _framework density 17.331980999999999
#
# number of rings (size 3 to 8) (size 9 to 14) (size 15 to 20)
#    0.000    2.500    1.250    4.500    0.000    1.000 
#    0.000    0.625    0.000    4.500    0.000    0.000 
#    0.000    2.250    0.000    0.000    0.000    0.000 
#
# Total GULP energy -396588.509445 kJ/mol
# GULP energy per Si atom -12393.390920 kJ/mol
# Density = 1.729253 g / cm^3
# Si number density = 17.331981 Si / 1000 Ang^3
#
#
#
# Elastic Constant Matrix: (Units=GPa)
#
#
# Indices 1 2 3 4 5 6 
#
# 1 108.8066 55.6950 17.4448 0.0000 13.1423 0.0000
# 2 55.6950 89.9008 22.0500 -0.0001 6.2027 0.0000
# 3 17.4448 22.0500 30.4570 -0.0002 1.6118 -0.0001
# 4 0.0000 -0.0001 -0.0002 17.7962 -0.0001 2.3813
# 5 13.1423 6.2027 1.6118 -0.0001 18.5564 0.0000
# 6 0.0000 0.0000 -0.0001 2.3813 0.0000 25.6240
#
#
#
# Elastic Compliance Matrix: (Units=1/GPa)
#
#
# Indices 1 2 3 4 5 6 
#
# 1 0.014498 -0.007939 -0.002164 0.000000 -0.007427 0.000000
# 2 -0.007939 0.018128 -0.008593 0.000000 0.000309 0.000000
# 3 -0.002164 -0.008593 0.040246 0.000000 0.000909 0.000000
# 4 0.000000 0.000000 0.000000 0.056899 0.000000 -0.005288
# 5 -0.007427 0.000309 0.000909 0.000000 0.058967 0.000000
# 6 0.000000 0.000000 0.000000 -0.005288 0.000000 0.039517
#
#
# Mechanical properties :
#
#
# Convention : Reuss Voigt Hill
#
# Bulk Modulus (GPa) = 28.18480 46.61603 37.40042
# Shear Modulus (GPa) = 18.01971 21.32695 19.67333
#
# Velocity S-wave (km/s) = 3.22790 3.51165 3.37276
# Velocity P-wave (km/s) = 5.49450 6.58761 6.06573
#
# Compressibility (1/GPa) = 0.03548012
#
# Stress axis : x y z
#
# Youngs Moduli (GPa) = 68.97417 55.16347 24.84741
#
# Poissons Ratio (x) = 0.43793 0.05376
# Poissons Ratio (y) = 0.54757 0.21352
# Poissons Ratio (z) = 0.14924 0.47404
#
# Static dielectric constant tensor:
#      x y z
#    x 3.554600 0.000000 0.193140 
#    y 0.000000 3.250440 0.000000 
#    z 0.193140 0.000000 2.931670 
# 
# 
# High freq. dielectric constant tensor:
#      x y z
#    x 1.663810 0.000000 0.017610 
#    y 0.000000 1.654080 0.000000 
#    z 0.017610 0.000000 1.643230 
# 
# From -- ./inp_files/349375.got.cif
#   From: 2010.06.25/outbox.cif.g09.slc.cpg/sg12_175_cif.got.tgz:349375.got - 2010.06.28 00:19:55.
