data_PCOD8083474
_publ_section_title
;
Structure prediction by ZEFSAII (Michael W. Deem and Ramdas Pophale) SiO2 
 PCOD8083474
Probable space group: C 2/M
;
_chemical_formula_sum "Si O2"
_cell_formula_units_Z 44
_cell_length_a 16.056289
_cell_length_b 18.108270
_cell_length_c 14.888989
_cell_angle_alpha 90.000000
_cell_angle_beta 152.476562
_cell_angle_gamma 90.000000
_cell_volume 2000.479255
_symmetry_space_group_name_H-M "C 2/M"
_symmetry_group_IT_number 12
_symmetry_cell_setting 'monoclinic'
loop_
_space_group_symop_operation_xyz
x,y,z
-x,y,-z
-x,-y,-z
x,-y,z
1/2+x,1/2+y,z
1/2-x,1/2+y,-z
1/2-x,1/2-y,-z
1/2+x,1/2-y,z
loop_
_atom_site_type_symbol
_atom_site_label
_atom_site_fract_x
_atom_site_fract_y
_atom_site_fract_z
Si Si1 0.261866 0.584261 0.472195
Si Si2 0.288019 0.916719 0.781090
Si Si3 0.500000 0.678829 0.000000
Si Si4 0.427650 0.825653 0.197897
Si Si5 0.757934 0.782261 0.154723
Si Si6 0.426770 0.585604 0.097733
O O1 0.198894 0.500000 0.425715
O O2 0.266296 0.603013 0.371568
O O3 0.457680 0.598226 0.701467
O O4 0.119043 0.635187 0.387298
O O5 0.181968 0.860559 0.745210
O O6 0.228720 0.000000 0.750117
O O7 0.500000 0.905976 0.000000
O O8 0.324996 0.730742 0.846309
O O9 0.472484 0.626998 0.887101
O O10 0.396676 0.793158 0.068843
O O11 0.270880 0.883139 0.073039
O O12 0.427957 0.758185 0.270254
O O13 0.410287 0.500000 0.056814
#
# Coordination Sequence:
#
# PCOD8083474 Si02
#       6
#     8   8   4   8   8   8
#     4  10  20  37  60  86 115 147 191 235 278 337
#     4  10  18  32  60  86 111 152 188 229 290 338
#     4  10  19  38  59  78 118 154 186 234 281 334
#     4  10  20  36  59  84 116 153 185 233 285 329
#     4  10  19  35  56  84 116 151 189 230 281 340
#     4  10  22  38  59  86 113 149 193 235 279 332
#
# _framework density 21.994731000000002
#
# number of rings (size 3 to 8) (size 9 to 14) (size 15 to 20)
#    0.000    2.000    2.727    0.818    0.000    0.727 
#    0.000   20.909    0.000   13.091    0.000    0.000 
#    0.000    0.000    0.000    0.000    0.000    0.000 
#
# Total GULP energy -272823.991477 kJ/mol
# GULP energy per Si atom -12401.090522 kJ/mol
# Density = 2.194467 g / cm^3
# Si number density = 21.994731 Si / 1000 Ang^3
#
#
#
# Elastic Constant Matrix: (Units=GPa)
#
#
# Indices 1 2 3 4 5 6 
#
# 1 92.5081 72.8203 25.3253 -0.0003 -18.1813 -0.0002
# 2 72.8203 153.6954 27.9046 -0.0002 -13.1324 -0.0001
# 3 25.3253 27.9046 53.9603 -0.0004 -14.0309 -0.0003
# 4 -0.0003 -0.0002 -0.0004 17.6432 -0.0001 -14.2318
# 5 -18.1813 -13.1324 -14.0309 -0.0001 30.1621 -0.0002
# 6 -0.0002 -0.0001 -0.0003 -14.2318 -0.0002 45.9429
#
#
#
# Elastic Compliance Matrix: (Units=1/GPa)
#
#
# Indices 1 2 3 4 5 6 
#
# 1 0.019278 -0.007986 -0.003186 0.000000 0.006661 0.000000
# 2 -0.007986 0.010557 -0.002011 0.000000 -0.001153 0.000000
# 3 -0.003186 -0.002011 0.023139 0.000001 0.007968 0.000000
# 4 0.000000 0.000000 0.000001 0.075559 0.000001 0.023406
# 5 0.006661 -0.001153 0.007968 0.000001 0.040374 0.000000
# 6 0.000000 0.000000 0.000000 0.023406 0.000000 0.029017
#
#
# Mechanical properties :
#
#
# Convention : Reuss Voigt Hill
#
# Bulk Modulus (GPa) = 37.58253 61.36270 49.47262
# Shear Modulus (GPa) = 21.44466 30.35723 25.90094
#
# Velocity S-wave (km/s) = 3.12587 3.71914 3.43534
# Velocity P-wave (km/s) = 5.49111 6.81191 6.18685
#
# Compressibility (1/GPa) = 0.02660810
#
# Stress axis : x y z
#
# Youngs Moduli (GPa) = 51.87343 94.72608 43.21700
#
# Poissons Ratio (x) = 0.75650 0.13767
# Poissons Ratio (y) = 0.41427 0.08690
# Poissons Ratio (z) = 0.16525 0.19048
#
# Static dielectric constant tensor:
#      x y z
#    x 3.941810 0.000000 -0.235940 
#    y 0.000000 4.344420 0.000000 
#    z -0.235940 0.000000 3.590680 
# 
# 
# High freq. dielectric constant tensor:
#      x y z
#    x 1.866680 0.000000 -0.011860 
#    y 0.000000 1.887870 0.000000 
#    z -0.011860 0.000000 1.831390 
# 
# From -- ./inp_files/226637.got.cif
#   From: 2010.06.25/outbox.cif.g09.slc.cpg/sg12_114_cif.got.tgz:226637.got - 2010.06.28 00:19:55.
