data_PCOD8083905
_publ_section_title
;
Structure prediction by ZEFSAII (Michael W. Deem and Ramdas Pophale) SiO2 
 PCOD8083905
Probable space group: C 2/M
;
_chemical_formula_sum "Si O2"
_cell_formula_units_Z 56
_cell_length_a 18.115484
_cell_length_b 13.732141
_cell_length_c 16.161454
_cell_angle_alpha 90.000000
_cell_angle_beta 43.805793
_cell_angle_gamma 90.000000
_cell_volume 2782.981702
_symmetry_space_group_name_H-M "C 2/M"
_symmetry_group_IT_number 12
_symmetry_cell_setting 'monoclinic'
loop_
_space_group_symop_operation_xyz
x,y,z
-x,y,-z
-x,-y,-z
x,-y,z
1/2+x,1/2+y,z
1/2-x,1/2+y,-z
1/2-x,1/2-y,-z
1/2+x,1/2-y,z
loop_
_atom_site_type_symbol
_atom_site_label
_atom_site_fract_x
_atom_site_fract_y
_atom_site_fract_z
Si Si1 0.206720 0.247599 0.172764
Si Si2 0.027297 0.787311 0.624629
Si Si3 0.327949 0.889807 0.501421
Si Si4 0.256087 0.610520 0.998826
Si Si5 0.997289 0.887753 0.182167
Si Si6 0.721618 0.610230 0.412930
Si Si7 0.185925 0.214286 0.748089
O O1 0.256249 0.155657 0.083077
O O2 0.286814 0.286632 0.177086
O O3 0.095296 0.216674 0.306291
O O4 0.183379 0.332007 0.123663
O O5 0.069129 0.676841 0.597132
O O6 0.035148 0.841336 0.705127
O O7 0.100852 0.848226 0.500843
O O8 0.249868 0.880482 0.486500
O O9 0.264452 0.856508 0.634010
O O10 0.368127 0.000000 0.481176
O O11 0.216917 0.500000 0.025755
O O12 0.376901 0.620458 0.934313
O O13 0.934386 0.826658 0.162797
O O14 0.959966 0.000000 0.211148
O O15 0.728128 0.500000 0.374755
O O16 0.803544 0.674765 0.293141
#
# Coordination Sequence:
#
# PCOD8083905 Si02
#       7
#     8   8   8   8   8   8   8
#     4  10  23  37  56  82 112 142 178 233 286 329
#     4  10  18  35  54  78 110 152 185 216 267 332
#     4  10  19  32  52  81 113 147 184 222 264 323
#     4   9  21  42  61  79 105 144 191 231 278 334
#     4  10  18  33  61  85 105 143 189 232 272 320
#     4  10  19  33  55  83 113 148 187 223 261 321
#     4  11  20  34  53  85 117 140 178 232 278 319
#
# _framework density 20.122304
#
# number of rings (size 3 to 8) (size 9 to 14) (size 15 to 20)
#    0.000    2.000    2.857    1.714    0.000    5.714 
#    0.000    2.857    0.000    0.000    0.000    4.000 
#    0.000    0.000    0.000    0.000    0.000    0.000 
#
# Total GULP energy -347175.663346 kJ/mol
# GULP energy per Si atom -12399.130834 kJ/mol
# Density = 2.007650 g / cm^3
# Si number density = 20.122304 Si / 1000 Ang^3
#
#
#
# Elastic Constant Matrix: (Units=GPa)
#
#
# Indices 1 2 3 4 5 6 
#
# 1 58.7025 -2.5855 9.8969 0.0000 8.2324 0.0000
# 2 -2.5855 137.2386 18.9305 0.0000 2.8730 0.0000
# 3 9.8969 18.9305 40.5221 0.0000 7.8273 0.0000
# 4 0.0000 0.0000 0.0000 15.6908 0.0000 -7.7338
# 5 8.2324 2.8730 7.8273 0.0000 19.2420 0.0000
# 6 0.0000 0.0000 0.0000 -7.7338 0.0000 21.6827
#
#
#
# Elastic Compliance Matrix: (Units=1/GPa)
#
#
# Indices 1 2 3 4 5 6 
#
# 1 0.018637 0.001006 -0.003747 0.000000 -0.006599 0.000000
# 2 0.001006 0.007845 -0.003908 0.000000 -0.000012 0.000000
# 3 -0.003747 -0.003908 0.029299 0.000000 -0.009732 0.000000
# 4 0.000000 0.000000 0.000000 0.077326 0.000000 0.027581
# 5 -0.006599 -0.000012 -0.009732 0.000000 0.058754 0.000000
# 6 0.000000 0.000000 0.000000 0.027581 0.000000 0.055957
#
#
# Mechanical properties :
#
#
# Convention : Reuss Voigt Hill
#
# Bulk Modulus (GPa) = 23.53947 32.10521 27.82234
# Shear Modulus (GPa) = 18.16363 25.33784 21.75074
#
# Velocity S-wave (km/s) = 3.00769 3.55236 3.29131
# Velocity P-wave (km/s) = 4.87701 5.72847 5.31980
#
# Compressibility (1/GPa) = 0.04248185
#
# Stress axis : x y z
#
# Youngs Moduli (GPa) = 53.65789 127.47154 34.13135
#
# Poissons Ratio (x) = -0.12825 0.12789
# Poissons Ratio (y) = -0.05399 0.13339
# Poissons Ratio (z) = 0.20105 0.49819
#
# Static dielectric constant tensor:
#      x y z
#    x 3.469250 0.000000 -0.129020 
#    y 0.000000 3.875700 0.000000 
#    z -0.129020 0.000000 3.421850 
# 
# 
# High freq. dielectric constant tensor:
#      x y z
#    x 1.761620 0.000000 -0.004030 
#    y 0.000000 1.795560 0.000000 
#    z -0.004030 0.000000 1.770090 
# 
# From -- ./inp_files/225202.got.cif
#   From: 2010.06.25/outbox.cif.g09.slc.cpg/sg12_113_cif.got.tgz:225202.got - 2010.06.28 00:19:55.
