data_PCOD8083128
_publ_section_title
;
Structure prediction by ZEFSAII (Michael W. Deem and Ramdas Pophale) SiO2 
 PCOD8083128
Probable space group: C 2/M
;
_chemical_formula_sum "Si O2"
_cell_formula_units_Z 56
_cell_length_a 21.964532
_cell_length_b 12.783183
_cell_length_c 11.902974
_cell_angle_alpha 90.000000
_cell_angle_beta 101.717448
_cell_angle_gamma 90.000000
_cell_volume 3272.431448
_symmetry_space_group_name_H-M "C 2/M"
_symmetry_group_IT_number 12
_symmetry_cell_setting 'monoclinic'
loop_
_space_group_symop_operation_xyz
x,y,z
-x,y,-z
-x,-y,-z
x,-y,z
1/2+x,1/2+y,z
1/2-x,1/2+y,-z
1/2-x,1/2-y,-z
1/2+x,1/2-y,z
loop_
_atom_site_type_symbol
_atom_site_label
_atom_site_fract_x
_atom_site_fract_y
_atom_site_fract_z
Si Si1 0.026805 0.190782 0.759077
Si Si2 0.886782 0.878436 0.394306
Si Si3 0.870314 0.881086 0.040290
Si Si4 0.607179 0.380518 0.347538
Si Si5 0.148006 0.262378 0.176730
Si Si6 0.975749 0.619994 0.866141
Si Si7 0.725010 0.619976 0.804936
O O1 0.063274 0.191330 0.654528
O O2 0.066068 0.129192 0.866870
O O3 0.962713 0.128731 0.723594
O O4 0.014939 0.310098 0.793223
O O5 0.887999 0.840734 0.522803
O O6 0.817801 0.860953 0.320109
O O7 0.906538 0.000000 0.389459
O O8 0.812693 0.848279 0.097593
O O9 0.863068 0.000000 0.996959
O O10 0.873407 0.808814 0.933949
O O11 0.629799 0.500000 0.346890
O O12 0.652126 0.307838 0.290339
O O13 0.097424 0.354159 0.170425
O O14 0.215354 0.307998 0.180087
O O15 0.986148 0.500000 0.835530
O O16 0.000000 0.642404 0.000000
O O17 0.746396 0.500000 0.819225
#
# Coordination Sequence:
#
# PCOD8083128 Si02
#       7
#     8   8   8   8   8   8   8
#     4  10  18  32  54  76 100 132 164 198 248 300
#     4   9  18  34  54  76 100 128 167 209 248 293
#     4  10  19  32  50  76 104 128 158 206 253 300
#     4  10  20  31  50  78 104 132 162 202 252 298
#     4  11  20  32  50  73 101 134 167 201 247 299
#     4  10  20  34  49  71 102 132 166 202 239 290
#     4   9  19  34  52  70  94 131 173 208 244 289
#
# _framework density 17.112656999999999
#
# number of rings (size 3 to 8) (size 9 to 14) (size 15 to 20)
#    0.000    2.143    1.429    3.857    0.000    1.714 
#    0.000    2.143    0.000   11.143    0.000    0.000 
#    0.000    0.000    0.000    0.000    0.000    0.000 
#
# Total GULP energy -347264.431212 kJ/mol
# GULP energy per Si atom -12402.301115 kJ/mol
# Density = 1.707371 g / cm^3
# Si number density = 17.112657 Si / 1000 Ang^3
#
#
#
# Elastic Constant Matrix: (Units=GPa)
#
#
# Indices 1 2 3 4 5 6 
#
# 1 55.8688 21.4185 16.4241 0.0000 -1.2175 0.0000
# 2 21.4185 69.3804 30.5529 0.0000 -9.4320 0.0000
# 3 16.4241 30.5529 83.2698 0.0000 -16.7719 0.0000
# 4 0.0000 0.0000 0.0000 22.6684 0.0000 -7.4290
# 5 -1.2175 -9.4320 -16.7719 0.0000 19.7863 0.0000
# 6 0.0000 0.0000 0.0000 -7.4290 0.0000 20.7230
#
#
#
# Elastic Compliance Matrix: (Units=1/GPa)
#
#
# Indices 1 2 3 4 5 6 
#
# 1 0.020826 -0.005725 -0.002772 0.000000 -0.003797 0.000000
# 2 -0.005725 0.018960 -0.004918 0.000000 0.004517 0.000000
# 3 -0.002772 -0.004918 0.016706 0.000000 0.011646 0.000000
# 4 0.000000 0.000000 0.000000 0.049987 0.000000 0.017920
# 5 -0.003797 0.004517 0.011646 0.000000 0.062332 0.000000
# 6 0.000000 0.000000 0.000000 0.017920 0.000000 0.054680
#
#
# Mechanical properties :
#
#
# Convention : Reuss Voigt Hill
#
# Bulk Modulus (GPa) = 33.71177 38.36779 36.03978
# Shear Modulus (GPa) = 19.21543 21.97709 20.59626
#
# Velocity S-wave (km/s) = 3.35457 3.58754 3.47301
# Velocity P-wave (km/s) = 5.89465 6.29524 6.09823
#
# Compressibility (1/GPa) = 0.02966323
#
# Stress axis : x y z
#
# Youngs Moduli (GPa) = 48.01704 52.74172 59.85868
#
# Poissons Ratio (x) = 0.30193 0.16593
# Poissons Ratio (y) = 0.27488 0.29437
# Poissons Ratio (z) = 0.13310 0.25937
#
# Static dielectric constant tensor:
#      x y z
#    x 3.112270 0.000000 -0.060570 
#    y 0.000000 3.082000 0.000000 
#    z -0.060570 0.000000 3.287590 
# 
# 
# High freq. dielectric constant tensor:
#      x y z
#    x 1.657340 0.000000 -0.000770 
#    y 0.000000 1.648710 0.000000 
#    z -0.000770 0.000000 1.664260 
# 
# From -- ./inp_files/164826.got.cif
#   From: 2010.06.25/outbox.cif.g09.slc.cpg/sg12_83_cif.got.tgz:164826.got - 2010.06.28 00:19:55.
