data_PCOD8083877
_publ_section_title
;
Structure prediction by ZEFSAII (Michael W. Deem and Ramdas Pophale) SiO2 
 PCOD8083877
Probable space group: C 2/M
;
_chemical_formula_sum "Si O2"
_cell_formula_units_Z 48
_cell_length_a 20.803509
_cell_length_b 13.410704
_cell_length_c 8.754084
_cell_angle_alpha 90.000000
_cell_angle_beta 106.579262
_cell_angle_gamma 90.000000
_cell_volume 2340.762924
_symmetry_space_group_name_H-M "C 2/M"
_symmetry_group_IT_number 12
_symmetry_cell_setting 'monoclinic'
loop_
_space_group_symop_operation_xyz
x,y,z
-x,y,-z
-x,-y,-z
x,-y,z
1/2+x,1/2+y,z
1/2-x,1/2+y,-z
1/2-x,1/2-y,-z
1/2+x,1/2-y,z
loop_
_atom_site_type_symbol
_atom_site_label
_atom_site_fract_x
_atom_site_fract_y
_atom_site_fract_z
Si Si1 0.350325 0.389618 0.009899
Si Si2 0.437130 0.750816 0.869125
Si Si3 0.681426 0.884132 0.191440
Si Si4 0.555989 0.383224 0.410961
Si Si5 0.324560 0.310217 0.317686
Si Si6 0.801360 0.611954 0.152798
O O1 0.377393 0.500000 0.997705
O O2 0.345039 0.376663 0.187348
O O3 0.401920 0.315680 0.971841
O O4 0.278088 0.374454 0.883540
O O5 0.385294 0.836175 0.778429
O O6 0.463445 0.681853 0.749281
O O7 0.500000 0.800781 0.000000
O O8 0.747270 0.832818 0.308819
O O9 0.682990 0.000000 0.233188
O O10 0.678318 0.865001 0.007586
O O11 0.500000 0.362657 0.500000
O O12 0.559816 0.500000 0.371100
O O13 0.628728 0.343918 0.512076
O O14 0.335612 0.192662 0.287470
O O15 0.823914 0.500000 0.214890
#
# Coordination Sequence:
#
# PCOD8083877 Si02
#       6
#     8   8   8   8   8   8
#     4  10  18  33  59  90 117 149 197 243 289 348
#     4  12  24  39  60  85 118 161 202 246 292 346
#     4  10  20  37  62  93 120 154 201 243 290 349
#     4  11  26  43  60  87 121 156 194 245 308 360
#     4  11  18  38  64  89 123 159 189 238 303 354
#     4   9  17  32  61  94 122 152 191 241 292 346
#
# _framework density 20.506136000000001
#
# number of rings (size 3 to 8) (size 9 to 14) (size 15 to 20)
#    0.000    1.500    3.333    5.000    0.000    3.667 
#    0.000    0.833    0.000    1.000    0.000    0.000 
#    0.000    0.000    0.000    0.000    0.000    0.000 
#
# Total GULP energy -297621.444206 kJ/mol
# GULP energy per Si atom -12400.893509 kJ/mol
# Density = 2.045946 g / cm^3
# Si number density = 20.506136 Si / 1000 Ang^3
#
#
#
# Elastic Constant Matrix: (Units=GPa)
#
#
# Indices 1 2 3 4 5 6 
#
# 1 89.3799 38.4716 23.6940 0.0000 7.8308 0.0000
# 2 38.4716 113.5732 22.1713 0.0000 11.4825 0.0000
# 3 23.6940 22.1713 59.8632 0.0000 14.9491 0.0000
# 4 0.0000 0.0000 0.0000 22.5928 0.0000 -0.2707
# 5 7.8308 11.4825 14.9491 0.0000 21.4380 0.0000
# 6 0.0000 0.0000 0.0000 -0.2707 0.0000 26.8636
#
#
#
# Elastic Compliance Matrix: (Units=1/GPa)
#
#
# Indices 1 2 3 4 5 6 
#
# 1 0.013961 -0.003924 -0.004025 0.000000 -0.000191 0.000000
# 2 -0.003924 0.010777 -0.001641 0.000000 -0.003195 0.000000
# 3 -0.004025 -0.001641 0.022181 0.000000 -0.013119 0.000000
# 4 0.000000 0.000000 0.000000 0.044267 0.000000 0.000446
# 5 -0.000191 -0.003195 -0.013119 0.000000 0.057575 0.000000
# 6 0.000000 0.000000 0.000000 0.000446 0.000000 0.037230
#
#
# Mechanical properties :
#
#
# Convention : Reuss Voigt Hill
#
# Bulk Modulus (GPa) = 36.04754 47.94339 41.99546
# Shear Modulus (GPa) = 23.31902 26.07750 24.69826
#
# Velocity S-wave (km/s) = 3.37586 3.56995 3.47426
# Velocity P-wave (km/s) = 5.72820 6.35795 6.05127
#
# Compressibility (1/GPa) = 0.02774114
#
# Stress axis : x y z
#
# Youngs Moduli (GPa) = 71.62865 92.78654 45.08302
#
# Poissons Ratio (x) = 0.36410 0.18144
# Poissons Ratio (y) = 0.28108 0.07396
# Poissons Ratio (z) = 0.28828 0.15222
#
# Static dielectric constant tensor:
#      x y z
#    x 3.840920 0.000000 0.083630 
#    y 0.000000 3.916640 0.000000 
#    z 0.083630 0.000000 3.356480 
# 
# 
# High freq. dielectric constant tensor:
#      x y z
#    x 1.795700 0.000000 0.004380 
#    y 0.000000 1.810890 0.000000 
#    z 0.004380 0.000000 1.768890 
# 
# From -- ./inp_files/85975.got.cif
#   From: 2010.06.25/outbox.cif.g09.slc.cpg/sg12_43_cif.got.tgz:85975.got - 2010.06.28 00:19:55.
