data_PCOD8083518
_publ_section_title
;
Structure prediction by ZEFSAII (Michael W. Deem and Ramdas Pophale) SiO2 
 PCOD8083518
Probable space group: C 2/M
;
_chemical_formula_sum "Si O2"
_cell_formula_units_Z 64
_cell_length_a 21.785345
_cell_length_b 13.771811
_cell_length_c 12.921902
_cell_angle_alpha 90.000000
_cell_angle_beta 69.640320
_cell_angle_gamma 90.000000
_cell_volume 3634.676370
_symmetry_space_group_name_H-M "C 2/M"
_symmetry_group_IT_number 12
_symmetry_cell_setting 'monoclinic'
loop_
_space_group_symop_operation_xyz
x,y,z
-x,y,-z
-x,-y,-z
x,-y,z
1/2+x,1/2+y,z
1/2-x,1/2+y,-z
1/2-x,1/2-y,-z
1/2+x,1/2-y,z
loop_
_atom_site_type_symbol
_atom_site_label
_atom_site_fract_x
_atom_site_fract_y
_atom_site_fract_z
Si Si1 0.634009 0.704974 0.259262
Si Si2 0.500868 0.385228 0.378008
Si Si3 0.225295 0.890977 0.713331
Si Si4 0.737270 0.112316 0.898759
Si Si5 0.379631 0.291171 0.334290
Si Si6 0.187198 0.610342 0.150398
Si Si7 0.329191 0.111037 0.273415
Si Si8 0.295021 0.287473 0.582278
O O1 0.566168 0.649368 0.280124
O O2 0.693968 0.666320 0.155324
O O3 0.630515 0.819664 0.231324
O O4 0.647105 0.685329 0.372679
O O5 0.500000 0.355828 0.500000
O O6 0.491464 0.500000 0.371058
O O7 0.444973 0.329781 0.347278
O O8 0.148970 0.860209 0.740764
O O9 0.245548 0.881172 0.822176
O O10 0.272507 0.821293 0.621004
O O11 0.236038 0.000000 0.666851
O O12 0.685428 0.135845 0.838179
O O13 0.755285 0.000000 0.888666
O O14 0.704018 0.144500 0.024955
O O15 0.386897 0.182065 0.282591
O O16 0.321010 0.289996 0.451638
O O17 0.160016 0.500000 0.168893
O O18 0.262179 0.132595 0.374214
O O19 0.351313 0.000000 0.276797
#
# Coordination Sequence:
#
# PCOD8083518 Si02
#       8
#     8   8   8   8   8   8   8   8
#     4  10  18  33  51  74 103 132 171 212 246 290
#     4  11  23  37  53  70  96 139 177 205 238 285
#     4   9  17  29  47  72 100 130 159 201 259 305
#     4   9  17  31  54  83 104 126 165 212 260 303
#     4  11  20  32  46  69 101 134 171 206 240 293
#     4   9  18  32  54  80 105 130 161 208 263 310
#     4   9  18  30  49  75 102 128 160 208 259 299
#     4   9  18  29  45  70 100 127 164 208 247 295
#
# _framework density 17.608170000000001
#
# number of rings (size 3 to 8) (size 9 to 14) (size 15 to 20)
#    0.000    2.375    1.250    3.375    0.000    3.000 
#    0.000    0.625    0.000    3.750    0.000    8.750 
#    0.000    0.000    0.000    0.000    0.000    0.000 
#
# Total GULP energy -396540.848423 kJ/mol
# GULP energy per Si atom -12391.901513 kJ/mol
# Density = 1.756809 g / cm^3
# Si number density = 17.608170 Si / 1000 Ang^3
#
#
#
# Elastic Constant Matrix: (Units=GPa)
#
#
# Indices 1 2 3 4 5 6 
#
# 1 97.4464 54.9228 28.7312 0.0000 16.0481 0.0000
# 2 54.9228 104.0306 26.4775 0.0000 5.3761 0.0000
# 3 28.7312 26.4775 67.6739 0.0000 14.0072 0.0000
# 4 0.0000 0.0000 0.0000 21.7396 0.0000 6.6029
# 5 16.0481 5.3761 14.0072 0.0000 17.2453 0.0000
# 6 0.0000 0.0000 0.0000 6.6029 0.0000 26.4178
#
#
#
# Elastic Compliance Matrix: (Units=1/GPa)
#
#
# Indices 1 2 3 4 5 6 
#
# 1 0.017332 -0.008096 -0.001653 0.000000 -0.012263 0.000000
# 2 -0.008096 0.014458 -0.003421 0.000000 0.005806 0.000000
# 3 -0.001653 -0.003421 0.019567 0.000000 -0.013289 0.000000
# 4 0.000000 0.000000 0.000000 0.049778 0.000000 -0.012441
# 5 -0.012263 0.005806 -0.013289 0.000000 0.078382 0.000000
# 6 0.000000 0.000000 0.000000 -0.012441 0.000000 0.040963
#
#
# Mechanical properties :
#
#
# Convention : Reuss Voigt Hill
#
# Bulk Modulus (GPa) = 39.97199 54.37932 47.17566
# Shear Modulus (GPa) = 19.59571 23.68182 21.63876
#
# Velocity S-wave (km/s) = 3.33960 3.67131 3.50938
# Velocity P-wave (km/s) = 6.13357 6.99439 6.57807
#
# Compressibility (1/GPa) = 0.02501752
#
# Stress axis : x y z
#
# Youngs Moduli (GPa) = 57.69715 69.16813 51.10543
#
# Poissons Ratio (x) = 0.55999 0.08446
# Poissons Ratio (y) = 0.46712 0.17483
# Poissons Ratio (z) = 0.09535 0.23662
#
# Static dielectric constant tensor:
#      x y z
#    x 3.129220 0.000000 0.357160 
#    y 0.000000 3.500670 0.000000 
#    z 0.357160 0.000000 3.258600 
# 
# 
# High freq. dielectric constant tensor:
#      x y z
#    x 1.650560 0.000000 0.033460 
#    y 0.000000 1.695700 0.000000 
#    z 0.033460 0.000000 1.666820 
# 
# From -- ./inp_files/176114.got.cif
#   From: 2010.06.25/outbox.cif.g09.slc.cpg/sg12_89_cif.got.tgz:176114.got - 2010.06.28 00:19:55.
