data_PCOD8083479
_publ_section_title
;
Structure prediction by ZEFSAII (Michael W. Deem and Ramdas Pophale) SiO2 
 PCOD8083479
Probable space group: C 2/M
;
_chemical_formula_sum "Si O2"
_cell_formula_units_Z 44
_cell_length_a 22.493788
_cell_length_b 11.639605
_cell_length_c 11.493706
_cell_angle_alpha 90.000000
_cell_angle_beta 133.122293
_cell_angle_gamma 90.000000
_cell_volume 2196.454075
_symmetry_space_group_name_H-M "C 2/M"
_symmetry_group_IT_number 12
_symmetry_cell_setting 'monoclinic'
loop_
_space_group_symop_operation_xyz
x,y,z
-x,y,-z
-x,-y,-z
x,-y,z
1/2+x,1/2+y,z
1/2-x,1/2+y,-z
1/2-x,1/2-y,-z
1/2+x,1/2-y,z
loop_
_atom_site_type_symbol
_atom_site_label
_atom_site_fract_x
_atom_site_fract_y
_atom_site_fract_z
Si Si1 0.250752 0.285312 0.867714
Si Si2 0.626446 0.721416 0.361639
Si Si3 0.903852 0.000000 0.372929
Si Si4 0.085726 0.250307 0.549429
Si Si5 0.644433 0.500000 0.951085
Si Si6 0.212496 0.363696 0.298556
Si Si7 0.526699 0.500000 0.165481
O O1 0.157710 0.321622 0.708741
O O2 0.310827 0.391933 0.932648
O O3 0.285650 0.186537 0.829855
O O4 0.250000 0.250000 0.000000
O O5 0.577628 0.784729 0.402972
O O6 0.711188 0.676097 0.524487
O O7 0.635867 0.811580 0.268296
O O8 0.577732 0.613337 0.252146
O O9 0.880582 0.882729 0.407700
O O10 0.000000 0.000000 0.500000
O O11 0.853696 0.000000 0.185969
O O12 0.000000 0.267487 0.500000
O O13 0.549428 0.500000 0.850642
O O14 0.204579 0.500000 0.278770
O O15 0.500000 0.500000 0.000000
#
# Coordination Sequence:
#
# PCOD8083479 Si02
#       7
#     8   8   4   8   4   8   4
#     4  11  24  38  63  96 128 169 214 263 332 377
#     4  10  21  38  62  96 124 170 217 259 321 391
#     4  10  18  32  60  93 123 158 198 255 323 375
#     4  10  20  38  63  92 126 166 216 264 313 390
#     4  12  24  40  59  96 134 161 213 279 316 394
#     4  10  22  42  65  89 131 171 216 261 319 395
#     4  12  22  36  64  95 131 158 212 281 330 366
#
# _framework density 20.032288000000001
#
# number of rings (size 3 to 8) (size 9 to 14) (size 15 to 20)
#    0.000    1.455    2.727    3.818    5.091    0.000 
#    9.818    0.455    0.000    4.909    0.000    0.000 
#    0.000    0.000    0.000    0.000    0.000    0.000 
#
# Total GULP energy -272678.855274 kJ/mol
# GULP energy per Si atom -12394.493422 kJ/mol
# Density = 1.998669 g / cm^3
# Si number density = 20.032288 Si / 1000 Ang^3
#
#
#
# Elastic Constant Matrix: (Units=GPa)
#
#
# Indices 1 2 3 4 5 6 
#
# 1 146.9127 49.1237 32.3808 0.0000 -32.7208 0.0000
# 2 49.1237 110.0465 26.4063 0.0000 -10.5817 0.0000
# 3 32.3808 26.4063 73.7435 0.0000 -31.9623 0.0000
# 4 0.0000 0.0000 0.0000 45.3901 0.0000 12.2075
# 5 -32.7208 -10.5817 -31.9623 0.0000 31.3908 0.0000
# 6 0.0000 0.0000 0.0000 12.2075 0.0000 39.2285
#
#
#
# Elastic Compliance Matrix: (Units=1/GPa)
#
#
# Indices 1 2 3 4 5 6 
#
# 1 0.010196 -0.003899 0.001711 0.000000 0.011055 0.000000
# 2 -0.003899 0.011436 -0.004428 0.000000 -0.004717 0.000000
# 3 0.001711 -0.004428 0.025991 0.000000 0.026755 0.000000
# 4 0.000000 0.000000 0.000000 0.024044 0.000000 -0.007482
# 5 0.011055 -0.004717 0.026755 0.000000 0.069032 0.000000
# 6 0.000000 0.000000 0.000000 -0.007482 0.000000 0.027820
#
#
# Mechanical properties :
#
#
# Convention : Reuss Voigt Hill
#
# Bulk Modulus (GPa) = 29.07672 60.72493 44.90082
# Shear Modulus (GPa) = 25.87806 38.05467 31.96637
#
# Velocity S-wave (km/s) = 3.59809 4.36325 3.99901
# Velocity P-wave (km/s) = 5.63986 7.46748 6.61707
#
# Compressibility (1/GPa) = 0.03439177
#
# Stress axis : x y z
#
# Youngs Moduli (GPa) = 98.08190 87.44104 38.47469
#
# Poissons Ratio (x) = 0.34090 -0.06582
# Poissons Ratio (y) = 0.38239 0.17036
# Poissons Ratio (z) = -0.16780 0.38716
#
# Static dielectric constant tensor:
#      x y z
#    x 3.988900 0.000000 -0.087450 
#    y 0.000000 3.411480 0.000000 
#    z -0.087450 0.000000 3.714320 
# 
# 
# High freq. dielectric constant tensor:
#      x y z
#    x 1.800910 0.000000 -0.011350 
#    y 0.000000 1.758380 0.000000 
#    z -0.011350 0.000000 1.780850 
# 
# From -- ./inp_files/175436.got.cif
#   From: 2010.06.25/outbox.cif.g09.slc.cpg/sg12_88_cif.got.tgz:175436.got - 2010.06.28 00:19:55.
