data_PCOD8083617
_publ_section_title
;
Structure prediction by ZEFSAII (Michael W. Deem and Ramdas Pophale) SiO2 
 PCOD8083617
Probable space group: C 2/M
;
_chemical_formula_sum "Si O2"
_cell_formula_units_Z 64
_cell_length_a 14.781180
_cell_length_b 9.076695
_cell_length_c 26.978831
_cell_angle_alpha 90.000000
_cell_angle_beta 105.726923
_cell_angle_gamma 90.000000
_cell_volume 3484.093570
_symmetry_space_group_name_H-M "C 2/M"
_symmetry_group_IT_number 12
_symmetry_cell_setting 'monoclinic'
loop_
_space_group_symop_operation_xyz
x,y,z
-x,y,-z
-x,-y,-z
x,-y,z
1/2+x,1/2+y,z
1/2-x,1/2+y,-z
1/2-x,1/2-y,-z
1/2+x,1/2-y,z
loop_
_atom_site_type_symbol
_atom_site_label
_atom_site_fract_x
_atom_site_fract_y
_atom_site_fract_z
Si Si1 0.652361 0.671695 0.499614
Si Si2 0.039982 0.827227 0.580519
Si Si3 0.758748 0.826472 0.876372
Si Si4 0.424494 0.825086 0.312173
Si Si5 0.733252 0.674451 0.234216
Si Si6 0.042142 0.173929 0.056698
Si Si7 0.427558 0.325465 0.132935
Si Si8 0.462471 0.325507 0.753189
O O1 0.673347 0.500000 0.499095
O O2 0.750000 0.750000 0.500000
O O3 0.567057 0.714802 0.450104
O O4 0.615507 0.712754 0.549034
O O5 0.068587 0.729243 0.631001
O O6 0.045541 0.000000 0.593904
O O7 0.771264 0.764811 0.822434
O O8 0.848687 0.785148 0.922722
O O9 0.673745 0.744316 0.889898
O O10 0.739617 0.000000 0.872661
O O11 0.326069 0.767190 0.275300
O O12 0.508087 0.756108 0.292462
O O13 0.432001 0.000000 0.311695
O O14 0.731342 0.500000 0.231697
O O15 0.642793 0.729537 0.251004
O O16 0.990007 0.237349 0.097276
O O17 0.027948 0.000000 0.053882
O O18 0.000000 0.243972 0.000000
O O19 0.420913 0.500000 0.129991
O O20 0.471464 0.274585 0.191660
O O21 0.467644 0.500000 0.745690
#
# Coordination Sequence:
#
# PCOD8083617 Si02
#       8
#     8   8   8   8   8   8   8   8
#     4   9  19  37  62  85 110 146 186 222 263 314
#     4   9  20  39  57  79 114 152 181 214 265 323
#     4  10  18  33  55  75 101 137 173 215 265 317
#     4  11  22  35  53  81 112 139 177 229 270 308
#     4   9  18  33  52  73 100 138 179 213 258 318
#     4   9  18  33  54  78 103 136 178 218 261 323
#     4  10  19  32  53  78 102 132 175 219 262 318
#     4  10  19  34  54  74 100 141 181 215 262 323
#
# _framework density 18.369195999999999
#
# number of rings (size 3 to 8) (size 9 to 14) (size 15 to 20)
#    0.000    2.375    2.500    1.125    0.000    2.500 
#    0.000    7.500    0.000    0.750    0.000    0.000 
#    0.000    0.000    0.000    0.000    0.000    0.000 
#
# Total GULP energy -396766.229912 kJ/mol
# GULP energy per Si atom -12398.944685 kJ/mol
# Density = 1.832739 g / cm^3
# Si number density = 18.369196 Si / 1000 Ang^3
#
#
#
# Elastic Constant Matrix: (Units=GPa)
#
#
# Indices 1 2 3 4 5 6 
#
# 1 113.3388 22.8260 22.4196 0.0000 -0.6846 0.0000
# 2 22.8260 28.8412 23.2512 0.0000 -2.9003 0.0000
# 3 22.4196 23.2512 94.4060 0.0000 0.7131 0.0000
# 4 0.0000 0.0000 0.0000 18.1604 0.0000 3.3330
# 5 -0.6846 -2.9003 0.7131 0.0000 24.8734 0.0000
# 6 0.0000 0.0000 0.0000 3.3330 0.0000 30.5095
#
#
#
# Elastic Compliance Matrix: (Units=1/GPa)
#
#
# Indices 1 2 3 4 5 6 
#
# 1 0.010529 -0.007965 -0.000534 0.000000 -0.000624 0.000000
# 2 -0.007965 0.050012 -0.010471 0.000000 0.005912 0.000000
# 3 -0.000534 -0.010471 0.013310 0.000000 -0.001617 0.000000
# 4 0.000000 0.000000 0.000000 0.056192 0.000000 -0.006139
# 5 -0.000624 0.005912 -0.001617 0.000000 0.040922 0.000000
# 6 0.000000 0.000000 0.000000 -0.006139 0.000000 0.033447
#
#
# Mechanical properties :
#
#
# Convention : Reuss Voigt Hill
#
# Bulk Modulus (GPa) = 27.84580 41.50885 34.67732
# Shear Modulus (GPa) = 19.66000 25.91461 22.78730
#
# Velocity S-wave (km/s) = 3.27505 3.76009 3.52592
# Velocity P-wave (km/s) = 5.43076 6.44182 5.95778
#
# Compressibility (1/GPa) = 0.03591205
#
# Stress axis : x y z
#
# Youngs Moduli (GPa) = 94.97424 19.99503 75.12950
#
# Poissons Ratio (x) = 0.15927 0.04012
# Poissons Ratio (y) = 0.75651 0.78665
# Poissons Ratio (z) = 0.05071 0.20936
#
# Static dielectric constant tensor:
#      x y z
#    x 3.527910 0.000000 0.029480 
#    y 0.000000 3.006550 0.000000 
#    z 0.029480 0.000000 3.473790 
# 
# 
# High freq. dielectric constant tensor:
#      x y z
#    x 1.725350 0.000000 0.000130 
#    y 0.000000 1.679420 0.000000 
#    z 0.000130 0.000000 1.714880 
# 
# From -- ./inp_files/335242.got.cif
#   From: 2010.06.25/outbox.cif.g09.slc.cpg/sg12_168_cif.got.tgz:335242.got - 2010.06.28 00:19:55.
