data_PCOD8083998
_publ_section_title
;
Structure prediction by ZEFSAII (Michael W. Deem and Ramdas Pophale) SiO2 
 PCOD8083998
Probable space group: C 2/M
;
_chemical_formula_sum "Si O2"
_cell_formula_units_Z 52
_cell_length_a 25.631116
_cell_length_b 16.969383
_cell_length_c 6.360211
_cell_angle_alpha 90.000000
_cell_angle_beta 86.198922
_cell_angle_gamma 90.000000
_cell_volume 2760.251709
_symmetry_space_group_name_H-M "C 2/M"
_symmetry_group_IT_number 12
_symmetry_cell_setting 'monoclinic'
loop_
_space_group_symop_operation_xyz
x,y,z
-x,y,-z
-x,-y,-z
x,-y,z
1/2+x,1/2+y,z
1/2-x,1/2+y,-z
1/2-x,1/2-y,-z
1/2+x,1/2-y,z
loop_
_atom_site_type_symbol
_atom_site_label
_atom_site_fract_x
_atom_site_fract_y
_atom_site_fract_z
Si Si1 0.548489 0.776264 0.607247
Si Si2 0.779341 0.805945 0.329711
Si Si3 0.000000 0.817339 0.000000
Si Si4 0.313289 0.410919 0.675474
Si Si5 0.406939 0.687126 0.787684
Si Si6 0.634703 0.806742 0.883325
Si Si7 0.779673 0.410267 0.983023
O O1 0.500000 0.821947 0.500000
O O2 0.521595 0.735152 0.807912
O O3 0.574385 0.710109 0.450451
O O4 0.596014 0.828005 0.695751
O O5 0.750000 0.750000 0.500000
O O6 0.809904 0.873825 0.445880
O O7 0.820660 0.755897 0.188671
O O8 0.737401 0.848488 0.190817
O O9 0.048505 0.863689 0.095446
O O10 0.331710 0.500000 0.642235
O O11 0.356103 0.366438 0.802501
O O12 0.258288 0.403878 0.807593
O O13 0.397085 0.768985 0.914532
O O14 0.662331 0.887042 0.952737
O O15 0.780876 0.500000 0.895425
#
# Coordination Sequence:
#
# PCOD8083998 Si02
#       7
#     8   8   4   8   8   8   8
#     4   9  18  33  56  84 110 132 178 240 276 317
#     4  12  21  35  55  80 107 147 192 228 263 317
#     4   8  18  32  53  82 107 132 180 236 282 316
#     4  11  22  35  52  78 115 152 184 224 275 323
#     4  10  18  34  55  80 106 142 186 231 272 323
#     4  11  20  33  58  82 103 146 189 224 268 328
#     4  11  24  38  51  80 121 150 179 226 276 323
#
# _framework density 18.838863
#
# number of rings (size 3 to 8) (size 9 to 14) (size 15 to 20)
#    0.000    1.538    4.615    1.846    0.000    0.000 
#    0.000    0.385    0.000    4.615    0.000   18.308 
#    0.000    0.000    0.000    0.000    0.000    0.000 
#
# Total GULP energy -322141.799464 kJ/mol
# GULP energy per Si atom -12390.069210 kJ/mol
# Density = 1.879598 g / cm^3
# Si number density = 18.838863 Si / 1000 Ang^3
#
#
#
# Elastic Constant Matrix: (Units=GPa)
#
#
# Indices 1 2 3 4 5 6 
#
# 1 112.4303 32.0590 32.4515 0.0000 33.9459 0.0000
# 2 32.0590 61.8230 26.6773 0.0000 8.7547 0.0000
# 3 32.4515 26.6773 89.1519 0.0000 7.5833 0.0000
# 4 0.0000 0.0000 0.0000 19.5931 0.0000 -3.7806
# 5 33.9459 8.7547 7.5833 0.0000 50.0604 0.0000
# 6 0.0000 0.0000 0.0000 -3.7806 0.0000 4.9255
#
#
#
# Elastic Compliance Matrix: (Units=1/GPa)
#
#
# Indices 1 2 3 4 5 6 
#
# 1 0.013396 -0.004615 -0.002828 0.000000 -0.007849 0.000000
# 2 -0.004615 0.020462 -0.004462 0.000000 0.000227 0.000000
# 3 -0.002828 -0.004462 0.013526 0.000000 0.000649 0.000000
# 4 0.000000 0.000000 0.000000 0.059912 0.000000 0.045985
# 5 -0.007849 0.000227 0.000649 0.000000 0.025160 0.000000
# 6 0.000000 0.000000 0.000000 0.045985 0.000000 0.238320
#
#
# Mechanical properties :
#
#
# Convention : Reuss Voigt Hill
#
# Bulk Modulus (GPa) = 42.41953 49.53120 45.97536
# Shear Modulus (GPa) = 12.42409 26.39697 19.41053
#
# Velocity S-wave (km/s) = 2.57084 3.74732 3.21338
# Velocity P-wave (km/s) = 5.60163 6.71359 6.18266
#
# Compressibility (1/GPa) = 0.02357405
#
# Stress axis : x y z
#
# Youngs Moduli (GPa) = 74.64777 48.87151 73.93090
#
# Poissons Ratio (x) = 0.22555 0.20905
# Poissons Ratio (y) = 0.34451 0.32990
# Poissons Ratio (z) = 0.21108 0.21808
#
# Static dielectric constant tensor:
#      x y z
#    x 4.138140 0.000000 0.312300 
#    y 0.000000 3.142080 0.000000 
#    z 0.312300 0.000000 3.774660 
# 
# 
# High freq. dielectric constant tensor:
#      x y z
#    x 1.752430 0.000000 0.010130 
#    y 0.000000 1.672850 0.000000 
#    z 0.010130 0.000000 1.752390 
# 
# From -- ./inp_files/28553.got.cif
#   From: 2010.06.25/outbox.cif.g09.slc.cpg/sg12_15_cif.got.tgz:28553.got - 2010.06.28 00:19:55.
