data_PCOD8083279
_publ_section_title
;
Structure prediction by ZEFSAII (Michael W. Deem and Ramdas Pophale) SiO2 
 PCOD8083279
Probable space group: C 2/M
;
_chemical_formula_sum "Si O2"
_cell_formula_units_Z 60
_cell_length_a 21.778132
_cell_length_b 13.794029
_cell_length_c 22.185414
_cell_angle_alpha 90.000000
_cell_angle_beta 29.191458
_cell_angle_gamma 90.000000
_cell_volume 3250.561103
_symmetry_space_group_name_H-M "C 2/M"
_symmetry_group_IT_number 12
_symmetry_cell_setting 'monoclinic'
loop_
_space_group_symop_operation_xyz
x,y,z
-x,y,-z
-x,-y,-z
x,-y,z
1/2+x,1/2+y,z
1/2-x,1/2+y,-z
1/2-x,1/2-y,-z
1/2+x,1/2-y,z
loop_
_atom_site_type_symbol
_atom_site_label
_atom_site_fract_x
_atom_site_fract_y
_atom_site_fract_z
Si Si1 0.164134 0.388684 0.028241
Si Si2 0.500000 0.185819 0.000000
Si Si3 0.834708 0.388967 0.450552
Si Si4 0.372114 0.110470 0.807693
Si Si5 0.961084 0.114125 0.601623
Si Si6 0.749389 0.227273 0.844586
Si Si7 0.603552 0.108392 0.793036
Si Si8 0.298470 0.300340 0.548553
O O1 0.196753 0.500000 0.986847
O O2 0.194959 0.361854 0.071237
O O3 0.016140 0.370167 0.145968
O O4 0.246669 0.326738 0.911381
O O5 0.390637 0.249058 0.061547
O O6 0.433167 0.117426 0.105819
O O7 0.808194 0.500000 0.493721
O O8 0.755487 0.365648 0.459033
O O9 0.794365 0.314505 0.537874
O O10 0.980126 0.371746 0.311317
O O11 0.316194 0.170732 0.799926
O O12 0.343856 0.000000 0.815348
O O13 0.826299 0.162989 0.730637
O O14 0.000000 0.136220 0.500000
O O15 0.060144 0.163792 0.561656
O O16 0.952354 0.000000 0.621503
O O17 0.714032 0.182737 0.680446
O O18 0.655584 0.000000 0.737768
#
# Coordination Sequence:
#
# PCOD8083279 Si02
#       8
#     8   4   8   8   8   8   8   8
#     4   9  18  32  55  83 110 139 175 218 268 331
#     4  10  23  36  55  78 108 146 191 228 269 324
#     4  10  20  35  57  85 114 146 184 221 269 334
#     4  10  19  36  58  81 108 142 184 227 272 326
#     4  11  23  36  53  81 116 148 179 224 278 329
#     4  11  21  37  54  80 109 145 182 228 272 327
#     4  10  18  32  55  83 112 145 181 217 266 328
#     4  11  20  34  58  85 115 146 180 223 275 326
#
# _framework density 18.458352000000001
#
# number of rings (size 3 to 8) (size 9 to 14) (size 15 to 20)
#    0.000    1.733    2.667    3.000    0.000    2.667 
#    0.000    0.333    0.000    7.200    0.000    0.000 
#    0.000    0.000    0.000    0.000    0.000    0.000 
#
# Total GULP energy -371995.677993 kJ/mol
# GULP energy per Si atom -12399.855933 kJ/mol
# Density = 1.841634 g / cm^3
# Si number density = 18.458352 Si / 1000 Ang^3
#
#
#
# Elastic Constant Matrix: (Units=GPa)
#
#
# Indices 1 2 3 4 5 6 
#
# 1 85.6454 48.9551 31.6855 0.0001 -10.2334 0.0000
# 2 48.9551 108.9019 50.1624 0.0000 5.4475 0.0000
# 3 31.6855 50.1624 95.2132 0.0003 9.5107 -0.0002
# 4 0.0001 0.0000 0.0003 24.6040 0.0000 -1.0858
# 5 -10.2334 5.4475 9.5107 0.0000 30.8989 0.0000
# 6 0.0000 0.0000 -0.0002 -1.0858 0.0000 22.0378
#
#
#
# Elastic Compliance Matrix: (Units=1/GPa)
#
#
# Indices 1 2 3 4 5 6 
#
# 1 0.017752 -0.006987 -0.003030 0.000000 0.008044 0.000000
# 2 -0.006987 0.014876 -0.005178 0.000000 -0.003343 0.000000
# 3 -0.003030 -0.005178 0.014700 0.000000 -0.004615 0.000000
# 4 0.000000 0.000000 0.000000 0.040732 0.000000 0.002007
# 5 0.008044 -0.003343 -0.004615 0.000000 0.037038 0.000000
# 6 0.000000 0.000000 0.000000 0.002007 0.000000 0.045475
#
#
# Mechanical properties :
#
#
# Convention : Reuss Voigt Hill
#
# Bulk Modulus (GPa) = 59.03970 61.26295 60.15133
# Shear Modulus (GPa) = 24.20031 26.10531 25.15281
#
# Velocity S-wave (km/s) = 3.62481 3.76477 3.69545
# Velocity P-wave (km/s) = 7.04086 7.22218 7.13210
#
# Compressibility (1/GPa) = 0.01693775
#
# Stress axis : x y z
#
# Youngs Moduli (GPa) = 56.33240 67.22362 68.02604
#
# Poissons Ratio (x) = 0.46967 0.20613
# Poissons Ratio (y) = 0.39358 0.35225
# Poissons Ratio (z) = 0.17069 0.34810
#
# Static dielectric constant tensor:
#      x y z
#    x 3.415280 0.000000 0.005230 
#    y 0.000000 3.284140 0.000000 
#    z 0.005230 0.000000 3.403670 
# 
# 
# High freq. dielectric constant tensor:
#      x y z
#    x 1.714770 0.000000 -0.001510 
#    y 0.000000 1.698740 0.000000 
#    z -0.001510 0.000000 1.716430 
# 
# From -- ./inp_files/322105.got.cif
#   From: 2010.06.25/outbox.cif.g09.slc.cpg/sg12_162_cif.got.tgz:322105.got - 2010.06.28 00:19:55.
