data_PCOD8083680
_publ_section_title
;
Structure prediction by ZEFSAII (Michael W. Deem and Ramdas Pophale) SiO2 
 PCOD8083680
Probable space group: C 2/M
;
_chemical_formula_sum "Si O2"
_cell_formula_units_Z 64
_cell_length_a 20.095578
_cell_length_b 9.202828
_cell_length_c 20.561906
_cell_angle_alpha 90.000000
_cell_angle_beta 72.874600
_cell_angle_gamma 90.000000
_cell_volume 3634.040413
_symmetry_space_group_name_H-M "C 2/M"
_symmetry_group_IT_number 12
_symmetry_cell_setting 'monoclinic'
loop_
_space_group_symop_operation_xyz
x,y,z
-x,y,-z
-x,-y,-z
x,-y,z
1/2+x,1/2+y,z
1/2-x,1/2+y,-z
1/2-x,1/2-y,-z
1/2+x,1/2-y,z
loop_
_atom_site_type_symbol
_atom_site_label
_atom_site_fract_x
_atom_site_fract_y
_atom_site_fract_z
Si Si1 0.542825 0.672677 0.683304
Si Si2 0.677714 0.668915 0.335210
Si Si3 0.529906 0.673358 0.423959
Si Si4 0.691928 0.666911 0.181728
Si Si5 0.455496 0.329984 0.831096
Si Si6 0.171604 0.830842 0.851485
Si Si7 0.965985 0.333184 0.079741
Si Si8 0.813253 0.832269 0.304354
O O1 0.537961 0.500000 0.684531
O O2 0.516130 0.735830 0.622341
O O3 0.494644 0.729726 0.755802
O O4 0.622226 0.724037 0.671022
O O5 0.688567 0.500000 0.343927
O O6 0.609345 0.725909 0.392292
O O7 0.668517 0.704912 0.261787
O O8 0.744659 0.747382 0.346195
O O9 0.500000 0.736603 0.500000
O O10 0.526803 0.500000 0.424258
O O11 0.716057 0.500000 0.170638
O O12 0.626971 0.696951 0.153133
O O13 0.756175 0.767216 0.141054
O O14 0.472203 0.500000 0.837191
O O15 0.481356 0.240908 0.885205
O O16 0.107464 0.748979 0.902718
O O17 0.167369 0.802553 0.775885
O O18 0.167592 0.000000 0.870279
O O19 0.953644 0.500000 0.103771
O O20 0.000000 0.321219 0.000000
O O21 0.798102 0.000000 0.320977
#
# Coordination Sequence:
#
# PCOD8083680 Si02
#       8
#     8   8   8   8   8   8   8   8
#     4   9  15  28  48  72 101 130 170 215 250 292
#     4   9  16  28  47  72 102 131 165 210 253 296
#     4   9  16  27  47  74 102 135 173 210 250 299
#     4   9  17  30  52  79 106 134 167 216 266 302
#     4  10  18  33  56  79 103 135 176 217 257 305
#     4  10  19  33  54  78 104 136 174 212 254 310
#     4  11  24  39  54  76 108 139 168 210 262 312
#     4   9  17  29  48  72  99 130 165 209 255 299
#
# _framework density 17.611250999999999
#
# number of rings (size 3 to 8) (size 9 to 14) (size 15 to 20)
#    0.000    2.500    2.500    0.750    0.000    2.000 
#    0.000    1.250    0.000    1.125    0.000    0.000 
#    0.000    0.000    0.000    0.000    0.000    0.000 
#
# Total GULP energy -396793.069781 kJ/mol
# GULP energy per Si atom -12399.783431 kJ/mol
# Density = 1.757117 g / cm^3
# Si number density = 17.611251 Si / 1000 Ang^3
#
#
#
# Elastic Constant Matrix: (Units=GPa)
#
#
# Indices 1 2 3 4 5 6 
#
# 1 146.6015 56.7772 64.2505 0.0000 -12.9663 0.0000
# 2 56.7772 67.9052 42.7432 0.0001 -9.5777 0.0001
# 3 64.2505 42.7432 83.3864 0.0000 -5.8594 0.0000
# 4 0.0000 0.0001 0.0000 14.0089 0.0000 -5.8778
# 5 -12.9663 -9.5777 -5.8594 0.0000 29.8680 0.0000
# 6 0.0000 0.0001 0.0000 -5.8778 0.0000 30.5465
#
#
#
# Elastic Compliance Matrix: (Units=1/GPa)
#
#
# Indices 1 2 3 4 5 6 
#
# 1 0.011927 -0.005881 -0.006027 0.000000 0.002109 0.000000
# 2 -0.005881 0.025358 -0.008188 0.000000 0.003972 0.000000
# 3 -0.006027 -0.008188 0.020751 0.000000 -0.001171 0.000000
# 4 0.000000 0.000000 0.000000 0.077653 0.000000 0.014942
# 5 0.002109 0.003972 -0.001171 0.000000 0.035440 0.000000
# 6 0.000000 0.000000 0.000000 0.014942 0.000000 0.035612
#
#
# Mechanical properties :
#
#
# Convention : Reuss Voigt Hill
#
# Bulk Modulus (GPa) = 56.04101 69.49277 62.76689
# Shear Modulus (GPa) = 19.77222 23.82616 21.79919
#
# Velocity S-wave (km/s) = 3.35431 3.68216 3.52205
# Velocity P-wave (km/s) = 6.84778 7.59096 7.22893
#
# Compressibility (1/GPa) = 0.01784407
#
# Stress axis : x y z
#
# Youngs Moduli (GPa) = 83.84386 39.43583 48.19079
#
# Poissons Ratio (x) = 0.23193 0.29045
# Poissons Ratio (y) = 0.49310 0.39456
# Poissons Ratio (z) = 0.50533 0.32288
#
# Static dielectric constant tensor:
#      x y z
#    x 3.468940 0.000000 -0.059220 
#    y 0.000000 3.059030 0.000000 
#    z -0.059220 0.000000 3.136440 
# 
# 
# High freq. dielectric constant tensor:
#      x y z
#    x 1.695820 0.000000 -0.010600 
#    y 0.000000 1.653680 0.000000 
#    z -0.010600 0.000000 1.656760 
# 
# From -- ./inp_files/319833.got.cif
#   From: 2010.06.25/outbox.cif.g09.slc.cpg/sg12_160_cif.got.tgz:319833.got - 2010.06.28 00:19:55.
