data_PCOD8083992
_publ_section_title
;
Structure prediction by ZEFSAII (Michael W. Deem and Ramdas Pophale) SiO2 
 PCOD8083992
Probable space group: C 2/M
;
_chemical_formula_sum "Si O2"
_cell_formula_units_Z 64
_cell_length_a 31.603393
_cell_length_b 13.016984
_cell_length_c 14.933665
_cell_angle_alpha 90.000000
_cell_angle_beta 35.864149
_cell_angle_gamma 90.000000
_cell_volume 3599.219443
_symmetry_space_group_name_H-M "C 2/M"
_symmetry_group_IT_number 12
_symmetry_cell_setting 'monoclinic'
loop_
_space_group_symop_operation_xyz
x,y,z
-x,y,-z
-x,-y,-z
x,-y,z
1/2+x,1/2+y,z
1/2-x,1/2+y,-z
1/2-x,1/2-y,-z
1/2+x,1/2-y,z
loop_
_atom_site_type_symbol
_atom_site_label
_atom_site_fract_x
_atom_site_fract_y
_atom_site_fract_z
Si Si1 0.731510 0.384490 0.117930
Si Si2 0.868802 0.815777 0.555650
Si Si3 0.212742 0.614588 0.311780
Si Si4 0.692138 0.307603 0.701989
Si Si5 0.021653 0.880701 0.245200
Si Si6 0.546523 0.381740 0.003089
Si Si7 0.178173 0.189476 0.020079
Si Si8 0.783780 0.882679 0.530238
O O1 0.762430 0.500000 0.064016
O O2 0.669700 0.376793 0.298801
O O3 0.798506 0.309070 0.023798
O O4 0.695127 0.358714 0.086505
O O5 0.851861 0.694538 0.595996
O O6 0.841133 0.860418 0.509263
O O7 0.954583 0.833138 0.414668
O O8 0.180723 0.500000 0.359117
O O9 0.243406 0.632097 0.358889
O O10 0.278040 0.627046 0.129814
O O11 0.712390 0.187368 0.661558
O O12 0.677995 0.357944 0.629630
O O13 0.619337 0.315176 0.884024
O O14 0.004975 0.868131 0.167963
O O15 0.032124 0.000000 0.252442
O O16 0.092974 0.818106 0.149495
O O17 0.567999 0.500000 0.949595
O O18 0.500000 0.339522 0.000000
O O19 0.758254 0.000000 0.578352
#
# Coordination Sequence:
#
# PCOD8083992 Si02
#       8
#     8   8   8   8   8   8   8   8
#     4  10  20  37  56  77 106 139 174 216 262 310
#     4  10  22  34  50  77 107 138 172 208 261 320
#     4  10  18  34  55  75 101 134 175 220 257 300
#     4  10  19  30  50  75  97 130 174 213 251 309
#     4  11  20  33  52  76 108 138 170 218 265 307
#     4  10  19  30  48  73 103 135 167 209 261 305
#     4  10  21  34  56  83 103 133 179 218 259 313
#     4  10  19  32  49  72 102 133 168 210 257 304
#
# _framework density 17.781632999999999
#
# number of rings (size 3 to 8) (size 9 to 14) (size 15 to 20)
#    0.000    1.875    1.250    4.125    0.000    1.500 
#    0.000    1.875    0.000    1.125    0.000    5.250 
#    0.000    0.000    0.000    0.000    0.000    0.000 
#
# Total GULP energy -396858.708241 kJ/mol
# GULP energy per Si atom -12401.834633 kJ/mol
# Density = 1.774116 g / cm^3
# Si number density = 17.781633 Si / 1000 Ang^3
#
#
#
# Elastic Constant Matrix: (Units=GPa)
#
#
# Indices 1 2 3 4 5 6 
#
# 1 77.6212 35.7000 39.4239 0.0000 3.7242 0.0000
# 2 35.7000 130.0364 42.5035 0.0000 -9.7320 0.0000
# 3 39.4239 42.5035 101.5053 0.0000 -9.7638 0.0000
# 4 0.0000 0.0000 0.0000 15.7125 0.0000 -4.7136
# 5 3.7242 -9.7320 -9.7638 0.0000 33.3923 0.0000
# 6 0.0000 0.0000 0.0000 -4.7136 0.0000 14.2883
#
#
#
# Elastic Compliance Matrix: (Units=1/GPa)
#
#
# Indices 1 2 3 4 5 6 
#
# 1 0.017608 -0.003244 -0.005927 0.000000 -0.004642 0.000000
# 2 -0.003244 0.009586 -0.002521 0.000000 0.002418 0.000000
# 3 -0.005927 -0.002521 0.013584 0.000000 0.003898 0.000000
# 4 0.000000 0.000000 0.000000 0.070634 0.000000 0.023302
# 5 -0.004642 0.002418 0.003898 0.000000 0.032309 0.000000
# 6 0.000000 0.000000 0.000000 0.023302 0.000000 0.077674
#
#
# Mechanical properties :
#
#
# Convention : Reuss Voigt Hill
#
# Bulk Modulus (GPa) = 57.49259 60.49086 58.99173
# Shear Modulus (GPa) = 19.95375 25.44764 22.70070
#
# Velocity S-wave (km/s) = 3.35349 3.78712 3.57688
# Velocity P-wave (km/s) = 6.88457 7.29490 7.09270
#
# Compressibility (1/GPa) = 0.01739354
#
# Stress axis : x y z
#
# Youngs Moduli (GPa) = 56.79146 104.31957 73.61393
#
# Poissons Ratio (x) = 0.33845 0.43631
# Poissons Ratio (y) = 0.18425 0.18560
# Poissons Ratio (z) = 0.33660 0.26301
#
# Static dielectric constant tensor:
#      x y z
#    x 3.314580 0.000000 0.231760 
#    y 0.000000 3.298670 0.000000 
#    z 0.231760 0.000000 3.217650 
# 
# 
# High freq. dielectric constant tensor:
#      x y z
#    x 1.688510 0.000000 0.021830 
#    y 0.000000 1.680530 0.000000 
#    z 0.021830 0.000000 1.680700 
# 
# From -- ./inp_files/250785.got.cif
#   From: 2010.06.25/outbox.cif.g09.slc.cpg/sg12_126_cif.got.tgz:250785.got - 2010.06.28 00:19:55.
