data_PCOD8083819
_publ_section_title
;
Structure prediction by ZEFSAII (Michael W. Deem and Ramdas Pophale) SiO2 
 PCOD8083819
Probable space group: C 2/M
;
_chemical_formula_sum "Si O2"
_cell_formula_units_Z 36
_cell_length_a 22.480974
_cell_length_b 13.647010
_cell_length_c 12.556904
_cell_angle_alpha 90.000000
_cell_angle_beta 151.797353
_cell_angle_gamma 90.000000
_cell_volume 1820.627484
_symmetry_space_group_name_H-M "C 2/M"
_symmetry_group_IT_number 12
_symmetry_cell_setting 'monoclinic'
loop_
_space_group_symop_operation_xyz
x,y,z
-x,y,-z
-x,-y,-z
x,-y,z
1/2+x,1/2+y,z
1/2-x,1/2+y,-z
1/2-x,1/2-y,-z
1/2+x,1/2-y,z
loop_
_atom_site_type_symbol
_atom_site_label
_atom_site_fract_x
_atom_site_fract_y
_atom_site_fract_z
Si Si1 0.861257 0.608508 0.553311
Si Si2 0.893431 0.885598 0.752776
Si Si3 0.992186 0.790803 0.260140
Si Si4 0.500000 0.770897 0.500000
Si Si5 0.269781 0.890403 0.169748
O O1 0.904773 0.500000 0.660662
O O2 0.747519 0.653342 0.445166
O O3 0.807801 0.600715 0.351127
O O4 0.980143 0.682179 0.744584
O O5 0.926304 0.866515 0.681130
O O6 0.889822 0.000000 0.770195
O O7 0.000000 0.838755 0.000000
O O8 0.033762 0.795527 0.450264
O O9 0.847121 0.817918 0.024476
O O10 0.383262 0.840829 0.282743
O O11 0.241186 0.000000 0.079356
#
# Coordination Sequence:
#
# PCOD8083819 Si02
#       5
#     8   8   8   4   8
#     4   9  19  34  56  86 112 139 180 226 273 319
#     4  10  18  33  58  86 109 138 182 228 269 316
#     4  11  20  34  57  84 111 145 179 226 269 324
#     4  10  23  36  51  82 114 144 181 222 275 326
#     4  10  19  36  59  81 107 143 186 229 267 316
#
# _framework density 19.773402000000001
#
# number of rings (size 3 to 8) (size 9 to 14) (size 15 to 20)
#    0.000    2.000    2.222    2.333    0.000    0.889 
#    0.000    2.222    0.000   11.333    0.000    0.000 
#    0.000    0.000    0.000    0.000    0.000    0.000 
#
# Total GULP energy -223084.144621 kJ/mol
# GULP energy per Si atom -12393.563590 kJ/mol
# Density = 1.972840 g / cm^3
# Si number density = 19.773402 Si / 1000 Ang^3
#
#
#
# Elastic Constant Matrix: (Units=GPa)
#
#
# Indices 1 2 3 4 5 6 
#
# 1 114.4615 18.6132 28.8057 0.0000 8.1770 0.0000
# 2 18.6132 68.6543 54.0318 0.0000 12.9709 0.0000
# 3 28.8057 54.0318 74.3373 0.0000 27.9666 0.0000
# 4 0.0000 0.0000 0.0000 29.0158 0.0000 0.0281
# 5 8.1770 12.9709 27.9666 0.0000 30.6600 0.0000
# 6 0.0000 0.0000 0.0000 0.0281 0.0000 22.7215
#
#
#
# Elastic Compliance Matrix: (Units=1/GPa)
#
#
# Indices 1 2 3 4 5 6 
#
# 1 0.009752 0.001204 -0.005304 0.000000 0.001728 0.000000
# 2 0.001204 0.037610 -0.033032 0.000000 0.013898 0.000000
# 3 -0.005304 -0.033032 0.051348 0.000000 -0.031448 0.000000
# 4 0.000000 0.000000 0.000000 0.034464 0.000000 -0.000043
# 5 0.001728 0.013898 -0.031448 0.000000 0.054961 0.000000
# 6 0.000000 0.000000 0.000000 -0.000043 0.000000 0.044011
#
#
# Mechanical properties :
#
#
# Convention : Reuss Voigt Hill
#
# Bulk Modulus (GPa) = 40.90643 51.15051 46.02847
# Shear Modulus (GPa) = 15.89527 26.87961 21.38744
#
# Velocity S-wave (km/s) = 2.83834 3.69098 3.29238
# Velocity P-wave (km/s) = 5.61018 6.63995 6.14667
#
# Compressibility (1/GPa) = 0.02444604
#
# Stress axis : x y z
#
# Youngs Moduli (GPa) = 102.54099 26.58859 19.47501
#
# Poissons Ratio (x) = -0.03201 0.10330
# Poissons Ratio (y) = -0.12347 0.64330
# Poissons Ratio (z) = 0.54390 0.87827
#
# Static dielectric constant tensor:
#      x y z
#    x 3.831980 0.000000 0.280500 
#    y 0.000000 3.821020 0.000000 
#    z 0.280500 0.000000 3.429690 
# 
# 
# High freq. dielectric constant tensor:
#      x y z
#    x 1.786810 0.000000 0.025530 
#    y 0.000000 1.760890 0.000000 
#    z 0.025530 0.000000 1.735420 
# 
# From -- ./inp_files/128968.got.cif
#   From: 2010.06.25/outbox.cif.g09.slc.cpg/sg12_65_cif.got.tgz:128968.got - 2010.06.28 00:19:55.
