data_PCOD8083252
_publ_section_title
;
Structure prediction by ZEFSAII (Michael W. Deem and Ramdas Pophale) SiO2 
 PCOD8083252
Probable space group: C 2/M
;
_chemical_formula_sum "Si O2"
_cell_formula_units_Z 56
_cell_length_a 19.898670
_cell_length_b 18.340674
_cell_length_c 9.554501
_cell_angle_alpha 90.000000
_cell_angle_beta 55.877519
_cell_angle_gamma 90.000000
_cell_volume 2886.648558
_symmetry_space_group_name_H-M "C 2/M"
_symmetry_group_IT_number 12
_symmetry_cell_setting 'monoclinic'
loop_
_space_group_symop_operation_xyz
x,y,z
-x,y,-z
-x,-y,-z
x,-y,z
1/2+x,1/2+y,z
1/2-x,1/2+y,-z
1/2-x,1/2-y,-z
1/2+x,1/2-y,z
loop_
_atom_site_type_symbol
_atom_site_label
_atom_site_fract_x
_atom_site_fract_y
_atom_site_fract_z
Si Si1 0.696123 0.288673 0.739545
Si Si2 0.090818 0.294499 0.648162
Si Si3 0.292739 0.083538 0.497725
Si Si4 0.351109 0.723029 0.678765
Si Si5 0.509858 0.419278 0.824802
Si Si6 0.654365 0.579316 0.461096
Si Si7 0.071913 0.220727 0.125274
O O1 0.664629 0.253483 0.630358
O O2 0.739850 0.367001 0.667439
O O3 0.757697 0.236991 0.751085
O O4 0.616752 0.291546 0.927448
O O5 0.117903 0.379497 0.628133
O O6 0.088822 0.270806 0.488110
O O7 0.001231 0.279380 0.814671
O O8 0.248137 0.083791 0.399704
O O9 0.302258 0.000000 0.542673
O O10 0.367978 0.637562 0.630941
O O11 0.369090 0.744953 0.817968
O O12 0.475879 0.500000 0.830284
O O13 0.603253 0.411263 0.666110
O O14 0.462660 0.358429 0.791280
O O15 0.500000 0.402561 0.000000
O O16 0.636009 0.500000 0.416008
#
# Coordination Sequence:
#
# PCOD8083252 Si02
#       7
#     8   8   8   8   8   8   8
#     4  11  21  38  58  83 111 147 195 234 281 340
#     4  11  20  37  59  84 112 149 194 236 278 340
#     4  10  19  35  62  86 108 146 198 241 274 328
#     4  11  21  37  53  82 114 150 187 234 282 341
#     4  10  20  33  51  81 118 150 182 222 278 347
#     4  10  18  32  55  80 110 146 184 225 274 340
#     4  12  23  33  56  85 120 148 180 236 298 331
#
# _framework density 19.399659
#
# number of rings (size 3 to 8) (size 9 to 14) (size 15 to 20)
#    0.000    1.286    4.286    3.857    0.000    2.286 
#    0.000    1.429    0.000    9.429    0.000    0.000 
#    0.000    0.000    0.000    0.000    0.000    0.000 
#
# Total GULP energy -347017.161900 kJ/mol
# GULP energy per Si atom -12393.470068 kJ/mol
# Density = 1.935550 g / cm^3
# Si number density = 19.399659 Si / 1000 Ang^3
#
#
#
# Elastic Constant Matrix: (Units=GPa)
#
#
# Indices 1 2 3 4 5 6 
#
# 1 71.6324 27.7894 17.0729 0.0000 -2.4005 0.0000
# 2 27.7894 121.8333 29.9608 0.0000 -9.4170 0.0000
# 3 17.0729 29.9608 47.9935 0.0000 -9.5128 0.0000
# 4 0.0000 0.0000 0.0000 19.4398 0.0000 -0.5382
# 5 -2.4005 -9.4170 -9.5128 0.0000 30.9662 0.0000
# 6 0.0000 0.0000 0.0000 -0.5382 0.0000 15.2218
#
#
#
# Elastic Compliance Matrix: (Units=1/GPa)
#
#
# Indices 1 2 3 4 5 6 
#
# 1 0.015967 -0.002681 -0.004177 0.000000 -0.000861 0.000000
# 2 -0.002681 0.010186 -0.005146 0.000000 0.001309 0.000000
# 3 -0.004177 -0.005146 0.026791 0.000000 0.006342 0.000000
# 4 0.000000 0.000000 0.000000 0.051491 0.000000 0.001820
# 5 -0.000861 0.001309 0.006342 0.000000 0.034573 0.000000
# 6 0.000000 0.000000 0.000000 0.001820 0.000000 0.065759
#
#
# Mechanical properties :
#
#
# Convention : Reuss Voigt Hill
#
# Bulk Modulus (GPa) = 34.55781 43.45614 39.00698
# Shear Modulus (GPa) = 20.97136 24.23467 22.60301
#
# Velocity S-wave (km/s) = 3.29145 3.53828 3.41709
# Velocity P-wave (km/s) = 5.68306 6.25633 5.97657
#
# Compressibility (1/GPa) = 0.02893702
#
# Stress axis : x y z
#
# Youngs Moduli (GPa) = 62.62912 98.17313 37.32584
#
# Poissons Ratio (x) = 0.26324 0.15590
# Poissons Ratio (y) = 0.16793 0.19206
# Poissons Ratio (z) = 0.26158 0.50515
#
# Static dielectric constant tensor:
#      x y z
#    x 3.363260 0.000000 -0.168180 
#    y 0.000000 3.689900 0.000000 
#    z -0.168180 0.000000 3.356920 
# 
# 
# High freq. dielectric constant tensor:
#      x y z
#    x 1.742290 0.000000 -0.007970 
#    y 0.000000 1.747700 0.000000 
#    z -0.007970 0.000000 1.736810 
# 
# From -- ./inp_files/75992.got.cif
#   From: 2010.06.25/outbox.cif.g09.slc.cpg/sg12_38_cif.got.tgz:75992.got - 2010.06.28 00:19:55.
