data_PCOD8083676
_publ_section_title
;
Structure prediction by ZEFSAII (Michael W. Deem and Ramdas Pophale) SiO2 
 PCOD8083676
Probable space group: C 2/M
;
_chemical_formula_sum "Si O2"
_cell_formula_units_Z 56
_cell_length_a 25.034100
_cell_length_b 9.020364
_cell_length_c 15.010756
_cell_angle_alpha 90.000000
_cell_angle_beta 73.973284
_cell_angle_gamma 90.000000
_cell_volume 3257.932861
_symmetry_space_group_name_H-M "C 2/M"
_symmetry_group_IT_number 12
_symmetry_cell_setting 'monoclinic'
loop_
_space_group_symop_operation_xyz
x,y,z
-x,y,-z
-x,-y,-z
x,-y,z
1/2+x,1/2+y,z
1/2-x,1/2+y,-z
1/2-x,1/2-y,-z
1/2+x,1/2-y,z
loop_
_atom_site_type_symbol
_atom_site_label
_atom_site_fract_x
_atom_site_fract_y
_atom_site_fract_z
Si Si1 0.325823 0.827416 0.910727
Si Si2 0.401361 0.174772 0.713727
Si Si3 0.805938 0.824523 0.289498
Si Si4 0.377527 0.824472 0.400617
Si Si5 0.705233 0.326592 0.906955
Si Si6 0.184429 0.674596 0.393973
Si Si7 0.008821 0.174812 0.598506
O O1 0.376782 0.789718 0.822323
O O2 0.268697 0.771857 0.891052
O O3 0.322352 0.000000 0.931183
O O4 0.334940 0.748384 0.001553
O O5 0.358651 0.236878 0.659135
O O6 0.457995 0.265126 0.680124
O O7 0.412523 0.000000 0.695297
O O8 0.853831 0.739540 0.320022
O O9 0.814603 0.782625 0.182356
O O10 0.746075 0.762207 0.349261
O O11 0.810880 0.000000 0.303733
O O12 0.335654 0.778029 0.499017
O O13 0.436830 0.753702 0.390338
O O14 0.384258 0.000000 0.391225
O O15 0.701237 0.500000 0.922942
O O16 0.186830 0.500000 0.379564
O O17 0.000000 0.219153 0.500000
O O18 0.014633 0.000000 0.608582
#
# Coordination Sequence:
#
# PCOD8083676 Si02
#       7
#     8   8   8   8   8   8   8
#     4   9  17  30  51  78 105 135 172 213 256 304
#     4  10  18  33  56  78 104 139 175 212 258 308
#     4  10  19  34  53  75 108 145 175 210 257 310
#     4  11  22  35  53  76 103 141 182 217 255 304
#     4   9  17  30  50  75 106 141 171 205 257 312
#     4   9  17  31  52  76 105 140 174 207 253 310
#     4  11  23  37  53  76 104 136 175 220 263 303
#
# _framework density 17.188814000000001
#
# number of rings (size 3 to 8) (size 9 to 14) (size 15 to 20)
#    0.000    2.143    2.857    1.286    0.000    1.714 
#    0.000    1.429    0.000    0.857    0.000    6.000 
#    0.000    0.000    0.000    0.000    0.000    0.000 
#
# Total GULP energy -347239.445159 kJ/mol
# GULP energy per Si atom -12401.408756 kJ/mol
# Density = 1.714969 g / cm^3
# Si number density = 17.188814 Si / 1000 Ang^3
#
#
#
# Elastic Constant Matrix: (Units=GPa)
#
#
# Indices 1 2 3 4 5 6 
#
# 1 120.1087 47.1842 69.7826 0.0000 8.2635 0.0000
# 2 47.1842 50.0748 57.6961 0.0000 3.0971 0.0000
# 3 69.7826 57.6961 141.4487 0.0000 6.5173 0.0000
# 4 0.0000 0.0000 0.0000 29.3762 0.0000 -0.2537
# 5 8.2635 3.0971 6.5173 0.0000 21.9276 0.0000
# 6 0.0000 0.0000 0.0000 -0.2537 0.0000 18.1539
#
#
#
# Elastic Compliance Matrix: (Units=1/GPa)
#
#
# Indices 1 2 3 4 5 6 
#
# 1 0.013998 -0.009823 -0.002758 0.000000 -0.003068 0.000000
# 2 -0.009823 0.044583 -0.013403 0.000000 0.001388 0.000000
# 3 -0.002758 -0.013403 0.013953 0.000000 -0.001215 0.000000
# 4 0.000000 0.000000 0.000000 0.034045 0.000000 0.000476
# 5 -0.003068 0.001388 -0.001215 0.000000 0.046926 0.000000
# 6 0.000000 0.000000 0.000000 0.000476 0.000000 0.055091
#
#
# Mechanical properties :
#
#
# Convention : Reuss Voigt Hill
#
# Bulk Modulus (GPa) = 48.62156 73.43978 61.03067
# Shear Modulus (GPa) = 18.69720 23.02282 20.86001
#
# Velocity S-wave (km/s) = 3.30169 3.66376 3.48743
# Velocity P-wave (km/s) = 6.54851 7.79202 7.19717
#
# Compressibility (1/GPa) = 0.02056701
#
# Stress axis : x y z
#
# Youngs Moduli (GPa) = 71.43922 22.43005 71.66751
#
# Poissons Ratio (x) = 0.22032 0.19765
# Poissons Ratio (y) = 0.70172 0.96058
# Poissons Ratio (z) = 0.19702 0.30064
#
# Static dielectric constant tensor:
#      x y z
#    x 3.093230 0.000000 -0.020000 
#    y 0.000000 3.035390 0.000000 
#    z -0.020000 0.000000 3.304060 
# 
# 
# High freq. dielectric constant tensor:
#      x y z
#    x 1.647120 0.000000 -0.000470 
#    y 0.000000 1.650520 0.000000 
#    z -0.000470 0.000000 1.667750 
# 
# From -- ./inp_files/237460.got.cif
#   From: 2010.06.25/outbox.cif.g09.slc.cpg/sg12_119_cif.got.tgz:237460.got - 2010.06.28 00:19:55.
