data_PCOD8083161
_publ_section_title
;
Structure prediction by ZEFSAII (Michael W. Deem and Ramdas Pophale) SiO2 
 PCOD8083161
Probable space group: C 2/M
;
_chemical_formula_sum "Si O2"
_cell_formula_units_Z 64
_cell_length_a 10.636190
_cell_length_b 13.815513
_cell_length_c 22.573026
_cell_angle_alpha 90.000000
_cell_angle_beta 107.890970
_cell_angle_gamma 90.000000
_cell_volume 3156.580471
_symmetry_space_group_name_H-M "C 2/M"
_symmetry_group_IT_number 12
_symmetry_cell_setting 'monoclinic'
loop_
_space_group_symop_operation_xyz
x,y,z
-x,y,-z
-x,-y,-z
x,-y,z
1/2+x,1/2+y,z
1/2-x,1/2+y,-z
1/2-x,1/2-y,-z
1/2+x,1/2-y,z
loop_
_atom_site_type_symbol
_atom_site_label
_atom_site_fract_x
_atom_site_fract_y
_atom_site_fract_z
Si Si1 0.858512 0.888199 0.642606
Si Si2 0.402183 0.262693 0.539156
Si Si3 0.005296 0.292804 0.864705
Si Si4 0.109730 0.894560 0.911356
Si Si5 0.257951 0.394502 0.192357
Si Si6 0.370532 0.114197 0.015186
Si Si7 0.559383 0.887994 0.631852
Si Si8 0.453247 0.744989 0.263636
O O1 0.914127 0.849476 0.588198
O O2 0.701033 0.876906 0.621235
O O3 0.920786 0.822785 0.703759
O O4 0.900869 0.000000 0.657110
O O5 0.500000 0.291926 0.500000
O O6 0.250000 0.250000 0.500000
O O7 0.450827 0.161040 0.573834
O O8 0.994519 0.186260 0.894266
O O9 0.121669 0.351218 0.915330
O O10 0.037593 0.289182 0.800159
O O11 0.871510 0.349747 0.855295
O O12 0.143584 0.907940 0.847567
O O13 0.061958 0.000000 0.929033
O O14 0.232909 0.851222 0.966288
O O15 0.229139 0.500000 0.217268
O O16 0.322420 0.322845 0.250369
O O17 0.372320 0.000000 0.011161
O O18 0.500000 0.156698 0.000000
O O19 0.560443 0.836147 0.695376
O O20 0.521131 0.000000 0.635344
#
# Coordination Sequence:
#
# PCOD8083161 Si02
#       8
#     8   8   8   8   8   8   8   8
#     4  10  21  40  65  89 121 166 204 245 299 357
#     4  11  22  40  67  99 133 160 203 257 299 353
#     4  11  20  32  56  82 107 145 191 244 298 355
#     4   9  19  34  52  77 105 138 181 231 293 366
#     4  10  19  34  55  80 109 143 187 240 297 354
#     4  10  18  32  54  79 106 139 185 241 305 372
#     4  10  22  40  62  87 124 172 207 238 301 371
#     4  10  22  37  56  85 117 151 200 255 294 346
#
# _framework density 20.275105
#
# number of rings (size 3 to 8) (size 9 to 14) (size 15 to 20)
#    0.000    1.875    2.500    1.875    0.000    2.500 
#    0.000    0.625    0.000    1.875    0.000    0.000 
#    0.000    0.000    0.000    0.000    0.000    0.000 
#
# Total GULP energy -396653.213532 kJ/mol
# GULP energy per Si atom -12395.412923 kJ/mol
# Density = 2.022896 g / cm^3
# Si number density = 20.275105 Si / 1000 Ang^3
#
#
#
# Elastic Constant Matrix: (Units=GPa)
#
#
# Indices 1 2 3 4 5 6 
#
# 1 59.6689 41.4316 30.6044 0.0000 6.5686 0.0000
# 2 41.4316 107.7330 36.7891 0.0000 9.4034 0.0000
# 3 30.6044 36.7891 111.9156 0.0000 2.2728 0.0000
# 4 0.0000 0.0000 0.0000 28.1239 0.0000 2.4995
# 5 6.5686 9.4034 2.2728 0.0000 25.9837 0.0000
# 6 0.0000 0.0000 0.0000 2.4995 0.0000 22.5083
#
#
#
# Elastic Compliance Matrix: (Units=1/GPa)
#
#
# Indices 1 2 3 4 5 6 
#
# 1 0.024615 -0.007799 -0.004106 0.000000 -0.003041 0.000000
# 2 -0.007799 0.013253 -0.002170 0.000000 -0.002635 0.000000
# 3 -0.004106 -0.002170 0.010754 0.000000 0.000883 0.000000
# 4 0.000000 0.000000 0.000000 0.035911 0.000000 -0.003988
# 5 -0.003041 -0.002635 0.000883 0.000000 0.040131 0.000000
# 6 0.000000 0.000000 0.000000 -0.003988 0.000000 0.044871
#
#
# Mechanical properties :
#
#
# Convention : Reuss Voigt Hill
#
# Bulk Modulus (GPa) = 48.84876 55.21860 52.03368
# Shear Modulus (GPa) = 24.44899 26.68935 25.56917
#
# Velocity S-wave (km/s) = 3.47632 3.63210 3.55507
# Velocity P-wave (km/s) = 6.34495 6.69951 6.52464
#
# Compressibility (1/GPa) = 0.02047135
#
# Stress axis : x y z
#
# Youngs Moduli (GPa) = 40.62564 75.45733 92.99262
#
# Poissons Ratio (x) = 0.58848 0.38181
# Poissons Ratio (y) = 0.31683 0.20181
# Poissons Ratio (z) = 0.16680 0.16376
#
# Static dielectric constant tensor:
#      x y z
#    x 3.494930 0.000000 0.219720 
#    y 0.000000 4.091290 0.000000 
#    z 0.219720 0.000000 3.755110 
# 
# 
# High freq. dielectric constant tensor:
#      x y z
#    x 1.764130 0.000000 0.017360 
#    y 0.000000 1.803500 0.000000 
#    z 0.017360 0.000000 1.799600 
# 
# From -- ./inp_files/335649.got.cif
#   From: 2010.06.25/outbox.cif.g09.slc.cpg/sg12_168_cif.got.tgz:335649.got - 2010.06.28 00:19:55.
