data_PCOD8083062
_publ_section_title
;
Structure prediction by ZEFSAII (Michael W. Deem and Ramdas Pophale) SiO2 
 PCOD8083062
Probable space group: C 2/M
;
_chemical_formula_sum "Si O2"
_cell_formula_units_Z 64
_cell_length_a 24.494185
_cell_length_b 9.347124
_cell_length_c 19.953896
_cell_angle_alpha 90.000000
_cell_angle_beta 125.080950
_cell_angle_gamma 90.000000
_cell_volume 3738.547772
_symmetry_space_group_name_H-M "C 2/M"
_symmetry_group_IT_number 12
_symmetry_cell_setting 'monoclinic'
loop_
_space_group_symop_operation_xyz
x,y,z
-x,y,-z
-x,-y,-z
x,-y,z
1/2+x,1/2+y,z
1/2-x,1/2+y,-z
1/2-x,1/2-y,-z
1/2+x,1/2-y,z
loop_
_atom_site_type_symbol
_atom_site_label
_atom_site_fract_x
_atom_site_fract_y
_atom_site_fract_z
Si Si1 0.548162 0.831667 0.376728
Si Si2 0.326497 0.167366 0.797843
Si Si3 0.048097 0.163609 0.872103
Si Si4 0.917646 0.165632 0.248981
Si Si5 0.821324 0.832593 0.294292
Si Si6 0.427195 0.331712 0.477172
Si Si7 0.579292 0.163789 0.251909
Si Si8 0.924158 0.834524 0.962607
O O1 0.474578 0.766422 0.318676
O O2 0.586509 0.754210 0.464111
O O3 0.589104 0.798088 0.337217
O O4 0.542575 0.000000 0.387057
O O5 0.252268 0.235116 0.750007
O O6 0.352973 0.196083 0.741058
O O7 0.373193 0.240640 0.885118
O O8 0.326048 0.000000 0.814645
O O9 0.092758 0.196020 0.837575
O O10 0.979776 0.249554 0.823850
O O11 0.025046 0.000000 0.857075
O O12 0.089842 0.198495 0.968526
O O13 0.849350 0.202278 0.239708
O O14 0.938110 0.000000 0.276860
O O15 0.872408 0.773388 0.386058
O O16 0.815161 0.000000 0.301711
O O17 0.500000 0.294641 0.500000
O O18 0.420307 0.500000 0.486487
O O19 0.557760 0.000000 0.229706
O O20 0.911934 0.000000 0.936279
O O21 0.000000 0.790396 0.000000
#
# Coordination Sequence:
#
# PCOD8083062 Si02
#       8
#     8   8   8   8   8   8   8   8
#     4  10  19  30  47  74 103 126 155 202 250 290
#     4  10  20  34  52  72  97 133 167 199 242 292
#     4   9  17  29  50  74  96 125 162 204 245 283
#     4   9  16  31  52  72  95 128 167 201 239 289
#     4   9  18  33  52  73  97 126 166 207 240 283
#     4  10  18  32  53  75  97 126 167 208 239 281
#     4   9  18  31  47  70 100 129 159 197 244 290
#     4  10  19  32  49  74 103 128 161 206 247 287
#
# _framework density 17.118946000000001
#
# number of rings (size 3 to 8) (size 9 to 14) (size 15 to 20)
#    0.000    2.500    2.500    0.375    0.000    1.500 
#    0.000    2.500    0.000    0.000    0.000    0.000 
#    0.000    0.000    0.000    0.000    0.000    0.000 
#
# Total GULP energy -396694.657599 kJ/mol
# GULP energy per Si atom -12396.708050 kJ/mol
# Density = 1.707998 g / cm^3
# Si number density = 17.118946 Si / 1000 Ang^3
#
#
#
# Elastic Constant Matrix: (Units=GPa)
#
#
# Indices 1 2 3 4 5 6 
#
# 1 137.9668 41.2446 80.4136 0.0000 -4.2589 0.0000
# 2 41.2446 45.8568 40.5315 0.0000 -4.0562 0.0000
# 3 80.4136 40.5315 119.7513 0.0000 -5.2957 0.0000
# 4 0.0000 0.0000 0.0000 24.6289 0.0000 -6.0429
# 5 -4.2589 -4.0562 -5.2957 0.0000 28.2826 0.0000
# 6 0.0000 0.0000 0.0000 -6.0429 0.0000 16.1355
#
#
#
# Elastic Compliance Matrix: (Units=1/GPa)
#
#
# Indices 1 2 3 4 5 6 
#
# 1 0.012846 -0.005616 -0.006731 0.000000 -0.000131 0.000000
# 2 -0.005616 0.033749 -0.007537 0.000000 0.002583 0.000000
# 3 -0.006731 -0.007537 0.015457 0.000000 0.000800 0.000000
# 4 0.000000 0.000000 0.000000 0.044711 0.000000 0.016745
# 5 -0.000131 0.002583 0.000800 0.000000 0.035858 0.000000
# 6 0.000000 0.000000 0.000000 0.016745 0.000000 0.068246
#
#
# Mechanical properties :
#
#
# Convention : Reuss Voigt Hill
#
# Bulk Modulus (GPa) = 44.87767 69.77270 57.32518
# Shear Modulus (GPa) = 19.37502 23.23508 21.30505
#
# Velocity S-wave (km/s) = 3.36786 3.68812 3.53162
# Velocity P-wave (km/s) = 6.43392 7.68000 7.08441
#
# Compressibility (1/GPa) = 0.02228280
#
# Stress axis : x y z
#
# Youngs Moduli (GPa) = 77.84312 29.63074 64.69500
#
# Poissons Ratio (x) = 0.16642 0.43548
# Poissons Ratio (y) = 0.43719 0.48761
# Poissons Ratio (z) = 0.52398 0.22333
#
# Static dielectric constant tensor:
#      x y z
#    x 3.451410 0.000000 -0.263980 
#    y 0.000000 3.095970 0.000000 
#    z -0.263980 0.000000 3.247580 
# 
# 
# High freq. dielectric constant tensor:
#      x y z
#    x 1.658660 0.000000 -0.026670 
#    y 0.000000 1.647110 0.000000 
#    z -0.026670 0.000000 1.649180 
# 
# From -- ./inp_files/324238.got.cif
#   From: 2010.06.25/outbox.cif.g09.slc.cpg/sg12_163_cif.got.tgz:324238.got - 2010.06.28 00:19:55.
