data_PCOD8083338
_publ_section_title
;
Structure prediction by ZEFSAII (Michael W. Deem and Ramdas Pophale) SiO2 
 PCOD8083338
Probable space group: C 2/M
;
_chemical_formula_sum "Si O2"
_cell_formula_units_Z 48
_cell_length_a 27.105244
_cell_length_b 16.785279
_cell_length_c 13.319872
_cell_angle_alpha 90.000000
_cell_angle_beta 21.364091
_cell_angle_gamma 90.000000
_cell_volume 2207.664082
_symmetry_space_group_name_H-M "C 2/M"
_symmetry_group_IT_number 12
_symmetry_cell_setting 'monoclinic'
loop_
_space_group_symop_operation_xyz
x,y,z
-x,y,-z
-x,-y,-z
x,-y,z
1/2+x,1/2+y,z
1/2-x,1/2+y,-z
1/2-x,1/2-y,-z
1/2+x,1/2-y,z
loop_
_atom_site_type_symbol
_atom_site_label
_atom_site_fract_x
_atom_site_fract_y
_atom_site_fract_z
Si Si1 0.765017 0.805564 0.345725
Si Si2 0.434041 0.868400 0.521700
Si Si3 0.148781 0.909306 0.988755
Si Si4 0.325857 0.087848 0.071786
Si Si5 0.366155 0.848854 0.204961
Si Si6 0.400776 0.707975 0.496690
O O1 0.805187 0.884142 0.209409
O O2 0.742181 0.838844 0.500782
O O3 0.886198 0.740200 0.119804
O O4 0.639894 0.757204 0.528292
O O5 0.500000 0.898252 0.500000
O O6 0.281304 0.902837 0.808230
O O7 0.430409 0.772532 0.526374
O O8 0.524035 0.899100 0.257318
O O9 0.094681 0.000000 0.091641
O O10 0.030645 0.848582 0.242169
O O11 0.323769 0.091114 0.197436
O O12 0.223050 0.154663 0.226351
O O13 0.274359 0.000000 0.139216
O O14 0.500000 0.883908 0.000000
#
# Coordination Sequence:
#
# PCOD8083338 Si02
#       6
#     8   8   8   8   8   8
#     4   9  19  34  56  83 119 159 198 238 280 332
#     4  11  24  43  65  86 112 151 197 241 290 354
#     4  11  22  37  61  92 122 152 190 239 293 347
#     4  11  24  40  59  88 124 154 188 244 302 344
#     4  10  18  32  56  82 113 158 204 236 274 336
#     4  10  21  41  64  87 116 156 200 238 284 345
#
# _framework density 21.742438
#
# number of rings (size 3 to 8) (size 9 to 14) (size 15 to 20)
#    0.000    1.667    0.000    7.000    0.000    5.000 
#    0.000    0.000    0.000   13.500    0.000    0.000 
#    0.000    0.000    0.000    0.000    0.000    0.000 
#
# Total GULP energy -297371.273437 kJ/mol
# GULP energy per Si atom -12390.469727 kJ/mol
# Density = 2.169295 g / cm^3
# Si number density = 21.742438 Si / 1000 Ang^3
#
#
#
# Elastic Constant Matrix: (Units=GPa)
#
#
# Indices 1 2 3 4 5 6 
#
# 1 55.7159 3.1779 1.3207 0.0000 -0.1389 -0.0001
# 2 3.1779 120.7838 19.3397 -0.0001 3.5596 -0.0002
# 3 1.3207 19.3397 80.5433 -0.0001 -7.3166 -0.0004
# 4 0.0000 -0.0001 -0.0001 25.8086 -0.0001 -6.1085
# 5 -0.1389 3.5596 -7.3166 -0.0001 19.4506 0.0000
# 6 -0.0001 -0.0002 -0.0004 -6.1085 0.0000 13.4267
#
#
#
# Elastic Compliance Matrix: (Units=1/GPa)
#
#
# Indices 1 2 3 4 5 6 
#
# 1 0.017978 -0.000449 -0.000174 0.000000 0.000145 0.000000
# 2 -0.000449 0.008735 -0.002315 0.000000 -0.002472 0.000000
# 3 -0.000174 -0.002315 0.013473 0.000000 0.005490 0.000000
# 4 0.000000 0.000000 0.000000 0.043423 0.000000 0.019755
# 5 0.000145 -0.002472 0.005490 0.000000 0.053931 0.000000
# 6 0.000000 0.000000 0.000000 0.019755 0.000000 0.083466
#
#
# Mechanical properties :
#
#
# Convention : Reuss Voigt Hill
#
# Bulk Modulus (GPa) = 29.14558 33.85772 31.50165
# Shear Modulus (GPa) = 20.98039 27.28417 24.13228
#
# Velocity S-wave (km/s) = 3.10974 3.54627 3.33515
# Velocity P-wave (km/s) = 5.13108 5.68982 5.41766
#
# Compressibility (1/GPa) = 0.03431052
#
# Stress axis : x y z
#
# Youngs Moduli (GPa) = 55.62259 114.48801 74.22241
#
# Poissons Ratio (x) = 0.05146 0.01289
# Poissons Ratio (y) = 0.02500 0.17179
# Poissons Ratio (z) = 0.00966 0.26498
#
# Static dielectric constant tensor:
#      x y z
#    x 3.816870 0.000000 -0.124320 
#    y 0.000000 3.951970 0.000000 
#    z -0.124320 0.000000 3.864110 
# 
# 
# High freq. dielectric constant tensor:
#      x y z
#    x 1.841760 0.000000 -0.006460 
#    y 0.000000 1.853380 0.000000 
#    z -0.006460 0.000000 1.844380 
# 
# From -- ./inp_files/251418.got.cif
#   From: 2010.06.25/outbox.cif.g09.slc.cpg/sg12_126_cif.got.tgz:251418.got - 2010.06.28 00:19:55.
