data_PCOD8083667
_publ_section_title
;
Structure prediction by ZEFSAII (Michael W. Deem and Ramdas Pophale) SiO2 
 PCOD8083667
Probable space group: C 2/M
;
_chemical_formula_sum "Si O2"
_cell_formula_units_Z 48
_cell_length_a 23.595451
_cell_length_b 8.788895
_cell_length_c 12.322245
_cell_angle_alpha 90.000000
_cell_angle_beta 109.946752
_cell_angle_gamma 90.000000
_cell_volume 2402.065831
_symmetry_space_group_name_H-M "C 2/M"
_symmetry_group_IT_number 12
_symmetry_cell_setting 'monoclinic'
loop_
_space_group_symop_operation_xyz
x,y,z
-x,y,-z
-x,-y,-z
x,-y,z
1/2+x,1/2+y,z
1/2-x,1/2+y,-z
1/2-x,1/2-y,-z
1/2+x,1/2-y,z
loop_
_atom_site_type_symbol
_atom_site_label
_atom_site_fract_x
_atom_site_fract_y
_atom_site_fract_z
Si Si1 0.603485 0.180357 0.814516
Si Si2 0.642960 0.181015 0.465507
Si Si3 0.432137 0.819545 0.969520
Si Si4 0.196164 0.820111 0.717488
Si Si5 0.510877 0.170122 0.380827
Si Si6 0.327188 0.179641 0.750475
O O1 0.662976 0.252596 0.800683
O O2 0.544699 0.251682 0.715856
O O3 0.607903 0.000000 0.800402
O O4 0.597611 0.227641 0.935660
O O5 0.670082 0.261040 0.587388
O O6 0.575430 0.246058 0.400808
O O7 0.678492 0.228308 0.379623
O O8 0.642184 0.000000 0.486654
O O9 0.386806 0.751898 0.848256
O O10 0.436573 0.000000 0.963455
O O11 0.500000 0.751562 0.000000
O O12 0.266093 0.767959 0.770780
O O13 0.189754 0.000000 0.714602
O O14 0.500000 0.170037 0.500000
O O15 0.513502 0.000000 0.334466
O O16 0.333489 0.000000 0.760415
#
# Coordination Sequence:
#
# PCOD8083667 Si02
#       6
#     8   8   8   8   8   8
#     4  10  19  33  55  80 104 134 172 212 256 308
#     4  10  18  33  56  76 101 135 174 215 260 306
#     4   9  17  32  56  83 104 125 168 222 263 302
#     4  11  22  34  48  73 111 143 171 207 254 305
#     4   9  15  26  48  77 101 121 159 214 259 291
#     4   9  19  33  50  75 105 137 168 212 264 303
#
# _framework density 19.982800999999998
#
# number of rings (size 3 to 8) (size 9 to 14) (size 15 to 20)
#    0.000    2.333    1.667    2.000    0.000    4.667 
#    0.000    2.500    0.000    2.500    0.000    0.000 
#    0.000    0.000    0.000    0.000    0.000    0.000 
#
# Total GULP energy -297446.609423 kJ/mol
# GULP energy per Si atom -12393.608726 kJ/mol
# Density = 1.993732 g / cm^3
# Si number density = 19.982801 Si / 1000 Ang^3
#
#
#
# Elastic Constant Matrix: (Units=GPa)
#
#
# Indices 1 2 3 4 5 6 
#
# 1 167.4998 28.0190 58.5501 0.0000 -8.6904 0.0000
# 2 28.0190 29.7227 14.5585 0.0000 -3.4379 0.0000
# 3 58.5501 14.5585 94.7066 0.0000 -7.3068 0.0000
# 4 0.0000 0.0000 0.0000 -6.5952 0.0000 -5.2404
# 5 -8.6904 -3.4379 -7.3068 0.0000 31.4845 0.0000
# 6 0.0000 0.0000 0.0000 -5.2404 0.0000 24.3324
#
#
#
# Elastic Compliance Matrix: (Units=1/GPa)
#
#
# Indices 1 2 3 4 5 6 
#
# 1 0.008480 -0.005808 -0.004295 0.000000 0.000710 0.000000
# 2 -0.005808 0.040593 -0.002475 0.000000 0.002255 0.000000
# 3 -0.004295 -0.002475 0.013728 0.000000 0.001730 0.000000
# 4 0.000000 0.000000 0.000000 -0.129469 0.000000 -0.027884
# 5 0.000710 0.002255 0.001730 0.000000 0.032605 0.000000
# 6 0.000000 0.000000 0.000000 -0.027884 0.000000 0.035092
#
#
# Mechanical properties :
#
#
# Convention : Reuss Voigt Hill
#
# Bulk Modulus (GPa) = 26.56454 54.90935 40.73695
# Shear Modulus (GPa) = 129.08759 22.56443 75.82601
#
# Velocity S-wave (km/s) = 8.04609 3.36399 6.16669
# Velocity P-wave (km/s) = 9.98208 6.52890 8.43411
#
# Compressibility (1/GPa) = 0.03764416
#
# Stress axis : x y z
#
# Youngs Moduli (GPa) = 117.92712 24.63496 72.84307
#
# Poissons Ratio (x) = 0.14308 0.31285
# Poissons Ratio (y) = 0.68492 0.18032
# Poissons Ratio (z) = 0.50648 0.06098
#
# Static dielectric constant tensor:
#      x y z
#    x 4.041220 0.000000 0.093770 
#    y 0.000000 3.058730 0.000000 
#    z 0.093770 0.000000 3.741860 
# 
# 
# High freq. dielectric constant tensor:
#      x y z
#    x 1.802170 0.000000 -0.000300 
#    y 0.000000 1.709440 0.000000 
#    z -0.000300 0.000000 1.785360 
# 
# From -- ./inp_files/172858.got.cif
#   From: 2010.06.25/outbox.cif.g09.slc.cpg/sg12_87_cif.got.tgz:172858.got - 2010.06.28 00:19:55.
