data_PCOD8083641
_publ_section_title
;
Structure prediction by ZEFSAII (Michael W. Deem and Ramdas Pophale) SiO2 
 PCOD8083641
Probable space group: C 2/M
;
_chemical_formula_sum "Si O2"
_cell_formula_units_Z 64
_cell_length_a 22.580120
_cell_length_b 16.310916
_cell_length_c 14.108676
_cell_angle_alpha 90.000000
_cell_angle_beta 43.237918
_cell_angle_gamma 90.000000
_cell_volume 3559.590648
_symmetry_space_group_name_H-M "C 2/M"
_symmetry_group_IT_number 12
_symmetry_cell_setting 'monoclinic'
loop_
_space_group_symop_operation_xyz
x,y,z
-x,y,-z
-x,-y,-z
x,-y,z
1/2+x,1/2+y,z
1/2-x,1/2+y,-z
1/2-x,1/2-y,-z
1/2+x,1/2-y,z
loop_
_atom_site_type_symbol
_atom_site_label
_atom_site_fract_x
_atom_site_fract_y
_atom_site_fract_z
Si Si1 0.590888 0.405768 0.921109
Si Si2 0.765476 0.097262 0.383974
Si Si3 0.407897 0.088347 0.724391
Si Si4 0.594178 0.869233 0.483300
Si Si5 0.435010 0.592611 0.834574
Si Si6 0.090780 0.806185 0.428955
Si Si7 0.158752 0.758598 0.156255
Si Si8 0.868689 0.093630 0.441155
O O1 0.584764 0.500000 0.895687
O O2 0.670438 0.365301 0.771128
O O3 0.500000 0.362263 0.000000
O O4 0.607273 0.397352 0.013270
O O5 0.668723 0.126685 0.475316
O O6 0.797287 0.128512 0.450352
O O7 0.767927 0.000000 0.378204
O O8 0.373454 0.098526 0.656636
O O9 0.511365 0.078654 0.610519
O O10 0.380638 0.167901 0.816836
O O11 0.370560 0.000000 0.805614
O O12 0.559915 0.776316 0.517078
O O13 0.413496 0.500000 0.820780
O O14 0.395760 0.665542 0.819686
O O15 0.538084 0.604240 0.717021
O O16 0.159950 0.781516 0.266669
O O17 0.139331 0.862493 0.448166
O O18 0.000000 0.848079 0.500000
O O19 0.250000 0.750000 0.000000
O O20 0.848608 0.000000 0.486953
#
# Coordination Sequence:
#
# PCOD8083641 Si02
#       8
#     8   8   8   8   8   8   8   8
#     4   9  16  28  46  74 112 146 174 212 268 329
#     4  10  19  30  49  82 114 141 181 231 275 328
#     4  10  19  35  56  78 104 142 181 224 283 334
#     4  10  18  33  55  80 106 136 176 230 280 329
#     4  10  19  33  54  78 109 149 184 217 274 338
#     4  11  20  38  55  75 108 146 181 227 279 324
#     4  11  24  38  53  79 111 141 183 239 274 327
#     4  10  20  34  54  80 110 147 188 220 264 336
#
# _framework density 17.979596000000001
#
# number of rings (size 3 to 8) (size 9 to 14) (size 15 to 20)
#    0.000    1.875    5.000    1.500    3.500    1.750 
#    0.000    0.000    0.000    0.000    0.000    0.000 
#    0.000    3.500    0.000    0.000    0.000    0.000 
#
# Total GULP energy -396492.620341 kJ/mol
# GULP energy per Si atom -12390.394386 kJ/mol
# Density = 1.793867 g / cm^3
# Si number density = 17.979596 Si / 1000 Ang^3
#
#
#
# Elastic Constant Matrix: (Units=GPa)
#
#
# Indices 1 2 3 4 5 6 
#
# 1 123.5423 44.8552 36.5273 0.0000 -3.8738 0.0000
# 2 44.8552 103.7798 23.1449 0.0000 4.3906 0.0000
# 3 36.5273 23.1449 78.4950 0.0000 3.8703 0.0000
# 4 0.0000 0.0000 0.0000 13.8736 0.0000 1.4518
# 5 -3.8738 4.3906 3.8703 0.0000 19.7464 0.0000
# 6 0.0000 0.0000 0.0000 1.4518 0.0000 20.2533
#
#
#
# Elastic Compliance Matrix: (Units=1/GPa)
#
#
# Indices 1 2 3 4 5 6 
#
# 1 0.010849 -0.003942 -0.004074 0.000000 0.003803 0.000000
# 2 -0.003942 0.011804 -0.001493 0.000000 -0.003105 0.000000
# 3 -0.004074 -0.001493 0.015246 0.000000 -0.003455 0.000000
# 4 0.000000 0.000000 0.000000 0.072624 0.000000 -0.005206
# 5 0.003803 -0.003105 -0.003455 0.000000 0.052756 0.000000
# 6 0.000000 0.000000 0.000000 -0.005206 0.000000 0.049748
#
#
# Mechanical properties :
#
#
# Convention : Reuss Voigt Hill
#
# Bulk Modulus (GPa) = 52.96113 57.20800 55.08456
# Shear Modulus (GPa) = 20.97856 24.19396 22.58626
#
# Velocity S-wave (km/s) = 3.41955 3.67227 3.54816
# Velocity P-wave (km/s) = 6.71649 7.06174 6.89128
#
# Compressibility (1/GPa) = 0.01888177
#
# Stress axis : x y z
#
# Youngs Moduli (GPa) = 92.17199 84.71874 65.59048
#
# Poissons Ratio (x) = 0.33392 0.26722
# Poissons Ratio (y) = 0.36330 0.09794
# Poissons Ratio (z) = 0.37551 0.12650
#
# Static dielectric constant tensor:
#      x y z
#    x 3.416710 0.000000 -0.084080 
#    y 0.000000 3.351570 0.000000 
#    z -0.084080 0.000000 3.280560 
# 
# 
# High freq. dielectric constant tensor:
#      x y z
#    x 1.684830 0.000000 -0.005060 
#    y 0.000000 1.684360 0.000000 
#    z -0.005060 0.000000 1.674930 
# 
# From -- ./inp_files/240692.got.cif
#   From: 2010.06.25/outbox.cif.g09.slc.cpg/sg12_121_cif.got.tgz:240692.got - 2010.06.28 00:19:55.
