data_PCOD8083605
_publ_section_title
;
Structure prediction by ZEFSAII (Michael W. Deem and Ramdas Pophale) SiO2 
 PCOD8083605
Probable space group: C 2/M
;
_chemical_formula_sum "Si O2"
_cell_formula_units_Z 56
_cell_length_a 9.602605
_cell_length_b 27.616191
_cell_length_c 13.554231
_cell_angle_alpha 90.000000
_cell_angle_beta 59.355919
_cell_angle_gamma 90.000000
_cell_volume 3092.451929
_symmetry_space_group_name_H-M "C 2/M"
_symmetry_group_IT_number 12
_symmetry_cell_setting 'monoclinic'
loop_
_space_group_symop_operation_xyz
x,y,z
-x,y,-z
-x,-y,-z
x,-y,z
1/2+x,1/2+y,z
1/2-x,1/2+y,-z
1/2-x,1/2-y,-z
1/2+x,1/2-y,z
loop_
_atom_site_type_symbol
_atom_site_label
_atom_site_fract_x
_atom_site_fract_y
_atom_site_fract_z
Si Si1 0.757221 0.106359 0.324383
Si Si2 0.992772 0.442539 0.295564
Si Si3 0.605911 0.206171 0.363654
Si Si4 0.612105 0.056293 0.042438
Si Si5 0.522315 0.444290 0.104062
Si Si6 0.177677 0.891508 0.470135
Si Si7 0.783764 0.284643 0.395903
O O1 0.598031 0.076546 0.349755
O O2 0.731194 0.162464 0.306724
O O3 0.791599 0.098029 0.426528
O O4 0.916605 0.089606 0.210644
O O5 0.984489 0.500000 0.305119
O O6 0.811576 0.421499 0.361550
O O7 0.079249 0.423129 0.164029
O O8 0.500000 0.196386 0.500000
O O9 0.708221 0.256334 0.329263
O O10 0.478513 0.207653 0.318099
O O11 0.570037 0.000000 0.065139
O O12 0.500000 0.081477 0.000000
O O13 0.791707 0.064784 0.937603
O O14 0.468701 0.500000 0.139341
O O15 0.500000 0.428900 0.000000
O O16 0.191147 0.834875 0.441068
O O17 0.000000 0.909371 0.500000
O O18 0.750000 0.250000 0.500000
#
# Coordination Sequence:
#
# PCOD8083605 Si02
#       7
#     8   8   8   8   8   8   8
#     4  12  21  36  57  85 117 152 194 237 289 356
#     4  11  23  40  59  81 119 161 192 234 290 350
#     4  10  18  33  54  83 112 147 189 236 288 343
#     4   9  19  37  59  81 107 146 198 246 285 328
#     4  10  20  36  58  82 107 146 199 245 280 332
#     4  12  25  37  53  86 123 153 196 234 292 359
#     4  10  18  34  56  77 113 148 190 241 282 335
#
# _framework density 18.108609000000001
#
# number of rings (size 3 to 8) (size 9 to 14) (size 15 to 20)
#    0.000    1.429    5.714    2.143    2.000    2.000 
#    0.000    0.000    0.000    0.000    0.000    5.000 
#    0.000    0.000    0.000    0.000    0.000    0.000 
#
# Total GULP energy -347139.844902 kJ/mol
# GULP energy per Si atom -12397.851604 kJ/mol
# Density = 1.806739 g / cm^3
# Si number density = 18.108609 Si / 1000 Ang^3
#
#
#
# Elastic Constant Matrix: (Units=GPa)
#
#
# Indices 1 2 3 4 5 6 
#
# 1 103.5969 19.3124 27.4824 0.0000 9.4973 0.0000
# 2 19.3124 79.1764 40.3988 0.0000 3.0969 0.0000
# 3 27.4824 40.3988 74.1990 0.0000 -4.1382 0.0000
# 4 0.0000 0.0000 0.0000 4.9234 0.0000 -0.3209
# 5 9.4973 3.0969 -4.1382 0.0000 11.6274 0.0000
# 6 0.0000 0.0000 0.0000 -0.3209 0.0000 27.8668
#
#
#
# Elastic Compliance Matrix: (Units=1/GPa)
#
#
# Indices 1 2 3 4 5 6 
#
# 1 0.012088 0.000183 -0.005234 0.000000 -0.011785 0.000000
# 2 0.000183 0.018295 -0.010518 0.000000 -0.008766 0.000000
# 3 -0.005234 -0.010518 0.021973 0.000000 0.014897 0.000000
# 4 0.000000 0.000000 0.000000 0.203263 0.000000 0.002341
# 5 -0.011785 -0.008766 0.014897 0.000000 0.103266 0.000000
# 6 0.000000 0.000000 0.000000 0.002341 0.000000 0.035912
#
#
# Mechanical properties :
#
#
# Convention : Reuss Voigt Hill
#
# Bulk Modulus (GPa) = 47.12859 47.92885 47.52872
# Shear Modulus (GPa) = 11.54719 20.20211 15.87465
#
# Velocity S-wave (km/s) = 2.52794 3.34370 2.96402
# Velocity P-wave (km/s) = 5.88240 6.43677 6.16582
#
# Compressibility (1/GPa) = 0.02121854
#
# Stress axis : x y z
#
# Youngs Moduli (GPa) = 82.72985 54.66084 45.51003
#
# Poissons Ratio (x) = -0.01002 0.23820
# Poissons Ratio (y) = -0.01516 0.47865
# Poissons Ratio (z) = 0.43302 0.57490
#
# Static dielectric constant tensor:
#      x y z
#    x 4.083080 0.000000 -0.121360 
#    y 0.000000 3.316120 0.000000 
#    z -0.121360 0.000000 3.234070 
# 
# 
# High freq. dielectric constant tensor:
#      x y z
#    x 1.725830 0.000000 -0.010590 
#    y 0.000000 1.686480 0.000000 
#    z -0.010590 0.000000 1.665110 
# 
# From -- ./inp_files/199714.got.cif
#   From: 2010.06.25/outbox.cif.g09.slc.cpg/sg12_100_cif.got.tgz:199714.got - 2010.06.28 00:19:55.
