data_PCOD8083973
_publ_section_title
;
Structure prediction by ZEFSAII (Michael W. Deem and Ramdas Pophale) SiO2 
 PCOD8083973
Probable space group: C 2/M
;
_chemical_formula_sum "Si O2"
_cell_formula_units_Z 48
_cell_length_a 18.850060
_cell_length_b 29.334690
_cell_length_c 8.930305
_cell_angle_alpha 90.000000
_cell_angle_beta 30.649876
_cell_angle_gamma 90.000000
_cell_volume 2517.400239
_symmetry_space_group_name_H-M "C 2/M"
_symmetry_group_IT_number 12
_symmetry_cell_setting 'monoclinic'
loop_
_space_group_symop_operation_xyz
x,y,z
-x,y,-z
-x,-y,-z
x,-y,z
1/2+x,1/2+y,z
1/2-x,1/2+y,-z
1/2-x,1/2-y,-z
1/2+x,1/2-y,z
loop_
_atom_site_type_symbol
_atom_site_label
_atom_site_fract_x
_atom_site_fract_y
_atom_site_fract_z
Si Si1 0.205693 0.500000 0.551074
Si Si2 0.723401 0.099876 0.442112
Si Si3 0.359713 0.758569 0.172319
Si Si4 0.587868 0.000000 0.072794
Si Si5 0.739121 0.350310 0.311219
Si Si6 0.442435 0.664360 0.937466
Si Si7 0.551961 0.904517 0.243974
O O1 0.276192 0.547230 0.365188
O O2 0.051476 0.500000 0.769145
O O3 0.209383 0.500000 0.726044
O O4 0.723164 0.125631 0.600594
O O5 0.567161 0.103324 0.663608
O O6 0.826891 0.124594 0.136387
O O7 0.250000 0.750000 0.500000
O O8 0.305354 0.800422 0.173640
O O9 0.500000 0.772957 0.000000
O O10 0.376885 0.714721 0.030260
O O11 0.597477 0.042848 0.165393
O O12 0.571527 0.346827 0.592853
O O13 0.807184 0.377843 0.051823
O O14 0.500000 0.666368 0.000000
O O15 0.500000 0.888542 0.500000
#
# Coordination Sequence:
#
# PCOD8083973 Si02
#       7
#     4   8   8   4   8   8   8
#     4   9  16  28  54  82 104 136 167 219 268 310
#     4  10  18  34  54  78 107 136 174 216 265 308
#     4  11  17  29  50  83 109 133 167 220 270 310
#     4   9  17  32  51  77 108 134 176 217 263 299
#     4  11  20  33  54  80 108 133 176 221 264 310
#     4   9  19  32  49  81 111 132 169 220 265 315
#     4  11  22  34  53  78 106 143 181 215 255 313
#
# _framework density 19.067288999999999
#
# number of rings (size 3 to 8) (size 9 to 14) (size 15 to 20)
#    0.000    1.833    6.667    1.750    0.000    0.000 
#    0.000    5.417    0.000    4.000    0.000    4.667 
#    0.000    0.000    0.000    0.000    0.000    0.000 
#
# Total GULP energy -297468.611677 kJ/mol
# GULP energy per Si atom -12394.525487 kJ/mol
# Density = 1.902389 g / cm^3
# Si number density = 19.067289 Si / 1000 Ang^3
#
#
#
# Elastic Constant Matrix: (Units=GPa)
#
#
# Indices 1 2 3 4 5 6 
#
# 1 15.4554 14.2543 21.1991 0.0000 4.3073 0.0000
# 2 14.2543 156.2061 72.2066 0.0000 -7.4263 0.0000
# 3 21.1991 72.2066 151.8234 0.0000 -5.5050 0.0000
# 4 0.0000 0.0000 0.0000 28.5651 0.0000 -10.2313
# 5 4.3073 -7.4263 -5.5050 0.0000 24.6365 0.0000
# 6 0.0000 0.0000 0.0000 -10.2313 0.0000 4.7233
#
#
#
# Elastic Compliance Matrix: (Units=1/GPa)
#
#
# Indices 1 2 3 4 5 6 
#
# 1 0.089127 -0.003811 -0.011331 0.000000 -0.019263 0.000001
# 2 -0.003811 0.008433 -0.003390 0.000000 0.002451 0.000000
# 3 -0.011331 -0.003390 0.009896 0.000000 0.003170 0.000000
# 4 0.000000 0.000000 0.000000 0.156185 0.000000 0.338321
# 5 -0.019263 0.002451 0.003170 0.000000 0.045405 0.000000
# 6 0.000001 0.000000 0.000000 0.338321 0.000000 0.944570
#
#
# Mechanical properties :
#
#
# Convention : Reuss Voigt Hill
#
# Bulk Modulus (GPa) = 14.20599 59.86721 37.03660
# Shear Modulus (GPa) = 3.80476 25.97328 14.88902
#
# Velocity S-wave (km/s) = 1.41413 3.69479 2.79743
# Velocity P-wave (km/s) = 3.18323 7.04755 5.46813
#
# Compressibility (1/GPa) = 0.07039284
#
# Stress axis : x y z
#
# Youngs Moduli (GPa) = 11.21989 118.58186 101.05342
#
# Poissons Ratio (x) = 0.45196 1.14500
# Poissons Ratio (y) = 0.04276 0.34254
# Poissons Ratio (z) = 0.12713 0.40195
#
# Static dielectric constant tensor:
#      x y z
#    x 2.905890 0.000000 -0.244760 
#    y 0.000000 7.790060 0.000000 
#    z -0.244760 0.000000 3.698810 
# 
# 
# High freq. dielectric constant tensor:
#      x y z
#    x 1.675720 0.000000 -0.015000 
#    y 0.000000 1.762140 0.000000 
#    z -0.015000 0.000000 1.739800 
# 
# From -- ./inp_files/91395.got.cif
#   From: 2010.06.25/outbox.cif.g09.slc.cpg/sg12_46_cif.got.tgz:91395.got - 2010.06.28 00:19:55.
