data_PCOD8083599
_publ_section_title
;
Structure prediction by ZEFSAII (Michael W. Deem and Ramdas Pophale) SiO2 
 PCOD8083599
Probable space group: C 2/M
;
_chemical_formula_sum "Si O2"
_cell_formula_units_Z 56
_cell_length_a 19.384636
_cell_length_b 18.065229
_cell_length_c 9.056546
_cell_angle_alpha 90.000000
_cell_angle_beta 61.866201
_cell_angle_gamma 90.000000
_cell_volume 2796.777242
_symmetry_space_group_name_H-M "C 2/M"
_symmetry_group_IT_number 12
_symmetry_cell_setting 'monoclinic'
loop_
_space_group_symop_operation_xyz
x,y,z
-x,y,-z
-x,-y,-z
x,-y,z
1/2+x,1/2+y,z
1/2-x,1/2+y,-z
1/2-x,1/2-y,-z
1/2+x,1/2-y,z
loop_
_atom_site_type_symbol
_atom_site_label
_atom_site_fract_x
_atom_site_fract_y
_atom_site_fract_z
Si Si1 0.039624 0.334021 0.813383
Si Si2 0.318171 0.085824 0.192380
Si Si3 0.055873 0.586108 0.319707
Si Si4 0.472742 0.697333 0.357931
Si Si5 0.699661 0.838427 0.103018
Si Si6 0.359688 0.324428 0.857918
Si Si7 0.353076 0.415562 0.574385
O O1 0.113063 0.386646 0.770719
O O2 0.066809 0.269629 0.673828
O O3 0.970619 0.383146 0.811615
O O4 0.000000 0.300506 0.000000
O O5 0.238908 0.091194 0.371122
O O6 0.332130 0.000000 0.129260
O O7 0.311373 0.139296 0.057762
O O8 0.046887 0.500000 0.329914
O O9 0.146386 0.608200 0.257743
O O10 0.000000 0.621827 0.500000
O O11 0.500000 0.711199 0.500000
O O12 0.550487 0.681411 0.178138
O O13 0.408944 0.632024 0.409685
O O14 0.670396 0.755607 0.168761
O O15 0.792991 0.847879 0.046326
O O16 0.363271 0.386580 0.729482
O O17 0.382222 0.500000 0.536274
#
# Coordination Sequence:
#
# PCOD8083599 Si02
#       7
#     8   8   8   8   8   8   8
#     4  12  22  34  57  83 114 150 195 225 275 340
#     4  10  20  35  55  83 116 150 191 233 273 333
#     4  11  23  36  54  82 115 151 188 231 282 334
#     4  10  20  36  58  84 117 144 183 238 286 328
#     4  10  18  33  54  79 113 149 184 224 282 330
#     4   9  18  31  54  82 108 146 180 231 275 333
#     4   9  20  36  57  84 112 144 188 240 289 331
#
# _framework density 20.023046000000001
#
# number of rings (size 3 to 8) (size 9 to 14) (size 15 to 20)
#    0.000    1.857    2.857    1.286    2.000    4.286 
#    0.000    0.000    3.143    0.429    0.000    1.000 
#    0.000    0.000    0.000    0.000    0.000    0.000 
#
# Total GULP energy -346888.206998 kJ/mol
# GULP energy per Si atom -12388.864536 kJ/mol
# Density = 1.997747 g / cm^3
# Si number density = 20.023046 Si / 1000 Ang^3
#
#
#
# Elastic Constant Matrix: (Units=GPa)
#
#
# Indices 1 2 3 4 5 6 
#
# 1 65.0747 31.0672 36.6260 0.0000 -26.4310 0.0000
# 2 31.0672 114.1371 37.5976 0.0000 -12.6210 0.0000
# 3 36.6260 37.5976 88.0115 0.0000 -32.0511 0.0000
# 4 0.0000 0.0000 0.0000 26.3807 0.0000 -6.9711
# 5 -26.4310 -12.6210 -32.0511 0.0000 38.7554 0.0000
# 6 0.0000 0.0000 0.0000 -6.9711 0.0000 29.0243
#
#
#
# Elastic Compliance Matrix: (Units=1/GPa)
#
#
# Indices 1 2 3 4 5 6 
#
# 1 0.024443 -0.003974 -0.004114 0.000000 0.011974 0.000000
# 2 -0.003974 0.010847 -0.003836 0.000000 -0.002350 0.000000
# 3 -0.004114 -0.003836 0.018940 0.000000 0.011609 0.000000
# 4 0.000000 0.000000 0.000000 0.040475 0.000000 0.009721
# 5 0.011974 -0.002350 0.011609 0.000000 0.042804 0.000000
# 6 0.000000 0.000000 0.000000 0.009721 0.000000 0.036789
#
#
# Mechanical properties :
#
#
# Convention : Reuss Voigt Hill
#
# Bulk Modulus (GPa) = 32.91325 53.08943 43.00134
# Shear Modulus (GPa) = 24.00696 29.62757 26.81727
#
# Velocity S-wave (km/s) = 3.46637 3.85083 3.66364
# Velocity P-wave (km/s) = 5.70038 6.80761 6.27845
#
# Compressibility (1/GPa) = 0.03038290
#
# Stress axis : x y z
#
# Youngs Moduli (GPa) = 40.91193 92.19394 52.79734
#
# Poissons Ratio (x) = 0.36638 0.21720
# Poissons Ratio (y) = 0.16258 0.20251
# Poissons Ratio (z) = 0.16830 0.35362
#
# Static dielectric constant tensor:
#      x y z
#    x 3.882020 0.000000 -0.670650 
#    y 0.000000 3.670360 0.000000 
#    z -0.670650 0.000000 3.899790 
# 
# 
# High freq. dielectric constant tensor:
#      x y z
#    x 1.764550 0.000000 -0.050100 
#    y 0.000000 1.785950 0.000000 
#    z -0.050100 0.000000 1.762680 
# 
# From -- ./inp_files/87826.got.cif
#   From: 2010.06.25/outbox.cif.g09.slc.cpg/sg12_44_cif.got.tgz:87826.got - 2010.06.28 00:19:55.
