data_PCOD8083625
_publ_section_title
;
Structure prediction by ZEFSAII (Michael W. Deem and Ramdas Pophale) SiO2 
 PCOD8083625
Probable space group: C 2/M
;
_chemical_formula_sum "Si O2"
_cell_formula_units_Z 56
_cell_length_a 23.926086
_cell_length_b 8.989887
_cell_length_c 15.772232
_cell_angle_alpha 90.000000
_cell_angle_beta 118.315394
_cell_angle_gamma 90.000000
_cell_volume 2986.581638
_symmetry_space_group_name_H-M "C 2/M"
_symmetry_group_IT_number 12
_symmetry_cell_setting 'monoclinic'
loop_
_space_group_symop_operation_xyz
x,y,z
-x,y,-z
-x,-y,-z
x,-y,z
1/2+x,1/2+y,z
1/2-x,1/2+y,-z
1/2-x,1/2-y,-z
1/2+x,1/2-y,z
loop_
_atom_site_type_symbol
_atom_site_label
_atom_site_fract_x
_atom_site_fract_y
_atom_site_fract_z
Si Si1 0.560809 0.167337 0.602452
Si Si2 0.394177 0.176790 0.673761
Si Si3 0.974949 0.172251 0.255433
Si Si4 0.838168 0.675746 0.457319
Si Si5 0.706593 0.323993 0.286918
Si Si6 0.739329 0.675022 0.123125
Si Si7 0.658672 0.671765 0.906917
O O1 0.500000 0.159957 0.500000
O O2 0.548403 0.280220 0.669054
O O3 0.619143 0.234059 0.589904
O O4 0.575565 0.000000 0.647230
O O5 0.466379 0.230039 0.733873
O O6 0.363082 0.240833 0.564537
O O7 0.355801 0.241528 0.725311
O O8 0.392625 0.000000 0.675365
O O9 0.916744 0.200390 0.148736
O O10 0.994964 0.000000 0.272056
O O11 0.846109 0.500000 0.465561
O O12 0.765578 0.723054 0.389318
O O13 0.695196 0.500000 0.280865
O O14 0.719504 0.265962 0.201174
O O15 0.747907 0.500000 0.133063
O O16 0.807276 0.740918 0.145053
O O17 0.685362 0.725264 0.017150
O O18 0.674730 0.500000 0.903957
#
# Coordination Sequence:
#
# PCOD8083625 Si02
#       7
#     8   8   8   8   8   8   8
#     4  10  18  33  55  77 106 140 174 213 258 310
#     4  11  22  37  53  72 104 144 182 217 260 312
#     4  11  22  35  52  78 111 142 176 216 263 314
#     4   9  18  33  53  77 104 137 174 214 260 312
#     4  10  20  35  55  78 103 134 177 221 264 312
#     4   9  18  35  59  83 107 136 172 216 267 318
#     4   9  19  35  56  83 111 137 169 215 266 316
#
# _framework density 18.750534999999999
#
# number of rings (size 3 to 8) (size 9 to 14) (size 15 to 20)
#    0.000    2.143    1.429    2.143    0.000    3.143 
#    0.000    2.143    0.000    4.286    0.000    0.000 
#    0.000    0.000    0.000    0.000    0.000    0.000 
#
# Total GULP energy -347239.493628 kJ/mol
# GULP energy per Si atom -12401.410487 kJ/mol
# Density = 1.870786 g / cm^3
# Si number density = 18.750535 Si / 1000 Ang^3
#
#
#
# Elastic Constant Matrix: (Units=GPa)
#
#
# Indices 1 2 3 4 5 6 
#
# 1 133.3191 35.9426 54.8254 0.0000 -6.2568 0.0000
# 2 35.9426 45.4098 29.9663 0.0000 -1.5018 0.0000
# 3 54.8254 29.9663 86.2742 0.0000 -0.3068 0.0000
# 4 0.0000 0.0000 0.0000 31.4406 0.0000 1.2230
# 5 -6.2568 -1.5018 -0.3068 0.0000 26.2532 0.0000
# 6 0.0000 0.0000 0.0000 1.2230 0.0000 35.5966
#
#
#
# Elastic Compliance Matrix: (Units=1/GPa)
#
#
# Indices 1 2 3 4 5 6 
#
# 1 0.011209 -0.005320 -0.005267 0.000000 0.002306 0.000000
# 2 -0.005320 0.031156 -0.007439 0.000000 0.000427 0.000000
# 3 -0.005267 -0.007439 0.017517 0.000000 -0.001476 0.000000
# 4 0.000000 0.000000 0.000000 0.031849 0.000000 -0.001094
# 5 0.002306 0.000427 -0.001476 0.000000 0.038647 0.000000
# 6 0.000000 0.000000 0.000000 -0.001094 0.000000 0.028130
#
#
# Mechanical properties :
#
#
# Convention : Reuss Voigt Hill
#
# Bulk Modulus (GPa) = 41.96591 56.27464 49.12027
# Shear Modulus (GPa) = 24.69077 28.27600 26.48339
#
# Velocity S-wave (km/s) = 3.63272 3.88752 3.76228
# Velocity P-wave (km/s) = 6.32655 7.08716 6.71763
#
# Compressibility (1/GPa) = 0.02382887
#
# Stress axis : x y z
#
# Youngs Moduli (GPa) = 89.21087 32.09638 57.08801
#
# Poissons Ratio (x) = 0.17076 0.30069
# Poissons Ratio (y) = 0.47463 0.42469
# Poissons Ratio (z) = 0.46989 0.23877
#
# Static dielectric constant tensor:
#      x y z
#    x 3.484450 0.000000 0.074200 
#    y 0.000000 3.256870 0.000000 
#    z 0.074200 0.000000 3.647260 
# 
# 
# High freq. dielectric constant tensor:
#      x y z
#    x 1.731830 0.000000 0.006790 
#    y 0.000000 1.710070 0.000000 
#    z 0.006790 0.000000 1.725090 
# 
# From -- ./inp_files/237852.got.cif
#   From: 2010.06.25/outbox.cif.g09.slc.cpg/sg12_119_cif.got.tgz:237852.got - 2010.06.28 00:19:55.
