data_PCOD8083523
_publ_section_title
;
Structure prediction by ZEFSAII (Michael W. Deem and Ramdas Pophale) SiO2 
 PCOD8083523
Probable space group: C 2/M
;
_chemical_formula_sum "Si O2"
_cell_formula_units_Z 64
_cell_length_a 15.088954
_cell_length_b 12.191581
_cell_length_c 28.619477
_cell_angle_alpha 90.000000
_cell_angle_beta 40.289534
_cell_angle_gamma 90.000000
_cell_volume 3404.477306
_symmetry_space_group_name_H-M "C 2/M"
_symmetry_group_IT_number 12
_symmetry_cell_setting 'monoclinic'
loop_
_space_group_symop_operation_xyz
x,y,z
-x,y,-z
-x,-y,-z
x,-y,z
1/2+x,1/2+y,z
1/2-x,1/2+y,-z
1/2-x,1/2-y,-z
1/2+x,1/2-y,z
loop_
_atom_site_type_symbol
_atom_site_label
_atom_site_fract_x
_atom_site_fract_y
_atom_site_fract_z
Si Si1 0.141288 0.620412 0.774591
Si Si2 0.299995 0.874883 0.060033
Si Si3 0.617056 0.126716 0.415362
Si Si4 0.938646 0.763010 0.802642
Si Si5 0.257334 0.872943 0.811027
Si Si6 0.597180 0.247841 0.327343
Si Si7 0.410165 0.372455 0.338460
Si Si8 0.446591 0.189058 0.093690
O O1 0.127064 0.500000 0.757635
O O2 0.301103 0.648430 0.714842
O O3 0.067102 0.616511 0.854519
O O4 0.076149 0.712922 0.768174
O O5 0.147487 0.823632 0.121878
O O6 0.358193 0.869883 0.089135
O O7 0.294970 0.000000 0.044863
O O8 0.395059 0.805262 0.986228
O O9 0.500000 0.146871 0.500000
O O10 0.577325 0.200548 0.386963
O O11 0.760309 0.163528 0.380918
O O12 0.624753 0.000000 0.396573
O O13 0.849133 0.664030 0.817817
O O14 0.979132 0.851837 0.747106
O O15 0.339210 0.848081 0.730418
O O16 0.111518 0.810389 0.871909
O O17 0.223835 0.000000 0.828027
O O18 0.452911 0.294967 0.365163
O O19 0.412068 0.500000 0.352180
#
# Coordination Sequence:
#
# PCOD8083523 Si02
#       8
#     8   8   8   8   8   8   8   8
#     4  11  20  33  52  76 107 141 180 229 285 330
#     4  10  18  33  52  71 100 137 184 236 282 331
#     4  10  21  38  61  89 121 153 184 227 283 337
#     4  10  20  32  50  78 105 142 182 232 282 335
#     4   9  18  33  51  74 105 141 185 228 276 336
#     4  10  20  35  59  85 111 149 192 233 273 330
#     4  10  20  37  60  86 115 149 193 234 276 332
#     4   9  19  32  50  73  99 137 185 229 282 333
#
# _framework density 18.798774999999999
#
# number of rings (size 3 to 8) (size 9 to 14) (size 15 to 20)
#    0.000    2.125    1.250    3.750    0.000    1.000 
#    0.000    6.250    0.000    1.500    0.000    0.000 
#    0.000    0.000    0.000    0.000    0.000    0.000 
#
# Total GULP energy -396804.188313 kJ/mol
# GULP energy per Si atom -12400.130885 kJ/mol
# Density = 1.875599 g / cm^3
# Si number density = 18.798775 Si / 1000 Ang^3
#
#
#
# Elastic Constant Matrix: (Units=GPa)
#
#
# Indices 1 2 3 4 5 6 
#
# 1 87.5816 39.3635 38.7146 0.0000 0.8565 0.0000
# 2 39.3635 108.1588 37.1296 0.0000 -2.3928 0.0000
# 3 38.7146 37.1296 90.8672 0.0000 -1.9955 0.0000
# 4 0.0000 0.0000 0.0000 17.2819 0.0000 -1.0745
# 5 0.8565 -2.3928 -1.9955 0.0000 26.2992 0.0000
# 6 0.0000 0.0000 0.0000 -1.0745 0.0000 26.3286
#
#
#
# Elastic Compliance Matrix: (Units=1/GPa)
#
#
# Indices 1 2 3 4 5 6 
#
# 1 0.015395 -0.003919 -0.004985 0.000000 -0.001236 0.000000
# 2 -0.003919 0.011763 -0.003116 0.000000 0.000961 0.000000
# 3 -0.004985 -0.003116 0.014423 0.000000 0.000973 0.000000
# 4 0.000000 0.000000 0.000000 0.058011 0.000000 0.002368
# 5 -0.001236 0.000961 0.000973 0.000000 0.038226 0.000000
# 6 0.000000 0.000000 0.000000 0.002368 0.000000 0.038078
#
#
# Mechanical properties :
#
#
# Convention : Reuss Voigt Hill
#
# Bulk Modulus (GPa) = 57.00574 57.44701 57.22637
# Shear Modulus (GPa) = 24.29751 25.40860 24.85306
#
# Velocity S-wave (km/s) = 3.59904 3.68041 3.63996
# Velocity P-wave (km/s) = 6.90368 6.97752 6.94070
#
# Compressibility (1/GPa) = 0.01754209
#
# Stress axis : x y z
#
# Youngs Moduli (GPa) = 64.95645 85.01411 69.33183
#
# Poissons Ratio (x) = 0.33317 0.34561
# Poissons Ratio (y) = 0.25456 0.21601
# Poissons Ratio (z) = 0.32380 0.26487
#
# Static dielectric constant tensor:
#      x y z
#    x 3.434920 0.000000 -0.076090 
#    y 0.000000 3.257740 0.000000 
#    z -0.076090 0.000000 3.350970 
# 
# 
# High freq. dielectric constant tensor:
#      x y z
#    x 1.725460 0.000000 -0.004080 
#    y 0.000000 1.721050 0.000000 
#    z -0.004080 0.000000 1.717710 
# 
# From -- ./inp_files/361027.got.cif
#   From: 2010.06.25/outbox.cif.g09.slc.cpg/sg12_181_cif.got.tgz:361027.got - 2010.06.28 00:19:55.
