data_PCOD8083184
_publ_section_title
;
Structure prediction by ZEFSAII (Michael W. Deem and Ramdas Pophale) SiO2 
 PCOD8083184
Probable space group: C 2/M
;
_chemical_formula_sum "Si O2"
_cell_formula_units_Z 44
_cell_length_a 8.785884
_cell_length_b 24.548532
_cell_length_c 18.669525
_cell_angle_alpha 90.000000
_cell_angle_beta 33.634051
_cell_angle_gamma 90.000000
_cell_volume 2230.308848
_symmetry_space_group_name_H-M "C 2/M"
_symmetry_group_IT_number 12
_symmetry_cell_setting 'monoclinic'
loop_
_space_group_symop_operation_xyz
x,y,z
-x,y,-z
-x,-y,-z
x,-y,z
1/2+x,1/2+y,z
1/2-x,1/2+y,-z
1/2-x,1/2-y,-z
1/2+x,1/2-y,z
loop_
_atom_site_type_symbol
_atom_site_label
_atom_site_fract_x
_atom_site_fract_y
_atom_site_fract_z
Si Si1 0.816304 0.189724 0.860444
Si Si2 0.969135 0.000000 0.288071
Si Si3 0.713691 0.889799 0.361556
Si Si4 0.339174 0.294316 0.133577
Si Si5 0.652943 0.910458 0.227782
Si Si6 0.920050 0.500000 0.224131
Si Si7 0.096184 0.000000 0.078128
O O1 0.853739 0.240210 0.788949
O O2 0.993920 0.140860 0.757251
O O3 0.958603 0.204760 0.879330
O O4 0.500000 0.170497 0.000000
O O5 0.772247 0.051220 0.369637
O O6 0.133117 0.000000 0.297568
O O7 0.149327 0.000000 0.143149
O O8 0.500000 0.860552 0.500000
O O9 0.560965 0.896509 0.344716
O O10 0.189722 0.351627 0.176230
O O11 0.500000 0.277699 0.000000
O O12 0.435544 0.945990 0.267914
O O13 0.933851 0.945265 0.119898
O O14 0.135058 0.500000 0.074855
#
# Coordination Sequence:
#
# PCOD8083184 Si02
#       7
#     8   4   8   8   8   4   4
#     4  10  21  35  57  85 109 140 184 227 269 319
#     4  10  22  33  56  81 103 142 186 222 270 331
#     4  10  22  42  58  74 108 153 186 218 270 335
#     4  10  18  32  54  81 113 146 176 220 275 326
#     4   9  19  33  53  78 110 151 182 216 275 329
#     4  11  19  31  53  88 117 136 177 237 276 314
#     4   9  17  32  50  81 119 148 173 213 275 335
#
# _framework density 19.728211000000002
#
# number of rings (size 3 to 8) (size 9 to 14) (size 15 to 20)
#    0.000    2.182    0.000    5.455    0.000    7.273 
#    0.000    5.455    0.000    0.000    0.000    0.000 
#    0.000    0.000    0.000    0.000    0.000    0.000 
#
# Total GULP energy -272570.214883 kJ/mol
# GULP energy per Si atom -12389.555222 kJ/mol
# Density = 1.968331 g / cm^3
# Si number density = 19.728211 Si / 1000 Ang^3
#
#
#
# Elastic Constant Matrix: (Units=GPa)
#
#
# Indices 1 2 3 4 5 6 
#
# 1 97.9900 35.5857 15.3104 0.0002 6.3347 0.0008
# 2 35.5857 123.7952 33.6943 0.0005 -7.0346 0.0006
# 3 15.3104 33.6943 86.4384 -0.0043 3.2501 0.0032
# 4 0.0002 0.0005 -0.0043 16.6219 0.0027 0.8711
# 5 6.3347 -7.0346 3.2501 0.0027 14.4877 0.0019
# 6 0.0008 0.0006 0.0032 0.8711 0.0019 32.0142
#
#
#
# Elastic Compliance Matrix: (Units=1/GPa)
#
#
# Indices 1 2 3 4 5 6 
#
# 1 0.012089 -0.003762 -0.000411 0.000001 -0.007021 0.000000
# 2 -0.003762 0.010617 -0.003760 -0.000002 0.007644 0.000000
# 3 -0.000411 -0.003760 0.013281 0.000004 -0.004625 -0.000001
# 4 0.000001 -0.000002 0.000004 0.060247 -0.000013 -0.001639
# 5 -0.007021 0.007644 -0.004625 -0.000013 0.076843 -0.000004
# 6 0.000000 0.000000 -0.000001 -0.001639 -0.000004 0.031281
#
#
# Mechanical properties :
#
#
# Convention : Reuss Voigt Hill
#
# Bulk Modulus (GPa) = 49.69636 53.04492 51.37064
# Shear Modulus (GPa) = 22.03309 27.53366 24.78338
#
# Velocity S-wave (km/s) = 3.34553 3.73989 3.54819
# Velocity P-wave (km/s) = 6.33787 6.75243 6.54843
#
# Compressibility (1/GPa) = 0.02012220
#
# Stress axis : x y z
#
# Youngs Moduli (GPa) = 82.71649 94.18865 75.29491
#
# Poissons Ratio (x) = 0.35437 0.03093
# Poissons Ratio (y) = 0.31121 0.28308
# Poissons Ratio (z) = 0.03398 0.35411
#
# Static dielectric constant tensor:
#      x y z
#    x 3.642210 0.000010 0.258640 
#    y 0.000010 4.013780 -0.000010 
#    z 0.258640 -0.000010 3.291980 
# 
# 
# High freq. dielectric constant tensor:
#      x y z
#    x 1.766830 0.000000 0.022860 
#    y 0.000000 1.784850 0.000000 
#    z 0.022860 0.000000 1.731200 
# 
# From -- ./inp_files/259119.got.cif
#   From: 2010.06.25/outbox.cif.g09.slc.cpg/sg12_130_cif.got.tgz:259119.got - 2010.06.28 00:19:55.
