data_PCOD8083774
_publ_section_title
;
Structure prediction by ZEFSAII (Michael W. Deem and Ramdas Pophale) SiO2 
 PCOD8083774
Probable space group: C 2/M
;
_chemical_formula_sum "Si O2"
_cell_formula_units_Z 48
_cell_length_a 19.905855
_cell_length_b 14.155358
_cell_length_c 11.785526
_cell_angle_alpha 90.000000
_cell_angle_beta 53.384143
_cell_angle_gamma 90.000000
_cell_volume 2665.496960
_symmetry_space_group_name_H-M "C 2/M"
_symmetry_group_IT_number 12
_symmetry_cell_setting 'monoclinic'
loop_
_space_group_symop_operation_xyz
x,y,z
-x,y,-z
-x,-y,-z
x,-y,z
1/2+x,1/2+y,z
1/2-x,1/2+y,-z
1/2-x,1/2-y,-z
1/2+x,1/2-y,z
loop_
_atom_site_type_symbol
_atom_site_label
_atom_site_fract_x
_atom_site_fract_y
_atom_site_fract_z
Si Si1 0.870877 0.703244 0.381959
Si Si2 0.766347 0.500000 0.004618
Si Si3 0.730427 0.706366 0.699140
Si Si4 0.432454 0.000000 0.756065
Si Si5 0.460425 0.202578 0.659294
Si Si6 0.622981 0.000000 0.590311
Si Si7 0.209631 0.803282 0.142608
Si Si8 0.766553 0.500000 0.729445
O O1 0.814003 0.733720 0.545482
O O2 0.851799 0.765676 0.290471
O O3 0.843230 0.594432 0.383578
O O4 0.968780 0.712230 0.314611
O O5 0.866520 0.500000 0.929055
O O6 0.774659 0.500000 0.857343
O O7 0.717938 0.413791 0.109486
O O8 0.737181 0.772116 0.802029
O O9 0.718367 0.595746 0.741811
O O10 0.420148 0.903044 0.695408
O O11 0.524684 0.000000 0.710747
O O12 0.500000 0.227129 0.500000
O O13 0.388231 0.278623 0.753157
O O14 0.645991 0.000000 0.431343
O O15 0.250000 0.750000 0.000000
#
# Coordination Sequence:
#
# PCOD8083774 Si02
#       8
#     8   4   8   4   8   4   8   4
#     4   9  19  34  59  87 118 148 190 246 301 339
#     4  12  24  36  56  86 120 159 198 229 290 359
#     4  10  19  36  59  87 116 152 193 241 296 346
#     4  10  19  28  58  90 113 140 194 248 294 336
#     4  11  20  36  61  90 118 150 197 250 293 339
#     4   8  18  30  54  90 113 140 184 255 298 342
#     4  12  23  38  59  85 122 157 192 237 291 355
#     4  10  18  33  57  85 109 148 206 243 275 347
#
# _framework density 18.007898000000001
#
# number of rings (size 3 to 8) (size 9 to 14) (size 15 to 20)
#    0.000    1.667    5.000    0.250    4.667    0.667 
#    0.000    2.917    0.000    3.000    0.000    0.000 
#    0.000    0.000    0.000    0.000    0.000    0.000 
#
# Total GULP energy -297380.962225 kJ/mol
# GULP energy per Si atom -12390.873426 kJ/mol
# Density = 1.796691 g / cm^3
# Si number density = 18.007898 Si / 1000 Ang^3
#
#
#
# Elastic Constant Matrix: (Units=GPa)
#
#
# Indices 1 2 3 4 5 6 
#
# 1 99.7875 61.8268 49.4053 0.0000 5.2741 0.0000
# 2 61.8268 150.2038 62.7676 0.0000 1.9770 0.0000
# 3 49.4053 62.7676 95.4433 0.0000 -5.7650 0.0000
# 4 0.0000 0.0000 0.0000 34.7284 0.0000 -0.8960
# 5 5.2741 1.9770 -5.7650 0.0000 30.7044 0.0000
# 6 0.0000 0.0000 0.0000 -0.8960 0.0000 26.8833
#
#
#
# Elastic Compliance Matrix: (Units=1/GPa)
#
#
# Indices 1 2 3 4 5 6 
#
# 1 0.015428 -0.003973 -0.005581 0.000000 -0.003442 0.000000
# 2 -0.003973 0.010297 -0.004768 0.000000 -0.000876 0.000000
# 3 -0.005581 -0.004768 0.016769 0.000000 0.004414 0.000000
# 4 0.000000 0.000000 0.000000 0.028820 0.000000 0.000961
# 5 -0.003442 -0.000876 0.004414 0.000000 0.034045 0.000000
# 6 0.000000 0.000000 0.000000 0.000961 0.000000 0.037230
#
#
# Mechanical properties :
#
#
# Convention : Reuss Voigt Hill
#
# Bulk Modulus (GPa) = 72.20602 77.04821 74.62711
# Shear Modulus (GPa) = 28.43335 29.89222 29.16278
#
# Velocity S-wave (km/s) = 3.97790 4.07867 4.02860
# Velocity P-wave (km/s) = 7.82829 8.06594 7.94800
#
# Compressibility (1/GPa) = 0.01384926
#
# Stress axis : x y z
#
# Youngs Moduli (GPa) = 64.81662 97.11600 59.63395
#
# Poissons Ratio (x) = 0.38582 0.33284
# Poissons Ratio (y) = 0.25751 0.28434
# Poissons Ratio (z) = 0.36177 0.46306
#
# Static dielectric constant tensor:
#      x y z
#    x 3.054860 0.000000 0.006700 
#    y 0.000000 3.789670 0.000000 
#    z 0.006700 0.000000 3.487290 
# 
# 
# High freq. dielectric constant tensor:
#      x y z
#    x 1.679430 0.000000 -0.003460 
#    y 0.000000 1.701880 0.000000 
#    z -0.003460 0.000000 1.687300 
# 
# From -- ./inp_files/174442.got.cif
#   From: 2010.06.25/outbox.cif.g09.slc.cpg/sg12_88_cif.got.tgz:174442.got - 2010.06.28 00:19:55.
