data_PCOD8083885
_publ_section_title
;
Structure prediction by ZEFSAII (Michael W. Deem and Ramdas Pophale) SiO2 
 PCOD8083885
Probable space group: C 2/M
;
_chemical_formula_sum "Si O2"
_cell_formula_units_Z 64
_cell_length_a 19.287752
_cell_length_b 23.279914
_cell_length_c 9.556300
_cell_angle_alpha 90.000000
_cell_angle_beta 130.002965
_cell_angle_gamma 90.000000
_cell_volume 3286.910414
_symmetry_space_group_name_H-M "C 2/M"
_symmetry_group_IT_number 12
_symmetry_cell_setting 'monoclinic'
loop_
_space_group_symop_operation_xyz
x,y,z
-x,y,-z
-x,-y,-z
x,-y,z
1/2+x,1/2+y,z
1/2-x,1/2+y,-z
1/2-x,1/2-y,-z
1/2+x,1/2-y,z
loop_
_atom_site_type_symbol
_atom_site_label
_atom_site_fract_x
_atom_site_fract_y
_atom_site_fract_z
Si Si1 0.728824 0.746974 0.695599
Si Si2 0.779854 0.933198 0.436962
Si Si3 0.515926 0.854798 0.867610
Si Si4 0.377108 0.933141 0.549793
Si Si5 0.772372 0.638468 0.897237
Si Si6 0.246431 0.375161 0.814322
Si Si7 0.602883 0.744157 0.280656
Si Si8 0.908606 0.882980 0.821932
O O1 0.727495 0.700982 0.818649
O O2 0.722555 0.809351 0.753521
O O3 0.641253 0.737684 0.486305
O O4 0.818331 0.733426 0.720083
O O5 0.694949 0.916904 0.423777
O O6 0.766471 0.903053 0.271706
O O7 0.871779 0.913001 0.633234
O O8 0.786323 0.000000 0.416343
O O9 0.465572 0.894831 0.689798
O O10 0.479388 0.789262 0.822326
O O11 0.500000 0.882356 0.000000
O O12 0.619965 0.855539 0.962070
O O13 0.334644 0.915798 0.345568
O O14 0.403346 0.000000 0.584083
O O15 0.740466 0.613726 0.004533
O O16 0.337987 0.391553 0.855039
O O17 0.567936 0.682988 0.182471
O O18 0.000000 0.912214 0.000000
#
# Coordination Sequence:
#
# PCOD8083885 Si02
#       8
#     8   8   8   8   8   8   8   8
#     4  10  18  35  58  79 113 157 189 234 292 341
#     4  10  21  39  63  88 114 155 203 239 287 346
#     4  12  21  34  59  91 118 155 203 239 279 343
#     4  10  21  40  60  83 117 161 206 243 274 337
#     4  12  23  37  59  89 126 156 187 241 298 350
#     4  10  23  39  58  86 122 156 191 237 306 353
#     4  10  18  33  60  84 110 147 200 238 278 340
#     4  10  21  39  65  88 111 149 198 250 288 348
#
# _framework density 19.471171999999999
#
# number of rings (size 3 to 8) (size 9 to 14) (size 15 to 20)
#    0.000    1.500    5.000    0.750    1.750    2.000 
#    0.000    1.250    0.000    0.750    0.000    0.000 
#    0.000    0.000    0.000    0.000    0.000    0.000 
#
# Total GULP energy -396865.941461 kJ/mol
# GULP energy per Si atom -12402.060671 kJ/mol
# Density = 1.942685 g / cm^3
# Si number density = 19.471172 Si / 1000 Ang^3
#
#
#
# Elastic Constant Matrix: (Units=GPa)
#
#
# Indices 1 2 3 4 5 6 
#
# 1 53.5619 20.9063 53.4511 0.0000 -3.2340 0.0000
# 2 20.9063 68.0770 26.8581 0.0000 5.6630 0.0000
# 3 53.4511 26.8581 142.0818 0.0000 2.0739 0.0000
# 4 0.0000 0.0000 0.0000 14.0347 0.0000 -0.4351
# 5 -3.2340 5.6630 2.0739 0.0000 35.9938 0.0000
# 6 0.0000 0.0000 0.0000 -0.4351 0.0000 7.9725
#
#
#
# Elastic Compliance Matrix: (Units=1/GPa)
#
#
# Indices 1 2 3 4 5 6 
#
# 1 0.032341 -0.005920 -0.011113 0.000000 0.004478 0.000000
# 2 -0.005920 0.017154 -0.000969 0.000000 -0.003175 0.000000
# 3 -0.011113 -0.000969 0.011424 0.000000 -0.001504 0.000000
# 4 0.000000 0.000000 0.000000 0.071373 0.000000 0.003895
# 5 0.004478 -0.003175 -0.001504 0.000000 0.028771 0.000000
# 6 0.000000 0.000000 0.000000 0.003895 0.000000 0.125643
#
#
# Mechanical properties :
#
#
# Convention : Reuss Voigt Hill
#
# Bulk Modulus (GPa) = 40.13717 51.79464 45.96590
# Shear Modulus (GPa) = 15.10508 22.43390 18.76949
#
# Velocity S-wave (km/s) = 2.78828 3.39803 3.10814
# Velocity P-wave (km/s) = 5.56995 6.48490 6.04476
#
# Compressibility (1/GPa) = 0.02491456
#
# Stress axis : x y z
#
# Youngs Moduli (GPa) = 30.92054 58.29635 87.53462
#
# Poissons Ratio (x) = 0.34511 0.97277
# Poissons Ratio (y) = 0.18305 0.08484
# Poissons Ratio (z) = 0.34362 0.05650
#
# Static dielectric constant tensor:
#      x y z
#    x 3.239000 0.000000 0.010700 
#    y 0.000000 3.474680 0.000000 
#    z 0.010700 0.000000 3.761420 
# 
# 
# High freq. dielectric constant tensor:
#      x y z
#    x 1.718460 0.000000 0.004440 
#    y 0.000000 1.755620 0.000000 
#    z 0.004440 0.000000 1.779340 
# 
# From -- ./inp_files/90664.got.cif
#   From: 2010.06.25/outbox.cif.g09.slc.cpg/sg12_46_cif.got.tgz:90664.got - 2010.06.28 00:19:55.
