data_PCOD8083670
_publ_section_title
;
Structure prediction by ZEFSAII (Michael W. Deem and Ramdas Pophale) SiO2 
 PCOD8083670
Probable space group: C 2/M
;
_chemical_formula_sum "Si O2"
_cell_formula_units_Z 48
_cell_length_a 28.372131
_cell_length_b 8.984070
_cell_length_c 17.586566
_cell_angle_alpha 90.000000
_cell_angle_beta 35.936097
_cell_angle_gamma 90.000000
_cell_volume 2630.857623
_symmetry_space_group_name_H-M "C 2/M"
_symmetry_group_IT_number 12
_symmetry_cell_setting 'monoclinic'
loop_
_space_group_symop_operation_xyz
x,y,z
-x,y,-z
-x,-y,-z
x,-y,z
1/2+x,1/2+y,z
1/2-x,1/2+y,-z
1/2-x,1/2-y,-z
1/2+x,1/2-y,z
loop_
_atom_site_type_symbol
_atom_site_label
_atom_site_fract_x
_atom_site_fract_y
_atom_site_fract_z
Si Si1 0.620943 0.674848 0.859524
Si Si2 0.523970 0.824367 0.237134
Si Si3 0.273330 0.824498 0.749384
Si Si4 0.954195 0.323650 0.486222
Si Si5 0.522541 0.676163 0.849172
Si Si6 0.791943 0.676022 0.016180
O O1 0.609169 0.500000 0.875510
O O2 0.711661 0.720866 0.762425
O O3 0.596919 0.728942 0.806016
O O4 0.559141 0.735619 0.003870
O O5 0.494839 0.760764 0.356560
O O6 0.468493 0.754183 0.243982
O O7 0.513106 0.000000 0.248336
O O8 0.615400 0.774809 0.104643
O O9 0.361373 0.775065 0.608048
O O10 0.251529 0.734257 0.852440
O O11 0.268711 0.000000 0.773678
O O12 0.962333 0.500000 0.477110
O O13 0.000000 0.256514 0.500000
O O14 0.521776 0.500000 0.837312
O O15 0.782983 0.500000 0.022083
O O16 0.750000 0.750000 0.000000
#
# Coordination Sequence:
#
# PCOD8083670 Si02
#       6
#     8   8   8   8   8   8
#     4   8  15  28  50  77 101 130 168 206 247 300
#     4  10  20  34  51  76 104 132 168 208 255 303
#     4  10  18  33  56  76  97 131 174 213 248 293
#     4   9  18  33  52  72  99 136 171 205 251 307
#     4   9  16  30  51  75 103 132 167 207 249 300
#     4  11  22  34  51  75 103 131 166 213 256 301
#
# _framework density 18.245000999999998
#
# number of rings (size 3 to 8) (size 9 to 14) (size 15 to 20)
#    0.000    2.500    1.667    2.500    0.000    3.333 
#    0.000    4.167    0.000    2.000    0.000    0.000 
#    0.000    0.000    0.000    0.000    0.000    0.000 
#
# Total GULP energy -297529.475644 kJ/mol
# GULP energy per Si atom -12397.061485 kJ/mol
# Density = 1.820347 g / cm^3
# Si number density = 18.245001 Si / 1000 Ang^3
#
#
#
# Elastic Constant Matrix: (Units=GPa)
#
#
# Indices 1 2 3 4 5 6 
#
# 1 167.3456 28.8480 53.7474 0.0017 7.1128 -0.0001
# 2 28.8480 27.8925 20.5333 0.0073 1.4220 -0.0038
# 3 53.7474 20.5333 87.2861 0.0010 6.9827 -0.0003
# 4 0.0017 0.0073 0.0010 17.8249 -0.0006 7.5466
# 5 7.1128 1.4220 6.9827 -0.0006 36.7481 0.0007
# 6 -0.0001 -0.0038 -0.0003 7.5466 0.0007 28.2159
#
#
#
# Elastic Compliance Matrix: (Units=1/GPa)
#
#
# Indices 1 2 3 4 5 6 
#
# 1 0.008155 -0.005737 -0.003619 0.000002 -0.000669 -0.000001
# 2 -0.005737 0.047399 -0.007677 -0.000024 0.000735 0.000013
# 3 -0.003619 -0.007677 0.015649 0.000003 -0.001976 -0.000002
# 4 0.000002 -0.000024 0.000003 0.063265 0.000001 -0.016921
# 5 -0.000669 0.000735 -0.001976 0.000001 0.027689 -0.000001
# 6 -0.000001 0.000013 -0.000002 -0.016921 -0.000001 0.039967
#
#
# Mechanical properties :
#
#
# Convention : Reuss Voigt Hill
#
# Bulk Modulus (GPa) = 26.92588 54.30907 40.61748
# Shear Modulus (GPa) = 20.11534 28.51749 24.31642
#
# Velocity S-wave (km/s) = 3.32401 3.95781 3.65467
# Velocity P-wave (km/s) = 5.43342 7.12157 6.33399
#
# Compressibility (1/GPa) = 0.03713899
#
# Stress axis : x y z
#
# Youngs Moduli (GPa) = 122.62081 21.09765 63.90287
#
# Poissons Ratio (x) = 0.12103 0.23124
# Poissons Ratio (y) = 0.70342 0.49056
# Poissons Ratio (z) = 0.44373 0.16196
#
# Static dielectric constant tensor:
#      x y z
#    x 3.391030 0.000000 -0.072920 
#    y 0.000000 2.971120 0.000000 
#    z -0.072920 0.000000 3.342330 
# 
# 
# High freq. dielectric constant tensor:
#      x y z
#    x 1.728550 0.000000 -0.000870 
#    y 0.000000 1.668100 0.000000 
#    z -0.000870 0.000000 1.692100 
# 
# From -- ./inp_files/244762.got.cif
#   From: 2010.06.25/outbox.cif.g09.slc.cpg/sg12_123_cif.got.tgz:244762.got - 2010.06.28 00:19:55.
