data_PCOD8083866
_publ_section_title
;
Structure prediction by ZEFSAII (Michael W. Deem and Ramdas Pophale) SiO2 
 PCOD8083866
Probable space group: C 2/M
;
_chemical_formula_sum "Si O2"
_cell_formula_units_Z 56
_cell_length_a 19.752520
_cell_length_b 8.628491
_cell_length_c 28.165751
_cell_angle_alpha 90.000000
_cell_angle_beta 142.557474
_cell_angle_gamma 90.000000
_cell_volume 2918.485163
_symmetry_space_group_name_H-M "C 2/M"
_symmetry_group_IT_number 12
_symmetry_cell_setting 'monoclinic'
loop_
_space_group_symop_operation_xyz
x,y,z
-x,y,-z
-x,-y,-z
x,-y,z
1/2+x,1/2+y,z
1/2-x,1/2+y,-z
1/2-x,1/2-y,-z
1/2+x,1/2-y,z
loop_
_atom_site_type_symbol
_atom_site_label
_atom_site_fract_x
_atom_site_fract_y
_atom_site_fract_z
Si Si1 0.724030 0.821632 0.128046
Si Si2 0.821825 0.181300 0.996882
Si Si3 0.364235 0.183419 0.546833
Si Si4 0.935187 0.318586 0.875683
Si Si5 0.910509 0.179254 0.305512
Si Si6 0.383387 0.816700 0.450604
Si Si7 0.750631 0.819278 0.711610
O O1 0.728371 0.724995 0.082194
O O2 0.625423 0.765018 0.109001
O O3 0.843669 0.798227 0.219239
O O4 0.702294 0.000000 0.102753
O O5 0.816831 0.000000 0.000683
O O6 0.750000 0.250000 0.000000
O O7 0.949558 0.233326 0.068917
O O8 0.250000 0.250000 0.500000
O O9 0.463277 0.264529 0.631565
O O10 0.364103 0.239403 0.492711
O O11 0.372789 0.000000 0.557899
O O12 0.958106 0.500000 0.890123
O O13 0.855418 0.280912 0.786971
O O14 0.857362 0.286981 0.316304
O O15 0.904506 0.000000 0.317849
O O16 0.500000 0.740167 0.500000
O O17 0.281574 0.765359 0.359615
O O18 0.392771 0.000000 0.452036
O O19 0.781464 0.000000 0.731910
#
# Coordination Sequence:
#
# PCOD8083866 Si02
#       7
#     8   8   8   8   8   8   8
#     4   9  20  39  63  88 117 153 190 235 292 345
#     4  12  25  41  62  88 119 154 193 236 288 347
#     4  11  22  38  57  80 114 154 198 242 291 349
#     4  10  21  39  62  89 122 154 190 238 289 343
#     4  10  20  36  58  86 118 152 189 237 293 343
#     4   9  17  33  57  83 111 150 192 236 288 337
#     4  10  18  33  59  88 115 149 195 242 287 338
#
# _framework density 19.188037000000001
#
# number of rings (size 3 to 8) (size 9 to 14) (size 15 to 20)
#    0.000    1.857    1.429    4.286    0.000    5.143 
#    2.571    3.571    0.000    0.000    0.000    0.000 
#    0.000    0.000    0.000    0.000    0.000    0.000 
#
# Total GULP energy -347159.392642 kJ/mol
# GULP energy per Si atom -12398.549737 kJ/mol
# Density = 1.914436 g / cm^3
# Si number density = 19.188037 Si / 1000 Ang^3
#
#
#
# Elastic Constant Matrix: (Units=GPa)
#
#
# Indices 1 2 3 4 5 6 
#
# 1 128.5472 47.4700 79.1255 0.0000 1.5571 0.0002
# 2 47.4700 86.5490 46.0677 0.0000 -3.4046 0.0006
# 3 79.1255 46.0677 141.4311 0.0000 4.3846 0.0000
# 4 0.0000 0.0000 0.0000 33.0957 0.0000 3.7610
# 5 1.5571 -3.4046 4.3846 0.0000 28.6308 -0.0001
# 6 0.0002 0.0006 0.0000 3.7610 -0.0001 29.1995
#
#
#
# Elastic Compliance Matrix: (Units=1/GPa)
#
#
# Indices 1 2 3 4 5 6 
#
# 1 0.012872 -0.003921 -0.005916 0.000000 -0.000260 0.000000
# 2 -0.003921 0.015334 -0.002878 0.000000 0.002477 0.000000
# 3 -0.005916 -0.002878 0.011372 0.000000 -0.001762 0.000000
# 4 0.000000 0.000000 0.000000 0.030664 0.000000 -0.003950
# 5 -0.000260 0.002477 -0.001762 0.000000 0.035506 0.000000
# 6 0.000000 0.000000 0.000000 -0.003950 0.000000 0.034756
#
#
# Mechanical properties :
#
#
# Convention : Reuss Voigt Hill
#
# Bulk Modulus (GPa) = 70.67961 77.98375 74.33168
# Shear Modulus (GPa) = 29.29961 30.44281 29.87121
#
# Velocity S-wave (km/s) = 3.91189 3.98748 3.94986
# Velocity P-wave (km/s) = 7.57093 7.86956 7.72169
#
# Compressibility (1/GPa) = 0.01414835
#
# Stress axis : x y z
#
# Youngs Moduli (GPa) = 77.68789 65.21441 87.93235
#
# Poissons Ratio (x) = 0.25572 0.52022
# Poissons Ratio (y) = 0.30463 0.25304
# Poissons Ratio (z) = 0.45961 0.18767
#
# Static dielectric constant tensor:
#      x y z
#    x 3.382660 0.000000 -0.039840 
#    y 0.000000 3.438200 0.000000 
#    z -0.039840 0.000000 3.743530 
# 
# 
# High freq. dielectric constant tensor:
#      x y z
#    x 1.728080 0.000000 -0.001070 
#    y 0.000000 1.742410 0.000000 
#    z -0.001070 0.000000 1.765320 
# 
# From -- ./inp_files/363226.got.cif
#   From: 2010.06.25/outbox.cif.g09.slc.cpg/sg12_182_cif.got.tgz:363226.got - 2010.06.28 00:19:55.
