data_PCOD8083059
_publ_section_title
;
Structure prediction by ZEFSAII (Michael W. Deem and Ramdas Pophale) SiO2 
 PCOD8083059
Probable space group: C 2/M
;
_chemical_formula_sum "Si O2"
_cell_formula_units_Z 56
_cell_length_a 30.902589
_cell_length_b 9.348666
_cell_length_c 11.998138
_cell_angle_alpha 90.000000
_cell_angle_beta 59.343876
_cell_angle_gamma 90.000000
_cell_volume 2981.806805
_symmetry_space_group_name_H-M "C 2/M"
_symmetry_group_IT_number 12
_symmetry_cell_setting 'monoclinic'
loop_
_space_group_symop_operation_xyz
x,y,z
-x,y,-z
-x,-y,-z
x,-y,z
1/2+x,1/2+y,z
1/2-x,1/2+y,-z
1/2-x,1/2-y,-z
1/2+x,1/2-y,z
loop_
_atom_site_type_symbol
_atom_site_label
_atom_site_fract_x
_atom_site_fract_y
_atom_site_fract_z
Si Si1 0.748172 0.172961 0.382249
Si Si2 0.358201 0.159112 0.542735
Si Si3 0.002360 0.842542 0.128123
Si Si4 0.412582 0.835810 0.876608
Si Si5 0.663505 0.164574 0.845417
Si Si6 0.942947 0.330904 0.590326
Si Si7 0.910510 0.657254 0.249233
O O1 0.750000 0.250000 0.500000
O O2 0.698173 0.223506 0.379291
O O3 0.792681 0.225524 0.242960
O O4 0.750273 0.000000 0.395228
O O5 0.403169 0.237267 0.553010
O O6 0.368135 0.156741 0.398468
O O7 0.355928 0.000000 0.596184
O O8 0.051498 0.759154 0.096772
O O9 0.952805 0.764469 0.236945
O O10 0.003675 0.000000 0.179727
O O11 0.000000 0.849604 0.000000
O O12 0.418422 0.788974 0.740865
O O13 0.429086 0.000000 0.868583
O O14 0.355911 0.814040 0.000912
O O15 0.615566 0.202581 0.831367
O O16 0.680843 0.000000 0.802416
O O17 0.947255 0.500000 0.566726
O O18 0.000000 0.267242 0.500000
O O19 0.935110 0.500000 0.204118
#
# Coordination Sequence:
#
# PCOD8083059 Si02
#       7
#     8   8   8   8   8   8   8
#     4  11  21  35  56  82 114 148 183 226 276 328
#     4   9  18  33  54  81 107 136 180 228 270 318
#     4  11  22  32  46  75 111 141 174 217 272 335
#     4  10  20  35  56  78 105 144 183 229 276 321
#     4  10  20  34  52  79 110 139 180 226 275 327
#     4   9  17  32  57  84 106 135 184 233 270 318
#     4  10  18  32  53  75 105 140 177 223 269 321
#
# _framework density 18.780560000000001
#
# number of rings (size 3 to 8) (size 9 to 14) (size 15 to 20)
#    0.000    2.000    2.857    1.714    0.000    4.000 
#    0.000    0.714    0.000    5.571    0.000    0.000 
#    0.000    0.000    0.000    0.000    0.000    0.000 
#
# Total GULP energy -346929.489386 kJ/mol
# GULP energy per Si atom -12390.338907 kJ/mol
# Density = 1.873781 g / cm^3
# Si number density = 18.780560 Si / 1000 Ang^3
#
#
#
# Elastic Constant Matrix: (Units=GPa)
#
#
# Indices 1 2 3 4 5 6 
#
# 1 114.3363 40.1349 51.7842 0.0000 -12.3368 0.0000
# 2 40.1349 60.7036 32.5740 0.0000 -12.0434 0.0000
# 3 51.7842 32.5740 114.1439 0.0000 -8.0293 0.0000
# 4 0.0000 0.0000 0.0000 20.2972 0.0000 -17.3135
# 5 -12.3368 -12.0434 -8.0293 0.0000 29.0465 0.0000
# 6 0.0000 0.0000 0.0000 -17.3135 0.0000 1.2437
#
#
#
# Elastic Compliance Matrix: (Units=1/GPa)
#
#
# Indices 1 2 3 4 5 6 
#
# 1 0.012859 -0.005987 -0.003993 0.000000 0.001875 0.000000
# 2 -0.005987 0.023591 -0.003577 0.000000 0.006250 0.000000
# 3 -0.003993 -0.003577 0.011595 0.000000 0.000026 0.000000
# 4 0.000000 0.000000 0.000000 -0.004531 0.000000 -0.063070
# 5 0.001875 0.006250 0.000026 0.000000 0.037823 0.000000
# 6 0.000000 0.000000 0.000000 -0.063070 0.000000 -0.073939
#
#
# Mechanical properties :
#
#
# Convention : Reuss Voigt Hill
#
# Bulk Modulus (GPa) = 47.77527 59.79666 53.78597
# Shear Modulus (GPa) = 120.51674 21.09688 70.80681
#
# Velocity S-wave (km/s) = 8.01937 3.35526 6.14687
# Velocity P-wave (km/s) = 10.54708 6.84975 8.89270
#
# Compressibility (1/GPa) = 0.02093133
#
# Stress axis : x y z
#
# Youngs Moduli (GPa) = 77.76937 42.38924 86.24398
#
# Poissons Ratio (x) = 0.25377 0.34439
# Poissons Ratio (y) = 0.46559 0.30846
# Poissons Ratio (z) = 0.31055 0.15161
#
# Static dielectric constant tensor:
#      x y z
#    x 3.546500 0.000000 -0.067170 
#    y 0.000000 3.349920 0.000000 
#    z -0.067170 0.000000 3.540780 
# 
# 
# High freq. dielectric constant tensor:
#      x y z
#    x 1.719840 0.000000 -0.009720 
#    y 0.000000 1.695020 0.000000 
#    z -0.009720 0.000000 1.732710 
# 
# From -- ./inp_files/187238.got.cif
#   From: 2010.06.25/outbox.cif.g09.slc.cpg/sg12_94_cif.got.tgz:187238.got - 2010.06.28 00:19:55.
