data_PCOD8083857
_publ_section_title
;
Structure prediction by ZEFSAII (Michael W. Deem and Ramdas Pophale) SiO2 
 PCOD8083857
Probable space group: C 2/M
;
_chemical_formula_sum "Si O2"
_cell_formula_units_Z 56
_cell_length_a 23.365595
_cell_length_b 13.820870
_cell_length_c 9.960325
_cell_angle_alpha 90.000000
_cell_angle_beta 117.503667
_cell_angle_gamma 90.000000
_cell_volume 2852.989607
_symmetry_space_group_name_H-M "C 2/M"
_symmetry_group_IT_number 12
_symmetry_cell_setting 'monoclinic'
loop_
_space_group_symop_operation_xyz
x,y,z
-x,y,-z
-x,-y,-z
x,-y,z
1/2+x,1/2+y,z
1/2-x,1/2+y,-z
1/2-x,1/2-y,-z
1/2+x,1/2-y,z
loop_
_atom_site_type_symbol
_atom_site_label
_atom_site_fract_x
_atom_site_fract_y
_atom_site_fract_z
Si Si1 0.553211 0.396131 0.670883
Si Si2 0.494802 0.200521 0.333944
Si Si3 0.801144 0.711302 0.813673
Si Si4 0.170355 0.889131 0.607902
Si Si5 0.368282 0.108969 0.124438
Si Si6 0.783571 0.610830 0.290864
Si Si7 0.363146 0.211486 0.598704
O O1 0.500000 0.407770 0.500000
O O2 0.557220 0.500000 0.753418
O O3 0.532419 0.306436 0.742118
O O4 0.622198 0.371984 0.679624
O O5 0.500000 0.196178 0.500000
O O6 0.445046 0.121036 0.225966
O O7 0.563286 0.179252 0.341557
O O8 0.740874 0.639215 0.735414
O O9 0.778559 0.822481 0.803610
O O10 0.847885 0.700468 0.737791
O O11 0.841072 0.684418 0.988199
O O12 0.148611 0.822033 0.460302
O O13 0.169175 0.000000 0.557016
O O14 0.335695 0.129676 0.231912
O O15 0.354513 0.000000 0.060321
O O16 0.760440 0.500000 0.271512
O O17 0.816070 0.639990 0.466663
#
# Coordination Sequence:
#
# PCOD8083857 Si02
#       7
#     8   8   8   8   8   8   8
#     4   9  16  29  55  89 116 141 186 238 279 325
#     4  11  19  38  62  83 116 150 196 242 285 328
#     4  11  24  39  55  86 127 152 188 235 294 346
#     4  10  18  33  59  86 116 155 190 231 284 337
#     4  11  24  41  62  85 112 152 198 243 288 344
#     4  10  21  39  63  87 114 153 197 237 282 342
#     4  11  22  36  59  90 118 155 191 239 286 339
#
# _framework density 19.628533000000001
#
# number of rings (size 3 to 8) (size 9 to 14) (size 15 to 20)
#    0.000    1.571    4.286    3.429    0.000    4.286 
#    0.000    2.857    0.000    0.000    0.000    3.000 
#    0.000    0.000    0.000    0.000    0.000    0.000 
#
# Total GULP energy -347203.819805 kJ/mol
# GULP energy per Si atom -12400.136422 kJ/mol
# Density = 1.958386 g / cm^3
# Si number density = 19.628533 Si / 1000 Ang^3
#
#
#
# Elastic Constant Matrix: (Units=GPa)
#
#
# Indices 1 2 3 4 5 6 
#
# 1 100.1723 32.8674 22.2928 0.0000 18.7826 0.0000
# 2 32.8674 106.8267 31.3932 0.0000 -3.2581 0.0000
# 3 22.2928 31.3932 49.0915 0.0000 6.9709 0.0000
# 4 0.0000 0.0000 0.0000 15.3552 0.0000 4.9244
# 5 18.7826 -3.2581 6.9709 0.0000 18.8393 0.0000
# 6 0.0000 0.0000 0.0000 4.9244 0.0000 24.9275
#
#
#
# Elastic Compliance Matrix: (Units=1/GPa)
#
#
# Indices 1 2 3 4 5 6 
#
# 1 0.014562 -0.004427 -0.001700 0.000000 -0.014654 0.000000
# 2 -0.004427 0.013334 -0.007885 0.000000 0.009638 0.000000
# 3 -0.001700 -0.007885 0.027587 0.000000 -0.009876 0.000000
# 4 0.000000 0.000000 0.000000 0.069530 0.000000 -0.013735
# 5 -0.014654 0.009638 -0.009876 0.000000 0.073012 0.000000
# 6 0.000000 0.000000 0.000000 -0.013735 0.000000 0.042830
#
#
# Mechanical properties :
#
#
# Convention : Reuss Voigt Hill
#
# Bulk Modulus (GPa) = 36.42034 47.68858 42.05446
# Shear Modulus (GPa) = 17.98351 23.12686 20.55518
#
# Velocity S-wave (km/s) = 3.03015 3.43625 3.23957
# Velocity P-wave (km/s) = 5.55315 6.33183 5.95523
#
# Compressibility (1/GPa) = 0.02745719
#
# Stress axis : x y z
#
# Youngs Moduli (GPa) = 68.67367 74.99473 36.24890
#
# Poissons Ratio (x) = 0.33203 0.06164
# Poissons Ratio (y) = 0.30405 0.28582
# Poissons Ratio (z) = 0.11677 0.59134
#
# Static dielectric constant tensor:
#      x y z
#    x 3.639620 0.000000 0.116950 
#    y 0.000000 4.006140 0.000000 
#    z 0.116950 0.000000 3.175110 
# 
# 
# High freq. dielectric constant tensor:
#      x y z
#    x 1.768890 0.000000 0.014550 
#    y 0.000000 1.778000 0.000000 
#    z 0.014550 0.000000 1.726860 
# 
# From -- ./inp_files/96964.got.cif
#   From: 2010.06.25/outbox.cif.g09.slc.cpg/sg12_49_cif.got.tgz:96964.got - 2010.06.28 00:19:55.
