data_PCOD8083018
_publ_section_title
;
Structure prediction by ZEFSAII (Michael W. Deem and Ramdas Pophale) SiO2 
 PCOD8083018
Probable space group: C 2/M
;
_chemical_formula_sum "Si O2"
_cell_formula_units_Z 52
_cell_length_a 17.548168
_cell_length_b 18.970594
_cell_length_c 8.592735
_cell_angle_alpha 90.000000
_cell_angle_beta 81.265619
_cell_angle_gamma 90.000000
_cell_volume 2827.340807
_symmetry_space_group_name_H-M "C 2/M"
_symmetry_group_IT_number 12
_symmetry_cell_setting 'monoclinic'
loop_
_space_group_symop_operation_xyz
x,y,z
-x,y,-z
-x,-y,-z
x,-y,z
1/2+x,1/2+y,z
1/2-x,1/2+y,-z
1/2-x,1/2-y,-z
1/2+x,1/2-y,z
loop_
_atom_site_type_symbol
_atom_site_label
_atom_site_fract_x
_atom_site_fract_y
_atom_site_fract_z
Si Si1 0.118622 0.922001 0.159191
Si Si2 0.000000 0.749193 0.000000
Si Si3 0.013414 0.163317 0.670037
Si Si4 0.229170 0.577561 0.689119
Si Si5 0.327278 0.418115 0.372721
Si Si6 0.340425 0.810843 0.093951
Si Si7 0.709410 0.341172 0.901688
O O1 0.200564 0.927427 0.214299
O O2 0.051792 0.897172 0.296570
O O3 0.096443 0.000000 0.100413
O O4 0.131433 0.863316 0.021173
O O5 0.007240 0.789771 0.830033
O O6 0.072889 0.697464 0.992348
O O7 0.096816 0.128714 0.641350
O O8 0.000000 0.199302 0.500000
O O9 0.190887 0.500000 0.683559
O O10 0.265253 0.605277 0.518882
O O11 0.164446 0.633311 0.763302
O O12 0.349424 0.500000 0.380547
O O13 0.281302 0.401256 0.229708
O O14 0.306511 0.736118 0.163494
O O15 0.289023 0.840754 0.969732
#
# Coordination Sequence:
#
# PCOD8083018 Si02
#       7
#     8   4   8   8   8   8   8
#     4  10  18  32  52  79 119 158 192 228 277 345
#     4  12  24  44  56  88 122 152 206 254 292 350
#     4  12  22  35  57  89 129 168 195 230 285 359
#     4   9  20  36  56  81 110 148 194 243 290 346
#     4  11  21  35  56  89 124 154 193 237 290 358
#     4  10  21  39  60  77 115 152 196 250 295 344
#     4  10  20  35  56  83 111 158 198 242 290 343
#
# _framework density 18.391839999999998
#
# number of rings (size 3 to 8) (size 9 to 14) (size 15 to 20)
#    0.000    1.538    4.615    0.923    0.000    1.846 
#    2.769    2.692    0.000    0.000    0.000    2.154 
#    0.000    0.000    0.000    0.000    0.000    0.000 
#
# Total GULP energy -322110.456971 kJ/mol
# GULP energy per Si atom -12388.863730 kJ/mol
# Density = 1.834998 g / cm^3
# Si number density = 18.391840 Si / 1000 Ang^3
#
#
#
# Elastic Constant Matrix: (Units=GPa)
#
#
# Indices 1 2 3 4 5 6 
#
# 1 75.0685 29.7135 43.5553 0.0000 -7.9866 0.0000
# 2 29.7135 60.2744 61.2344 0.0000 -7.1234 0.0000
# 3 43.5553 61.2344 135.6783 0.0000 -5.8652 0.0000
# 4 0.0000 0.0000 0.0000 33.4380 0.0000 -6.4261
# 5 -7.9866 -7.1234 -5.8652 0.0000 13.5386 0.0000
# 6 0.0000 0.0000 0.0000 -6.4261 0.0000 13.1610
#
#
#
# Elastic Compliance Matrix: (Units=1/GPa)
#
#
# Indices 1 2 3 4 5 6 
#
# 1 0.017785 -0.004570 -0.003360 0.000000 0.006631 0.000000
# 2 -0.004570 0.033298 -0.013167 0.000000 0.009120 0.000000
# 3 -0.003360 -0.013167 0.014274 0.000000 -0.002726 0.000000
# 4 0.000000 0.000000 0.000000 0.033003 0.000000 0.016114
# 5 0.006631 0.009120 -0.002726 0.000000 0.081392 0.000000
# 6 0.000000 0.000000 0.000000 0.016114 0.000000 0.083850
#
#
# Mechanical properties :
#
#
# Convention : Reuss Voigt Hill
#
# Bulk Modulus (GPa) = 43.17288 60.00306 51.58797
# Shear Modulus (GPa) = 15.94813 21.12874 18.53844
#
# Velocity S-wave (km/s) = 2.94790 3.39309 3.17830
# Velocity P-wave (km/s) = 5.92552 6.93155 6.44818
#
# Compressibility (1/GPa) = 0.02316269
#
# Stress axis : x y z
#
# Youngs Moduli (GPa) = 56.22648 30.03189 70.05974
#
# Poissons Ratio (x) = 0.13725 0.23540
# Poissons Ratio (y) = 0.25697 0.92245
# Poissons Ratio (z) = 0.18892 0.39542
#
# Static dielectric constant tensor:
#      x y z
#    x 3.291430 0.000000 0.029890 
#    y 0.000000 3.051910 0.000000 
#    z 0.029890 0.000000 3.720100 
# 
# 
# High freq. dielectric constant tensor:
#      x y z
#    x 1.693120 0.000000 -0.000040 
#    y 0.000000 1.700390 0.000000 
#    z -0.000040 0.000000 1.719960 
# 
# From -- ./inp_files/75157.got.cif
#   From: 2010.06.25/outbox.cif.g09.slc.cpg/sg12_38_cif.got.tgz:75157.got - 2010.06.28 00:19:55.
