data_PCOD8083679
_publ_section_title
;
Structure prediction by ZEFSAII (Michael W. Deem and Ramdas Pophale) SiO2 
 PCOD8083679
Probable space group: C 2/M
;
_chemical_formula_sum "Si O2"
_cell_formula_units_Z 48
_cell_length_a 20.781802
_cell_length_b 8.885436
_cell_length_c 15.068297
_cell_angle_alpha 90.000000
_cell_angle_beta 110.310591
_cell_angle_gamma 90.000000
_cell_volume 2609.443063
_symmetry_space_group_name_H-M "C 2/M"
_symmetry_group_IT_number 12
_symmetry_cell_setting 'monoclinic'
loop_
_space_group_symop_operation_xyz
x,y,z
-x,y,-z
-x,-y,-z
x,-y,z
1/2+x,1/2+y,z
1/2-x,1/2+y,-z
1/2-x,1/2-y,-z
1/2+x,1/2-y,z
loop_
_atom_site_type_symbol
_atom_site_label
_atom_site_fract_x
_atom_site_fract_y
_atom_site_fract_z
Si Si1 0.846935 0.674757 0.593574
Si Si2 0.054025 0.321235 0.206533
Si Si3 0.347357 0.179025 0.901125
Si Si4 0.801633 0.174253 0.401094
Si Si5 0.098906 0.321332 0.883989
Si Si6 0.296703 0.821810 0.216007
O O1 0.852577 0.500000 0.570713
O O2 0.909787 0.730078 0.684766
O O3 0.849168 0.770983 0.504818
O O4 0.777683 0.705809 0.615118
O O5 0.052547 0.500000 0.201876
O O6 0.096608 0.261811 0.142436
O O7 0.977362 0.253875 0.166574
O O8 0.274875 0.249076 0.843533
O O9 0.339885 0.000000 0.893555
O O10 0.370620 0.237298 0.008606
O O11 0.822057 0.267762 0.324162
O O12 0.815734 0.000000 0.389892
O O13 0.094619 0.500000 0.883834
O O14 0.147095 0.264979 0.827707
O O15 0.289226 0.000000 0.211610
#
# Coordination Sequence:
#
# PCOD8083679 Si02
#       6
#     8   8   8   8   8   8
#     4   9  17  31  53  80 102 126 166 217 263 300
#     4   9  16  31  54  80 104 130 172 218 257 298
#     4  10  18  33  56  79 101 134 178 218 255 296
#     4  10  19  33  53  78 102 132 172 213 257 304
#     4   9  19  32  51  78 107 137 172 214 256 301
#     4  11  21  33  50  77 109 140 171 208 257 307
#
# _framework density 18.394729000000002
#
# number of rings (size 3 to 8) (size 9 to 14) (size 15 to 20)
#    0.000    2.333    1.667    2.000    0.000    2.667 
#    0.000    1.667    0.000   12.000    0.000    0.000 
#    0.000    0.000    0.000    0.000    0.000    0.000 
#
# Total GULP energy -297628.682326 kJ/mol
# GULP energy per Si atom -12401.195097 kJ/mol
# Density = 1.835286 g / cm^3
# Si number density = 18.394729 Si / 1000 Ang^3
#
#
#
# Elastic Constant Matrix: (Units=GPa)
#
#
# Indices 1 2 3 4 5 6 
#
# 1 130.3119 28.3111 77.4760 0.0000 -11.9417 0.0000
# 2 28.3111 31.5481 28.4019 0.0000 -0.5171 0.0000
# 3 77.4760 28.4019 156.1637 0.0000 -6.8352 0.0000
# 4 0.0000 0.0000 0.0000 27.2492 0.0000 0.9293
# 5 -11.9417 -0.5171 -6.8352 0.0000 14.0919 0.0000
# 6 0.0000 0.0000 0.0000 0.9293 0.0000 17.9097
#
#
#
# Elastic Compliance Matrix: (Units=1/GPa)
#
#
# Indices 1 2 3 4 5 6 
#
# 1 0.012754 -0.007103 -0.004674 0.000000 0.008281 0.000000
# 2 -0.007103 0.041914 -0.004389 0.000000 -0.006609 0.000000
# 3 -0.004674 -0.004389 0.009543 0.000000 0.000507 0.000000
# 4 0.000000 0.000000 0.000000 0.036763 0.000000 -0.001908
# 5 0.008281 -0.006609 0.000507 0.000000 0.077984 0.000000
# 6 0.000000 0.000000 0.000000 -0.001908 0.000000 0.055935
#
#
# Mechanical properties :
#
#
# Convention : Reuss Voigt Hill
#
# Bulk Modulus (GPa) = 31.36600 65.15572 48.26086
# Shear Modulus (GPa) = 17.99536 24.10578 21.05057
#
# Velocity S-wave (km/s) = 3.13115 3.62397 3.38654
# Velocity P-wave (km/s) = 5.49189 7.28070 6.44862
#
# Compressibility (1/GPa) = 0.03188166
#
# Stress axis : x y z
#
# Youngs Moduli (GPa) = 78.40415 23.85834 104.79406
#
# Poissons Ratio (x) = 0.16946 0.48976
# Poissons Ratio (y) = 0.55687 0.45990
# Poissons Ratio (z) = 0.36642 0.10470
#
# Static dielectric constant tensor:
#      x y z
#    x 3.468520 0.000000 -0.031550 
#    y 0.000000 3.074010 0.000000 
#    z -0.031550 0.000000 3.671610 
# 
# 
# High freq. dielectric constant tensor:
#      x y z
#    x 1.701790 0.000000 -0.000850 
#    y 0.000000 1.679660 0.000000 
#    z -0.000850 0.000000 1.732620 
# 
# From -- ./inp_files/229861.got.cif
#   From: 2010.06.25/outbox.cif.g09.slc.cpg/sg12_115_cif.got.tgz:229861.got - 2010.06.28 00:19:55.
