data_PCOD8083527
_publ_section_title
;
Structure prediction by ZEFSAII (Michael W. Deem and Ramdas Pophale) SiO2 
 PCOD8083527
Probable space group: C 2/M
;
_chemical_formula_sum "Si O2"
_cell_formula_units_Z 48
_cell_length_a 5.278513
_cell_length_b 14.991904
_cell_length_c 28.396993
_cell_angle_alpha 90.000000
_cell_angle_beta 106.394373
_cell_angle_gamma 90.000000
_cell_volume 2155.827782
_symmetry_space_group_name_H-M "C 2/M"
_symmetry_group_IT_number 12
_symmetry_cell_setting 'monoclinic'
loop_
_space_group_symop_operation_xyz
x,y,z
-x,y,-z
-x,-y,-z
x,-y,z
1/2+x,1/2+y,z
1/2-x,1/2+y,-z
1/2-x,1/2-y,-z
1/2+x,1/2-y,z
loop_
_atom_site_type_symbol
_atom_site_label
_atom_site_fract_x
_atom_site_fract_y
_atom_site_fract_z
Si Si1 0.583564 0.605838 0.554990
Si Si2 0.089425 0.693136 0.872738
Si Si3 0.842585 0.151722 0.722041
Si Si4 0.829831 0.606132 0.388001
Si Si5 0.788897 0.604759 0.025670
Si Si6 0.905701 0.648347 0.763646
O O1 0.500000 0.645621 0.500000
O O2 0.579546 0.500000 0.552445
O O3 0.373710 0.638824 0.582732
O O4 0.877787 0.638759 0.582685
O O5 0.375404 0.732923 0.875630
O O6 0.120830 0.624094 0.916723
O O7 0.984891 0.639261 0.822174
O O8 0.747574 0.156934 0.663543
O O9 0.625188 0.100293 0.742436
O O10 0.887604 0.249359 0.745966
O O11 0.123372 0.100433 0.740479
O O12 0.816725 0.500000 0.379496
O O13 0.776081 0.500000 0.017236
O O14 0.500000 0.646892 0.000000
O O15 0.000000 0.646817 0.000000
#
# Coordination Sequence:
#
# PCOD8083527 Si02
#       6
#     8   8   8   8   8   8
#     4   9  17  30  47  70 103 138 170 211 263 318
#     4  12  21  37  63  88 116 145 199 248 271 332
#     4  10  18  33  52  73 102 137 169 218 263 314
#     4  10  19  30  48  77 105 131 170 215 264 327
#     4  10  23  42  60  85 123 158 186 229 295 351
#     4  10  19  35  54  74  99 138 178 218 263 307
#
# _framework density 22.265231
#
# number of rings (size 3 to 8) (size 9 to 14) (size 15 to 20)
#    0.000    1.833    3.333    2.500    0.000    4.000 
#    0.000    1.667    0.000    0.000    0.000   46.667 
#    0.000    0.000    0.000    0.000    0.000    0.000 
#
# Total GULP energy -297554.626943 kJ/mol
# GULP energy per Si atom -12398.109456 kJ/mol
# Density = 2.221455 g / cm^3
# Si number density = 22.265231 Si / 1000 Ang^3
#
#
#
# Elastic Constant Matrix: (Units=GPa)
#
#
# Indices 1 2 3 4 5 6 
#
# 1 237.6218 3.4988 92.9329 0.0000 -5.6167 0.0000
# 2 3.4988 11.3418 8.4842 0.0000 1.1166 0.0000
# 3 92.9329 8.4842 223.2554 0.0000 -2.8898 0.0000
# 4 0.0000 0.0000 0.0000 15.9059 0.0000 1.9176
# 5 -5.6167 1.1166 -2.8898 0.0000 47.1792 0.0000
# 6 0.0000 0.0000 0.0000 1.9176 0.0000 1.0157
#
#
#
# Elastic Compliance Matrix: (Units=1/GPa)
#
#
# Indices 1 2 3 4 5 6 
#
# 1 0.005037 -0.000038 -0.002089 0.000000 0.000473 0.000000
# 2 -0.000038 0.091013 -0.003474 0.000000 -0.002371 0.000000
# 3 -0.002089 -0.003474 0.005483 0.000000 0.000169 0.000000
# 4 0.000000 0.000000 0.000000 0.081395 0.000000 -0.153662
# 5 0.000473 -0.002371 0.000169 0.000000 0.021319 0.000000
# 6 0.000000 0.000000 0.000000 -0.153662 0.000000 1.274589
#
#
# Mechanical properties :
#
#
# Convention : Reuss Voigt Hill
#
# Bulk Modulus (GPa) = 11.07022 75.78340 43.42681
# Shear Modulus (GPa) = 3.28915 37.30704 20.29810
#
# Velocity S-wave (km/s) = 1.21674 4.09782 3.02263
# Velocity P-wave (km/s) = 2.63756 7.51665 5.63279
#
# Compressibility (1/GPa) = 0.09033245
#
# Stress axis : x y z
#
# Youngs Moduli (GPa) = 198.52345 10.98739 182.38010
#
# Poissons Ratio (x) = 0.00041 0.38104
# Poissons Ratio (y) = 0.00746 0.63355
# Poissons Ratio (z) = 0.41476 0.03817
#
# Static dielectric constant tensor:
#      x y z
#    x 7.261160 0.000000 -0.077160 
#    y 0.000000 3.260370 0.000000 
#    z -0.077160 0.000000 4.114770 
# 
# 
# High freq. dielectric constant tensor:
#      x y z
#    x 1.912180 0.000000 -0.001160 
#    y 0.000000 1.820370 0.000000 
#    z -0.001160 0.000000 1.889930 
# 
# From -- ./inp_files/331062.got.cif
#   From: 2010.06.25/outbox.cif.g09.slc.cpg/sg12_166_cif.got.tgz:331062.got - 2010.06.28 00:19:55.
