data_PCOD8083363
_publ_section_title
;
Structure prediction by ZEFSAII (Michael W. Deem and Ramdas Pophale) SiO2 
 PCOD8083363
Probable space group: C 2/M
;
_chemical_formula_sum "Si O2"
_cell_formula_units_Z 64
_cell_length_a 21.206873
_cell_length_b 12.876105
_cell_length_c 21.773799
_cell_angle_alpha 90.000000
_cell_angle_beta 33.477406
_cell_angle_gamma 90.000000
_cell_volume 3279.638650
_symmetry_space_group_name_H-M "C 2/M"
_symmetry_group_IT_number 12
_symmetry_cell_setting 'monoclinic'
loop_
_space_group_symop_operation_xyz
x,y,z
-x,y,-z
-x,-y,-z
x,-y,z
1/2+x,1/2+y,z
1/2-x,1/2+y,-z
1/2-x,1/2-y,-z
1/2+x,1/2-y,z
loop_
_atom_site_type_symbol
_atom_site_label
_atom_site_fract_x
_atom_site_fract_y
_atom_site_fract_z
Si Si1 0.142815 0.122352 0.101957
Si Si2 0.760370 0.215544 0.764649
Si Si3 0.610876 0.816109 0.437747
Si Si4 0.425675 0.310524 0.346763
Si Si5 0.327803 0.769555 0.029980
Si Si6 0.541299 0.885880 0.897372
Si Si7 0.179193 0.384065 0.511473
Si Si8 0.498337 0.383481 0.415637
O O1 0.243264 0.145001 0.069118
O O2 0.027264 0.182281 0.215198
O O3 0.121447 0.000000 0.115257
O O4 0.176415 0.165092 0.007260
O O5 0.797628 0.312660 0.691926
O O6 0.710560 0.257738 0.869466
O O7 0.669077 0.157495 0.795821
O O8 0.867208 0.141335 0.691963
O O9 0.500000 0.873399 0.500000
O O10 0.656317 0.881070 0.457535
O O11 0.577243 0.696834 0.483492
O O12 0.310040 0.352776 0.411843
O O13 0.407477 0.190388 0.381279
O O14 0.457961 0.380586 0.378306
O O15 0.456457 0.814520 0.926339
O O16 0.543044 0.000000 0.865420
O O17 0.500000 0.894240 0.000000
O O18 0.157645 0.500000 0.553604
O O19 0.477134 0.500000 0.457857
#
# Coordination Sequence:
#
# PCOD8083363 Si02
#       8
#     8   8   8   8   8   8   8   8
#     4  11  22  39  63  85 111 152 194 238 290 340
#     4  10  19  34  54  80 116 156 185 235 283 335
#     4   9  21  35  54  82 117 149 191 232 275 343
#     4  10  21  37  62  88 114 148 190 238 286 341
#     4  10  22  37  58  82 116 147 194 246 281 332
#     4   9  18  32  52  79 110 148 188 230 285 334
#     4  10  21  39  61  87 117 149 187 233 287 343
#     4  10  18  32  56  86 115 146 188 236 288 342
#
# _framework density 19.514344999999999
#
# number of rings (size 3 to 8) (size 9 to 14) (size 15 to 20)
#    0.000    2.125    1.250    1.875    1.750    4.000 
#    0.000    3.750    0.000    3.375    0.000    0.000 
#    0.000    0.000    0.000    0.000    0.000    0.000 
#
# Total GULP energy -396722.663881 kJ/mol
# GULP energy per Si atom -12397.583246 kJ/mol
# Density = 1.946993 g / cm^3
# Si number density = 19.514345 Si / 1000 Ang^3
#
#
#
# Elastic Constant Matrix: (Units=GPa)
#
#
# Indices 1 2 3 4 5 6 
#
# 1 102.7857 40.0988 47.6017 0.0000 -18.5655 0.0000
# 2 40.0988 86.8245 25.8564 -0.0001 6.8075 0.0001
# 3 47.6017 25.8564 89.3380 -0.0001 0.3099 0.0001
# 4 0.0000 -0.0001 -0.0001 12.6437 0.0001 -0.2815
# 5 -18.5655 6.8075 0.3099 0.0001 35.4100 0.0000
# 6 0.0000 0.0001 0.0001 -0.2815 0.0000 9.7093
#
#
#
# Elastic Compliance Matrix: (Units=1/GPa)
#
#
# Indices 1 2 3 4 5 6 
#
# 1 0.017831 -0.006824 -0.007563 0.000000 0.010727 0.000000
# 2 -0.006824 0.015421 -0.000805 0.000000 -0.006535 0.000000
# 3 -0.007563 -0.000805 0.015470 0.000000 -0.003946 0.000000
# 4 0.000000 0.000000 0.000000 0.079142 0.000000 0.002294
# 5 0.010727 -0.006535 -0.003946 0.000000 0.035156 0.000000
# 6 0.000000 0.000000 0.000000 0.002294 0.000000 0.103060
#
#
# Mechanical properties :
#
#
# Convention : Reuss Voigt Hill
#
# Bulk Modulus (GPa) = 54.52901 56.22910 55.37905
# Shear Modulus (GPa) = 16.52475 22.57870 19.55172
#
# Velocity S-wave (km/s) = 2.91314 3.40521 3.16874
# Velocity P-wave (km/s) = 6.27048 6.65863 6.46747
#
# Compressibility (1/GPa) = 0.01833886
#
# Stress axis : x y z
#
# Youngs Moduli (GPa) = 56.08111 64.84656 64.64171
#
# Poissons Ratio (x) = 0.44251 0.48890
# Poissons Ratio (y) = 0.38269 0.05201
# Poissons Ratio (z) = 0.42415 0.05217
#
# Static dielectric constant tensor:
#      x y z
#    x 3.833790 0.000000 -0.120480 
#    y 0.000000 3.278400 0.000000 
#    z -0.120480 0.000000 3.540800 
# 
# 
# High freq. dielectric constant tensor:
#      x y z
#    x 1.779860 0.000000 -0.008530 
#    y 0.000000 1.733320 0.000000 
#    z -0.008530 0.000000 1.754540 
# 
# From -- ./inp_files/349364.got.cif
#   From: 2010.06.25/outbox.cif.g09.slc.cpg/sg12_175_cif.got.tgz:349364.got - 2010.06.28 00:19:55.
