data_PCOD8083610
_publ_section_title
;
Structure prediction by ZEFSAII (Michael W. Deem and Ramdas Pophale) SiO2 
 PCOD8083610
Probable space group: C 2/M
;
_chemical_formula_sum "Si O2"
_cell_formula_units_Z 48
_cell_length_a 19.064211
_cell_length_b 14.465269
_cell_length_c 17.010591
_cell_angle_alpha 90.000000
_cell_angle_beta 149.341424
_cell_angle_gamma 90.000000
_cell_volume 2392.036248
_symmetry_space_group_name_H-M "C 2/M"
_symmetry_group_IT_number 12
_symmetry_cell_setting 'monoclinic'
loop_
_space_group_symop_operation_xyz
x,y,z
-x,y,-z
-x,-y,-z
x,-y,z
1/2+x,1/2+y,z
1/2-x,1/2+y,-z
1/2-x,1/2-y,-z
1/2+x,1/2-y,z
loop_
_atom_site_type_symbol
_atom_site_label
_atom_site_fract_x
_atom_site_fract_y
_atom_site_fract_z
Si Si1 0.385589 0.000000 0.457918
Si Si2 0.780268 0.300474 0.185223
Si Si3 0.635166 0.000000 0.787256
Si Si4 0.837376 0.000000 0.106442
Si Si5 0.284387 0.315870 0.706617
Si Si6 0.447558 0.701938 0.593417
Si Si7 0.999121 0.000000 0.404612
Si Si8 0.542574 0.317264 0.849636
O O1 0.500000 0.000000 0.500000
O O2 0.469760 0.000000 0.621972
O O3 0.290334 0.912755 0.363000
O O4 0.806170 0.409975 0.200965
O O5 0.702056 0.280127 0.191240
O O6 0.921070 0.242222 0.326704
O O7 0.678997 0.266485 0.016704
O O8 0.679764 0.000000 0.922674
O O9 0.848890 0.000000 0.213672
O O10 0.917801 0.915235 0.147103
O O11 0.195624 0.245458 0.569653
O O12 0.434957 0.327261 0.816270
O O13 0.427345 0.592670 0.556167
O O14 0.474456 0.734403 0.709693
O O15 0.000000 0.000000 0.500000
#
# Coordination Sequence:
#
# PCOD8083610 Si02
#       8
#     4   8   4   4   8   8   4   8
#     4  12  19  33  54  89 119 149 181 218 269 340
#     4  11  20  36  58  83 112 148 184 225 273 341
#     4  10  18  33  54  85 117 145 175 218 266 347
#     4   8  19  35  53  77 116 149 181 215 279 329
#     4  12  21  34  57  86 116 145 182 226 280 337
#     4  11  22  38  58  78 107 148 193 234 277 327
#     4  10  20  37  58  80  99 135 197 247 271 303
#     4  10  22  36  53  82 117 148 180 228 284 333
#
# _framework density 20.066586000000001
#
# number of rings (size 3 to 8) (size 9 to 14) (size 15 to 20)
#    0.000    1.333    3.333    3.500    0.000    0.000 
#    0.000    3.333    0.000    1.000    0.000    3.500 
#    0.000    0.000    0.000    0.000    0.000    0.000 
#
# Total GULP energy -297371.561793 kJ/mol
# GULP energy per Si atom -12390.481741 kJ/mol
# Density = 2.002091 g / cm^3
# Si number density = 20.066586 Si / 1000 Ang^3
#
#
#
# Elastic Constant Matrix: (Units=GPa)
#
#
# Indices 1 2 3 4 5 6 
#
# 1 79.6777 -0.9470 17.0586 0.0000 -13.3288 0.0000
# 2 -0.9470 77.1440 11.2629 0.0000 -1.2314 0.0000
# 3 17.0586 11.2629 93.6294 -0.0001 -22.3977 0.0000
# 4 0.0000 0.0000 -0.0001 17.3163 -0.0001 -12.6739
# 5 -13.3288 -1.2314 -22.3977 -0.0001 41.6761 0.0000
# 6 0.0000 0.0000 0.0000 -12.6739 0.0000 19.1616
#
#
#
# Elastic Compliance Matrix: (Units=1/GPa)
#
#
# Indices 1 2 3 4 5 6 
#
# 1 0.013491 0.000468 -0.001697 0.000000 0.003417 0.000000
# 2 0.000468 0.013221 -0.001775 0.000000 -0.000413 0.000000
# 3 -0.001697 -0.001775 0.012692 0.000000 0.006226 0.000000
# 4 0.000000 0.000000 0.000000 0.111938 0.000000 0.074038
# 5 0.003417 -0.000413 0.006226 0.000000 0.028421 0.000000
# 6 0.000000 0.000000 0.000000 0.074038 0.000000 0.101158
#
#
# Mechanical properties :
#
#
# Convention : Reuss Voigt Hill
#
# Bulk Modulus (GPa) = 29.94264 33.91114 31.92689
# Shear Modulus (GPa) = 16.77511 30.50257 23.63884
#
# Velocity S-wave (km/s) = 2.89446 3.90303 3.43595
# Velocity P-wave (km/s) = 5.11122 6.10308 5.62904
#
# Compressibility (1/GPa) = 0.03339719
#
# Stress axis : x y z
#
# Youngs Moduli (GPa) = 74.12367 75.63731 78.78729
#
# Poissons Ratio (x) = -0.03539 0.13370
# Poissons Ratio (y) = -0.03468 0.13981
# Poissons Ratio (z) = 0.12578 0.13422
#
# Static dielectric constant tensor:
#      x y z
#    x 3.682930 0.000000 -0.470630 
#    y 0.000000 3.561900 0.000000 
#    z -0.470630 0.000000 4.238000 
# 
# 
# High freq. dielectric constant tensor:
#      x y z
#    x 1.763250 0.000000 -0.033360 
#    y 0.000000 1.774180 0.000000 
#    z -0.033360 0.000000 1.798040 
# 
# From -- ./inp_files/278289.got.cif
#   From: 2010.06.25/outbox.cif.g09.slc.cpg/sg12_140_cif.got.tgz:278289.got - 2010.06.28 00:19:55.
