data_PCOD8083163
_publ_section_title
;
Structure prediction by ZEFSAII (Michael W. Deem and Ramdas Pophale) SiO2 
 PCOD8083163
Probable space group: C 2/M
;
_chemical_formula_sum "Si O2"
_cell_formula_units_Z 64
_cell_length_a 23.679511
_cell_length_b 12.533420
_cell_length_c 12.541929
_cell_angle_alpha 90.000000
_cell_angle_beta 79.115776
_cell_angle_gamma 90.000000
_cell_volume 3655.298928
_symmetry_space_group_name_H-M "C 2/M"
_symmetry_group_IT_number 12
_symmetry_cell_setting 'monoclinic'
loop_
_space_group_symop_operation_xyz
x,y,z
-x,y,-z
-x,-y,-z
x,-y,z
1/2+x,1/2+y,z
1/2-x,1/2+y,-z
1/2-x,1/2-y,-z
1/2+x,1/2-y,z
loop_
_atom_site_type_symbol
_atom_site_label
_atom_site_fract_x
_atom_site_fract_y
_atom_site_fract_z
Si Si1 0.434870 0.212926 0.512327
Si Si2 0.342386 0.254612 0.254091
Si Si3 0.654251 0.622108 0.532112
Si Si4 0.795885 0.873787 0.072344
Si Si5 0.924301 0.376170 0.743986
Si Si6 0.180660 0.748407 0.143116
Si Si7 0.768291 0.121681 0.689517
Si Si8 0.055313 0.378555 0.714737
O O1 0.500000 0.252920 0.500000
O O2 0.397838 0.318302 0.507047
O O3 0.413893 0.149892 0.623697
O O4 0.428469 0.131713 0.415752
O O5 0.331768 0.332496 0.356966
O O6 0.335271 0.322094 0.149616
O O7 0.297212 0.158474 0.277028
O O8 0.405723 0.202095 0.230307
O O9 0.635388 0.500000 0.550664
O O10 0.711330 0.633993 0.439823
O O11 0.729529 0.840681 0.108739
O O12 0.800981 0.000000 0.077044
O O13 0.820055 0.833880 0.951207
O O14 0.911758 0.500000 0.766303
O O15 0.880886 0.309266 0.832601
O O16 0.988929 0.346652 0.757129
O O17 0.190352 0.809054 0.250436
O O18 0.771632 0.000000 0.726830
O O19 0.066683 0.500000 0.746184
#
# Coordination Sequence:
#
# PCOD8083163 Si02
#       8
#     8   8   8   8   8   8   8   8
#     4   9  17  30  49  75 108 141 172 207 250 306
#     4  10  20  34  52  73 105 140 177 208 250 308
#     4  10  19  31  48  73 107 139 171 211 255 304
#     4  10  21  37  56  76 102 137 175 215 258 304
#     4  10  18  32  54  79 107 133 168 214 260 308
#     4  10  20  35  56  80 103 130 171 218 264 305
#     4  10  19  32  52  76 104 134 168 215 262 308
#     4   9  18  32  52  78 107 140 171 206 254 307
#
# _framework density 17.508828000000001
#
# number of rings (size 3 to 8) (size 9 to 14) (size 15 to 20)
#    0.000    2.250    1.250    2.250    0.000    1.750 
#    0.000    2.500    0.000    4.500    0.000    0.000 
#    0.000    0.000    0.000    0.000    0.000    0.000 
#
# Total GULP energy -396872.694283 kJ/mol
# GULP energy per Si atom -12402.271696 kJ/mol
# Density = 1.746898 g / cm^3
# Si number density = 17.508828 Si / 1000 Ang^3
#
#
#
# Elastic Constant Matrix: (Units=GPa)
#
#
# Indices 1 2 3 4 5 6 
#
# 1 96.0798 53.0534 36.7823 0.0000 -2.0389 0.0000
# 2 53.0534 105.9380 27.4715 0.0000 -7.7373 0.0000
# 3 36.7823 27.4715 60.5840 0.0000 -2.6577 0.0000
# 4 0.0000 0.0000 0.0000 18.0925 0.0000 -6.7776
# 5 -2.0389 -7.7373 -2.6577 0.0000 25.1660 0.0000
# 6 0.0000 0.0000 0.0000 -6.7776 0.0000 20.7496
#
#
#
# Elastic Compliance Matrix: (Units=1/GPa)
#
#
# Indices 1 2 3 4 5 6 
#
# 1 0.016832 -0.006651 -0.007267 0.000000 -0.001448 0.000000
# 2 -0.006651 0.013524 -0.001945 0.000000 0.003414 0.000000
# 3 -0.007267 -0.001945 0.021849 0.000000 0.001121 0.000000
# 4 0.000000 0.000000 0.000000 0.062978 0.000000 0.020571
# 5 -0.001448 0.003414 0.001121 0.000000 0.040787 0.000000
# 6 0.000000 0.000000 0.000000 0.020571 0.000000 0.054913
#
#
# Mechanical properties :
#
#
# Convention : Reuss Voigt Hill
#
# Bulk Modulus (GPa) = 48.82833 55.24625 52.03729
# Shear Modulus (GPa) = 20.04552 22.48792 21.26672
#
# Velocity S-wave (km/s) = 3.38728 3.58771 3.48893
# Velocity P-wave (km/s) = 6.57621 6.98456 6.78346
#
# Compressibility (1/GPa) = 0.02047991
#
# Stress axis : x y z
#
# Youngs Moduli (GPa) = 59.41226 73.94435 45.76887
#
# Poissons Ratio (x) = 0.49177 0.33259
# Poissons Ratio (y) = 0.39512 0.08901
# Poissons Ratio (z) = 0.43174 0.14380
#
# Static dielectric constant tensor:
#      x y z
#    x 3.275650 0.000000 0.031060 
#    y 0.000000 3.196500 0.000000 
#    z 0.031060 0.000000 3.187600 
# 
# 
# High freq. dielectric constant tensor:
#      x y z
#    x 1.673590 0.000000 0.000960 
#    y 0.000000 1.680700 0.000000 
#    z 0.000960 0.000000 1.669090 
# 
# From -- ./inp_files/174581.got.cif
#   From: 2010.06.25/outbox.cif.g09.slc.cpg/sg12_88_cif.got.tgz:174581.got - 2010.06.28 00:19:55.
