data_PCOD8083801
_publ_section_title
;
Structure prediction by ZEFSAII (Michael W. Deem and Ramdas Pophale) SiO2 
 PCOD8083801
Probable space group: C 2/M
;
_chemical_formula_sum "Si O2"
_cell_formula_units_Z 56
_cell_length_a 9.261077
_cell_length_b 17.443390
_cell_length_c 21.962339
_cell_angle_alpha 90.000000
_cell_angle_beta 50.941217
_cell_angle_gamma 90.000000
_cell_volume 2754.941487
_symmetry_space_group_name_H-M "C 2/M"
_symmetry_group_IT_number 12
_symmetry_cell_setting 'monoclinic'
loop_
_space_group_symop_operation_xyz
x,y,z
-x,y,-z
-x,-y,-z
x,-y,z
1/2+x,1/2+y,z
1/2-x,1/2+y,-z
1/2-x,1/2-y,-z
1/2+x,1/2-y,z
loop_
_atom_site_type_symbol
_atom_site_label
_atom_site_fract_x
_atom_site_fract_y
_atom_site_fract_z
Si Si1 0.961607 0.586764 0.902095
Si Si2 0.462207 0.911746 0.650073
Si Si3 0.328589 0.707747 0.307065
Si Si4 0.290210 0.873546 0.822141
Si Si5 0.582259 0.588831 0.039404
Si Si6 0.762936 0.209599 0.794117
Si Si7 0.785641 0.195893 0.548197
O O1 0.031903 0.500000 0.898893
O O2 0.867961 0.583730 0.860342
O O3 0.129895 0.646423 0.859610
O O4 0.797595 0.616239 0.992721
O O5 0.310552 0.863456 0.653235
O O6 0.421051 0.900546 0.732458
O O7 0.666269 0.882234 0.575907
O O8 0.447957 0.000000 0.635000
O O9 0.310811 0.759353 0.250946
O O10 0.532981 0.672000 0.263569
O O11 0.288380 0.762552 0.373119
O O12 0.290892 0.782111 0.831292
O O13 0.070690 0.895333 0.867132
O O14 0.607628 0.500000 0.020689
O O15 0.500000 0.628563 0.000000
O O16 0.750000 0.250000 0.500000
O O17 0.000000 0.173602 0.500000
#
# Coordination Sequence:
#
# PCOD8083801 Si02
#       7
#     8   8   8   8   8   8   8
#     4  10  19  32  53  83 117 153 198 246 286 331
#     4  11  23  38  62  91 119 148 194 243 285 341
#     4  11  21  40  60  88 116 153 193 228 290 348
#     4  10  18  33  58  82 114 155 197 236 286 342
#     4   8  15  28  48  78 115 153 193 238 290 337
#     4  11  20  35  59  84 116 153 193 244 277 345
#     4  12  22  40  66  88 115 158 187 227 292 356
#
# _framework density 20.327110000000001
#
# number of rings (size 3 to 8) (size 9 to 14) (size 15 to 20)
#    0.000    1.571    5.714    2.143    0.000    1.429 
#    0.000    1.429    0.000    3.429    0.000    9.000 
#    0.000    0.000    0.000    0.000    0.000    0.000 
#
# Total GULP energy -346932.098453 kJ/mol
# GULP energy per Si atom -12390.432088 kJ/mol
# Density = 2.028084 g / cm^3
# Si number density = 20.327110 Si / 1000 Ang^3
#
#
#
# Elastic Constant Matrix: (Units=GPa)
#
#
# Indices 1 2 3 4 5 6 
#
# 1 75.5087 24.9254 31.9931 0.0002 -37.5877 0.0009
# 2 24.9254 106.8735 19.8810 -0.0009 -23.5983 0.0004
# 3 31.9931 19.8810 86.7254 -0.0030 -38.0296 -0.0009
# 4 0.0002 -0.0009 -0.0030 23.6976 0.0006 -11.2111
# 5 -37.5877 -23.5983 -38.0296 0.0006 47.6322 -0.0002
# 6 0.0009 0.0004 -0.0009 -11.2111 -0.0002 19.3420
#
#
#
# Elastic Compliance Matrix: (Units=1/GPa)
#
#
# Indices 1 2 3 4 5 6 
#
# 1 0.022043 -0.001452 -0.000749 -0.000002 0.016078 -0.000002
# 2 -0.001452 0.010604 -0.000145 0.000000 0.003992 0.000000
# 3 -0.000749 -0.000145 0.017771 0.000003 0.013526 0.000003
# 4 -0.000002 0.000000 0.000003 0.058142 0.000001 0.033700
# 5 0.016078 0.003992 0.013526 0.000001 0.046459 0.000001
# 6 -0.000002 0.000000 0.000003 0.033700 0.000001 0.071235
#
#
# Mechanical properties :
#
#
# Convention : Reuss Voigt Hill
#
# Bulk Modulus (GPa) = 21.86820 46.96742 34.41781
# Shear Modulus (GPa) = 20.30979 30.95492 25.63235
#
# Velocity S-wave (km/s) = 3.16436 3.90659 3.55490
# Velocity P-wave (km/s) = 4.91247 6.59580 5.81537
#
# Compressibility (1/GPa) = 0.04572851
#
# Stress axis : x y z
#
# Youngs Moduli (GPa) = 45.36492 94.30513 56.27061
#
# Poissons Ratio (x) = 0.13690 0.04213
# Poissons Ratio (y) = 0.06585 0.00814
# Poissons Ratio (z) = 0.03397 0.01364
#
# Static dielectric constant tensor:
#      x y z
#    x 3.551530 0.000000 -0.319430 
#    y 0.000000 3.590060 0.000000 
#    z -0.319430 0.000000 3.987190 
# 
# 
# High freq. dielectric constant tensor:
#      x y z
#    x 1.781230 0.000000 -0.025750 
#    y 0.000000 1.777170 0.000000 
#    z -0.025750 0.000000 1.802260 
# 
# From -- ./inp_files/333310.got.cif
#   From: 2010.06.25/outbox.cif.g09.slc.cpg/sg12_167_cif.got.tgz:333310.got - 2010.06.28 00:19:55.
