data_PCOD8083889
_publ_section_title
;
Structure prediction by ZEFSAII (Michael W. Deem and Ramdas Pophale) SiO2 
 PCOD8083889
Probable space group: C 2/M
;
_chemical_formula_sum "Si O2"
_cell_formula_units_Z 40
_cell_length_a 17.148217
_cell_length_b 14.893287
_cell_length_c 14.306797
_cell_angle_alpha 90.000000
_cell_angle_beta 149.267885
_cell_angle_gamma 90.000000
_cell_volume 1867.213237
_symmetry_space_group_name_H-M "C 2/M"
_symmetry_group_IT_number 12
_symmetry_cell_setting 'monoclinic'
loop_
_space_group_symop_operation_xyz
x,y,z
-x,y,-z
-x,-y,-z
x,-y,z
1/2+x,1/2+y,z
1/2-x,1/2+y,-z
1/2-x,1/2-y,-z
1/2+x,1/2-y,z
loop_
_atom_site_type_symbol
_atom_site_label
_atom_site_fract_x
_atom_site_fract_y
_atom_site_fract_z
Si Si1 0.775390 0.098702 0.189072
Si Si2 0.902109 0.768322 0.987793
Si Si3 0.631457 0.399813 0.320292
Si Si4 0.611843 0.350731 0.500150
Si Si5 0.148751 0.345937 0.607129
O O1 0.663230 0.176352 0.033124
O O2 0.788373 0.105061 0.315095
O O3 0.943049 0.108349 0.318088
O O4 0.710763 0.000000 0.096206
O O5 0.764625 0.831059 0.811996
O O6 0.000000 0.737251 0.000000
O O7 0.003788 0.825830 0.163501
O O8 0.560127 0.500000 0.249033
O O9 0.695610 0.371394 0.488261
O O10 0.770772 0.404144 0.390310
O O11 0.595254 0.245955 0.503730
O O12 0.000000 0.393688 0.500000
#
# Coordination Sequence:
#
# PCOD8083889 Si02
#       5
#     8   8   8   8   8
#     4  10  18  33  60  86 115 152 189 234 291 351
#     4   9  20  36  55  82 116 154 189 233 290 340
#     4  11  23  36  58  89 118 154 195 236 284 339
#     4  10  18  36  60  86 115 146 191 242 291 346
#     4  10  19  39  61  83 111 155 198 234 288 339
#
# _framework density 21.4223
#
# number of rings (size 3 to 8) (size 9 to 14) (size 15 to 20)
#    0.000    2.000    4.000    3.000    0.000    5.200 
#    0.000    0.000    0.000    1.200    0.000    0.000 
#    0.000    0.000    0.000    0.000    0.000    0.000 
#
# Total GULP energy -247905.447631 kJ/mol
# GULP energy per Si atom -12395.272382 kJ/mol
# Density = 2.137354 g / cm^3
# Si number density = 21.422300 Si / 1000 Ang^3
#
#
#
# Elastic Constant Matrix: (Units=GPa)
#
#
# Indices 1 2 3 4 5 6 
#
# 1 91.7476 19.5107 38.0971 0.0001 -3.2742 0.0001
# 2 19.5107 111.2233 22.1661 0.0001 -5.2957 0.0001
# 3 38.0971 22.1661 57.6930 0.0003 13.2388 0.0004
# 4 0.0001 0.0001 0.0003 17.0326 0.0002 5.9553
# 5 -3.2742 -5.2957 13.2388 0.0002 27.5860 0.0002
# 6 0.0001 0.0001 0.0004 5.9553 0.0002 23.8861
#
#
#
# Elastic Compliance Matrix: (Units=1/GPa)
#
#
# Indices 1 2 3 4 5 6 
#
# 1 0.016472 0.000035 -0.012744 0.000000 0.008078 0.000000
# 2 0.000035 0.010171 -0.004922 0.000000 0.004319 0.000000
# 3 -0.012744 -0.004922 0.031694 0.000000 -0.017668 0.000000
# 4 0.000000 0.000000 0.000000 0.064318 0.000000 -0.016036
# 5 0.008078 0.004319 -0.017668 0.000000 0.046517 0.000000
# 6 0.000000 0.000000 0.000000 -0.016036 0.000000 0.045864
#
#
# Mechanical properties :
#
#
# Convention : Reuss Voigt Hill
#
# Bulk Modulus (GPa) = 43.33749 46.69022 45.01386
# Shear Modulus (GPa) = 19.38055 25.76027 22.57041
#
# Velocity S-wave (km/s) = 3.01107 3.47147 3.24943
# Velocity P-wave (km/s) = 5.68882 6.15716 5.92762
#
# Compressibility (1/GPa) = 0.02307471
#
# Stress axis : x y z
#
# Youngs Moduli (GPa) = 60.70798 98.31525 31.55162
#
# Poissons Ratio (x) = -0.00344 0.40211
# Poissons Ratio (y) = -0.00212 0.15530
# Poissons Ratio (z) = 0.77369 0.48391
#
# Static dielectric constant tensor:
#      x y z
#    x 4.015880 0.000000 0.162690 
#    y 0.000000 3.806250 0.000000 
#    z 0.162690 0.000000 3.735580 
# 
# 
# High freq. dielectric constant tensor:
#      x y z
#    x 1.838840 0.000000 0.008840 
#    y 0.000000 1.836410 0.000000 
#    z 0.008840 0.000000 1.807820 
# 
# From -- ./inp_files/59198.got.cif
#   From: 2010.06.25/outbox.cif.g09.slc.cpg/sg12_30_cif.got.tgz:59198.got - 2010.06.28 00:19:55.
