data_PCOD8083758
_publ_section_title
;
Structure prediction by ZEFSAII (Michael W. Deem and Ramdas Pophale) SiO2 
 PCOD8083758
Probable space group: C 2/M
;
_chemical_formula_sum "Si O2"
_cell_formula_units_Z 56
_cell_length_a 27.702476
_cell_length_b 17.984230
_cell_length_c 18.626507
_cell_angle_alpha 90.000000
_cell_angle_beta 18.355164
_cell_angle_gamma 90.000000
_cell_volume 2922.290307
_symmetry_space_group_name_H-M "C 2/M"
_symmetry_group_IT_number 12
_symmetry_cell_setting 'monoclinic'
loop_
_space_group_symop_operation_xyz
x,y,z
-x,y,-z
-x,-y,-z
x,-y,z
1/2+x,1/2+y,z
1/2-x,1/2+y,-z
1/2-x,1/2-y,-z
1/2+x,1/2-y,z
loop_
_atom_site_type_symbol
_atom_site_label
_atom_site_fract_x
_atom_site_fract_y
_atom_site_fract_z
Si Si1 0.635059 0.787217 0.105880
Si Si2 0.663181 0.308855 0.475640
Si Si3 0.200476 0.723143 0.856000
Si Si4 0.440756 0.918438 0.692870
Si Si5 0.924892 0.916337 0.277863
Si Si6 0.622438 0.273458 0.734455
Si Si7 0.229054 0.614639 0.207452
O O1 0.500371 0.728858 0.279907
O O2 0.564593 0.864900 0.231314
O O3 0.750000 0.750000 0.000000
O O4 0.714518 0.807191 0.917551
O O5 0.695124 0.326993 0.346211
O O6 0.659357 0.381702 0.532286
O O7 0.806456 0.251500 0.289543
O O8 0.269570 0.805253 0.757947
O O9 0.026190 0.725370 0.074699
O O10 0.335604 0.879382 0.781622
O O11 0.613375 0.931861 0.420402
O O12 0.376357 0.000000 0.804470
O O13 0.899369 0.862941 0.244078
O O14 0.859416 0.000000 0.357417
O O15 0.106667 0.923855 0.031487
O O16 0.750000 0.250000 0.500000
#
# Coordination Sequence:
#
# PCOD8083758 Si02
#       7
#     8   8   8   8   8   8   8
#     4  12  22  36  56  85 114 151 196 234 277 338
#     4  11  21  37  59  83 115 150 191 234 284 337
#     4  11  20  35  60  86 107 148 194 239 271 342
#     4  11  21  33  52  80 119 152 183 234 295 344
#     4  10  19  35  59  88 115 145 189 236 287 342
#     4   9  18  36  60  81 106 146 189 229 281 330
#     4  10  18  33  57  81 111 147 191 237 285 342
#
# _framework density 19.163050999999999
#
# number of rings (size 3 to 8) (size 9 to 14) (size 15 to 20)
#    0.000    1.429    7.143    2.143    0.000    0.571 
#    0.000    1.429    0.000    8.571    0.000    4.000 
#    0.000    0.000    0.000    0.000    0.000    0.000 
#
# Total GULP energy -346936.923071 kJ/mol
# GULP energy per Si atom -12390.604395 kJ/mol
# Density = 1.911944 g / cm^3
# Si number density = 19.163051 Si / 1000 Ang^3
#
#
#
# Elastic Constant Matrix: (Units=GPa)
#
#
# Indices 1 2 3 4 5 6 
#
# 1 82.9294 21.7877 32.8722 -0.0004 10.5454 -0.0007
# 2 21.7877 77.3853 16.9725 0.0029 0.0857 -0.0021
# 3 32.8722 16.9725 66.9057 0.0015 5.8841 -0.0004
# 4 -0.0004 0.0029 0.0015 16.7141 0.0016 2.0415
# 5 10.5454 0.0857 5.8841 0.0016 41.4697 -0.0001
# 6 -0.0007 -0.0021 -0.0004 2.0415 -0.0001 14.1826
#
#
#
# Elastic Compliance Matrix: (Units=1/GPa)
#
#
# Indices 1 2 3 4 5 6 
#
# 1 0.015930 -0.002991 -0.006797 0.000002 -0.003080 0.000000
# 2 -0.002991 0.014254 -0.002239 -0.000003 0.001049 0.000002
# 3 -0.006797 -0.002239 0.018938 -0.000001 -0.000954 0.000000
# 4 0.000002 -0.000003 -0.000001 0.060900 -0.000003 -0.008766
# 5 -0.003080 0.001049 -0.000954 -0.000003 0.025030 0.000001
# 6 0.000000 0.000002 0.000000 -0.008766 0.000001 0.071771
#
#
# Mechanical properties :
#
#
# Convention : Reuss Voigt Hill
#
# Bulk Modulus (GPa) = 39.89050 41.16500 40.52775
# Shear Modulus (GPa) = 20.90005 24.84583 22.87294
#
# Velocity S-wave (km/s) = 3.30607 3.60467 3.45859
# Velocity P-wave (km/s) = 5.95273 6.23321 6.09459
#
# Compressibility (1/GPa) = 0.02506863
#
# Stress axis : x y z
#
# Youngs Moduli (GPa) = 62.77351 70.15431 52.80425
#
# Poissons Ratio (x) = 0.20983 0.35892
# Poissons Ratio (y) = 0.18775 0.11821
# Poissons Ratio (z) = 0.42669 0.15706
#
# Static dielectric constant tensor:
#      x y z
#    x 7.788180 0.000030 -1.476700 
#    y 0.000030 3.399530 -0.000020 
#    z -1.476700 -0.000020 4.118840 
# 
# 
# High freq. dielectric constant tensor:
#      x y z
#    x 1.742330 0.000000 0.000590 
#    y 0.000000 1.713640 0.000000 
#    z 0.000590 0.000000 1.752040 
# 
# From -- ./inp_files/293847.got.cif
#   From: 2010.06.25/outbox.cif.g09.slc.cpg/sg12_147_cif.got.tgz:293847.got - 2010.06.28 00:19:55.
