data_PCOD8083263
_publ_section_title
;
Structure prediction by ZEFSAII (Michael W. Deem and Ramdas Pophale) SiO2 
 PCOD8083263
Probable space group: C 2/M
;
_chemical_formula_sum "Si O2"
_cell_formula_units_Z 48
_cell_length_a 24.537376
_cell_length_b 8.973272
_cell_length_c 11.791697
_cell_angle_alpha 90.000000
_cell_angle_beta 110.622625
_cell_angle_gamma 90.000000
_cell_volume 2429.932636
_symmetry_space_group_name_H-M "C 2/M"
_symmetry_group_IT_number 12
_symmetry_cell_setting 'monoclinic'
loop_
_space_group_symop_operation_xyz
x,y,z
-x,y,-z
-x,-y,-z
x,-y,z
1/2+x,1/2+y,z
1/2-x,1/2+y,-z
1/2-x,1/2-y,-z
1/2+x,1/2-y,z
loop_
_atom_site_type_symbol
_atom_site_label
_atom_site_fract_x
_atom_site_fract_y
_atom_site_fract_z
Si Si1 0.738377 0.323660 0.870518
Si Si2 0.937801 0.165471 0.009822
Si Si3 0.653937 0.174222 0.204828
Si Si4 0.873018 0.176804 0.345776
Si Si5 0.021731 0.823160 0.720528
Si Si6 0.109452 0.822933 0.390527
O O1 0.737107 0.500000 0.888129
O O2 0.787586 0.277072 0.816511
O O3 0.678012 0.261733 0.773181
O O4 0.750000 0.250000 0.000000
O O5 0.945695 0.229273 0.141714
O O6 0.908478 0.000000 0.989005
O O7 0.899940 0.281756 0.913030
O O8 0.000000 0.150703 0.000000
O O9 0.650235 0.255624 0.323096
O O10 0.652240 0.000000 0.226972
O O11 0.936798 0.233051 0.351313
O O12 0.863885 0.227463 0.469017
O O13 0.871557 0.000000 0.338333
O O14 0.956509 0.757492 0.665067
O O15 0.015834 0.000000 0.715152
O O16 0.109131 0.000000 0.375912
#
# Coordination Sequence:
#
# PCOD8083263 Si02
#       6
#     8   8   8   8   8   8
#     4  10  22  40  59  81 108 143 185 226 271 325
#     4  10  18  32  55  82 108 137 182 228 265 317
#     4  11  23  36  52  79 116 149 178 219 275 332
#     4   9  18  33  56  81 106 140 183 230 273 314
#     4   9  16  29  53  84 110 132 172 233 281 312
#     4  10  19  34  56  82 108 139 183 228 272 323
#
# _framework density 19.753634000000002
#
# number of rings (size 3 to 8) (size 9 to 14) (size 15 to 20)
#    0.000    2.167    1.667    2.000    0.000    5.667 
#    0.000    0.833    0.000    3.000    0.000    0.000 
#    0.000    0.000    0.000    0.000    0.000    0.000 
#
# Total GULP energy -297532.810397 kJ/mol
# GULP energy per Si atom -12397.200433 kJ/mol
# Density = 1.970867 g / cm^3
# Si number density = 19.753634 Si / 1000 Ang^3
#
#
#
# Elastic Constant Matrix: (Units=GPa)
#
#
# Indices 1 2 3 4 5 6 
#
# 1 120.1631 28.8027 67.1037 0.0000 -15.7165 0.0000
# 2 28.8027 28.7831 31.8135 0.0000 -8.3522 0.0000
# 3 67.1037 31.8135 152.5340 0.0000 -19.5264 0.0000
# 4 0.0000 0.0000 0.0000 24.4444 0.0000 -0.9165
# 5 -15.7165 -8.3522 -19.5264 0.0000 35.1053 0.0000
# 6 0.0000 0.0000 0.0000 -0.9165 0.0000 33.3897
#
#
#
# Elastic Compliance Matrix: (Units=1/GPa)
#
#
# Indices 1 2 3 4 5 6 
#
# 1 0.012473 -0.008016 -0.003601 0.000000 0.001674 0.000000
# 2 -0.008016 0.051477 -0.006569 0.000000 0.005005 0.000000
# 3 -0.003601 -0.006569 0.009802 0.000000 0.002277 0.000000
# 4 0.000000 0.000000 0.000000 0.040951 0.000000 0.001124
# 5 0.001674 0.005005 0.002277 0.000000 0.031692 0.000000
# 6 0.000000 0.000000 0.000000 0.001124 0.000000 0.029980
#
#
# Mechanical properties :
#
#
# Convention : Reuss Voigt Hill
#
# Bulk Modulus (GPa) = 26.75262 61.88000 44.31631
# Shear Modulus (GPa) = 22.20164 30.17188 26.18676
#
# Velocity S-wave (km/s) = 3.35614 3.91245 3.64492
# Velocity P-wave (km/s) = 5.34703 7.19747 6.34012
#
# Compressibility (1/GPa) = 0.03737952
#
# Stress axis : x y z
#
# Youngs Moduli (GPa) = 80.17065 19.42617 102.02189
#
# Poissons Ratio (x) = 0.15571 0.36741
# Poissons Ratio (y) = 0.64262 0.67022
# Poissons Ratio (z) = 0.28872 0.12762
#
# Static dielectric constant tensor:
#      x y z
#    x 3.798890 0.000000 -0.132990 
#    y 0.000000 3.199940 0.000000 
#    z -0.132990 0.000000 3.345710 
# 
# 
# High freq. dielectric constant tensor:
#      x y z
#    x 1.778010 0.000000 -0.009810 
#    y 0.000000 1.717240 0.000000 
#    z -0.009810 0.000000 1.784780 
# 
# From -- ./inp_files/172891.got.cif
#   From: 2010.06.25/outbox.cif.g09.slc.cpg/sg12_87_cif.got.tgz:172891.got - 2010.06.28 00:19:55.
