data_PCOD8083231
_publ_section_title
;
Structure prediction by ZEFSAII (Michael W. Deem and Ramdas Pophale) SiO2 
 PCOD8083231
Probable space group: C 2/M
;
_chemical_formula_sum "Si O2"
_cell_formula_units_Z 48
_cell_length_a 14.845753
_cell_length_b 8.942053
_cell_length_c 18.874779
_cell_angle_alpha 90.000000
_cell_angle_beta 91.173382
_cell_angle_gamma 90.000000
_cell_volume 2505.129992
_symmetry_space_group_name_H-M "C 2/M"
_symmetry_group_IT_number 12
_symmetry_cell_setting 'monoclinic'
loop_
_space_group_symop_operation_xyz
x,y,z
-x,y,-z
-x,-y,-z
x,-y,z
1/2+x,1/2+y,z
1/2-x,1/2+y,-z
1/2-x,1/2-y,-z
1/2+x,1/2-y,z
loop_
_atom_site_type_symbol
_atom_site_label
_atom_site_fract_x
_atom_site_fract_y
_atom_site_fract_z
Si Si1 0.395321 0.674356 0.491293
Si Si2 0.603314 0.825169 0.140536
Si Si3 0.593037 0.174854 0.836936
Si Si4 0.751294 0.325558 0.393558
Si Si5 0.154712 0.676954 0.990851
Si Si6 0.743331 0.677487 0.755239
O O1 0.500000 0.728638 0.500000
O O2 0.393720 0.500000 0.471367
O O3 0.338373 0.705934 0.561638
O O4 0.344006 0.762864 0.428442
O O5 0.511227 0.789733 0.179906
O O6 0.685190 0.755365 0.186891
O O7 0.620790 0.000000 0.137135
O O8 0.598415 0.767852 0.058927
O O9 0.610923 0.232212 0.917108
O O10 0.645751 0.269697 0.779564
O O11 0.616050 0.000000 0.828752
O O12 0.766224 0.500000 0.381450
O O13 0.732412 0.244676 0.319861
O O14 0.163495 0.500000 0.989549
O O15 0.250000 0.750000 0.000000
O O16 0.746163 0.500000 0.749414
#
# Coordination Sequence:
#
# PCOD8083231 Si02
#       6
#     8   8   8   8   8   8
#     4   9  19  38  63  89 116 145 178 219 267 315
#     4   9  19  35  54  77 106 143 184 226 279 334
#     4  10  20  35  56  79 104 141 187 232 277 332
#     4  10  21  37  58  85 116 147 182 220 262 321
#     4  10  18  32  55  78 104 138 181 231 281 331
#     4  11  22  37  55  77 112 148 181 226 275 324
#
# _framework density 19.160684
#
# number of rings (size 3 to 8) (size 9 to 14) (size 15 to 20)
#    0.000    2.167    1.667    1.500    0.000    4.333 
#    0.000    5.833    0.000    2.000    0.000    0.000 
#    0.000    0.000    0.000    0.000    0.000    0.000 
#
# Total GULP energy -297515.948322 kJ/mol
# GULP energy per Si atom -12396.497847 kJ/mol
# Density = 1.911707 g / cm^3
# Si number density = 19.160684 Si / 1000 Ang^3
#
#
#
# Elastic Constant Matrix: (Units=GPa)
#
#
# Indices 1 2 3 4 5 6 
#
# 1 109.0528 23.7074 32.1580 0.0000 -8.6238 0.0000
# 2 23.7074 48.4222 34.9311 0.0000 -4.1751 0.0000
# 3 32.1580 34.9311 97.6452 0.0000 -14.4007 0.0000
# 4 0.0000 0.0000 0.0000 24.9254 0.0000 0.5271
# 5 -8.6238 -4.1751 -14.4007 0.0000 18.4865 0.0000
# 6 0.0000 0.0000 0.0000 0.5271 0.0000 28.1846
#
#
#
# Elastic Compliance Matrix: (Units=1/GPa)
#
#
# Indices 1 2 3 4 5 6 
#
# 1 0.010726 -0.003719 -0.001794 0.000000 0.002766 0.000000
# 2 -0.003719 0.029169 -0.009597 0.000000 -0.002623 0.000000
# 3 -0.001794 -0.009597 0.015616 0.000000 0.009160 0.000000
# 4 0.000000 0.000000 0.000000 0.040136 0.000000 -0.000751
# 5 0.002766 -0.002623 0.009160 0.000000 0.061927 0.000000
# 6 0.000000 0.000000 0.000000 -0.000751 0.000000 0.035494
#
#
# Mechanical properties :
#
#
# Convention : Reuss Voigt Hill
#
# Bulk Modulus (GPa) = 39.53845 48.52369 44.03107
# Shear Modulus (GPa) = 21.57784 25.27423 23.42603
#
# Velocity S-wave (km/s) = 3.35946 3.63584 3.50038
# Velocity P-wave (km/s) = 5.97729 6.55784 6.27428
#
# Compressibility (1/GPa) = 0.02529184
#
# Stress axis : x y z
#
# Youngs Moduli (GPa) = 93.23042 34.28264 64.03602
#
# Poissons Ratio (x) = 0.12748 0.11490
# Poissons Ratio (y) = 0.34669 0.61455
# Poissons Ratio (z) = 0.16728 0.32901
#
# Static dielectric constant tensor:
#      x y z
#    x 3.644610 0.000000 0.112040 
#    y 0.000000 3.308730 0.000000 
#    z 0.112040 0.000000 3.804290 
# 
# 
# High freq. dielectric constant tensor:
#      x y z
#    x 1.752310 0.000000 -0.003590 
#    y 0.000000 1.724650 0.000000 
#    z -0.003590 0.000000 1.748210 
# 
# From -- ./inp_files/267693.got.cif
#   From: 2010.06.25/outbox.cif.g09.slc.cpg/sg12_134_cif.got.tgz:267693.got - 2010.06.28 00:19:55.
