data_PCOD8083931
_publ_section_title
;
Structure prediction by ZEFSAII (Michael W. Deem and Ramdas Pophale) SiO2 
 PCOD8083931
Probable space group: C 2/M
;
_chemical_formula_sum "Si O2"
_cell_formula_units_Z 56
_cell_length_a 8.834936
_cell_length_b 24.215927
_cell_length_c 15.393445
_cell_angle_alpha 90.000000
_cell_angle_beta 65.083323
_cell_angle_gamma 90.000000
_cell_volume 2986.826480
_symmetry_space_group_name_H-M "C 2/M"
_symmetry_group_IT_number 12
_symmetry_cell_setting 'monoclinic'
loop_
_space_group_symop_operation_xyz
x,y,z
-x,y,-z
-x,-y,-z
x,-y,z
1/2+x,1/2+y,z
1/2-x,1/2+y,-z
1/2-x,1/2-y,-z
1/2+x,1/2-y,z
loop_
_atom_site_type_symbol
_atom_site_label
_atom_site_fract_x
_atom_site_fract_y
_atom_site_fract_z
Si Si1 0.860977 0.717838 0.287797
Si Si2 0.723397 0.204475 0.119773
Si Si3 0.646878 0.371714 0.255716
Si Si4 0.305695 0.342162 0.270745
Si Si5 0.821645 0.935436 0.582461
Si Si6 0.186833 0.325274 0.939480
Si Si7 0.041243 0.642938 0.587671
O O1 0.701901 0.685350 0.287612
O O2 0.804820 0.780623 0.310738
O O3 0.894144 0.696769 0.377275
O O4 0.024666 0.706406 0.187970
O O5 0.824560 0.165460 0.162209
O O6 0.795809 0.266294 0.113345
O O7 0.770644 0.180351 0.014077
O O8 0.451458 0.375721 0.282071
O O9 0.691934 0.420988 0.311260
O O10 0.735142 0.373749 0.139350
O O11 0.135820 0.375723 0.328706
O O12 0.674810 0.906292 0.563412
O O13 0.000000 0.916484 0.500000
O O14 0.794924 0.000000 0.577609
O O15 0.000000 0.343260 0.000000
O O16 0.000000 0.659796 0.500000
#
# Coordination Sequence:
#
# PCOD8083931 Si02
#       7
#     8   8   8   8   8   8   8
#     4  10  18  34  49  75 122 163 192 221 263 326
#     4  10  19  29  46  77 118 165 202 226 255 301
#     4  11  20  33  55  84 115 151 188 236 279 337
#     4  11  19  33  51  79 123 158 189 223 266 325
#     4  10  23  45  69  85 101 132 184 248 306 354
#     4  11  19  28  50  80 118 160 204 231 261 312
#     4  10  22  36  56  85 111 143 186 233 287 347
#
# _framework density 18.748998
#
# number of rings (size 3 to 8) (size 9 to 14) (size 15 to 20)
#    0.000    1.571    4.286    1.714    2.000    0.857 
#    0.000    4.286    0.000    0.429    0.000    1.000 
#    0.000    0.000    0.000    0.000    0.000    0.000 
#
# Total GULP energy -347026.329847 kJ/mol
# GULP energy per Si atom -12393.797495 kJ/mol
# Density = 1.870632 g / cm^3
# Si number density = 18.748998 Si / 1000 Ang^3
#
#
#
# Elastic Constant Matrix: (Units=GPa)
#
#
# Indices 1 2 3 4 5 6 
#
# 1 108.5977 14.9881 36.2482 0.0000 -3.8983 0.0000
# 2 14.9881 36.5254 27.1584 0.0000 -9.7717 0.0000
# 3 36.2482 27.1584 112.1473 0.0000 11.6223 0.0000
# 4 0.0000 0.0000 0.0000 21.6848 0.0000 -2.1159
# 5 -3.8983 -9.7717 11.6223 0.0000 35.4028 0.0000
# 6 0.0000 0.0000 0.0000 -2.1159 0.0000 17.1486
#
#
#
# Elastic Compliance Matrix: (Units=1/GPa)
#
#
# Indices 1 2 3 4 5 6 
#
# 1 0.010558 -0.001415 -0.003261 0.000000 0.001843 0.000000
# 2 -0.001415 0.039690 -0.010635 0.000000 0.014291 0.000000
# 3 -0.003261 -0.010635 0.013342 0.000000 -0.007674 0.000000
# 4 0.000000 0.000000 0.000000 0.046677 0.000000 0.005759
# 5 0.001843 0.014291 -0.007674 0.000000 0.034913 0.000000
# 6 0.000000 0.000000 0.000000 0.005759 0.000000 0.059024
#
#
# Mechanical properties :
#
#
# Convention : Reuss Voigt Hill
#
# Bulk Modulus (GPa) = 30.33289 46.00664 38.16976
# Shear Modulus (GPa) = 20.34044 26.77228 23.55636
#
# Velocity S-wave (km/s) = 3.29733 3.78290 3.54843
# Velocity P-wave (km/s) = 5.54166 6.60847 6.09844
#
# Compressibility (1/GPa) = 0.03296752
#
# Stress axis : x y z
#
# Youngs Moduli (GPa) = 94.71350 25.19539 74.95308
#
# Poissons Ratio (x) = 0.03565 0.24442
# Poissons Ratio (y) = 0.13401 0.79714
# Poissons Ratio (z) = 0.30885 0.26796
#
# Static dielectric constant tensor:
#      x y z
#    x 3.723950 0.000000 0.089650 
#    y 0.000000 2.859730 0.000000 
#    z 0.089650 0.000000 3.752100 
# 
# 
# High freq. dielectric constant tensor:
#      x y z
#    x 1.754850 0.000000 0.010120 
#    y 0.000000 1.652540 0.000000 
#    z 0.010120 0.000000 1.739030 
# 
# From -- ./inp_files/200540.got.cif
#   From: 2010.06.25/outbox.cif.g09.slc.cpg/sg12_101_cif.got.tgz:200540.got - 2010.06.28 00:19:55.
