data_PCOD8083112
_publ_section_title
;
Structure prediction by ZEFSAII (Michael W. Deem and Ramdas Pophale) SiO2 
 PCOD8083112
Probable space group: C 2/M
;
_chemical_formula_sum "Si O2"
_cell_formula_units_Z 44
_cell_length_a 24.089616
_cell_length_b 19.399608
_cell_length_c 6.074775
_cell_angle_alpha 90.000000
_cell_angle_beta 122.152307
_cell_angle_gamma 90.000000
_cell_volume 2403.532423
_symmetry_space_group_name_H-M "C 2/M"
_symmetry_group_IT_number 12
_symmetry_cell_setting 'monoclinic'
loop_
_space_group_symop_operation_xyz
x,y,z
-x,y,-z
-x,-y,-z
x,-y,z
1/2+x,1/2+y,z
1/2-x,1/2+y,-z
1/2-x,1/2-y,-z
1/2+x,1/2-y,z
loop_
_atom_site_type_symbol
_atom_site_label
_atom_site_fract_x
_atom_site_fract_y
_atom_site_fract_z
Si Si1 0.777740 0.329960 0.940849
Si Si2 0.117209 0.649547 0.477608
Si Si3 0.219909 0.421756 0.436417
Si Si4 0.436644 0.256679 0.987554
Si Si5 0.000000 0.669196 0.500000
Si Si6 0.191169 0.813897 0.136076
O O1 0.832664 0.317189 0.242983
O O2 0.707092 0.335268 0.915539
O O3 0.792430 0.400979 0.843731
O O4 0.780908 0.264788 0.779896
O O5 0.152374 0.585314 0.431675
O O6 0.099525 0.706580 0.259842
O O7 0.051098 0.623645 0.463756
O O8 0.244705 0.500000 0.503999
O O9 0.275222 0.368951 0.633459
O O10 0.385946 0.315256 0.963939
O O11 0.500000 0.290374 0.000000
O O12 0.457490 0.215880 0.248124
#
# Coordination Sequence:
#
# PCOD8083112 Si02
#       6
#     8   8   8   8   4   8
#     4  10  20  32  57  80 111 140 182 228 276 313
#     4  10  19  34  54  81 113 142 180 222 270 321
#     4  11  23  36  53  79 114 149 183 223 268 322
#     4  10  20  32  56  86 113 136 176 225 276 322
#     4  10  18  32  53  84 113 142 174 226 268 314
#     4  10  20  34  56  84 106 141 180 229 274 321
#
# _framework density 18.306387999999998
#
# number of rings (size 3 to 8) (size 9 to 14) (size 15 to 20)
#    0.000    1.818    3.636    0.545    5.091    2.909 
#    0.000    0.455    0.000   10.909    0.000    1.909 
#    0.000    0.000    0.000    0.000    0.000    0.000 
#
# Total GULP energy -272565.814948 kJ/mol
# GULP energy per Si atom -12389.355225 kJ/mol
# Density = 1.826472 g / cm^3
# Si number density = 18.306388 Si / 1000 Ang^3
#
#
#
# Elastic Constant Matrix: (Units=GPa)
#
#
# Indices 1 2 3 4 5 6 
#
# 1 170.2008 42.7227 33.4515 0.0000 -3.8992 0.0000
# 2 42.7227 89.0454 43.9259 0.0000 0.3769 0.0000
# 3 33.4515 43.9259 102.5645 0.0000 -2.7977 0.0000
# 4 0.0000 0.0000 0.0000 12.0246 0.0000 -0.1735
# 5 -3.8992 0.3769 -2.7977 0.0000 22.8882 0.0000
# 6 0.0000 0.0000 0.0000 -0.1735 0.0000 15.3663
#
#
#
# Elastic Compliance Matrix: (Units=1/GPa)
#
#
# Indices 1 2 3 4 5 6 
#
# 1 0.006792 -0.002770 -0.000999 0.000000 0.001081 0.000000
# 2 -0.002770 0.015390 -0.005727 0.000000 -0.001425 0.000000
# 3 -0.000999 -0.005727 0.012568 0.000000 0.001460 0.000000
# 4 0.000000 0.000000 0.000000 0.083176 0.000000 0.000939
# 5 0.001081 -0.001425 0.001460 0.000000 0.044077 0.000000
# 6 0.000000 0.000000 0.000000 0.000939 0.000000 0.065088
#
#
# Mechanical properties :
#
#
# Convention : Reuss Voigt Hill
#
# Bulk Modulus (GPa) = 63.45933 66.89010 65.17471
# Shear Modulus (GPa) = 19.89362 26.16986 23.03174
#
# Velocity S-wave (km/s) = 3.30009 3.78504 3.55085
# Velocity P-wave (km/s) = 7.01863 7.46462 7.24506
#
# Compressibility (1/GPa) = 0.01575812
#
# Stress axis : x y z
#
# Youngs Moduli (GPa) = 147.23307 64.97568 79.56529
#
# Poissons Ratio (x) = 0.18000 0.07951
# Poissons Ratio (y) = 0.40788 0.45564
# Poissons Ratio (z) = 0.14712 0.37209
#
# Static dielectric constant tensor:
#      x y z
#    x 4.015160 0.000000 -0.190800 
#    y 0.000000 2.810420 0.000000 
#    z -0.190800 0.000000 3.433120 
# 
# 
# High freq. dielectric constant tensor:
#      x y z
#    x 1.735060 0.000000 -0.020230 
#    y 0.000000 1.640560 0.000000 
#    z -0.020230 0.000000 1.715130 
# 
# From -- ./inp_files/25059.got.cif
#   From: 2010.06.25/outbox.cif.g09.slc.cpg/sg12_13_cif.got.tgz:25059.got - 2010.06.28 00:19:55.
