data_PCOD8083767
_publ_section_title
;
Structure prediction by ZEFSAII (Michael W. Deem and Ramdas Pophale) SiO2 
 PCOD8083767
Probable space group: C 2/M
;
_chemical_formula_sum "Si O2"
_cell_formula_units_Z 48
_cell_length_a 20.715785
_cell_length_b 8.459086
_cell_length_c 29.315875
_cell_angle_alpha 90.000000
_cell_angle_beta 151.168523
_cell_angle_gamma 90.000000
_cell_volume 2477.344741
_symmetry_space_group_name_H-M "C 2/M"
_symmetry_group_IT_number 12
_symmetry_cell_setting 'monoclinic'
loop_
_space_group_symop_operation_xyz
x,y,z
-x,y,-z
-x,-y,-z
x,-y,z
1/2+x,1/2+y,z
1/2-x,1/2+y,-z
1/2-x,1/2-y,-z
1/2+x,1/2-y,z
loop_
_atom_site_type_symbol
_atom_site_label
_atom_site_fract_x
_atom_site_fract_y
_atom_site_fract_z
Si Si1 0.985500 0.312178 0.595162
Si Si2 0.449117 0.684232 0.902105
Si Si3 0.741791 0.187584 0.700576
Si Si4 0.276605 0.312036 0.619186
Si Si5 0.528503 0.185728 0.724266
Si Si6 0.190161 0.682923 0.097768
O O1 0.989097 0.500000 0.595982
O O2 0.846700 0.251562 0.487824
O O3 0.108650 0.241824 0.641994
O O4 0.995268 0.250189 0.652986
O O5 0.483162 0.500000 0.920691
O O6 0.373621 0.742963 0.809782
O O7 0.350797 0.713346 0.883918
O O8 0.587709 0.780001 0.992972
O O9 0.750799 0.248018 0.654545
O O10 0.731441 0.000000 0.695573
O O11 0.294069 0.500000 0.627679
O O12 0.409489 0.228161 0.684291
O O13 0.660770 0.271555 0.825141
O O14 0.553799 0.000000 0.739427
O O15 0.180432 0.500000 0.104668
#
# Coordination Sequence:
#
# PCOD8083767 Si02
#       6
#     8   8   8   8   8   8
#     4   9  17  32  56  82 106 142 187 224 260 314
#     4  10  18  33  57  83 110 140 176 218 271 325
#     4   9  17  32  56  84 110 141 180 220 264 320
#     4  10  20  34  55  82 112 143 180 224 268 315
#     4  11  21  36  55  78 111 147 183 220 270 324
#     4  11  21  34  54  82 109 137 180 228 271 314
#
# _framework density 19.375582999999999
#
# number of rings (size 3 to 8) (size 9 to 14) (size 15 to 20)
#    0.000    2.000    1.667    4.500    0.000    2.000 
#    0.000    3.333    0.000    1.000    0.000    0.000 
#    0.000    0.000    0.000    0.000    0.000    0.000 
#
# Total GULP energy -297643.117398 kJ/mol
# GULP energy per Si atom -12401.796558 kJ/mol
# Density = 1.933148 g / cm^3
# Si number density = 19.375583 Si / 1000 Ang^3
#
#
#
# Elastic Constant Matrix: (Units=GPa)
#
#
# Indices 1 2 3 4 5 6 
#
# 1 94.9604 6.2682 38.5905 -0.0006 17.3047 0.0000
# 2 6.2682 40.1606 20.8481 -0.0004 3.8930 0.0007
# 3 38.5905 20.8481 125.5810 0.0006 25.1407 0.0001
# 4 -0.0006 -0.0004 0.0006 17.0552 0.0007 9.3848
# 5 17.3047 3.8930 25.1407 0.0007 25.4898 0.0001
# 6 0.0000 0.0007 0.0001 9.3848 0.0001 21.5062
#
#
#
# Elastic Compliance Matrix: (Units=1/GPa)
#
#
# Indices 1 2 3 4 5 6 
#
# 1 0.012720 0.000002 -0.002717 0.000001 -0.005956 0.000000
# 2 0.000002 0.027251 -0.004599 0.000002 0.000373 -0.000001
# 3 -0.002717 -0.004599 0.011279 0.000000 -0.008577 0.000000
# 4 0.000001 0.000002 0.000000 0.077161 -0.000003 -0.033671
# 5 -0.005956 0.000373 -0.008577 -0.000003 0.051678 0.000001
# 6 0.000000 -0.000001 0.000000 -0.033671 0.000001 0.061192
#
#
# Mechanical properties :
#
#
# Convention : Reuss Voigt Hill
#
# Bulk Modulus (GPa) = 27.30595 43.56841 35.43718
# Shear Modulus (GPa) = 18.64868 25.80990 22.22929
#
# Velocity S-wave (km/s) = 3.10576 3.65373 3.39083
# Velocity P-wave (km/s) = 5.19466 6.35096 5.80169
#
# Compressibility (1/GPa) = 0.03662206
#
# Stress axis : x y z
#
# Youngs Moduli (GPa) = 78.61616 36.69570 88.66411
#
# Poissons Ratio (x) = -0.00009 0.24088
# Poissons Ratio (y) = -0.00019 0.40780
# Poissons Ratio (z) = 0.21358 0.16878
#
# Static dielectric constant tensor:
#      x y z
#    x 3.416600 0.000000 -0.028670 
#    y 0.000000 3.159220 0.000000 
#    z -0.028670 0.000000 3.881490 
# 
# 
# High freq. dielectric constant tensor:
#      x y z
#    x 1.736310 0.000000 0.006990 
#    y 0.000000 1.725420 0.000000 
#    z 0.006990 0.000000 1.772750 
# 
# From -- ./inp_files/320310.got.cif
#   From: 2010.06.25/outbox.cif.g09.slc.cpg/sg12_161_cif.got.tgz:320310.got - 2010.06.28 00:19:55.
