data_PCOD8083157
_publ_section_title
;
Structure prediction by ZEFSAII (Michael W. Deem and Ramdas Pophale) SiO2 
 PCOD8083157
Probable space group: C 2/M
;
_chemical_formula_sum "Si O2"
_cell_formula_units_Z 64
_cell_length_a 20.837208
_cell_length_b 8.853966
_cell_length_c 25.143025
_cell_angle_alpha 90.000000
_cell_angle_beta 132.572356
_cell_angle_gamma 90.000000
_cell_volume 3416.037188
_symmetry_space_group_name_H-M "C 2/M"
_symmetry_group_IT_number 12
_symmetry_cell_setting 'monoclinic'
loop_
_space_group_symop_operation_xyz
x,y,z
-x,y,-z
-x,-y,-z
x,-y,z
1/2+x,1/2+y,z
1/2-x,1/2+y,-z
1/2-x,1/2-y,-z
1/2+x,1/2-y,z
loop_
_atom_site_type_symbol
_atom_site_label
_atom_site_fract_x
_atom_site_fract_y
_atom_site_fract_z
Si Si1 0.558520 0.677787 0.287260
Si Si2 0.574660 0.175758 0.580663
Si Si3 0.357342 0.169842 0.811810
Si Si4 0.312501 0.179187 0.993244
Si Si5 0.768390 0.175655 0.670492
Si Si6 0.760812 0.170284 0.156417
Si Si7 0.980152 0.175449 0.132851
Si Si8 0.566707 0.319656 0.692045
O O1 0.552531 0.500000 0.284628
O O2 0.661116 0.725036 0.336087
O O3 0.499024 0.733205 0.203927
O O4 0.517497 0.736691 0.320119
O O5 0.500000 0.239416 0.500000
O O6 0.666392 0.203286 0.600486
O O7 0.564389 0.256980 0.631342
O O8 0.561266 0.000000 0.584747
O O9 0.281992 0.219323 0.729096
O O10 0.319605 0.174815 0.849068
O O11 0.433038 0.293450 0.851885
O O12 0.389536 0.000000 0.815885
O O13 0.276979 0.248283 0.917736
O O14 0.309054 0.000000 0.990815
O O15 0.250000 0.250000 0.000000
O O16 0.408842 0.228704 0.062209
O O17 0.785369 0.000000 0.694089
O O18 0.847581 0.246715 0.229726
O O19 0.788228 0.000000 0.157636
O O20 0.954901 0.000000 0.117649
O O21 0.570436 0.500000 0.689760
#
# Coordination Sequence:
#
# PCOD8083157 Si02
#       8
#     8   8   8   8   8   8   8   8
#     4   8  16  31  55  78 101 138 179 220 264 313
#     4  10  21  36  54  78 111 145 172 210 269 327
#     4  10  18  32  54  79 103 134 176 221 268 318
#     4  11  22  37  53  73 103 142 183 226 278 327
#     4   9  17  33  54  77 106 142 180 215 262 324
#     4   9  19  33  52  75 104 139 173 218 276 328
#     4  10  20  36  54  76 108 144 181 220 268 322
#     4  10  18  34  57  80 102 132 180 224 260 314
#
# _framework density 18.73516
#
# number of rings (size 3 to 8) (size 9 to 14) (size 15 to 20)
#    0.000    2.375    1.250    2.625    0.000    2.750 
#    0.000   11.250    0.000    0.000    0.000    0.000 
#    0.000    0.000    0.000    0.000    0.000    0.000 
#
# Total GULP energy -396469.831467 kJ/mol
# GULP energy per Si atom -12389.682233 kJ/mol
# Density = 1.869252 g / cm^3
# Si number density = 18.735160 Si / 1000 Ang^3
#
#
#
# Elastic Constant Matrix: (Units=GPa)
#
#
# Indices 1 2 3 4 5 6 
#
# 1 121.5898 23.3129 74.7523 0.0000 -0.7260 0.0000
# 2 23.3129 38.1025 24.4638 0.0000 -2.7081 0.0000
# 3 74.7523 24.4638 131.3547 0.0000 8.6205 0.0000
# 4 0.0000 0.0000 0.0000 24.0615 0.0000 -0.1535
# 5 -0.7260 -2.7081 8.6205 0.0000 23.8841 0.0000
# 6 0.0000 0.0000 0.0000 -0.1535 0.0000 25.0566
#
#
#
# Elastic Compliance Matrix: (Units=1/GPa)
#
#
# Indices 1 2 3 4 5 6 
#
# 1 0.013234 -0.003374 -0.007072 0.000000 0.002572 0.000000
# 2 -0.003374 0.031396 -0.004255 0.000000 0.004993 0.000000
# 3 -0.007072 -0.004255 0.012778 0.000000 -0.005310 0.000000
# 4 0.000000 0.000000 0.000000 0.041562 0.000000 0.000255
# 5 0.002572 0.004993 -0.005310 0.000000 0.044430 0.000000
# 6 0.000000 0.000000 0.000000 0.000255 0.000000 0.039911
#
#
# Mechanical properties :
#
#
# Convention : Reuss Voigt Hill
#
# Bulk Modulus (GPa) = 35.70501 59.56723 47.63612
# Shear Modulus (GPa) = 22.51754 25.83496 24.17625
#
# Velocity S-wave (km/s) = 3.47058 3.71746 3.59614
# Velocity P-wave (km/s) = 5.92951 7.09150 6.53638
#
# Compressibility (1/GPa) = 0.02800728
#
# Stress axis : x y z
#
# Youngs Moduli (GPa) = 75.56046 31.85106 78.25685
#
# Poissons Ratio (x) = 0.10747 0.55343
# Poissons Ratio (y) = 0.25494 0.33297
# Poissons Ratio (z) = 0.53436 0.13552
#
# Static dielectric constant tensor:
#      x y z
#    x 3.632520 0.000000 -0.034030 
#    y 0.000000 3.260940 0.000000 
#    z -0.034030 0.000000 3.308090 
# 
# 
# High freq. dielectric constant tensor:
#      x y z
#    x 1.741630 0.000000 0.008620 
#    y 0.000000 1.702370 0.000000 
#    z 0.008620 0.000000 1.712680 
# 
# From -- ./inp_files/346220.got.cif
#   From: 2010.06.25/outbox.cif.g09.slc.cpg/sg12_174_cif.got.tgz:346220.got - 2010.06.28 00:19:55.
