data_PCOD8083105
_publ_section_title
;
Structure prediction by ZEFSAII (Michael W. Deem and Ramdas Pophale) SiO2 
 PCOD8083105
Probable space group: C 2/M
;
_chemical_formula_sum "Si O2"
_cell_formula_units_Z 64
_cell_length_a 20.344876
_cell_length_b 20.550268
_cell_length_c 12.669446
_cell_angle_alpha 90.000000
_cell_angle_beta 43.265279
_cell_angle_gamma 90.000000
_cell_volume 3630.444608
_symmetry_space_group_name_H-M "C 2/M"
_symmetry_group_IT_number 12
_symmetry_cell_setting 'monoclinic'
loop_
_space_group_symop_operation_xyz
x,y,z
-x,y,-z
-x,-y,-z
x,-y,z
1/2+x,1/2+y,z
1/2-x,1/2+y,-z
1/2-x,1/2-y,-z
1/2+x,1/2-y,z
loop_
_atom_site_type_symbol
_atom_site_label
_atom_site_fract_x
_atom_site_fract_y
_atom_site_fract_z
Si Si1 0.578176 0.430983 0.995177
Si Si2 0.072184 0.692354 0.821088
Si Si3 0.440163 0.702212 0.875498
Si Si4 0.926266 0.573221 0.337349
Si Si5 0.772200 0.750817 0.218369
Si Si6 0.425397 0.876878 0.680667
Si Si7 0.589142 0.731260 0.318932
Si Si8 0.780904 0.607021 0.686991
O O1 0.585630 0.500000 0.050287
O O2 0.675508 0.420792 0.815845
O O3 0.500000 0.439943 0.000000
O O4 0.544882 0.371264 0.104762
O O5 0.087127 0.626544 0.737814
O O6 0.175504 0.712313 0.748208
O O7 0.031563 0.752133 0.797586
O O8 0.000000 0.676528 0.000000
O O9 0.427220 0.689609 0.766671
O O10 0.346369 0.731935 0.039283
O O11 0.927594 0.500000 0.288171
O O12 0.838590 0.577419 0.521606
O O13 0.029127 0.584698 0.274318
O O14 0.685958 0.708823 0.267099
O O15 0.721750 0.814953 0.325335
O O16 0.500000 0.870564 0.500000
O O17 0.398549 0.803631 0.744527
O O18 0.332223 0.911774 0.739129
O O19 0.500000 0.722064 0.500000
#
# Coordination Sequence:
#
# PCOD8083105 Si02
#       8
#     8   8   8   8   8   8   8   8
#     4  10  20  35  53  77 107 136 174 223 271 318
#     4  10  21  37  54  77 108 141 183 222 254 314
#     4  10  18  34  57  76 105 138 176 218 269 316
#     4  11  21  33  52  79 111 148 174 209 268 324
#     4   9  19  33  53  80 105 139 174 221 274 303
#     4   8  16  30  49  77 109 131 161 211 267 317
#     4  10  18  32  53  81 107 134 175 223 262 310
#     4   9  18  33  54  81 108 131 171 222 271 322
#
# _framework density 17.628695
#
# number of rings (size 3 to 8) (size 9 to 14) (size 15 to 20)
#    0.000    2.375    1.250    3.375    0.000    3.500 
#    2.250    0.000    0.000    1.125    0.000    0.000 
#    0.000    0.000    0.000    0.000    0.000    0.000 
#
# Total GULP energy -396565.114116 kJ/mol
# GULP energy per Si atom -12392.659816 kJ/mol
# Density = 1.758857 g / cm^3
# Si number density = 17.628695 Si / 1000 Ang^3
#
#
#
# Elastic Constant Matrix: (Units=GPa)
#
#
# Indices 1 2 3 4 5 6 
#
# 1 135.4420 55.0024 40.6227 0.0000 -6.4826 0.0000
# 2 55.0024 119.0632 33.2947 0.0000 9.3223 0.0000
# 3 40.6227 33.2947 41.8092 0.0000 -0.4531 0.0000
# 4 0.0000 0.0000 0.0000 72.6900 0.0000 -35.4079
# 5 -6.4826 9.3223 -0.4531 0.0000 26.5895 0.0000
# 6 0.0000 0.0000 0.0000 -35.4079 0.0000 41.6402
#
#
#
# Elastic Compliance Matrix: (Units=1/GPa)
#
#
# Indices 1 2 3 4 5 6 
#
# 1 0.011408 -0.003185 -0.008507 0.000000 0.003753 0.000000
# 2 -0.003185 0.012122 -0.006615 0.000000 -0.005139 0.000000
# 3 -0.008507 -0.006615 0.037461 0.000000 0.000884 0.000000
# 4 0.000000 0.000000 0.000000 0.023484 0.000000 0.019969
# 5 0.003753 -0.005139 0.000884 0.000000 0.040341 0.000000
# 6 0.000000 0.000000 0.000000 0.019969 0.000000 0.040996
#
#
# Mechanical properties :
#
#
# Convention : Reuss Voigt Hill
#
# Bulk Modulus (GPa) = 41.02115 61.57268 51.29691
# Shear Modulus (GPa) = 23.74717 39.34357 31.54537
#
# Velocity S-wave (km/s) = 3.67423 4.72931 4.23476
# Velocity P-wave (km/s) = 6.42807 8.05141 7.28509
#
# Compressibility (1/GPa) = 0.02437767
#
# Stress axis : x y z
#
# Youngs Moduli (GPa) = 87.66016 82.49243 26.69434
#
# Poissons Ratio (x) = 0.26272 0.22709
# Poissons Ratio (y) = 0.27918 0.17658
# Poissons Ratio (z) = 0.74573 0.54568
#
# Static dielectric constant tensor:
#      x y z
#    x 3.851360 0.000000 -0.501050 
#    y 0.000000 3.433590 0.000000 
#    z -0.501050 0.000000 3.352380 
# 
# 
# High freq. dielectric constant tensor:
#      x y z
#    x 1.691350 0.000000 -0.016050 
#    y 0.000000 1.662640 0.000000 
#    z -0.016050 0.000000 1.659850 
# 
# From -- ./inp_files/159548.got.cif
#   From: 2010.06.25/outbox.cif.g09.slc.cpg/sg12_80_cif.got.tgz:159548.got - 2010.06.28 00:19:55.
