data_PCOD8083535
_publ_section_title
;
Structure prediction by ZEFSAII (Michael W. Deem and Ramdas Pophale) SiO2 
 PCOD8083535
Probable space group: C 2/M
;
_chemical_formula_sum "Si O2"
_cell_formula_units_Z 56
_cell_length_a 25.779247
_cell_length_b 13.738059
_cell_length_c 8.834296
_cell_angle_alpha 90.000000
_cell_angle_beta 71.588201
_cell_angle_gamma 90.000000
_cell_volume 2968.569750
_symmetry_space_group_name_H-M "C 2/M"
_symmetry_group_IT_number 12
_symmetry_cell_setting 'monoclinic'
loop_
_space_group_symop_operation_xyz
x,y,z
-x,y,-z
-x,-y,-z
x,-y,z
1/2+x,1/2+y,z
1/2-x,1/2+y,-z
1/2-x,1/2-y,-z
1/2+x,1/2-y,z
loop_
_atom_site_type_symbol
_atom_site_label
_atom_site_fract_x
_atom_site_fract_y
_atom_site_fract_z
Si Si1 0.118642 0.193908 0.730481
Si Si2 0.978863 0.888076 0.357094
Si Si3 0.320822 0.302187 0.811290
Si Si4 0.587306 0.387785 0.080298
Si Si5 0.780493 0.155575 0.524042
Si Si6 0.670516 0.104123 0.730983
Si Si7 0.212516 0.611694 0.024538
O O1 0.072713 0.175167 0.647244
O O2 0.173544 0.128970 0.644663
O O3 0.134244 0.308389 0.698273
O O4 0.096914 0.169096 0.915826
O O5 0.000000 0.849308 0.500000
O O6 0.024341 0.878109 0.185031
O O7 0.960135 0.000000 0.390639
O O8 0.379005 0.338928 0.815559
O O9 0.315951 0.329692 0.641968
O O10 0.315814 0.184701 0.830120
O O11 0.275785 0.357972 0.953830
O O12 0.603977 0.500000 0.043688
O O13 0.750000 0.250000 0.500000
O O14 0.729882 0.083140 0.596691
O O15 0.639166 0.000000 0.744107
O O16 0.681989 0.129076 0.894690
O O17 0.207647 0.500000 0.085216
#
# Coordination Sequence:
#
# PCOD8083535 Si02
#       7
#     8   8   8   8   8   8   8
#     4  11  20  36  56  82 111 145 182 230 274 321
#     4  10  22  39  59  82 108 141 180 224 281 337
#     4  10  18  33  52  76 110 141 179 222 268 321
#     4  11  22  35  55  84 110 139 180 229 279 325
#     4   9  20  34  52  78 112 149 184 219 265 320
#     4   9  18  34  54  79 111 148 184 219 268 325
#     4   9  17  30  52  77 105 142 181 219 262 316
#
# _framework density 18.864304000000001
#
# number of rings (size 3 to 8) (size 9 to 14) (size 15 to 20)
#    0.000    2.143    1.429    2.143    2.000    2.857 
#    0.000    2.857    0.000    3.000    0.000    0.000 
#    0.000    0.000    0.000    0.000    0.000    0.000 
#
# Total GULP energy -346989.041089 kJ/mol
# GULP energy per Si atom -12392.465753 kJ/mol
# Density = 1.882137 g / cm^3
# Si number density = 18.864304 Si / 1000 Ang^3
#
#
#
# Elastic Constant Matrix: (Units=GPa)
#
#
# Indices 1 2 3 4 5 6 
#
# 1 96.5125 41.3744 21.9053 0.0000 6.6842 0.0000
# 2 41.3744 112.0364 17.0919 0.0000 -2.3918 0.0000
# 3 21.9053 17.0919 76.0854 0.0000 -4.2133 0.0000
# 4 0.0000 0.0000 0.0000 14.4191 0.0000 2.5052
# 5 6.6842 -2.3918 -4.2133 0.0000 26.9179 0.0000
# 6 0.0000 0.0000 0.0000 2.5052 0.0000 27.5701
#
#
#
# Elastic Compliance Matrix: (Units=1/GPa)
#
#
# Indices 1 2 3 4 5 6 
#
# 1 0.013282 -0.004531 -0.003037 0.000000 -0.004176 0.000000
# 2 -0.004531 0.010795 -0.001014 0.000000 0.001926 0.000000
# 3 -0.003037 -0.001014 0.014407 0.000000 0.002919 0.000000
# 4 0.000000 0.000000 0.000000 0.070465 0.000000 -0.006403
# 5 -0.004176 0.001926 0.002919 0.000000 0.038815 0.000000
# 6 0.000000 0.000000 0.000000 -0.006403 0.000000 0.036853
#
#
# Mechanical properties :
#
#
# Convention : Reuss Voigt Hill
#
# Bulk Modulus (GPa) = 46.90506 49.48641 48.19573
# Shear Modulus (GPa) = 23.93627 27.39893 25.66760
#
# Velocity S-wave (km/s) = 3.56598 3.81520 3.69269
# Velocity P-wave (km/s) = 6.47096 6.75999 6.61705
#
# Compressibility (1/GPa) = 0.02131966
#
# Stress axis : x y z
#
# Youngs Moduli (GPa) = 75.28776 92.63830 69.41052
#
# Poissons Ratio (x) = 0.41973 0.21083
# Poissons Ratio (y) = 0.34112 0.07037
# Poissons Ratio (z) = 0.22869 0.09392
#
# Static dielectric constant tensor:
#      x y z
#    x 3.427020 0.000000 -0.158480 
#    y 0.000000 2.925740 0.000000 
#    z -0.158480 0.000000 3.569630 
# 
# 
# High freq. dielectric constant tensor:
#      x y z
#    x 1.721400 0.000000 0.004660 
#    y 0.000000 1.722300 0.000000 
#    z 0.004660 0.000000 1.731670 
# 
# From -- ./inp_files/96244.got.cif
#   From: 2010.06.25/outbox.cif.g09.slc.cpg/sg12_49_cif.got.tgz:96244.got - 2010.06.28 00:19:55.
