data_PCOD8083391
_publ_section_title
;
Structure prediction by ZEFSAII (Michael W. Deem and Ramdas Pophale) SiO2 
 PCOD8083391
Probable space group: C 2/M
;
_chemical_formula_sum "Si O2"
_cell_formula_units_Z 64
_cell_length_a 28.782354
_cell_length_b 9.286550
_cell_length_c 13.653468
_cell_angle_alpha 90.000000
_cell_angle_beta 66.353817
_cell_angle_gamma 90.000000
_cell_volume 3343.012494
_symmetry_space_group_name_H-M "C 2/M"
_symmetry_group_IT_number 12
_symmetry_cell_setting 'monoclinic'
loop_
_space_group_symop_operation_xyz
x,y,z
-x,y,-z
-x,-y,-z
x,-y,z
1/2+x,1/2+y,z
1/2-x,1/2+y,-z
1/2-x,1/2-y,-z
1/2+x,1/2-y,z
loop_
_atom_site_type_symbol
_atom_site_label
_atom_site_fract_x
_atom_site_fract_y
_atom_site_fract_z
Si Si1 0.699100 0.171223 0.010016
Si Si2 0.057210 0.332287 0.420236
Si Si3 0.598459 0.166081 0.728683
Si Si4 0.739371 0.664032 0.411991
Si Si5 0.181617 0.331526 0.808532
Si Si6 0.124089 0.164273 0.516346
Si Si7 0.990551 0.331681 0.900687
Si Si8 0.091672 0.329462 0.178813
O O1 0.685042 0.232444 0.914381
O O2 0.708201 0.000000 0.005127
O O3 0.750000 0.250000 0.000000
O O4 0.650814 0.214761 0.118488
O O5 0.070710 0.500000 0.416431
O O6 0.090982 0.247727 0.467247
O O7 0.069106 0.273169 0.301047
O O8 0.000000 0.302000 0.500000
O O9 0.627339 0.204223 0.805540
O O10 0.620634 0.265552 0.625715
O O11 0.539259 0.196771 0.791793
O O12 0.608175 0.000000 0.691608
O O13 0.756105 0.500000 0.417816
O O14 0.750000 0.750000 0.500000
O O15 0.773065 0.732088 0.296456
O O16 0.681271 0.674172 0.429249
O O17 0.189336 0.500000 0.812905
O O18 0.105609 0.000000 0.539602
O O19 0.981003 0.500000 0.925710
O O20 0.942263 0.265759 0.882674
O O21 0.000000 0.259925 0.000000
O O22 0.085888 0.500000 0.179626
#
# Coordination Sequence:
#
# PCOD8083391 Si02
#       8
#     8   8   8   8   8   8   8   8
#     4  10  21  37  56  78 107 144 183 226 271 321
#     4  10  21  38  59  81 109 147 188 229 271 324
#     4  10  18  32  57  83 107 141 178 219 271 329
#     4  10  20  35  53  78 109 143 180 224 273 325
#     4   9  18  33  54  77 105 139 179 222 266 317
#     4  11  23  35  52  80 112 144 180 224 276 330
#     4   9  16  28  53  86 110 130 168 220 272 322
#     4   9  18  33  52  79 111 138 174 225 272 314
#
# _framework density 19.144409
#
# number of rings (size 3 to 8) (size 9 to 14) (size 15 to 20)
#    0.000    2.250    1.250    1.875    1.750    5.750 
#    0.000    1.250    0.000    1.125    0.000    0.000 
#    0.000    0.000    0.000    0.000    0.000    0.000 
#
# Total GULP energy -396714.373972 kJ/mol
# GULP energy per Si atom -12397.324187 kJ/mol
# Density = 1.910084 g / cm^3
# Si number density = 19.144409 Si / 1000 Ang^3
#
#
#
# Elastic Constant Matrix: (Units=GPa)
#
#
# Indices 1 2 3 4 5 6 
#
# 1 136.7105 42.0733 55.6531 0.0000 2.5278 0.0000
# 2 42.0733 10.6095 27.9491 0.0000 -0.7132 0.0000
# 3 55.6531 27.9491 126.9255 0.0000 3.0671 0.0000
# 4 0.0000 0.0000 0.0000 15.9552 0.0000 0.0043
# 5 2.5278 -0.7132 3.0671 0.0000 31.6459 0.0000
# 6 0.0000 0.0000 0.0000 0.0043 0.0000 26.2269
#
#
#
# Elastic Compliance Matrix: (Units=1/GPa)
#
#
# Indices 1 2 3 4 5 6 
#
# 1 -0.011014 0.074872 -0.011747 0.000000 0.003706 0.000000
# 2 0.074872 -0.281395 0.029501 0.000000 -0.015181 0.000000
# 3 -0.011747 0.029501 0.006510 0.000000 0.000972 0.000000
# 4 0.000000 0.000000 0.000000 0.062676 0.000000 -0.000010
# 5 0.003706 -0.015181 0.000972 0.000000 0.030867 0.000000
# 6 0.000000 0.000000 0.000000 -0.000010 0.000000 0.038129
#
#
# Mechanical properties :
#
#
# Convention : Reuss Voigt Hill
#
# Bulk Modulus (GPa) = -9.93569 58.39963 24.23197
# Shear Modulus (GPa) = -13.40380 24.67026 5.63323
#
# Velocity S-wave (km/s) = -2.64889 3.59366 1.71723
# Velocity P-wave (km/s) = 3.81531 6.91304 4.07637
#
# Compressibility (1/GPa) = -0.10064728
#
# Stress axis : x y z
#
# Youngs Moduli (GPa) = -90.79464 -3.55372 153.61659
#
# Poissons Ratio (x) = 0.26607 1.80456
# Poissons Ratio (y) = 6.79796 -4.53188
# Poissons Ratio (z) = -1.06658 0.10484
#
# Static dielectric constant tensor:
#      x y z
#    x 3.423830 0.000000 0.773910 
#    y 0.000000 3.102030 0.000000 
#    z 0.773910 0.000000 0.847550 
# 
# 
# High freq. dielectric constant tensor:
#      x y z
#    x 1.760420 0.000000 -0.003490 
#    y 0.000000 1.690010 0.000000 
#    z -0.003490 0.000000 1.757520 
# 
# From -- ./inp_files/188332.got.cif
#   From: 2010.06.25/outbox.cif.g09.slc.cpg/sg12_95_cif.got.tgz:188332.got - 2010.06.28 00:19:55.
