data_PCOD8083251
_publ_section_title
;
Structure prediction by ZEFSAII (Michael W. Deem and Ramdas Pophale) SiO2 
 PCOD8083251
Probable space group: C 2/M
;
_chemical_formula_sum "Si O2"
_cell_formula_units_Z 64
_cell_length_a 15.141223
_cell_length_b 17.127927
_cell_length_c 13.203960
_cell_angle_alpha 90.000000
_cell_angle_beta 92.534824
_cell_angle_gamma 90.000000
_cell_volume 3420.934863
_symmetry_space_group_name_H-M "C 2/M"
_symmetry_group_IT_number 12
_symmetry_cell_setting 'monoclinic'
loop_
_space_group_symop_operation_xyz
x,y,z
-x,y,-z
-x,-y,-z
x,-y,z
1/2+x,1/2+y,z
1/2-x,1/2+y,-z
1/2-x,1/2-y,-z
1/2+x,1/2-y,z
loop_
_atom_site_type_symbol
_atom_site_label
_atom_site_fract_x
_atom_site_fract_y
_atom_site_fract_z
Si Si1 0.550869 0.636039 0.369809
Si Si2 0.215841 0.241049 0.611945
Si Si3 0.499141 0.086618 0.216433
Si Si4 0.524438 0.195707 0.605722
Si Si5 0.088693 0.685044 0.059581
Si Si6 0.631812 0.414280 0.576578
Si Si7 0.684261 0.089358 0.898409
Si Si8 0.168924 0.815596 0.207921
O O1 0.528108 0.723676 0.400154
O O2 0.462002 0.584950 0.369348
O O3 0.619921 0.604133 0.456472
O O4 0.591746 0.633949 0.258830
O O5 0.250000 0.250000 0.500000
O O6 0.128763 0.292947 0.624148
O O7 0.196005 0.149437 0.630287
O O8 0.285236 0.267015 0.699720
O O9 0.517178 0.144644 0.308487
O O10 0.560102 0.112443 0.126930
O O11 0.396470 0.088837 0.183195
O O12 0.527753 0.000000 0.249797
O O13 0.500000 0.152007 0.500000
O O14 0.129782 0.756636 0.123302
O O15 0.162130 0.648848 0.988604
O O16 0.000000 0.717194 0.000000
O O17 0.674645 0.500000 0.590813
O O18 0.768937 0.122650 0.844569
O O19 0.702965 0.000000 0.936426
#
# Coordination Sequence:
#
# PCOD8083251 Si02
#       8
#     8   8   8   8   8   8   8   8
#     4  10  18  32  55  80 109 153 197 230 268 339
#     4  11  21  36  56  85 121 158 188 233 282 342
#     4  10  20  36  57  82 112 152 197 237 285 344
#     4  11  18  34  56  80 117 156 192 229 277 338
#     4  10  22  39  63  83 110 148 199 240 289 356
#     4  10  20  35  55  81 118 158 198 232 271 330
#     4  10  22  39  58  86 116 146 187 249 303 341
#     4  12  21  36  63  88 115 151 193 241 294 346
#
# _framework density 18.708335000000002
#
# number of rings (size 3 to 8) (size 9 to 14) (size 15 to 20)
#    0.000    1.500    6.250    1.500    0.000    2.750 
#    0.000    1.875    0.000    0.375    0.000    0.000 
#    0.000    0.000    0.000    0.000    0.000    0.000 
#
# Total GULP energy -396741.416370 kJ/mol
# GULP energy per Si atom -12398.169262 kJ/mol
# Density = 1.866575 g / cm^3
# Si number density = 18.708335 Si / 1000 Ang^3
#
#
#
# Elastic Constant Matrix: (Units=GPa)
#
#
# Indices 1 2 3 4 5 6 
#
# 1 56.3102 21.9219 32.4544 0.0000 -15.4871 0.0000
# 2 21.9219 92.5654 36.1290 0.0000 0.4067 0.0000
# 3 32.4544 36.1290 103.1097 0.0000 -13.9888 0.0000
# 4 0.0000 0.0000 0.0000 23.5437 0.0000 -4.6273
# 5 -15.4871 0.4067 -13.9888 0.0000 36.2995 0.0000
# 6 0.0000 0.0000 0.0000 -4.6273 0.0000 6.7040
#
#
#
# Elastic Compliance Matrix: (Units=1/GPa)
#
#
# Indices 1 2 3 4 5 6 
#
# 1 0.024617 -0.003816 -0.005255 0.000000 0.008520 0.000000
# 2 -0.003816 0.013236 -0.003881 0.000000 -0.003272 0.000000
# 3 -0.005255 -0.003881 0.013099 0.000000 0.002849 0.000000
# 4 0.000000 0.000000 0.000000 0.049140 0.000000 0.033918
# 5 0.008520 -0.003272 0.002849 0.000000 0.032318 0.000000
# 6 0.000000 0.000000 0.000000 0.033918 0.000000 0.172575
#
#
# Mechanical properties :
#
#
# Convention : Reuss Voigt Hill
#
# Bulk Modulus (GPa) = 39.92396 48.11066 44.01731
# Shear Modulus (GPa) = 14.73894 24.07478 19.40686
#
# Velocity S-wave (km/s) = 2.80987 3.59116 3.22427
# Velocity P-wave (km/s) = 5.64922 6.55494 6.11886
#
# Compressibility (1/GPa) = 0.02504762
#
# Stress axis : x y z
#
# Youngs Moduli (GPa) = 40.62311 75.55208 76.34306
#
# Poissons Ratio (x) = 0.28832 0.40119
# Poissons Ratio (y) = 0.15502 0.29625
# Poissons Ratio (z) = 0.21348 0.29318
#
# Static dielectric constant tensor:
#      x y z
#    x 3.508120 0.000000 -0.196970 
#    y 0.000000 3.396880 0.000000 
#    z -0.196970 0.000000 3.498140 
# 
# 
# High freq. dielectric constant tensor:
#      x y z
#    x 1.720090 0.000000 -0.019240 
#    y 0.000000 1.720330 0.000000 
#    z -0.019240 0.000000 1.719930 
# 
# From -- ./inp_files/146154.got.cif
#   From: 2010.06.25/outbox.cif.g09.slc.cpg/sg12_74_cif.got.tgz:146154.got - 2010.06.28 00:19:55.
