data_PCOD8083787
_publ_section_title
;
Structure prediction by ZEFSAII (Michael W. Deem and Ramdas Pophale) SiO2 
 PCOD8083787
Probable space group: C 2/M
;
_chemical_formula_sum "Si O2"
_cell_formula_units_Z 64
_cell_length_a 11.303474
_cell_length_b 27.631040
_cell_length_c 11.513627
_cell_angle_alpha 90.000000
_cell_angle_beta 70.522803
_cell_angle_gamma 90.000000
_cell_volume 3390.229099
_symmetry_space_group_name_H-M "C 2/M"
_symmetry_group_IT_number 12
_symmetry_cell_setting 'monoclinic'
loop_
_space_group_symop_operation_xyz
x,y,z
-x,y,-z
-x,-y,-z
x,-y,z
1/2+x,1/2+y,z
1/2-x,1/2+y,-z
1/2-x,1/2-y,-z
1/2+x,1/2-y,z
loop_
_atom_site_type_symbol
_atom_site_label
_atom_site_fract_x
_atom_site_fract_y
_atom_site_fract_z
Si Si1 0.288659 0.553511 0.339327
Si Si2 0.331785 0.054097 0.382201
Si Si3 0.069729 0.853941 0.657798
Si Si4 0.379838 0.194902 0.161868
Si Si5 0.117638 0.805790 0.882897
Si Si6 0.644455 0.848322 0.067898
Si Si7 0.191037 0.147079 0.376522
Si Si8 0.897759 0.445375 0.804880
O O1 0.348979 0.500000 0.324185
O O2 0.185216 0.559588 0.474110
O O3 0.402764 0.590824 0.314775
O O4 0.219318 0.562108 0.241380
O O5 0.242841 0.092493 0.346995
O O6 0.475983 0.064978 0.307720
O O7 0.293601 0.000000 0.353231
O O8 0.097442 0.818704 0.755178
O O9 0.156489 0.839327 0.519970
O O10 0.925788 0.849005 0.670991
O O11 0.363871 0.248540 0.117738
O O12 0.524132 0.183612 0.145692
O O13 0.295531 0.185830 0.302955
O O14 0.329104 0.159536 0.076754
O O15 0.240533 0.832211 0.890080
O O16 0.000000 0.822152 0.000000
O O17 0.616587 0.905616 0.089704
O O18 0.897946 0.500000 0.857230
#
# Coordination Sequence:
#
# PCOD8083787 Si02
#       8
#     8   8   8   8   8   8   8   8
#     4   9  17  32  54  83 118 154 195 240 287 349
#     4   9  17  30  54  84 115 157 197 234 288 349
#     4  10  22  37  59  88 116 160 192 240 299 348
#     4  11  24  40  63  85 117 154 197 248 289 348
#     4  12  24  41  65  87 113 151 202 244 295 353
#     4  11  22  40  61  93 114 152 199 242 295 349
#     4  10  21  39  57  83 126 152 194 244 294 346
#     4  10  18  33  57  87 122 152 189 242 298 352
#
# _framework density 18.877780999999999
#
# number of rings (size 3 to 8) (size 9 to 14) (size 15 to 20)
#    0.000    1.750    3.750    1.500    1.750    2.500 
#    0.000    5.000    0.000    3.000    0.000    0.000 
#    0.000    0.000    0.000    0.000    0.000    0.000 
#
# Total GULP energy -396809.125098 kJ/mol
# GULP energy per Si atom -12400.285159 kJ/mol
# Density = 1.883481 g / cm^3
# Si number density = 18.877781 Si / 1000 Ang^3
#
#
#
# Elastic Constant Matrix: (Units=GPa)
#
#
# Indices 1 2 3 4 5 6 
#
# 1 82.0646 25.5764 37.2738 0.0000 1.3061 0.0000
# 2 25.5764 97.9581 40.2151 0.0000 -1.5766 0.0000
# 3 37.2738 40.2151 85.1410 0.0000 0.2729 0.0000
# 4 0.0000 0.0000 0.0000 32.3050 0.0000 3.1044
# 5 1.3061 -1.5766 0.2729 0.0000 28.3783 0.0000
# 6 0.0000 0.0000 0.0000 3.1044 0.0000 25.4070
#
#
#
# Elastic Compliance Matrix: (Units=1/GPa)
#
#
# Indices 1 2 3 4 5 6 
#
# 1 0.015414 -0.001572 -0.006003 0.000000 -0.000739 0.000000
# 2 -0.001572 0.012841 -0.005380 0.000000 0.000837 0.000000
# 3 -0.006003 -0.005380 0.016915 0.000000 -0.000185 0.000000
# 4 0.000000 0.000000 0.000000 0.031323 0.000000 -0.003827
# 5 -0.000739 0.000837 -0.000185 0.000000 0.035321 0.000000
# 6 0.000000 0.000000 0.000000 -0.003827 0.000000 0.039827
#
#
# Mechanical properties :
#
#
# Convention : Reuss Voigt Hill
#
# Bulk Modulus (GPa) = 51.92076 52.36603 52.14340
# Shear Modulus (GPa) = 27.17841 28.02461 27.60151
#
# Velocity S-wave (km/s) = 3.79846 3.85714 3.82791
# Velocity P-wave (km/s) = 6.84113 6.90191 6.87159
#
# Compressibility (1/GPa) = 0.01926012
#
# Stress axis : x y z
#
# Youngs Moduli (GPa) = 64.87676 77.87617 59.11910
#
# Poissons Ratio (x) = 0.12241 0.35490
# Poissons Ratio (y) = 0.10198 0.31805
# Poissons Ratio (z) = 0.38947 0.41895
#
# Static dielectric constant tensor:
#      x y z
#    x 3.394080 0.000000 -0.056180 
#    y 0.000000 3.556520 0.000000 
#    z -0.056180 0.000000 3.402950 
# 
# 
# High freq. dielectric constant tensor:
#      x y z
#    x 1.731850 0.000000 -0.002030 
#    y 0.000000 1.735760 0.000000 
#    z -0.002030 0.000000 1.726080 
# 
# From -- ./inp_files/137426.got.cif
#   From: 2010.06.25/outbox.cif.g09.slc.cpg/sg12_69_cif.got.tgz:137426.got - 2010.06.28 00:19:55.
