data_PCOD8083550
_publ_section_title
;
Structure prediction by ZEFSAII (Michael W. Deem and Ramdas Pophale) SiO2 
 PCOD8083550
Probable space group: C 2/M
;
_chemical_formula_sum "Si O2"
_cell_formula_units_Z 56
_cell_length_a 18.518994
_cell_length_b 19.350787
_cell_length_c 9.438078
_cell_angle_alpha 90.000000
_cell_angle_beta 61.388447
_cell_angle_gamma 90.000000
_cell_volume 2969.189556
_symmetry_space_group_name_H-M "C 2/M"
_symmetry_group_IT_number 12
_symmetry_cell_setting 'monoclinic'
loop_
_space_group_symop_operation_xyz
x,y,z
-x,y,-z
-x,-y,-z
x,-y,z
1/2+x,1/2+y,z
1/2-x,1/2+y,-z
1/2-x,1/2-y,-z
1/2+x,1/2-y,z
loop_
_atom_site_type_symbol
_atom_site_label
_atom_site_fract_x
_atom_site_fract_y
_atom_site_fract_z
Si Si1 0.999034 0.845599 0.165604
Si Si2 0.581914 0.423529 0.514135
Si Si3 0.811026 0.419767 0.896132
Si Si4 0.488200 0.074206 0.847125
Si Si5 0.539823 0.792944 0.670112
Si Si6 0.836657 0.151335 0.809410
Si Si7 0.135043 0.705388 0.315131
O O1 0.965568 0.767097 0.207281
O O2 0.089167 0.854864 0.148090
O O3 0.935281 0.892678 0.313852
O O4 0.000000 0.868190 0.000000
O O5 0.500000 0.426642 0.500000
O O6 0.619071 0.500000 0.499794
O O7 0.643918 0.376789 0.365913
O O8 0.798254 0.500000 0.860917
O O9 0.892972 0.408890 0.909717
O O10 0.818710 0.367803 0.754184
O O11 0.736929 0.394510 0.063021
O O12 0.549527 0.132306 0.732298
O O13 0.510512 0.000000 0.754610
O O14 0.500000 0.068472 0.000000
O O15 0.456232 0.792458 0.660845
O O16 0.620760 0.782945 0.496364
O O17 0.813034 0.232032 0.805395
#
# Coordination Sequence:
#
# PCOD8083550 Si02
#       7
#     8   8   8   8   8   8   8
#     4  10  19  31  52  78 105 135 171 211 253 297
#     4   9  17  30  49  72  96 132 176 208 241 295
#     4  10  20  32  51  77 101 131 171 213 255 301
#     4   9  18  32  51  75 100 129 168 210 257 307
#     4   9  16  30  51  76 101 130 169 214 251 296
#     4  10  18  33  53  74 105 138 171 210 249 300
#     4   9  17  30  51  76 100 130 173 212 250 296
#
# _framework density 18.860365000000002
#
# number of rings (size 3 to 8) (size 9 to 14) (size 15 to 20)
#    0.000    2.571    1.429    1.286    0.000    1.429 
#    0.000    2.857    3.143    1.714    0.000    0.000 
#    0.000    0.000    0.000    0.000    0.000    0.000 
#
# Total GULP energy -346959.523164 kJ/mol
# GULP energy per Si atom -12391.411542 kJ/mol
# Density = 1.881744 g / cm^3
# Si number density = 18.860365 Si / 1000 Ang^3
#
#
#
# Elastic Constant Matrix: (Units=GPa)
#
#
# Indices 1 2 3 4 5 6 
#
# 1 22.0761 20.0523 23.1390 0.0000 5.5216 0.0000
# 2 20.0523 152.7791 53.8994 0.0000 -0.0608 0.0000
# 3 23.1390 53.8994 122.4295 0.0000 9.8080 0.0000
# 4 0.0000 0.0000 0.0000 19.0822 0.0000 -9.1393
# 5 5.5216 -0.0608 9.8080 0.0000 22.1854 0.0000
# 6 0.0000 0.0000 0.0000 -9.1393 0.0000 12.1772
#
#
#
# Elastic Compliance Matrix: (Units=1/GPa)
#
#
# Indices 1 2 3 4 5 6 
#
# 1 0.061748 -0.005115 -0.008487 0.000000 -0.011630 0.000000
# 2 -0.005115 0.008227 -0.002860 0.000000 0.002560 0.000000
# 3 -0.008487 -0.002860 0.011261 0.000000 -0.002874 0.000000
# 4 0.000000 0.000000 0.000000 0.081813 0.000000 0.061402
# 5 -0.011630 0.002560 -0.002874 0.000000 0.049247 0.000000
# 6 0.000000 0.000000 0.000000 0.061402 0.000000 0.128205
#
#
# Mechanical properties :
#
#
# Convention : Reuss Voigt Hill
#
# Bulk Modulus (GPa) = 20.69853 54.60733 37.65293
# Shear Modulus (GPa) = 12.83601 24.03522 18.43561
#
# Velocity S-wave (km/s) = 2.61162 3.57372 3.12986
# Velocity P-wave (km/s) = 4.48247 6.78564 5.75054
#
# Compressibility (1/GPa) = 0.04831261
#
# Stress axis : x y z
#
# Youngs Moduli (GPa) = 16.19477 121.55352 88.79897
#
# Poissons Ratio (x) = 0.62175 0.75361
# Poissons Ratio (y) = 0.08284 0.25398
# Poissons Ratio (z) = 0.13744 0.34767
#
# Static dielectric constant tensor:
#      x y z
#    x 2.935880 0.000000 -0.031350 
#    y 0.000000 4.133060 0.000000 
#    z -0.031350 0.000000 3.724380 
# 
# 
# High freq. dielectric constant tensor:
#      x y z
#    x 1.672390 0.000000 -0.001970 
#    y 0.000000 1.755250 0.000000 
#    z -0.001970 0.000000 1.733400 
# 
# From -- ./inp_files/89489.got.cif
#   From: 2010.06.25/outbox.cif.g09.slc.cpg/sg12_45_cif.got.tgz:89489.got - 2010.06.28 00:19:55.
