data_PCOD8083687
_publ_section_title
;
Structure prediction by ZEFSAII (Michael W. Deem and Ramdas Pophale) SiO2 
 PCOD8083687
Probable space group: C 2/M
;
_chemical_formula_sum "Si O2"
_cell_formula_units_Z 64
_cell_length_a 16.018090
_cell_length_b 13.883209
_cell_length_c 23.005233
_cell_angle_alpha 90.000000
_cell_angle_beta 142.503081
_cell_angle_gamma 90.000000
_cell_volume 3114.181486
_symmetry_space_group_name_H-M "C 2/M"
_symmetry_group_IT_number 12
_symmetry_cell_setting 'monoclinic'
loop_
_space_group_symop_operation_xyz
x,y,z
-x,y,-z
-x,-y,-z
x,-y,z
1/2+x,1/2+y,z
1/2-x,1/2+y,-z
1/2-x,1/2-y,-z
1/2+x,1/2-y,z
loop_
_atom_site_type_symbol
_atom_site_label
_atom_site_fract_x
_atom_site_fract_y
_atom_site_fract_z
Si Si1 0.588637 0.780989 0.802674
Si Si2 0.040684 0.889851 0.863963
Si Si3 0.352150 0.107036 0.718655
Si Si4 0.639367 0.893147 0.540580
Si Si5 0.596119 0.608146 0.501727
Si Si6 0.012973 0.725788 0.378158
Si Si7 0.737083 0.703735 0.287132
Si Si8 0.139286 0.110477 0.045093
O O1 0.594515 0.682656 0.843630
O O2 0.509940 0.866387 0.792809
O O3 0.492407 0.764325 0.693576
O O4 0.739247 0.817724 0.867946
O O5 0.888483 0.862790 0.802642
O O6 0.043490 0.000000 0.842071
O O7 0.134304 0.880441 0.972629
O O8 0.255629 0.111796 0.607981
O O9 0.297963 0.182748 0.736329
O O10 0.347876 0.000000 0.743358
O O11 0.500000 0.896840 0.500000
O O12 0.620037 0.851410 0.464560
O O13 0.740115 0.823383 0.632139
O O14 0.702597 0.000000 0.569722
O O15 0.500000 0.651377 0.500000
O O16 0.548309 0.500000 0.461325
O O17 0.561458 0.669896 0.426245
O O18 0.865474 0.686110 0.317274
O O19 0.170788 0.000000 0.080773
O O20 0.000000 0.145010 0.000000
#
# Coordination Sequence:
#
# PCOD8083687 Si02
#       8
#     8   8   8   8   8   8   8   8
#     4  11  24  37  58  86 122 151 183 229 289 352
#     4  10  22  40  60  83 116 153 186 227 288 351
#     4  10  20  35  54  79 112 150 191 236 282 325
#     4   9  17  29  47  73 108 146 186 233 280 320
#     4  10  18  33  56  79 110 153 201 243 274 317
#     4  11  20  33  53  82 114 148 193 236 279 333
#     4  10  18  34  57  82 108 147 197 242 279 326
#     4  10  21  41  68  92 111 139 186 239 290 343
#
# _framework density 20.551147
#
# number of rings (size 3 to 8) (size 9 to 14) (size 15 to 20)
#    0.000    1.875    2.500    2.250    0.000    2.500 
#    0.000    0.000    0.000    0.375    0.000    0.000 
#    0.000    0.000    0.000    0.000    0.000    0.000 
#
# Total GULP energy -396655.614019 kJ/mol
# GULP energy per Si atom -12395.487938 kJ/mol
# Density = 2.050437 g / cm^3
# Si number density = 20.551147 Si / 1000 Ang^3
#
#
#
# Elastic Constant Matrix: (Units=GPa)
#
#
# Indices 1 2 3 4 5 6 
#
# 1 37.5432 20.7701 6.3402 0.0001 0.7126 0.0000
# 2 20.7701 137.7522 24.8581 0.0001 -3.9670 0.0000
# 3 6.3402 24.8581 54.6670 0.0004 -1.0065 0.0001
# 4 0.0001 0.0001 0.0004 27.5196 0.0001 1.5662
# 5 0.7126 -3.9670 -1.0065 0.0001 38.0650 0.0000
# 6 0.0000 0.0000 0.0001 1.5662 0.0000 18.6830
#
#
#
# Elastic Compliance Matrix: (Units=1/GPa)
#
#
# Indices 1 2 3 4 5 6 
#
# 1 0.029213 -0.004161 -0.001515 0.000000 -0.001021 0.000000
# 2 -0.004161 0.008521 -0.003376 0.000000 0.000877 0.000000
# 3 -0.001515 -0.003376 0.020007 0.000000 0.000206 0.000000
# 4 0.000000 0.000000 0.000000 0.036512 0.000000 -0.003061
# 5 -0.001021 0.000877 0.000206 0.000000 0.026387 0.000000
# 6 0.000000 0.000000 0.000000 -0.003061 0.000000 0.053781
#
#
# Mechanical properties :
#
#
# Convention : Reuss Voigt Hill
#
# Bulk Modulus (GPa) = 25.22827 37.09990 31.16409
# Shear Modulus (GPa) = 24.30281 28.71978 26.51130
#
# Velocity S-wave (km/s) = 3.44256 3.74234 3.59558
# Velocity P-wave (km/s) = 5.30133 6.06343 5.69514
#
# Compressibility (1/GPa) = 0.03963807
#
# Stress axis : x y z
#
# Youngs Moduli (GPa) = 34.23127 117.35389 49.98199
#
# Poissons Ratio (x) = 0.48828 0.07572
# Poissons Ratio (y) = 0.14243 0.16874
# Poissons Ratio (z) = 0.05186 0.39619
#
# Static dielectric constant tensor:
#      x y z
#    x 3.377850 0.000000 0.105320 
#    y 0.000000 3.804560 0.000000 
#    z 0.105320 0.000000 3.700970 
# 
# 
# High freq. dielectric constant tensor:
#      x y z
#    x 1.773500 0.000000 0.011910 
#    y 0.000000 1.810650 0.000000 
#    z 0.011910 0.000000 1.796960 
# 
# From -- ./inp_files/344082.got.cif
#   From: 2010.06.25/outbox.cif.g09.slc.cpg/sg12_173_cif.got.tgz:344082.got - 2010.06.28 00:19:55.
