data_PCOD8084453
_publ_section_title
;
Structure prediction by ZEFSAII (Michael W. Deem and Ramdas Pophale) SiO2 
 PCOD8084453
Probable space group: C 2/M
;
_chemical_formula_sum "Si O2"
_cell_formula_units_Z 56
_cell_length_a 15.534448
_cell_length_b 21.019682
_cell_length_c 17.215622
_cell_angle_alpha 90.000000
_cell_angle_beta 31.363834
_cell_angle_gamma 90.000000
_cell_volume 2925.775614
_symmetry_space_group_name_H-M "C 2/M"
_symmetry_group_IT_number 12
_symmetry_cell_setting 'monoclinic'
loop_
_space_group_symop_operation_xyz
x,y,z
-x,y,-z
-x,-y,-z
x,-y,z
1/2+x,1/2+y,z
1/2-x,1/2+y,-z
1/2-x,1/2-y,-z
1/2+x,1/2-y,z
loop_
_atom_site_type_symbol
_atom_site_label
_atom_site_fract_x
_atom_site_fract_y
_atom_site_fract_z
Si Si1 0.665219 0.168839 0.066462
Si Si2 0.168106 0.929273 0.333760
Si Si3 0.190752 0.676625 0.869168
Si Si4 0.404170 0.072084 0.295670
Si Si5 0.318661 0.756529 0.633455
Si Si6 0.308291 0.682946 0.491814
Si Si7 0.494277 0.295929 0.209858
O O1 0.590354 0.098950 0.137677
O O2 0.530424 0.220514 0.199515
O O3 0.709507 0.190839 0.944893
O O4 0.851774 0.173758 0.958097
O O5 0.213746 0.888059 0.224276
O O6 0.316636 0.928679 0.280442
O O7 0.000000 0.902124 0.500000
O O8 0.134852 0.000000 0.327836
O O9 0.263640 0.733854 0.761004
O O10 0.000000 0.666611 0.000000
O O11 0.309724 0.120813 0.426342
O O12 0.413393 0.000000 0.323033
O O13 0.500000 0.790610 0.500000
O O14 0.342533 0.695369 0.556998
O O15 0.174806 0.802675 0.710739
O O16 0.250000 0.750000 0.500000
O O17 0.468736 0.668719 0.313628
#
# Coordination Sequence:
#
# PCOD8084453 Si02
#       7
#     8   8   8   8   8   8   8
#     4  11  21  35  50  78 111 152 177 230 276 333
#     4  10  21  33  46  68 104 149 198 229 250 298
#     4  12  19  31  49  74 109 142 190 218 273 307
#     4  11  21  36  52  76 110 150 195 228 266 317
#     4  11  20  33  52  79 106 142 182 234 276 316
#     4  10  18  36  55  78 106 149 188 225 278 319
#     4  10  21  35  54  75 106 145 187 222 289 324
#
# _framework density 19.140222999999999
#
# number of rings (size 3 to 8) (size 9 to 14) (size 15 to 20)
#    0.000    1.286    7.143    1.286    2.000    0.857 
#    0.000    0.714    0.000    0.000    0.000    0.000 
#    0.000   18.857    0.000    0.143    0.000    0.000 
#
# Total GULP energy -346874.951325 kJ/mol
# GULP energy per Si atom -12388.391119 kJ/mol
# Density = 1.909666 g / cm^3
# Si number density = 19.140223 Si / 1000 Ang^3
#
#
#
# Elastic Constant Matrix: (Units=GPa)
#
#
# Indices 1 2 3 4 5 6 
#
# 1 50.6221 21.0328 35.9008 -0.0516 -16.9837 0.0263
# 2 21.0328 94.3697 41.2419 -0.0306 -3.9669 0.0115
# 3 35.9008 41.2419 116.0208 -0.0354 -10.3615 0.0180
# 4 -0.0516 -0.0306 -0.0354 95.2975 0.0526 -40.3777
# 5 -16.9837 -3.9669 -10.3615 0.0526 43.9789 -0.0242
# 6 0.0263 0.0115 0.0180 -40.3777 -0.0242 40.3357
#
#
#
# Elastic Compliance Matrix: (Units=1/GPa)
#
#
# Indices 1 2 3 4 5 6 
#
# 1 0.029185 -0.002995 -0.007134 0.000005 0.009320 -0.000004
# 2 -0.002995 0.012853 -0.003720 0.000002 -0.000874 0.000002
# 3 -0.007134 -0.003720 0.012128 -0.000001 -0.000233 0.000000
# 4 0.000005 0.000002 -0.000001 0.018222 -0.000010 0.018241
# 5 0.009320 -0.000874 -0.000233 -0.000010 0.026204 0.000000
# 6 -0.000004 0.000002 0.000000 0.018241 0.000000 0.043052
#
#
# Mechanical properties :
#
#
# Convention : Reuss Voigt Hill
#
# Bulk Modulus (GPa) = 37.78166 50.81819 44.29992
# Shear Modulus (GPa) = 28.06391 46.77822 37.42107
#
# Velocity S-wave (km/s) = 3.83329 4.94902 4.42645
# Velocity P-wave (km/s) = 6.27490 7.69839 7.02280
#
# Compressibility (1/GPa) = 0.02646787
#
# Stress axis : x y z
#
# Youngs Moduli (GPa) = 34.26467 77.80130 82.45278
#
# Poissons Ratio (x) = 0.23303 0.58819
# Poissons Ratio (y) = 0.10263 0.30674
# Poissons Ratio (z) = 0.24443 0.28943
#
# Static dielectric constant tensor:
#      x y z
#    x 3.744510 -0.000060 -0.162820 
#    y -0.000060 3.326970 0.000060 
#    z -0.162820 0.000060 4.171110 
# 
# 
# High freq. dielectric constant tensor:
#      x y z
#    x 1.714750 0.000000 -0.021540 
#    y 0.000000 1.698390 0.000000 
#    z -0.021540 0.000000 1.776540 
# 
# From -- ./inp_files/278997.got.cif
#   From: 2010.06.25/outbox.cif.g09.slc.cpg/sg12_140_cif.got.tgz:278997.got - 2010.06.28 00:19:55.
