data_PCOD8084695
_publ_section_title
;
Structure prediction by ZEFSAII (Michael W. Deem and Ramdas Pophale) SiO2 
 PCOD8084695
Probable space group: C 2/M
;
_chemical_formula_sum "Si O2"
_cell_formula_units_Z 56
_cell_length_a 29.242954
_cell_length_b 8.890740
_cell_length_c 13.698859
_cell_angle_alpha 90.000000
_cell_angle_beta 102.993817
_cell_angle_gamma 90.000000
_cell_volume 3470.390108
_symmetry_space_group_name_H-M "C 2/M"
_symmetry_group_IT_number 12
_symmetry_cell_setting 'monoclinic'
loop_
_space_group_symop_operation_xyz
x,y,z
-x,y,-z
-x,-y,-z
x,-y,z
1/2+x,1/2+y,z
1/2-x,1/2+y,-z
1/2-x,1/2-y,-z
1/2+x,1/2-y,z
loop_
_atom_site_type_symbol
_atom_site_label
_atom_site_fract_x
_atom_site_fract_y
_atom_site_fract_z
Si Si1 0.445780 0.676444 0.077138
Si Si2 0.198572 0.673076 0.882202
Si Si3 0.014520 0.674824 0.609522
Si Si4 0.529245 0.175024 0.212911
Si Si5 0.302404 0.323823 0.913854
Si Si6 0.888896 0.673770 0.878216
Si Si7 0.398835 0.827806 0.231459
O O1 0.446839 0.500000 0.058069
O O2 0.498650 0.736063 0.117796
O O3 0.415595 0.712685 0.158073
O O4 0.421946 0.756898 0.975482
O O5 0.201796 0.500000 0.917366
O O6 0.248729 0.721831 0.860867
O O7 0.157360 0.696739 0.781455
O O8 0.185726 0.768657 0.971520
O O9 0.003218 0.500000 0.594852
O O10 0.070276 0.703828 0.656377
O O11 0.000000 0.754154 0.500000
O O12 0.982813 0.737780 0.684256
O O13 0.584311 0.197866 0.212841
O O14 0.515049 0.000000 0.199449
O O15 0.310784 0.500000 0.913845
O O16 0.337571 0.250053 0.852155
O O17 0.881434 0.500000 0.898081
O O18 0.408340 0.000000 0.201948
#
# Coordination Sequence:
#
# PCOD8084695 Si02
#       7
#     8   8   8   8   8   8   8
#     4  11  20  28  41  63  88 115 148 182 212 248
#     4   9  17  29  43  60  86 119 150 180 216 258
#     4   8  14  27  48  71  88 103 135 184 225 258
#     4   9  19  32  45  61  84 116 147 175 216 267
#     4  10  19  28  41  62  86 115 153 188 214 245
#     4  11  20  30  42  58  85 121 152 176 212 259
#     4   9  16  28  46  65  88 118 145 173 217 265
#
# _framework density 16.136513000000001
#
# number of rings (size 3 to 8) (size 9 to 14) (size 15 to 20)
#    0.000    2.429    1.429    3.429    0.000    3.429 
#    0.000    0.000    0.000    6.857    0.000    1.000 
#    0.000    0.000    0.000    0.000    0.000    0.000 
#
# Total GULP energy -346946.416923 kJ/mol
# GULP energy per Si atom -12390.943462 kJ/mol
# Density = 1.609979 g / cm^3
# Si number density = 16.136513 Si / 1000 Ang^3
#
#
#
# Elastic Constant Matrix: (Units=GPa)
#
#
# Indices 1 2 3 4 5 6 
#
# 1 143.5789 33.8175 50.5310 0.0000 12.0667 0.0000
# 2 33.8175 55.7072 12.5877 0.0000 2.0543 0.0000
# 3 50.5310 12.5877 70.4187 0.0000 9.7016 0.0000
# 4 0.0000 0.0000 0.0000 5.0175 0.0000 2.7796
# 5 12.0667 2.0543 9.7016 0.0000 16.4095 0.0000
# 6 0.0000 0.0000 0.0000 2.7796 0.0000 24.1469
#
#
#
# Elastic Compliance Matrix: (Units=1/GPa)
#
#
# Indices 1 2 3 4 5 6 
#
# 1 0.010616 -0.004901 -0.006261 0.000000 -0.003491 0.000000
# 2 -0.004901 0.020972 -0.000399 0.000000 0.001215 0.000000
# 3 -0.006261 -0.000399 0.019731 0.000000 -0.007011 0.000000
# 4 0.000000 0.000000 0.000000 0.212879 0.000000 -0.024505
# 5 -0.003491 0.001215 -0.007011 0.000000 0.067501 0.000000
# 6 0.000000 0.000000 0.000000 -0.024505 0.000000 0.044234
#
#
# Mechanical properties :
#
#
# Convention : Reuss Voigt Hill
#
# Bulk Modulus (GPa) = 35.46567 51.50857 43.48712
# Shear Modulus (GPa) = 12.24130 20.63269 16.43699
#
# Velocity S-wave (km/s) = 2.75727 3.57968 3.19505
# Velocity P-wave (km/s) = 5.67124 7.00537 6.37331
#
# Compressibility (1/GPa) = 0.02819628
#
# Stress axis : x y z
#
# Youngs Moduli (GPa) = 94.19757 47.68344 50.68260
#
# Poissons Ratio (x) = 0.23370 0.31731
# Poissons Ratio (y) = 0.46167 0.02023
# Poissons Ratio (z) = 0.58974 0.01904
#
# Static dielectric constant tensor:
#      x y z
#    x 3.407300 0.000000 0.073260 
#    y 0.000000 2.968290 0.000000 
#    z 0.073260 0.000000 2.939820 
# 
# 
# High freq. dielectric constant tensor:
#      x y z
#    x 1.629610 0.000000 0.010670 
#    y 0.000000 1.612380 0.000000 
#    z 0.010670 0.000000 1.567700 
# 
# From -- ./inp_files/247891.got.cif
#   From: 2010.06.25/outbox.cif.g09.slc.cpg/sg12_124_cif.got.tgz:247891.got - 2010.06.28 00:19:55.
