data_PCOD8084125
_publ_section_title
;
Structure prediction by ZEFSAII (Michael W. Deem and Ramdas Pophale) SiO2 
 PCOD8084125
Probable space group: C 2/M
;
_chemical_formula_sum "Si O2"
_cell_formula_units_Z 60
_cell_length_a 12.220523
_cell_length_b 18.744322
_cell_length_c 24.415854
_cell_angle_alpha 90.000000
_cell_angle_beta 145.246893
_cell_angle_gamma 90.000000
_cell_volume 3188.142931
_symmetry_space_group_name_H-M "C 2/M"
_symmetry_group_IT_number 12
_symmetry_cell_setting 'monoclinic'
loop_
_space_group_symop_operation_xyz
x,y,z
-x,y,-z
-x,-y,-z
x,-y,z
1/2+x,1/2+y,z
1/2-x,1/2+y,-z
1/2-x,1/2-y,-z
1/2+x,1/2-y,z
loop_
_atom_site_type_symbol
_atom_site_label
_atom_site_fract_x
_atom_site_fract_y
_atom_site_fract_z
Si Si1 0.974795 0.675161 0.311677
Si Si2 0.500000 0.885793 0.000000
Si Si3 0.349158 0.584436 0.486392
Si Si4 0.710952 0.168239 0.985766
Si Si5 0.568022 0.669481 0.664325
Si Si6 0.071628 0.144267 0.190218
Si Si7 0.616042 0.422851 0.789446
Si Si8 0.525581 0.805119 0.208427
O O1 0.147662 0.620142 0.388876
O O2 0.941586 0.691250 0.234443
O O3 0.008908 0.749531 0.358389
O O4 0.784874 0.635331 0.255083
O O5 0.435040 0.838088 0.023936
O O6 0.679939 0.931149 0.095802
O O7 0.500000 0.599723 0.500000
O O8 0.322582 0.500000 0.484799
O O9 0.412450 0.621699 0.569024
O O10 0.607658 0.145775 0.886260
O O11 0.750000 0.250000 0.000000
O O12 0.909453 0.124098 0.077596
O O13 0.616971 0.636770 0.743309
O O14 0.756737 0.667003 0.704213
O O15 0.022982 0.224351 0.187541
O O16 0.049212 0.094789 0.234237
O O17 0.568053 0.500000 0.743721
#
# Coordination Sequence:
#
# PCOD8084125 Si02
#       8
#     8   4   8   8   8   8   8   8
#     4  11  22  39  62  86 122 152 193 251 302 350
#     4  10  19  34  50  86 120 158 203 236 291 336
#     4  11  24  42  63  87 113 151 198 247 305 363
#     4   9  18  29  53  84 120 156 189 240 280 342
#     4  11  21  39  62  92 114 150 200 251 296 346
#     4   9  21  34  53  88 120 158 192 232 294 350
#     4  11  21  36  58  84 122 161 198 242 288 350
#     4  10  18  34  58  88 118 152 197 240 288 339
#
# _framework density 18.819734
#
# number of rings (size 3 to 8) (size 9 to 14) (size 15 to 20)
#    0.000    1.733    4.000    1.000    0.000    1.067 
#    0.000    0.667    0.000    1.600    0.000    2.800 
#    0.000    0.000    0.000    0.000    0.000    0.000 
#
# Total GULP energy -371828.444758 kJ/mol
# GULP energy per Si atom -12394.281492 kJ/mol
# Density = 1.877690 g / cm^3
# Si number density = 18.819734 Si / 1000 Ang^3
#
#
#
# Elastic Constant Matrix: (Units=GPa)
#
#
# Indices 1 2 3 4 5 6 
#
# 1 117.1877 34.6046 47.3055 0.0001 13.0709 0.0000
# 2 34.6046 71.9691 28.9736 0.0000 10.6142 0.0000
# 3 47.3055 28.9736 100.2029 0.0006 4.5160 0.0002
# 4 0.0001 0.0000 0.0006 14.0164 0.0002 -2.1744
# 5 13.0709 10.6142 4.5160 0.0002 32.9098 0.0000
# 6 0.0000 0.0000 0.0002 -2.1744 0.0000 19.3104
#
#
#
# Elastic Compliance Matrix: (Units=1/GPa)
#
#
# Indices 1 2 3 4 5 6 
#
# 1 0.011629 -0.003399 -0.004376 0.000000 -0.002922 0.000000
# 2 -0.003399 0.017403 -0.003255 0.000000 -0.003816 0.000000
# 3 -0.004376 -0.003255 0.012941 -0.000001 0.001012 0.000000
# 4 0.000000 0.000000 -0.000001 0.072614 0.000000 0.008177
# 5 -0.002922 -0.003816 0.001012 0.000000 0.032639 0.000000
# 6 0.000000 0.000000 0.000000 0.008177 0.000000 0.052706
#
#
# Mechanical properties :
#
#
# Convention : Reuss Voigt Hill
#
# Bulk Modulus (GPa) = 50.21850 56.79191 53.50520
# Shear Modulus (GPa) = 21.86949 25.14571 23.50760
#
# Velocity S-wave (km/s) = 3.41259 3.65928 3.53809
# Velocity P-wave (km/s) = 6.50150 6.93514 6.72182
#
# Compressibility (1/GPa) = 0.01991298
#
# Stress axis : x y z
#
# Youngs Moduli (GPa) = 85.98967 57.46287 77.27320
#
# Poissons Ratio (x) = 0.19533 0.33812
# Poissons Ratio (y) = 0.29229 0.25154
# Poissons Ratio (z) = 0.37626 0.18705
#
# Static dielectric constant tensor:
#      x y z
#    x 3.297710 0.000000 0.091620 
#    y 0.000000 3.219690 0.000000 
#    z 0.091620 0.000000 3.745700 
# 
# 
# High freq. dielectric constant tensor:
#      x y z
#    x 1.733010 0.000000 -0.001620 
#    y 0.000000 1.709180 0.000000 
#    z -0.001620 0.000000 1.735560 
# 
# From -- ./inp_files/336880.got.cif
#   From: 2010.06.25/outbox.cif.g09.slc.cpg/sg12_169_cif.got.tgz:336880.got - 2010.06.28 00:19:55.
