data_PCOD8084176
_publ_section_title
;
Structure prediction by ZEFSAII (Michael W. Deem and Ramdas Pophale) SiO2 
 PCOD8084176
Probable space group: C 2/M
;
_chemical_formula_sum "Si O2"
_cell_formula_units_Z 56
_cell_length_a 15.108824
_cell_length_b 9.072486
_cell_length_c 21.504408
_cell_angle_alpha 90.000000
_cell_angle_beta 88.274412
_cell_angle_gamma 90.000000
_cell_volume 2946.371249
_symmetry_space_group_name_H-M "C 2/M"
_symmetry_group_IT_number 12
_symmetry_cell_setting 'monoclinic'
loop_
_space_group_symop_operation_xyz
x,y,z
-x,y,-z
-x,-y,-z
x,-y,z
1/2+x,1/2+y,z
1/2-x,1/2+y,-z
1/2-x,1/2-y,-z
1/2+x,1/2-y,z
loop_
_atom_site_type_symbol
_atom_site_label
_atom_site_fract_x
_atom_site_fract_y
_atom_site_fract_z
Si Si1 0.655999 0.172468 0.430515
Si Si2 0.992241 0.174985 0.210154
Si Si3 0.017294 0.827003 0.350731
Si Si4 0.142616 0.171280 0.557346
Si Si5 0.151892 0.672202 0.865014
Si Si6 0.150618 0.827524 0.122630
Si Si7 0.104124 0.166047 0.990050
O O1 0.603009 0.244897 0.375240
O O2 0.759782 0.209326 0.418867
O O3 0.620885 0.237511 0.496081
O O4 0.637685 0.000000 0.431203
O O5 0.004733 0.225954 0.280547
O O6 0.074311 0.239354 0.168331
O O7 0.901920 0.243292 0.186603
O O8 0.984787 0.000000 0.205237
O O9 0.928469 0.782721 0.389440
O O10 0.035646 0.000000 0.354572
O O11 0.135364 0.000000 0.539837
O O12 0.130747 0.500000 0.861696
O O13 0.254751 0.706438 0.848865
O O14 0.129251 0.726369 0.934164
O O15 0.145963 0.765069 0.052333
O O16 0.132338 0.000000 0.117062
O O17 0.139278 0.000000 0.975557
O O18 0.000000 0.161596 0.000000
#
# Coordination Sequence:
#
# PCOD8084176 Si02
#       7
#     8   8   8   8   8   8   8
#     4  10  20  34  55  82 112 142 174 219 270 317
#     4  10  21  40  58  74 103 147 188 213 255 326
#     4  10  21  36  57  79 104 143 184 221 260 312
#     4   9  19  36  55  80 112 142 176 219 266 315
#     4  11  22  35  54  82 111 135 171 227 276 307
#     4   9  19  36  56  78 106 140 176 217 265 320
#     4  10  18  34  60  80 103 142 179 213 262 324
#
# _framework density 19.006432
#
# number of rings (size 3 to 8) (size 9 to 14) (size 15 to 20)
#    0.000    2.143    1.429    1.714    0.000    4.857 
#    0.000    2.143    0.000    0.000    0.000    0.000 
#    0.000    0.000    0.000    0.000    0.000    0.000 
#
# Total GULP energy -347262.912899 kJ/mol
# GULP energy per Si atom -12402.246889 kJ/mol
# Density = 1.896317 g / cm^3
# Si number density = 19.006432 Si / 1000 Ang^3
#
#
#
# Elastic Constant Matrix: (Units=GPa)
#
#
# Indices 1 2 3 4 5 6 
#
# 1 99.1972 32.9314 60.6447 0.0000 23.4659 0.0000
# 2 32.9314 43.1600 39.9739 0.0000 11.1044 0.0000
# 3 60.6447 39.9739 140.0026 0.0000 28.8514 0.0000
# 4 0.0000 0.0000 0.0000 16.6139 0.0000 12.6504
# 5 23.4659 11.1044 28.8514 0.0000 26.5009 0.0000
# 6 0.0000 0.0000 0.0000 12.6504 0.0000 27.3731
#
#
#
# Elastic Compliance Matrix: (Units=1/GPa)
#
#
# Indices 1 2 3 4 5 6 
#
# 1 0.016462 -0.007398 -0.003421 0.000000 -0.007753 0.000000
# 2 -0.007398 0.035226 -0.006654 0.000000 -0.000965 0.000000
# 3 -0.003421 -0.006654 0.012023 0.000000 -0.007272 0.000000
# 4 0.000000 0.000000 0.000000 0.092871 0.000000 -0.042920
# 5 -0.007753 -0.000965 -0.007272 0.000000 0.052921 0.000000
# 6 0.000000 0.000000 0.000000 -0.042920 0.000000 0.056367
#
#
# Mechanical properties :
#
#
# Convention : Reuss Voigt Hill
#
# Bulk Modulus (GPa) = 34.76477 61.05110 47.90794
# Shear Modulus (GPa) = 16.10801 24.01823 20.06312
#
# Velocity S-wave (km/s) = 2.91435 3.55870 3.25252
# Velocity P-wave (km/s) = 5.44567 7.00548 6.27424
#
# Compressibility (1/GPa) = 0.02876475
#
# Stress axis : x y z
#
# Youngs Moduli (GPa) = 60.74500 28.38851 83.17253
#
# Poissons Ratio (x) = 0.21001 0.28454
# Poissons Ratio (y) = 0.44937 0.55346
# Poissons Ratio (z) = 0.20781 0.18891
#
# Static dielectric constant tensor:
#      x y z
#    x 3.679660 0.000000 -0.009380 
#    y 0.000000 3.334480 0.000000 
#    z -0.009380 0.000000 3.552400 
# 
# 
# High freq. dielectric constant tensor:
#      x y z
#    x 1.751110 0.000000 0.005930 
#    y 0.000000 1.720720 0.000000 
#    z 0.005930 0.000000 1.737140 
# 
# From -- ./inp_files/308909.got.cif
#   From: 2010.06.25/outbox.cif.g09.slc.cpg/sg12_155_cif.got.tgz:308909.got - 2010.06.28 00:19:55.
