data_PCOD8084009
_publ_section_title
;
Structure prediction by ZEFSAII (Michael W. Deem and Ramdas Pophale) SiO2 
 PCOD8084009
Probable space group: C 2/M
;
_chemical_formula_sum "Si O2"
_cell_formula_units_Z 64
_cell_length_a 8.936750
_cell_length_b 18.953557
_cell_length_c 30.974170
_cell_angle_alpha 90.000000
_cell_angle_beta 138.918918
_cell_angle_gamma 90.000000
_cell_volume 3447.616304
_symmetry_space_group_name_H-M "C 2/M"
_symmetry_group_IT_number 12
_symmetry_cell_setting 'monoclinic'
loop_
_space_group_symop_operation_xyz
x,y,z
-x,y,-z
-x,-y,-z
x,-y,z
1/2+x,1/2+y,z
1/2-x,1/2+y,-z
1/2-x,1/2-y,-z
1/2+x,1/2-y,z
loop_
_atom_site_type_symbol
_atom_site_label
_atom_site_fract_x
_atom_site_fract_y
_atom_site_fract_z
Si Si1 0.483081 0.333957 0.307290
Si Si2 0.045580 0.578880 0.704484
Si Si3 0.239258 0.779164 0.045616
Si Si4 0.463458 0.421574 0.222213
Si Si5 0.106738 0.418073 0.569914
Si Si6 0.031834 0.708517 0.256518
Si Si7 0.274164 0.198638 0.870409
Si Si8 0.251366 0.582723 0.438801
O O1 0.391690 0.390667 0.252754
O O2 0.667858 0.370270 0.378407
O O3 0.273863 0.308278 0.289604
O O4 0.581581 0.265505 0.304475
O O5 0.016922 0.500000 0.718284
O O6 0.263692 0.579796 0.720711
O O7 0.074394 0.636049 0.748325
O O8 0.829639 0.598447 0.627613
O O9 0.483667 0.817701 0.101721
O O10 0.213635 0.717990 0.076396
O O11 0.250000 0.750000 0.000000
O O12 0.000000 0.824271 0.000000
O O13 0.364959 0.500000 0.195716
O O14 0.362848 0.374303 0.161739
O O15 0.170542 0.500000 0.592908
O O16 0.000000 0.408901 0.500000
O O17 0.927576 0.387063 0.565550
O O18 0.854684 0.738211 0.182727
O O19 0.500000 0.617675 0.500000
O O20 0.267984 0.500000 0.451245
#
# Coordination Sequence:
#
# PCOD8084009 Si02
#       8
#     8   8   8   8   8   8   8   8
#     4  11  22  37  54  78 110 145 186 233 287 336
#     4  10  20  35  55  81 110 141 184 233 283 337
#     4   9  18  32  56  84 110 141 180 225 260 305
#     4  10  19  34  57  82 112 149 183 227 282 331
#     4  10  21  37  57  79 104 139 187 236 282 338
#     4  11  23  36  56  82 112 148 179 227 283 334
#     4  10  18  34  55  83 113 142 183 222 267 322
#     4   9  18  33  54  76 101 137 179 230 281 329
#
# _framework density 18.563552000000001
#
# number of rings (size 3 to 8) (size 9 to 14) (size 15 to 20)
#    0.000    2.000    1.250    4.125    1.750    1.000 
#    0.000    1.250    0.000    3.750    0.000    3.500 
#    0.000    0.000    0.000    0.000    0.000    0.000 
#
# Total GULP energy -396579.790027 kJ/mol
# GULP energy per Si atom -12393.118438 kJ/mol
# Density = 1.852130 g / cm^3
# Si number density = 18.563552 Si / 1000 Ang^3
#
#
#
# Elastic Constant Matrix: (Units=GPa)
#
#
# Indices 1 2 3 4 5 6 
#
# 1 107.5526 40.5302 36.1444 0.0001 11.6251 0.0000
# 2 40.5302 105.2634 42.9887 0.0001 -5.6982 -0.0001
# 3 36.1444 42.9887 84.3647 -0.0001 12.6205 -0.0004
# 4 0.0001 0.0001 -0.0001 10.7630 0.0000 1.2866
# 5 11.6251 -5.6982 12.6205 0.0000 36.1150 0.0000
# 6 0.0000 -0.0001 -0.0004 1.2866 0.0000 20.3753
#
#
#
# Elastic Compliance Matrix: (Units=1/GPa)
#
#
# Indices 1 2 3 4 5 6 
#
# 1 0.011982 -0.003685 -0.002735 0.000000 -0.003483 0.000000
# 2 -0.003685 0.013782 -0.006275 0.000000 0.005553 0.000000
# 3 -0.002735 -0.006275 0.017134 0.000000 -0.006097 0.000000
# 4 0.000000 0.000000 0.000000 0.093618 0.000000 -0.005911
# 5 -0.003483 0.005553 -0.006097 0.000000 0.031817 0.000000
# 6 0.000000 0.000000 0.000000 -0.005911 0.000000 0.049452
#
#
# Mechanical properties :
#
#
# Convention : Reuss Voigt Hill
#
# Bulk Modulus (GPa) = 57.11227 59.61192 58.36210
# Shear Modulus (GPa) = 20.07940 25.28514 22.68227
#
# Velocity S-wave (km/s) = 3.29242 3.69465 3.49932
# Velocity P-wave (km/s) = 6.72949 7.09807 6.91624
#
# Compressibility (1/GPa) = 0.01750937
#
# Stress axis : x y z
#
# Youngs Moduli (GPa) = 83.45880 72.55805 58.36233
#
# Poissons Ratio (x) = 0.26739 0.15960
# Poissons Ratio (y) = 0.30756 0.36620
# Poissons Ratio (z) = 0.22823 0.45528
#
# Static dielectric constant tensor:
#      x y z
#    x 3.709420 0.000000 0.247590 
#    y 0.000000 3.332900 0.000000 
#    z 0.247590 0.000000 3.709910 
# 
# 
# High freq. dielectric constant tensor:
#      x y z
#    x 1.730360 0.000000 0.006130 
#    y 0.000000 1.688310 0.000000 
#    z 0.006130 0.000000 1.723290 
# 
# From -- ./inp_files/300799.got.cif
#   From: 2010.06.25/outbox.cif.g09.slc.cpg/sg12_151_cif.got.tgz:300799.got - 2010.06.28 00:19:55.
