data_PCOD8084197
_publ_section_title
;
Structure prediction by ZEFSAII (Michael W. Deem and Ramdas Pophale) SiO2 
 PCOD8084197
Probable space group: C 2/M
;
_chemical_formula_sum "Si O2"
_cell_formula_units_Z 48
_cell_length_a 20.562601
_cell_length_b 8.396057
_cell_length_c 19.284280
_cell_angle_alpha 90.000000
_cell_angle_beta 131.096933
_cell_angle_gamma 90.000000
_cell_volume 2508.978426
_symmetry_space_group_name_H-M "C 2/M"
_symmetry_group_IT_number 12
_symmetry_cell_setting 'monoclinic'
loop_
_space_group_symop_operation_xyz
x,y,z
-x,y,-z
-x,-y,-z
x,-y,z
1/2+x,1/2+y,z
1/2-x,1/2+y,-z
1/2-x,1/2-y,-z
1/2+x,1/2-y,z
loop_
_atom_site_type_symbol
_atom_site_label
_atom_site_fract_x
_atom_site_fract_y
_atom_site_fract_z
Si Si1 0.142391 0.684627 0.743029
Si Si2 0.768382 0.684367 0.937339
Si Si3 0.281667 0.188832 0.449366
Si Si4 0.472223 0.811433 0.554038
Si Si5 0.271557 0.185624 0.728198
Si Si6 0.598516 0.313096 0.075299
O O1 0.151229 0.500000 0.769779
O O2 0.181799 0.791077 0.831735
O O3 0.193981 0.713349 0.707715
O O4 0.042902 0.735046 0.661945
O O5 0.791580 0.500000 0.957642
O O6 0.849142 0.773389 0.958317
O O7 0.750000 0.750000 0.000000
O O8 0.250000 0.250000 0.500000
O O9 0.379108 0.254738 0.509964
O O10 0.221595 0.263772 0.347256
O O11 0.276387 0.000000 0.441555
O O12 0.500000 0.735493 0.500000
O O13 0.468710 0.000000 0.544125
O O14 0.360859 0.223680 0.830085
O O15 0.251417 0.000000 0.721532
O O16 0.603607 0.500000 0.092679
O O17 0.500000 0.254824 0.000000
#
# Coordination Sequence:
#
# PCOD8084197 Si02
#       6
#     8   8   8   8   8   8
#     4  10  18  34  60  86 111 146 190 235 282 333
#     4  11  22  38  59  85 118 152 188 234 287 341
#     4  11  22  39  58  81 115 151 189 234 286 338
#     4   9  17  33  59  85 108 144 188 229 274 331
#     4  11  21  35  57  85 115 151 189 229 280 340
#     4  10  21  39  63  88 113 146 190 239 287 340
#
# _framework density 19.131291999999998
#
# number of rings (size 3 to 8) (size 9 to 14) (size 15 to 20)
#    0.000    1.667    1.667    6.500    0.000    1.333 
#    3.000    4.167    0.000    0.000    0.000    0.000 
#    0.000    0.000    0.000    0.000    0.000    0.000 
#
# Total GULP energy -297636.901997 kJ/mol
# GULP energy per Si atom -12401.537583 kJ/mol
# Density = 1.908775 g / cm^3
# Si number density = 19.131292 Si / 1000 Ang^3
#
#
#
# Elastic Constant Matrix: (Units=GPa)
#
#
# Indices 1 2 3 4 5 6 
#
# 1 121.3425 13.7256 82.6863 0.0000 0.0650 0.0000
# 2 13.7256 61.5926 24.9329 0.0000 4.6718 0.0000
# 3 82.6863 24.9329 128.8399 0.0000 -3.1907 0.0000
# 4 0.0000 0.0000 0.0000 28.8327 0.0000 -7.5597
# 5 0.0650 4.6718 -3.1907 0.0000 39.8105 0.0000
# 6 0.0000 0.0000 0.0000 -7.5597 0.0000 22.9499
#
#
#
# Elastic Compliance Matrix: (Units=1/GPa)
#
#
# Indices 1 2 3 4 5 6 
#
# 1 0.014696 0.000670 -0.009583 0.000000 -0.000871 0.000000
# 2 0.000670 0.017867 -0.003948 0.000000 -0.002414 0.000000
# 3 -0.009583 -0.003948 0.014716 0.000000 0.001658 0.000000
# 4 0.000000 0.000000 0.000000 0.037961 0.000000 0.012504
# 5 -0.000871 -0.002414 0.001658 0.000000 0.025537 0.000000
# 6 0.000000 0.000000 0.000000 0.012504 0.000000 0.047692
#
#
# Mechanical properties :
#
#
# Convention : Reuss Voigt Hill
#
# Bulk Modulus (GPa) = 46.38292 61.60720 53.99506
# Shear Modulus (GPa) = 26.12654 31.01396 28.57025
#
# Velocity S-wave (km/s) = 3.69947 4.03067 3.86862
# Velocity P-wave (km/s) = 6.52267 7.34397 6.94548
#
# Compressibility (1/GPa) = 0.02155966
#
# Stress axis : x y z
#
# Youngs Moduli (GPa) = 68.04743 55.96759 67.95123
#
# Poissons Ratio (x) = -0.03751 0.65115
# Poissons Ratio (y) = -0.04561 0.26825
# Poissons Ratio (z) = 0.65207 0.22094
#
# Static dielectric constant tensor:
#      x y z
#    x 3.448860 0.000000 0.160370 
#    y 0.000000 3.417830 0.000000 
#    z 0.160370 0.000000 3.716790 
# 
# 
# High freq. dielectric constant tensor:
#      x y z
#    x 1.726230 0.000000 0.003870 
#    y 0.000000 1.742940 0.000000 
#    z 0.003870 0.000000 1.755140 
# 
# From -- ./inp_files/281817.got.cif
#   From: 2010.06.25/outbox.cif.g09.slc.cpg/sg12_141_cif.got.tgz:281817.got - 2010.06.28 00:19:55.
