data_PCOD8084266
_publ_section_title
;
Structure prediction by ZEFSAII (Michael W. Deem and Ramdas Pophale) SiO2 
 PCOD8084266
Probable space group: C 2/M
;
_chemical_formula_sum "Si O2"
_cell_formula_units_Z 48
_cell_length_a 13.878737
_cell_length_b 30.358335
_cell_length_c 12.881255
_cell_angle_alpha 90.000000
_cell_angle_beta 151.234154
_cell_angle_gamma 90.000000
_cell_volume 2611.799711
_symmetry_space_group_name_H-M "C 2/M"
_symmetry_group_IT_number 12
_symmetry_cell_setting 'monoclinic'
loop_
_space_group_symop_operation_xyz
x,y,z
-x,y,-z
-x,-y,-z
x,-y,z
1/2+x,1/2+y,z
1/2-x,1/2+y,-z
1/2-x,1/2-y,-z
1/2+x,1/2-y,z
loop_
_atom_site_type_symbol
_atom_site_label
_atom_site_fract_x
_atom_site_fract_y
_atom_site_fract_z
Si Si1 0.237067 0.576424 0.073607
Si Si2 0.480416 0.500000 0.601892
Si Si3 0.856414 0.203359 0.707583
Si Si4 0.500000 0.864812 0.000000
Si Si5 0.078072 0.302206 0.257040
Si Si6 0.500000 0.169004 0.500000
Si Si7 0.747345 0.849330 0.921625
Si Si8 0.035688 0.500000 0.158968
O O1 0.428256 0.545559 0.271063
O O2 0.280475 0.605570 0.014129
O O3 0.177756 0.605770 0.118095
O O4 0.053722 0.544116 0.876698
O O5 0.500000 0.500000 0.500000
O O6 0.251163 0.500000 0.412070
O O7 0.943858 0.252277 0.801947
O O8 0.775419 0.193157 0.515233
O O9 0.671461 0.199634 0.612172
O O10 0.035892 0.169952 0.904128
O O11 0.608056 0.834823 0.188467
O O12 0.873027 0.313952 0.122939
O O13 0.387116 0.139418 0.307002
O O14 0.000000 0.500000 0.000000
#
# Coordination Sequence:
#
# PCOD8084266 Si02
#       8
#     8   4   8   4   8   4   8   4
#     4  10  21  35  53  88 116 145 185 221 278 338
#     4  11  19  32  59  81 109 155 177 208 273 350
#     4  10  20  39  53  79 108 150 199 243 285 330
#     4  10  18  35  52  82 120 150 184 235 268 328
#     4   9  21  35  53  78 114 150 191 239 288 323
#     4  10  22  36  60  79 104 152 198 243 290 328
#     4  10  21  37  58  81 112 146 193 243 282 337
#     4  11  19  38  57  79 120 146 174 221 268 348
#
# _framework density 18.378132000000001
#
# number of rings (size 3 to 8) (size 9 to 14) (size 15 to 20)
#    0.000    2.000    2.500    1.000    2.333    5.333 
#    6.000    0.000    0.000    2.000    0.000   10.500 
#    0.000    0.000    0.000    0.000    0.000    0.000 
#
# Total GULP energy -297502.777548 kJ/mol
# GULP energy per Si atom -12395.949064 kJ/mol
# Density = 1.833630 g / cm^3
# Si number density = 18.378132 Si / 1000 Ang^3
#
#
#
# Elastic Constant Matrix: (Units=GPa)
#
#
# Indices 1 2 3 4 5 6 
#
# 1 89.1390 56.2405 51.7913 0.0001 -1.0570 0.0000
# 2 56.2405 133.4440 67.4529 0.0000 -0.2710 0.0000
# 3 51.7913 67.4529 133.7358 0.0003 9.6809 0.0000
# 4 0.0001 0.0000 0.0003 -41.6583 0.0001 0.7063
# 5 -1.0570 -0.2710 9.6809 0.0001 31.4615 0.0000
# 6 0.0000 0.0000 0.0000 0.7063 0.0000 15.4630
#
#
#
# Elastic Compliance Matrix: (Units=1/GPa)
#
#
# Indices 1 2 3 4 5 6 
#
# 1 0.016775 -0.004989 -0.004109 0.000000 0.001785 0.000000
# 2 -0.004989 0.011630 -0.004018 0.000000 0.001169 0.000000
# 3 -0.004109 -0.004018 0.011361 0.000000 -0.003669 0.000000
# 4 0.000000 0.000000 0.000000 -0.023986 0.000000 0.001096
# 5 0.001785 0.001169 -0.003669 0.000000 0.032984 0.000000
# 6 0.000000 0.000000 0.000000 0.001096 0.000000 0.064621
#
#
# Mechanical properties :
#
#
# Convention : Reuss Voigt Hill
#
# Bulk Modulus (GPa) = 73.89539 78.58759 76.24149
# Shear Modulus (GPa) = 34.69131 13.10885 23.90008
#
# Velocity S-wave (km/s) = 4.34941 2.67364 3.61011
# Velocity P-wave (km/s) = 8.09437 7.23778 7.67803
#
# Compressibility (1/GPa) = 0.01353264
#
# Stress axis : x y z
#
# Youngs Moduli (GPa) = 59.61292 85.98416 88.01952
#
# Poissons Ratio (x) = 0.42899 0.36169
# Poissons Ratio (y) = 0.29742 0.35370
# Poissons Ratio (z) = 0.24496 0.34552
#
# Static dielectric constant tensor:
#      x y z
#    x 3.357470 0.000000 -0.050690 
#    y 0.000000 3.389080 0.000000 
#    z -0.050690 0.000000 3.345150 
# 
# 
# High freq. dielectric constant tensor:
#      x y z
#    x 1.699830 0.000000 0.003490 
#    y 0.000000 1.706670 0.000000 
#    z 0.003490 0.000000 1.719230 
# 
# From -- ./inp_files/218987.got.cif
#   From: 2010.06.25/outbox.cif.g09.slc.cpg/sg12_110_cif.got.tgz:218987.got - 2010.06.28 00:19:55.
