data_PCOD8084883
_publ_section_title
;
Structure prediction by ZEFSAII (Michael W. Deem and Ramdas Pophale) SiO2 
 PCOD8084883
Probable space group: C 2/M
;
_chemical_formula_sum "Si O2"
_cell_formula_units_Z 56
_cell_length_a 26.716336
_cell_length_b 9.164507
_cell_length_c 15.741590
_cell_angle_alpha 90.000000
_cell_angle_beta 113.860732
_cell_angle_gamma 90.000000
_cell_volume 3524.789818
_symmetry_space_group_name_H-M "C 2/M"
_symmetry_group_IT_number 12
_symmetry_cell_setting 'monoclinic'
loop_
_space_group_symop_operation_xyz
x,y,z
-x,y,-z
-x,-y,-z
x,-y,z
1/2+x,1/2+y,z
1/2-x,1/2+y,-z
1/2-x,1/2-y,-z
1/2+x,1/2-y,z
loop_
_atom_site_type_symbol
_atom_site_label
_atom_site_fract_x
_atom_site_fract_y
_atom_site_fract_z
Si Si1 0.566314 0.832650 0.454178
Si Si2 0.144844 0.829221 0.814889
Si Si3 0.740945 0.834169 0.196163
Si Si4 0.256706 0.330238 0.634306
Si Si5 0.558656 0.167885 0.645007
Si Si6 0.832080 0.830225 0.529447
Si Si7 0.304042 0.168801 0.009088
O O1 0.505082 0.804938 0.379118
O O2 0.571262 0.792085 0.556490
O O3 0.606430 0.730736 0.427236
O O4 0.583019 0.000000 0.451185
O O5 0.199638 0.791202 0.800109
O O6 0.092492 0.774774 0.727843
O O7 0.139574 0.000000 0.828849
O O8 0.145849 0.746621 0.907182
O O9 0.724866 0.727863 0.261560
O O10 0.693543 0.816766 0.091778
O O11 0.742438 0.000000 0.230689
O O12 0.243067 0.500000 0.630737
O O13 0.201680 0.249300 0.567750
O O14 0.305820 0.297647 0.602963
O O15 0.574362 0.000000 0.673959
O O16 0.832509 0.000000 0.508235
O O17 0.301020 0.000000 0.034059
O O18 0.250000 0.250000 0.000000
#
# Coordination Sequence:
#
# PCOD8084883 Si02
#       7
#     8   8   8   8   8   8   8
#     4   9  18  32  48  65  87 117 150 183 219 258
#     4  10  19  29  43  66  93 120 149 179 216 261
#     4   9  18  30  44  65  91 117 147 182 217 257
#     4  10  20  31  45  65  88 118 151 180 217 262
#     4   9  18  31  46  66  90 116 149 183 216 259
#     4  10  20  32  45  64  90 117 148 185 219 256
#     4   9  17  29  44  63  88 117 147 180 219 261
#
# _framework density 15.887473
#
# number of rings (size 3 to 8) (size 9 to 14) (size 15 to 20)
#    0.000    2.571    0.000    4.286    0.000    8.571 
#    0.000    1.429    0.000    0.000    0.000    1.000 
#    0.000    8.000    0.000    0.000    0.000    0.000 
#
# Total GULP energy -347173.745271 kJ/mol
# GULP energy per Si atom -12399.062331 kJ/mol
# Density = 1.585131 g / cm^3
# Si number density = 15.887473 Si / 1000 Ang^3
#
#
#
# Elastic Constant Matrix: (Units=GPa)
#
#
# Indices 1 2 3 4 5 6 
#
# 1 64.9698 41.4620 31.6435 0.0000 2.5451 0.0000
# 2 41.4620 100.4298 59.9228 0.0000 -0.0454 0.0000
# 3 31.6435 59.9228 107.6442 0.0000 5.3886 0.0000
# 4 0.0000 0.0000 0.0000 32.5170 0.0000 1.4094
# 5 2.5451 -0.0454 5.3886 0.0000 18.1167 0.0000
# 6 0.0000 0.0000 0.0000 1.4094 0.0000 26.7613
#
#
#
# Elastic Compliance Matrix: (Units=1/GPa)
#
#
# Indices 1 2 3 4 5 6 
#
# 1 0.021298 -0.007684 -0.001860 0.000000 -0.002458 0.000000
# 2 -0.007684 0.017798 -0.007822 0.000000 0.003451 0.000000
# 3 -0.001860 -0.007822 0.014393 0.000000 -0.004039 0.000000
# 4 0.000000 0.000000 0.000000 0.030824 0.000000 -0.001623
# 5 -0.002458 0.003451 -0.004039 0.000000 0.056753 0.000000
# 6 0.000000 0.000000 0.000000 -0.001623 0.000000 0.037453
#
#
# Mechanical properties :
#
#
# Convention : Reuss Voigt Hill
#
# Bulk Modulus (GPa) = 53.31301 59.90006 56.60654
# Shear Modulus (GPa) = 22.77884 24.81336 23.79610
#
# Velocity S-wave (km/s) = 3.79061 3.95627 3.87433
# Velocity P-wave (km/s) = 7.26552 7.65859 7.46464
#
# Compressibility (1/GPa) = 0.01875715
#
# Stress axis : x y z
#
# Youngs Moduli (GPa) = 46.95339 56.18664 69.47808
#
# Poissons Ratio (x) = 0.43172 0.12925
# Poissons Ratio (y) = 0.36078 0.54343
# Poissons Ratio (z) = 0.08735 0.43947
#
# Static dielectric constant tensor:
#      x y z
#    x 2.764210 0.000000 0.042290 
#    y 0.000000 3.109610 0.000000 
#    z 0.042290 0.000000 3.341360 
# 
# 
# High freq. dielectric constant tensor:
#      x y z
#    x 1.574100 0.000000 0.003220 
#    y 0.000000 1.623870 0.000000 
#    z 0.003220 0.000000 1.607310 
# 
# From -- ./inp_files/237458.got.cif
#   From: 2010.06.25/outbox.cif.g09.slc.cpg/sg12_119_cif.got.tgz:237458.got - 2010.06.28 00:19:55.
