data_PCOD8084195
_publ_section_title
;
Structure prediction by ZEFSAII (Michael W. Deem and Ramdas Pophale) SiO2 
 PCOD8084195
Probable space group: C 2/M
;
_chemical_formula_sum "Si O2"
_cell_formula_units_Z 64
_cell_length_a 15.493194
_cell_length_b 8.825707
_cell_length_c 23.940455
_cell_angle_alpha 90.000000
_cell_angle_beta 89.971808
_cell_angle_gamma 90.000000
_cell_volume 3273.578894
_symmetry_space_group_name_H-M "C 2/M"
_symmetry_group_IT_number 12
_symmetry_cell_setting 'monoclinic'
loop_
_space_group_symop_operation_xyz
x,y,z
-x,y,-z
-x,-y,-z
x,-y,z
1/2+x,1/2+y,z
1/2-x,1/2+y,-z
1/2-x,1/2-y,-z
1/2+x,1/2-y,z
loop_
_atom_site_type_symbol
_atom_site_label
_atom_site_fract_x
_atom_site_fract_y
_atom_site_fract_z
Si Si1 0.754094 0.320599 0.439464
Si Si2 0.093572 0.822608 0.132711
Si Si3 0.744969 0.820285 0.939482
Si Si4 0.148168 0.320425 0.750805
Si Si5 0.845992 0.177374 0.745031
Si Si6 0.105432 0.322778 0.367492
Si Si7 0.587750 0.178204 0.633394
Si Si8 0.083324 0.679719 0.868115
O O1 0.756067 0.500000 0.444944
O O2 0.750000 0.250000 0.500000
O O3 0.670817 0.274096 0.404119
O O4 0.840780 0.257507 0.409508
O O5 0.174382 0.761798 0.097130
O O6 0.106423 0.782501 0.197600
O O7 0.007806 0.741782 0.110160
O O8 0.083123 0.000000 0.123966
O O9 0.657499 0.763168 0.910008
O O10 0.746177 0.000000 0.943821
O O11 0.750000 0.750000 0.000000
O O12 0.141181 0.500000 0.752708
O O13 0.247418 0.271132 0.750515
O O14 0.102990 0.252232 0.695303
O O15 0.102710 0.253864 0.806145
O O16 0.889920 0.277241 0.697174
O O17 0.852927 0.000000 0.729916
O O18 0.125760 0.500000 0.374589
O O19 0.008254 0.284079 0.388351
O O20 0.601963 0.000000 0.638404
O O21 0.080988 0.500000 0.866980
#
# Coordination Sequence:
#
# PCOD8084195 Si02
#       8
#     8   8   8   8   8   8   8   8
#     4  11  23  42  63  83 112 154 196 238 286 337
#     4  10  21  37  58  85 116 149 186 233 290 342
#     4  10  22  40  59  80 110 152 196 238 285 340
#     4   9  15  31  59  84 108 147 188 221 269 342
#     4  10  18  34  60  85 115 153 186 223 282 346
#     4  11  22  37  59  90 118 146 190 237 278 335
#     4   9  19  35  59  84 112 151 187 219 275 346
#     4  10  20  36  60  85 111 147 191 233 277 341
#
# _framework density 19.550467000000001
#
# number of rings (size 3 to 8) (size 9 to 14) (size 15 to 20)
#    0.000    2.000    2.500    1.500    0.000    3.500 
#    0.000    8.125    0.000    0.000    0.000    0.000 
#    0.000    0.000    0.000    0.000    0.000    0.000 
#
# Total GULP energy -396823.815908 kJ/mol
# GULP energy per Si atom -12400.744247 kJ/mol
# Density = 1.950597 g / cm^3
# Si number density = 19.550467 Si / 1000 Ang^3
#
#
#
# Elastic Constant Matrix: (Units=GPa)
#
#
# Indices 1 2 3 4 5 6 
#
# 1 158.4592 32.6404 65.6085 0.0000 2.1085 0.0000
# 2 32.6404 34.5183 31.2647 0.0000 -0.2960 0.0000
# 3 65.6085 31.2647 135.6837 0.0000 1.3233 0.0000
# 4 0.0000 0.0000 0.0000 32.9381 0.0000 1.0706
# 5 2.1085 -0.2960 1.3233 0.0000 14.8694 0.0000
# 6 0.0000 0.0000 0.0000 1.0706 0.0000 28.8617
#
#
#
# Elastic Compliance Matrix: (Units=1/GPa)
#
#
# Indices 1 2 3 4 5 6 
#
# 1 0.008676 -0.005590 -0.002897 0.000000 -0.001084 0.000000
# 2 -0.005590 0.040245 -0.006592 0.000000 0.002181 0.000000
# 3 -0.002897 -0.006592 0.010296 0.000000 -0.000637 0.000000
# 4 0.000000 0.000000 0.000000 0.030397 0.000000 -0.001128
# 5 -0.001084 0.002181 -0.000637 0.000000 0.067506 0.000000
# 6 0.000000 0.000000 0.000000 -0.001128 0.000000 0.034690
#
#
# Mechanical properties :
#
#
# Convention : Reuss Voigt Hill
#
# Bulk Modulus (GPa) = 34.41101 65.29872 49.85486
# Shear Modulus (GPa) = 21.58413 28.61036 25.09724
#
# Velocity S-wave (km/s) = 3.32629 3.82961 3.58678
# Velocity P-wave (km/s) = 5.69136 7.28197 6.53524
#
# Compressibility (1/GPa) = 0.02906047
#
# Stress axis : x y z
#
# Youngs Moduli (GPa) = 115.26214 24.84793 97.12682
#
# Poissons Ratio (x) = 0.13889 0.28134
# Poissons Ratio (y) = 0.64427 0.64024
# Poissons Ratio (z) = 0.33387 0.16379
#
# Static dielectric constant tensor:
#      x y z
#    x 3.849390 0.000000 0.008190 
#    y 0.000000 3.190700 0.000000 
#    z 0.008190 0.000000 3.818650 
# 
# 
# High freq. dielectric constant tensor:
#      x y z
#    x 1.778510 0.000000 0.000140 
#    y 0.000000 1.728350 0.000000 
#    z 0.000140 0.000000 1.763730 
# 
# From -- ./inp_files/338679.got.cif
#   From: 2010.06.25/outbox.cif.g09.slc.cpg/sg12_170_cif.got.tgz:338679.got - 2010.06.28 00:19:55.
