data_PCOD8084029
_publ_section_title
;
Structure prediction by ZEFSAII (Michael W. Deem and Ramdas Pophale) SiO2 
 PCOD8084029
Probable space group: C 2/M
;
_chemical_formula_sum "Si O2"
_cell_formula_units_Z 40
_cell_length_a 8.483200
_cell_length_b 27.786030
_cell_length_c 10.857816
_cell_angle_alpha 90.000000
_cell_angle_beta 134.324852
_cell_angle_gamma 90.000000
_cell_volume 1830.928500
_symmetry_space_group_name_H-M "C 2/M"
_symmetry_group_IT_number 12
_symmetry_cell_setting 'monoclinic'
loop_
_space_group_symop_operation_xyz
x,y,z
-x,y,-z
-x,-y,-z
x,-y,z
1/2+x,1/2+y,z
1/2-x,1/2+y,-z
1/2-x,1/2-y,-z
1/2+x,1/2-y,z
loop_
_atom_site_type_symbol
_atom_site_label
_atom_site_fract_x
_atom_site_fract_y
_atom_site_fract_z
Si Si1 0.842327 0.945560 0.032066
Si Si2 0.747379 0.218296 0.616981
Si Si3 0.534326 0.881679 0.726677
Si Si4 0.337385 0.616313 0.655365
Si Si5 0.952285 0.712874 0.104790
O O1 0.953105 0.918397 0.210051
O O2 0.792209 0.000000 0.045191
O O3 0.611545 0.919370 0.873452
O O4 0.000000 0.944079 0.000000
O O5 0.500000 0.197630 0.500000
O O6 0.750000 0.250000 0.500000
O O7 0.910641 0.172410 0.691338
O O8 0.830656 0.253134 0.769338
O O9 0.287860 0.894432 0.543097
O O10 0.687546 0.889159 0.693296
O O11 0.558370 0.827338 0.793383
O O12 0.750000 0.750000 0.000000
O O13 0.000000 0.687017 0.000000
#
# Coordination Sequence:
#
# PCOD8084029 Si02
#       5
#     8   8   8   8   8
#     4   9  19  33  55  86 116 149 194 251 306 358
#     4  12  21  36  55  81 117 156 196 235 287 349
#     4  10  19  35  54  81 115 154 192 244 295 351
#     4  10  18  34  56  80 116 156 193 238 301 348
#     4  12  24  38  58  88 120 161 205 245 295 357
#
# _framework density 21.846838000000002
#
# number of rings (size 3 to 8) (size 9 to 14) (size 15 to 20)
#    0.000    1.400    4.000    3.600    0.000    2.400 
#    0.000    4.000    0.000    0.600    0.000    1.400 
#    0.000    0.000    0.000    0.000    0.000    0.000 
#
# Total GULP energy -247763.227126 kJ/mol
# GULP energy per Si atom -12388.161356 kJ/mol
# Density = 2.179711 g / cm^3
# Si number density = 21.846838 Si / 1000 Ang^3
#
#
#
# Elastic Constant Matrix: (Units=GPa)
#
#
# Indices 1 2 3 4 5 6 
#
# 1 22.8317 4.4968 17.4383 0.0000 -1.8067 0.0000
# 2 4.4968 176.5951 92.6191 0.0000 15.2368 0.0000
# 3 17.4383 92.6191 180.9036 0.0000 9.4034 0.0000
# 4 0.0000 0.0000 0.0000 43.6445 0.0000 3.0627
# 5 -1.8067 15.2368 9.4034 0.0000 17.5811 0.0000
# 6 0.0000 0.0000 0.0000 3.0627 0.0000 17.8156
#
#
#
# Elastic Compliance Matrix: (Units=1/GPa)
#
#
# Indices 1 2 3 4 5 6 
#
# 1 0.048409 0.001095 -0.005592 0.000000 0.007017 0.000000
# 2 0.001095 0.008167 -0.004037 0.000000 -0.004806 0.000000
# 3 -0.005592 -0.004037 0.008210 0.000000 -0.001467 0.000000
# 4 0.000000 0.000000 0.000000 0.023192 0.000000 -0.003987
# 5 0.007017 -0.004806 -0.001467 0.000000 0.062550 0.000000
# 6 0.000000 0.000000 0.000000 -0.003987 0.000000 0.056816
#
#
# Mechanical properties :
#
#
# Convention : Reuss Voigt Hill
#
# Bulk Modulus (GPa) = 20.95647 67.71541 44.33594
# Shear Modulus (GPa) = 20.80576 33.52665 27.16621
#
# Velocity S-wave (km/s) = 3.08936 3.92168 3.53013
# Velocity P-wave (km/s) = 4.72639 7.18115 6.07897
#
# Compressibility (1/GPa) = 0.04771797
#
# Stress axis : x y z
#
# Youngs Moduli (GPa) = 20.65723 122.44853 121.80460
#
# Poissons Ratio (x) = -0.13402 0.68108
# Poissons Ratio (y) = -0.02261 0.49171
# Poissons Ratio (z) = 0.11551 0.49431
#
# Static dielectric constant tensor:
#      x y z
#    x 3.126800 0.000000 0.003180 
#    y 0.000000 3.284070 0.000000 
#    z 0.003180 0.000000 4.421580 
# 
# 
# High freq. dielectric constant tensor:
#      x y z
#    x 1.796820 0.000000 0.000400 
#    y 0.000000 1.850710 0.000000 
#    z 0.000400 0.000000 1.888950 
# 
# From -- ./inp_files/79926.got.cif
#   From: 2010.06.25/outbox.cif.g09.slc.cpg/sg12_40_cif.got.tgz:79926.got - 2010.06.28 00:19:55.
