data_PCOD8084828
_publ_section_title
;
Structure prediction by ZEFSAII (Michael W. Deem and Ramdas Pophale) SiO2 
 PCOD8084828
Probable space group: C 2/M
;
_chemical_formula_sum "Si O2"
_cell_formula_units_Z 56
_cell_length_a 5.070239
_cell_length_b 43.090985
_cell_length_c 16.164171
_cell_angle_alpha 90.000000
_cell_angle_beta 108.298546
_cell_angle_gamma 90.000000
_cell_volume 3352.994305
_symmetry_space_group_name_H-M "C 2/M"
_symmetry_group_IT_number 12
_symmetry_cell_setting 'monoclinic'
loop_
_space_group_symop_operation_xyz
x,y,z
-x,y,-z
-x,-y,-z
x,-y,z
1/2+x,1/2+y,z
1/2-x,1/2+y,-z
1/2-x,1/2-y,-z
1/2+x,1/2-y,z
loop_
_atom_site_type_symbol
_atom_site_label
_atom_site_fract_x
_atom_site_fract_y
_atom_site_fract_z
Si Si1 0.382495 0.230279 0.898881
Si Si2 0.892543 0.072854 0.896723
Si Si3 0.340444 0.671483 0.410905
Si Si4 0.244890 0.672852 0.223382
Si Si5 0.243895 0.868991 0.222400
Si Si6 0.892471 0.465397 0.896703
Si Si7 0.840047 0.368580 0.410578
O O1 0.575309 0.255696 0.873667
O O2 0.380536 0.198751 0.847750
O O3 0.500000 0.221511 0.000000
O O4 0.877428 0.106080 0.852402
O O5 0.595940 0.056144 0.863760
O O6 0.093146 0.050424 0.865036
O O7 0.000000 0.078414 0.000000
O O8 0.500000 0.690941 0.500000
O O9 0.310197 0.688831 0.319618
O O10 0.537057 0.641343 0.413120
O O11 0.036808 0.661528 0.412814
O O12 0.523342 0.658783 0.211289
O O13 0.024684 0.645076 0.212162
O O14 0.305989 0.885467 0.318099
O O15 0.874387 0.500000 0.856513
O O16 0.000000 0.467975 0.000000
O O17 0.000000 0.387996 0.500000
#
# Coordination Sequence:
#
# PCOD8084828 Si02
#       7
#     8   8   8   8   8   8   8
#     4  10  21  36  51  65  82 110 152 193 217 243
#     4  10  19  29  42  64  94 119 141 178 218 253
#     4   8  14  25  42  63  84 108 137 167 206 257
#     4  10  19  31  48  66  87 116 143 174 220 268
#     4  10  19  29  44  69  95 116 139 171 221 273
#     4   9  17  30  46  61  82 119 159 184 206 242
#     4   8  14  25  40  59  85 114 142 170 201 247
#
# _framework density 16.701488999999999
#
# number of rings (size 3 to 8) (size 9 to 14) (size 15 to 20)
#    0.000    2.714    0.000    2.143    0.000    2.857 
#    0.000    0.000    0.000    0.857    0.000    0.000 
#    0.000    3.429    0.000    0.000    0.000    0.000 
#
# Total GULP energy -346934.067847 kJ/mol
# GULP energy per Si atom -12390.502423 kJ/mol
# Density = 1.666348 g / cm^3
# Si number density = 16.701489 Si / 1000 Ang^3
#
#
#
# Elastic Constant Matrix: (Units=GPa)
#
#
# Indices 1 2 3 4 5 6 
#
# 1 81.1128 9.7889 23.6373 0.0000 -6.4363 0.0000
# 2 9.7889 55.7328 45.8614 0.0000 -3.9170 0.0000
# 3 23.6373 45.8614 83.0781 0.0000 -0.8634 0.0000
# 4 0.0000 0.0000 0.0000 -1.2897 0.0000 4.6460
# 5 -6.4363 -3.9170 -0.8634 0.0000 18.0130 0.0000
# 6 0.0000 0.0000 0.0000 4.6460 0.0000 5.2074
#
#
#
# Elastic Compliance Matrix: (Units=1/GPa)
#
#
# Indices 1 2 3 4 5 6 
#
# 1 0.013967 0.002085 -0.005071 0.000000 0.005201 0.000000
# 2 0.002085 0.033915 -0.019240 0.000000 0.007198 0.000000
# 3 -0.005071 -0.019240 0.024051 0.000000 -0.004843 0.000000
# 4 0.000000 0.000000 0.000000 -0.183997 0.000000 0.164163
# 5 0.005201 0.007198 -0.004843 0.000000 0.058707 0.000000
# 6 0.000000 0.000000 0.000000 0.164163 0.000000 0.045570
#
#
# Mechanical properties :
#
#
# Convention : Reuss Voigt Hill
#
# Bulk Modulus (GPa) = 36.38971 42.05542 39.22257
# Shear Modulus (GPa) = 109.11029 13.76187 61.43608
#
# Velocity S-wave (km/s) = 8.09145 2.87364 6.07163
# Velocity P-wave (km/s) = 10.44658 6.02044 8.52574
#
# Compressibility (1/GPa) = 0.02748029
#
# Stress axis : x y z
#
# Youngs Moduli (GPa) = 71.59564 29.48550 41.57905
#
# Poissons Ratio (x) = -0.06148 0.21085
# Poissons Ratio (y) = -0.14929 0.80000
# Poissons Ratio (z) = 0.36306 0.56731
#
# Static dielectric constant tensor:
#      x y z
#    x 3.380430 0.000000 0.008030 
#    y 0.000000 2.647630 0.000000 
#    z 0.008030 0.000000 3.448220 
# 
# 
# High freq. dielectric constant tensor:
#      x y z
#    x 1.672580 0.000000 -0.000600 
#    y 0.000000 1.580360 0.000000 
#    z -0.000600 0.000000 1.643730 
# 
# From -- ./inp_files/253921.got.cif
#   From: 2010.06.25/outbox.cif.g09.slc.cpg/sg12_127_cif.got.tgz:253921.got - 2010.06.28 00:19:55.
