data_PCOD8084977
_publ_section_title
;
Structure prediction by ZEFSAII (Michael W. Deem and Ramdas Pophale) SiO2 
 PCOD8084977
Probable space group: C 2/M
;
_chemical_formula_sum "Si O2"
_cell_formula_units_Z 48
_cell_length_a 30.658742
_cell_length_b 8.750620
_cell_length_c 12.196922
_cell_angle_alpha 90.000000
_cell_angle_beta 62.422431
_cell_angle_gamma 90.000000
_cell_volume 2900.452422
_symmetry_space_group_name_H-M "C 2/M"
_symmetry_group_IT_number 12
_symmetry_cell_setting 'monoclinic'
loop_
_space_group_symop_operation_xyz
x,y,z
-x,y,-z
-x,-y,-z
x,-y,z
1/2+x,1/2+y,z
1/2-x,1/2+y,-z
1/2-x,1/2-y,-z
1/2+x,1/2-y,z
loop_
_atom_site_type_symbol
_atom_site_label
_atom_site_fract_x
_atom_site_fract_y
_atom_site_fract_z
Si Si1 0.485314 0.668078 0.143391
Si Si2 0.615123 0.317700 0.807665
Si Si3 0.754543 0.178847 0.821846
Si Si4 0.223164 0.180902 0.634678
Si Si5 0.411514 0.682814 0.920029
Si Si6 0.824854 0.320937 0.904184
O O1 0.479298 0.500000 0.201716
O O2 0.431382 0.750644 0.209593
O O3 0.531574 0.745199 0.153476
O O4 0.500000 0.653394 0.000000
O O5 0.611121 0.500000 0.809710
O O6 0.666627 0.259543 0.698512
O O7 0.611586 0.263141 0.937480
O O8 0.750144 0.266188 0.712919
O O9 0.804688 0.234128 0.820968
O O10 0.757530 0.000000 0.795148
O O11 0.708533 0.222419 0.952278
O O12 0.250000 0.250000 0.500000
O O13 0.225007 0.000000 0.626620
O O14 0.409544 0.500000 0.910385
O O15 0.380211 0.762292 0.860739
O O16 0.824367 0.500000 0.881179
#
# Coordination Sequence:
#
# PCOD8084977 Si02
#       6
#     8   8   8   8   8   8
#     4   7  11  20  38  64  89 114 148 186 221 263
#     4   8  14  25  42  64  90 120 153 190 225 262
#     4  10  20  33  47  65  90 122 160 194 228 271
#     4  11  21  33  49  68  93 124 160 195 230 269
#     4   9  14  24  44  68  92 119 151 184 224 273
#     4  10  19  29  45  68  96 124 150 186 233 281
#
# _framework density 16.549142
#
# number of rings (size 3 to 8) (size 9 to 14) (size 15 to 20)
#    0.000    2.833    1.667    3.500    0.000    1.333 
#    0.000    0.000    0.000    6.500    0.000    1.167 
#    0.000    9.333    0.000    0.000    0.000    0.000 
#
# Total GULP energy -297350.862105 kJ/mol
# GULP energy per Si atom -12389.619254 kJ/mol
# Density = 1.651148 g / cm^3
# Si number density = 16.549142 Si / 1000 Ang^3
#
#
#
# Elastic Constant Matrix: (Units=GPa)
#
#
# Indices 1 2 3 4 5 6 
#
# 1 173.0581 28.2785 48.8762 0.0000 -3.2026 0.0000
# 2 28.2785 39.1291 20.8400 0.0000 1.3567 0.0000
# 3 48.8762 20.8400 65.9392 0.0000 -1.1579 0.0000
# 4 0.0000 0.0000 0.0000 19.1747 0.0000 4.1972
# 5 -3.2026 1.3567 -1.1579 0.0000 17.0707 0.0000
# 6 0.0000 0.0000 0.0000 4.1972 0.0000 21.8531
#
#
#
# Elastic Compliance Matrix: (Units=1/GPa)
#
#
# Indices 1 2 3 4 5 6 
#
# 1 0.007620 -0.003076 -0.004652 0.000000 0.001359 0.000000
# 2 -0.003076 0.032136 -0.007941 0.000000 -0.003670 0.000000
# 3 -0.004652 -0.007941 0.021144 0.000000 0.001192 0.000000
# 4 0.000000 0.000000 0.000000 0.054441 0.000000 -0.010456
# 5 0.001359 -0.003670 0.001192 0.000000 0.059207 0.000000
# 6 0.000000 0.000000 0.000000 -0.010456 0.000000 0.047768
#
#
# Mechanical properties :
#
#
# Convention : Reuss Voigt Hill
#
# Bulk Modulus (GPa) = 33.82701 52.67955 43.25328
# Shear Modulus (GPa) = 18.97462 23.62847 21.30154
#
# Velocity S-wave (km/s) = 3.38977 3.78269 3.59161
# Velocity P-wave (km/s) = 5.98376 7.14000 6.58730
#
# Compressibility (1/GPa) = 0.02956218
#
# Stress axis : x y z
#
# Youngs Moduli (GPa) = 131.23126 31.11754 47.29393
#
# Poissons Ratio (x) = 0.09573 0.22002
# Poissons Ratio (y) = 0.40373 0.37555
# Poissons Ratio (z) = 0.61050 0.24710
#
# Static dielectric constant tensor:
#      x y z
#    x 3.636350 0.000000 -0.146350 
#    y 0.000000 2.825830 0.000000 
#    z -0.146350 0.000000 2.684720 
# 
# 
# High freq. dielectric constant tensor:
#      x y z
#    x 1.663900 0.000000 -0.000650 
#    y 0.000000 1.612380 0.000000 
#    z -0.000650 0.000000 1.574260 
# 
# From -- ./inp_files/185729.got.cif
#   From: 2010.06.25/outbox.cif.g09.slc.cpg/sg12_93_cif.got.tgz:185729.got - 2010.06.28 00:19:55.
