data_PCOD8084848
_publ_section_title
;
Structure prediction by ZEFSAII (Michael W. Deem and Ramdas Pophale) SiO2 
 PCOD8084848
Probable space group: C 2/M
;
_chemical_formula_sum "Si O2"
_cell_formula_units_Z 56
_cell_length_a 27.301426
_cell_length_b 9.180210
_cell_length_c 14.247428
_cell_angle_alpha 90.000000
_cell_angle_beta 75.564223
_cell_angle_gamma 90.000000
_cell_volume 3458.132379
_symmetry_space_group_name_H-M "C 2/M"
_symmetry_group_IT_number 12
_symmetry_cell_setting 'monoclinic'
loop_
_space_group_symop_operation_xyz
x,y,z
-x,y,-z
-x,-y,-z
x,-y,z
1/2+x,1/2+y,z
1/2-x,1/2+y,-z
1/2-x,1/2-y,-z
1/2+x,1/2-y,z
loop_
_atom_site_type_symbol
_atom_site_label
_atom_site_fract_x
_atom_site_fract_y
_atom_site_fract_z
Si Si1 0.362747 0.168297 0.705799
Si Si2 0.130107 0.171059 0.585100
Si Si3 0.818034 0.332789 0.914309
Si Si4 0.057789 0.328606 0.482216
Si Si5 0.682005 0.169390 0.717227
Si Si6 0.707296 0.335428 0.390205
Si Si7 0.793826 0.169131 0.103811
O O1 0.362720 0.202842 0.817495
O O2 0.414485 0.215757 0.628955
O O3 0.313940 0.241111 0.684085
O O4 0.353031 0.000000 0.694433
O O5 0.081566 0.239945 0.557037
O O6 0.137400 0.249118 0.681967
O O7 0.180469 0.205004 0.500731
O O8 0.120984 0.000000 0.604607
O O9 0.820455 0.500000 0.947602
O O10 0.765097 0.302673 0.887052
O O11 0.825471 0.227189 0.999065
O O12 0.063083 0.500000 0.500737
O O13 0.000000 0.280516 0.500000
O O14 0.732917 0.190327 0.631775
O O15 0.687771 0.240724 0.815843
O O16 0.668115 0.000000 0.736045
O O17 0.694321 0.500000 0.369363
O O18 0.806132 0.000000 0.113643
#
# Coordination Sequence:
#
# PCOD8084848 Si02
#       7
#     8   8   8   8   8   8   8
#     4   9  16  28  47  68  92 122 155 190 228 270
#     4  10  20  32  46  66  92 122 156 191 228 274
#     4   9  17  29  43  63  90 123 159 193 227 265
#     4   9  18  33  52  73  95 119 150 190 234 278
#     4  11  20  30  44  64  92 126 159 191 227 269
#     4   9  18  29  42  63  91 123 157 190 223 264
#     4  10  19  29  43  63  90 125 160 195 227 263
#
# _framework density 16.193711
#
# number of rings (size 3 to 8) (size 9 to 14) (size 15 to 20)
#    0.000    2.429    1.429    1.714    0.000    2.571 
#    0.000    0.000    0.000    0.000    0.000    1.000 
#    0.000    8.000    0.000    0.000    0.000    0.000 
#
# Total GULP energy -347117.308043 kJ/mol
# GULP energy per Si atom -12397.046716 kJ/mol
# Density = 1.615685 g / cm^3
# Si number density = 16.193711 Si / 1000 Ang^3
#
#
#
# Elastic Constant Matrix: (Units=GPa)
#
#
# Indices 1 2 3 4 5 6 
#
# 1 74.9794 47.6264 48.0631 0.0000 9.4186 0.0000
# 2 47.6264 83.6019 51.1209 0.0000 14.4178 0.0000
# 3 48.0631 51.1209 89.1335 0.0000 15.4012 0.0000
# 4 0.0000 0.0000 0.0000 27.5644 0.0000 6.7098
# 5 9.4186 14.4178 15.4012 0.0000 19.0852 0.0000
# 6 0.0000 0.0000 0.0000 6.7098 0.0000 20.8683
#
#
#
# Elastic Compliance Matrix: (Units=1/GPa)
#
#
# Indices 1 2 3 4 5 6 
#
# 1 0.024043 -0.009034 -0.008033 0.000000 0.001441 0.000000
# 2 -0.009034 0.022484 -0.006809 0.000000 -0.007033 0.000000
# 3 -0.008033 -0.006809 0.020779 0.000000 -0.007660 0.000000
# 4 0.000000 0.000000 0.000000 0.039359 0.000000 -0.012655
# 5 0.001441 -0.007033 -0.007660 0.000000 0.063180 0.000000
# 6 0.000000 0.000000 0.000000 -0.012655 0.000000 0.051989
#
#
# Mechanical properties :
#
#
# Convention : Reuss Voigt Hill
#
# Bulk Modulus (GPa) = 51.13513 60.14841 55.64177
# Shear Modulus (GPa) = 18.10914 20.23055 19.16984
#
# Velocity S-wave (km/s) = 3.34770 3.53836 3.44435
# Velocity P-wave (km/s) = 6.82558 7.34282 7.08892
#
# Compressibility (1/GPa) = 0.01955603
#
# Stress axis : x y z
#
# Youngs Moduli (GPa) = 41.59196 44.47565 48.12473
#
# Poissons Ratio (x) = 0.40178 0.38657
# Poissons Ratio (y) = 0.37573 0.32768
# Poissons Ratio (z) = 0.33409 0.30284
#
# Static dielectric constant tensor:
#      x y z
#    x 2.742480 0.000000 -0.056640 
#    y 0.000000 3.130410 0.000000 
#    z -0.056640 0.000000 3.172160 
# 
# 
# High freq. dielectric constant tensor:
#      x y z
#    x 1.575500 0.000000 0.009730 
#    y 0.000000 1.632960 0.000000 
#    z 0.009730 0.000000 1.621370 
# 
# From -- ./inp_files/242985.got.cif
#   From: 2010.06.25/outbox.cif.g09.slc.cpg/sg12_122_cif.got.tgz:242985.got - 2010.06.28 00:19:55.
