data_PCOD8084187
_publ_section_title
;
Structure prediction by ZEFSAII (Michael W. Deem and Ramdas Pophale) SiO2 
 PCOD8084187
Probable space group: C 2/M
;
_chemical_formula_sum "Si O2"
_cell_formula_units_Z 64
_cell_length_a 15.295003
_cell_length_b 9.217357
_cell_length_c 28.305913
_cell_angle_alpha 90.000000
_cell_angle_beta 122.726440
_cell_angle_gamma 90.000000
_cell_volume 3357.098624
_symmetry_space_group_name_H-M "C 2/M"
_symmetry_group_IT_number 12
_symmetry_cell_setting 'monoclinic'
loop_
_space_group_symop_operation_xyz
x,y,z
-x,y,-z
-x,-y,-z
x,-y,z
1/2+x,1/2+y,z
1/2-x,1/2+y,-z
1/2-x,1/2-y,-z
1/2+x,1/2-y,z
loop_
_atom_site_type_symbol
_atom_site_label
_atom_site_fract_x
_atom_site_fract_y
_atom_site_fract_z
Si Si1 0.110738 0.335590 0.007908
Si Si2 0.187582 0.671105 0.186739
Si Si3 0.824192 0.829869 0.315414
Si Si4 0.033445 0.667541 0.376140
Si Si5 0.255278 0.168422 0.606923
Si Si6 0.045540 0.670132 0.888101
Si Si7 0.765985 0.670897 0.119517
Si Si8 0.599143 0.169811 0.498569
O O1 0.156091 0.500000 0.021012
O O2 0.186005 0.228932 0.057555
O O3 0.098160 0.269893 0.951475
O O4 0.000000 0.335722 0.000000
O O5 0.190617 0.500000 0.177143
O O6 0.237986 0.709695 0.251577
O O7 0.252833 0.750740 0.165453
O O8 0.070023 0.733658 0.153426
O O9 0.782569 0.770660 0.353567
O O10 0.931876 0.756203 0.332268
O O11 0.843897 0.000000 0.323610
O O12 0.000987 0.500000 0.370457
O O13 0.120816 0.693133 0.361644
O O14 0.079222 0.721463 0.439442
O O15 0.199582 0.249788 0.547850
O O16 0.228088 0.000000 0.593874
O O17 0.033461 0.500000 0.891890
O O18 0.117396 0.706921 0.864248
O O19 0.748554 0.500000 0.120484
O O20 0.500000 0.216491 0.500000
O O21 0.621389 0.000000 0.508220
#
# Coordination Sequence:
#
# PCOD8084187 Si02
#       8
#     8   8   8   8   8   8   8   8
#     4  10  18  34  60  83 109 151 186 211 265 337
#     4  10  21  41  60  75 105 149 190 224 267 332
#     4  10  22  38  58  81 105 140 189 236 271 311
#     4  10  21  37  57  82 114 146 178 220 278 335
#     4  10  21  36  56  84 111 143 185 228 271 321
#     4   9  19  36  58  82 110 147 183 217 269 329
#     4  11  22  35  56  88 116 140 178 231 279 316
#     4  10  19  33  55  83 114 149 178 214 275 335
#
# _framework density 19.064080000000001
#
# number of rings (size 3 to 8) (size 9 to 14) (size 15 to 20)
#    0.000    2.000    2.500    1.125    0.000    3.000 
#    0.000    4.375    0.000    0.000    0.000    0.000 
#    0.000    0.000    0.000    0.000    0.000    0.000 
#
# Total GULP energy -396863.883400 kJ/mol
# GULP energy per Si atom -12401.996356 kJ/mol
# Density = 1.902069 g / cm^3
# Si number density = 19.064080 Si / 1000 Ang^3
#
#
#
# Elastic Constant Matrix: (Units=GPa)
#
#
# Indices 1 2 3 4 5 6 
#
# 1 102.0691 31.9052 37.1982 0.0000 1.6245 0.0000
# 2 31.9052 44.0069 37.9606 0.0000 1.8831 0.0000
# 3 37.1982 37.9606 93.6291 0.0000 -1.1112 0.0000
# 4 0.0000 0.0000 0.0000 17.1097 0.0000 -0.1566
# 5 1.6245 1.8831 -1.1112 0.0000 19.0211 0.0000
# 6 0.0000 0.0000 0.0000 -0.1566 0.0000 27.6411
#
#
#
# Elastic Compliance Matrix: (Units=1/GPa)
#
#
# Indices 1 2 3 4 5 6 
#
# 1 0.012924 -0.007559 -0.002076 0.000000 -0.000477 0.000000
# 2 -0.007559 0.039720 -0.013149 0.000000 -0.004055 0.000000
# 3 -0.002076 -0.013149 0.016865 0.000000 0.002464 0.000000
# 4 0.000000 0.000000 0.000000 0.058449 0.000000 0.000331
# 5 -0.000477 -0.004055 0.002464 0.000000 0.053159 0.000000
# 6 0.000000 0.000000 0.000000 0.000331 0.000000 0.036180
#
#
# Mechanical properties :
#
#
# Convention : Reuss Voigt Hill
#
# Bulk Modulus (GPa) = 41.76731 50.42590 46.09661
# Shear Modulus (GPa) = 18.46069 21.59713 20.02891
#
# Velocity S-wave (km/s) = 3.11521 3.36946 3.24483
# Velocity P-wave (km/s) = 5.90727 6.45336 6.18634
#
# Compressibility (1/GPa) = 0.02394217
#
# Stress axis : x y z
#
# Youngs Moduli (GPa) = 77.37412 25.17628 59.29350
#
# Poissons Ratio (x) = 0.19032 0.12307
# Poissons Ratio (y) = 0.58490 0.77963
# Poissons Ratio (z) = 0.16059 0.33104
#
# Static dielectric constant tensor:
#      x y z
#    x 3.759990 0.000000 -0.024930 
#    y 0.000000 3.312310 0.000000 
#    z -0.024930 0.000000 3.505700 
# 
# 
# High freq. dielectric constant tensor:
#      x y z
#    x 1.754890 0.000000 -0.001820 
#    y 0.000000 1.719800 0.000000 
#    z -0.001820 0.000000 1.738530 
# 
# From -- ./inp_files/338710.got.cif
#   From: 2010.06.25/outbox.cif.g09.slc.cpg/sg12_170_cif.got.tgz:338710.got - 2010.06.28 00:19:55.
