data_PCOD8084054
_publ_section_title
;
Structure prediction by ZEFSAII (Michael W. Deem and Ramdas Pophale) SiO2 
 PCOD8084054
Probable space group: C 2/M
;
_chemical_formula_sum "Si O2"
_cell_formula_units_Z 40
_cell_length_a 24.583029
_cell_length_b 12.172782
_cell_length_c 21.767486
_cell_angle_alpha 90.000000
_cell_angle_beta 20.175331
_cell_angle_gamma 90.000000
_cell_volume 2246.566451
_symmetry_space_group_name_H-M "C 2/M"
_symmetry_group_IT_number 12
_symmetry_cell_setting 'monoclinic'
loop_
_space_group_symop_operation_xyz
x,y,z
-x,y,-z
-x,-y,-z
x,-y,z
1/2+x,1/2+y,z
1/2-x,1/2+y,-z
1/2-x,1/2-y,-z
1/2+x,1/2-y,z
loop_
_atom_site_type_symbol
_atom_site_label
_atom_site_fract_x
_atom_site_fract_y
_atom_site_fract_z
Si Si1 0.196800 0.627546 0.128439
Si Si2 0.998754 0.229771 0.750026
Si Si3 0.197561 0.627864 0.626452
Si Si4 0.381635 0.243268 0.170513
Si Si5 0.322637 0.628526 0.124437
O O1 0.157761 0.500000 0.161036
O O2 0.053378 0.697641 0.253070
O O3 0.212665 0.658949 0.183252
O O4 0.358082 0.653059 0.921655
O O5 0.053064 0.311533 0.746396
O O6 0.139661 0.150073 0.580731
O O7 0.159939 0.500000 0.666467
O O8 0.210903 0.669919 0.682634
O O9 0.261843 0.308940 0.251191
O O10 0.500000 0.171662 0.000000
O O11 0.496118 0.333993 0.082152
O O12 0.320124 0.500000 0.139482
#
# Coordination Sequence:
#
# PCOD8084054 Si02
#       5
#     8   8   8   8   8
#     4  10  18  34  57  78 103 137 169 211 267 311
#     4  10  21  35  51  78 109 135 173 215 254 316
#     4  11  21  35  52  76 107 140 175 215 257 302
#     4   8  16  31  50  77 102 135 169 214 246 307
#     4   8  15  30  53  78 100 130 169 211 255 301
#
# _framework density 17.804948
#
# number of rings (size 3 to 8) (size 9 to 14) (size 15 to 20)
#    1.200    1.200    2.000    2.400    0.000    0.400 
#    0.000    4.000    0.000    3.600    0.000    0.000 
#    0.000    0.000    0.000    0.000    0.000    0.000 
#
# Total GULP energy -247760.929888 kJ/mol
# GULP energy per Si atom -12388.046494 kJ/mol
# Density = 1.776442 g / cm^3
# Si number density = 17.804948 Si / 1000 Ang^3
#
#
#
# Elastic Constant Matrix: (Units=GPa)
#
#
# Indices 1 2 3 4 5 6 
#
# 1 101.9533 35.0335 6.5174 -0.0006 4.8723 0.0006
# 2 35.0335 65.7061 3.3231 -0.0002 11.2753 0.0004
# 3 6.5174 3.3231 23.6181 0.0005 4.4400 -0.0002
# 4 -0.0006 -0.0002 0.0005 19.9792 0.0001 5.2179
# 5 4.8723 11.2753 4.4400 0.0001 24.7865 -0.0003
# 6 0.0006 0.0004 -0.0002 5.2179 -0.0003 27.6871
#
#
#
# Elastic Compliance Matrix: (Units=1/GPa)
#
#
# Indices 1 2 3 4 5 6 
#
# 1 0.012173 -0.006538 -0.002637 0.000000 0.001054 0.000000
# 2 -0.006538 0.020040 0.000473 0.000000 -0.007915 0.000000
# 3 -0.002637 0.000473 0.044441 -0.000001 -0.007657 0.000001
# 4 0.000000 0.000000 -0.000001 0.052643 0.000000 -0.009921
# 5 0.001054 -0.007915 -0.007657 0.000000 0.045110 0.000001
# 6 0.000000 0.000000 0.000001 -0.009921 0.000001 0.037988
#
#
# Mechanical properties :
#
#
# Convention : Reuss Voigt Hill
#
# Bulk Modulus (GPa) = 16.87805 31.22505 24.05155
# Shear Modulus (GPa) = 20.03607 24.25078 22.14343
#
# Velocity S-wave (km/s) = 3.35820 3.69457 3.53039
# Velocity P-wave (km/s) = 4.95345 5.98123 5.49144
#
# Compressibility (1/GPa) = 0.05924856
#
# Stress axis : x y z
#
# Youngs Moduli (GPa) = 82.14724 49.90110 22.50160
#
# Poissons Ratio (x) = 0.32625 0.05935
# Poissons Ratio (y) = 0.53708 -0.01063
# Poissons Ratio (z) = 0.21665 -0.02358
#
# Static dielectric constant tensor:
#      x y z
#    x 3.529180 0.000000 0.004220 
#    y 0.000000 3.067640 0.000000 
#    z 0.004220 0.000000 2.879340 
# 
# 
# High freq. dielectric constant tensor:
#      x y z
#    x 1.705720 0.000000 0.003000 
#    y 0.000000 1.674860 0.000000 
#    z 0.003000 0.000000 1.653980 
# 
# From -- ./inp_files/325069.got.cif
#   From: 2010.06.25/outbox.cif.g09.slc.cpg/sg12_163_cif.got.tgz:325069.got - 2010.06.28 00:19:55.
