data_PCOD8084524
_publ_section_title
;
Structure prediction by ZEFSAII (Michael W. Deem and Ramdas Pophale) SiO2 
 PCOD8084524
Probable space group: C 2/M
;
_chemical_formula_sum "Si O2"
_cell_formula_units_Z 64
_cell_length_a 30.891188
_cell_length_b 8.764068
_cell_length_c 19.310356
_cell_angle_alpha 90.000000
_cell_angle_beta 142.097277
_cell_angle_gamma 90.000000
_cell_volume 3211.642479
_symmetry_space_group_name_H-M "C 2/M"
_symmetry_group_IT_number 12
_symmetry_cell_setting 'monoclinic'
loop_
_space_group_symop_operation_xyz
x,y,z
-x,y,-z
-x,-y,-z
x,-y,z
1/2+x,1/2+y,z
1/2-x,1/2+y,-z
1/2-x,1/2-y,-z
1/2+x,1/2-y,z
loop_
_atom_site_type_symbol
_atom_site_label
_atom_site_fract_x
_atom_site_fract_y
_atom_site_fract_z
Si Si1 0.838017 0.177298 0.755502
Si Si2 0.178433 0.318807 0.762308
Si Si3 0.410800 0.319868 0.236869
Si Si4 0.070610 0.822458 0.994583
Si Si5 0.671381 0.318775 0.999838
Si Si6 0.565479 0.821425 0.227746
Si Si7 0.812819 0.680866 0.382801
Si Si8 0.562134 0.320379 0.373216
O O1 0.862488 0.273253 0.719714
O O2 0.761788 0.239885 0.682243
O O3 0.834316 0.000000 0.730435
O O4 0.892821 0.204360 0.886212
O O5 0.176492 0.500000 0.760690
O O6 0.111180 0.254978 0.718362
O O7 0.249668 0.256448 0.888812
O O8 0.175531 0.256289 0.680210
O O9 0.404014 0.500000 0.234337
O O10 0.490450 0.270697 0.321089
O O11 0.359300 0.256877 0.111338
O O12 0.999582 0.724047 0.903583
O O13 0.051537 0.000000 0.959317
O O14 0.122068 0.760506 0.999638
O O15 0.671527 0.500000 0.001662
O O16 0.557774 0.729429 0.288709
O O17 0.566730 0.000000 0.245038
O O18 0.812320 0.500000 0.380531
O O19 0.873735 0.738024 0.509127
O O20 0.573302 0.500000 0.390960
#
# Coordination Sequence:
#
# PCOD8084524 Si02
#       8
#     8   8   8   8   8   8   8   8
#     4  10  21  39  65  90 117 159 200 235 288 357
#     4  10  20  36  61  90 120 153 191 239 295 350
#     4  10  21  37  59  86 118 154 196 243 288 346
#     4  10  18  36  64  89 118 159 199 233 283 356
#     4   9  16  33  60  87 117 153 193 235 284 347
#     4  12  25  39  59  90 125 154 190 246 301 348
#     4  10  22  41  63  88 117 152 199 251 295 342
#     4  11  24  43  64  83 112 158 206 247 291 351
#
# _framework density 19.927498
#
# number of rings (size 3 to 8) (size 9 to 14) (size 15 to 20)
#    0.000    1.750    2.500    2.250    0.000    5.000 
#    0.000    3.125    0.000    0.000    0.000    0.000 
#    0.000    0.000    0.000    0.000    0.000    0.000 
#
# Total GULP energy -396906.434855 kJ/mol
# GULP energy per Si atom -12403.326089 kJ/mol
# Density = 1.988214 g / cm^3
# Si number density = 19.927498 Si / 1000 Ang^3
#
#
#
# Elastic Constant Matrix: (Units=GPa)
#
#
# Indices 1 2 3 4 5 6 
#
# 1 145.2923 12.7363 19.7110 0.0000 14.2596 0.0000
# 2 12.7363 -10.7260 -13.9726 0.0000 1.4919 0.0000
# 3 19.7110 -13.9726 62.8971 0.0000 15.9121 0.0000
# 4 0.0000 0.0000 0.0000 27.6648 0.0000 -0.4272
# 5 14.2596 1.4919 15.9121 0.0000 13.5712 0.0000
# 6 0.0000 0.0000 0.0000 -0.4272 0.0000 31.6461
#
#
#
# Elastic Compliance Matrix: (Units=1/GPa)
#
#
# Indices 1 2 3 4 5 6 
#
# 1 0.007185 0.005333 0.001410 0.000000 -0.009788 0.000000
# 2 0.005333 -0.056731 -0.020521 0.000000 0.024694 0.000000
# 3 0.001410 -0.020521 0.015216 0.000000 -0.017065 0.000000
# 4 0.000000 0.000000 0.000000 0.036155 0.000000 0.000488
# 5 -0.009788 0.024694 -0.017065 0.000000 0.101264 0.000000
# 6 0.000000 0.000000 0.000000 0.000488 0.000000 0.031606
#
#
# Mechanical properties :
#
#
# Convention : Reuss Voigt Hill
#
# Bulk Modulus (GPa) = -16.15848 26.04586 4.94369
# Shear Modulus (GPa) = 35.30541 26.50901 30.90721
#
# Velocity S-wave (km/s) = 4.21371 3.65125 3.94252
# Velocity P-wave (km/s) = 3.94305 5.55645 4.81777
#
# Compressibility (1/GPa) = -0.06188701
#
# Stress axis : x y z
#
# Youngs Moduli (GPa) = 139.18750 -17.62712 65.72153
#
# Poissons Ratio (x) = 0.09401 -0.09264
# Poissons Ratio (y) = -0.74236 1.34869
# Poissons Ratio (z) = -0.19619 -0.36173
#
# Static dielectric constant tensor:
#      x y z
#    x 3.857870 0.000000 0.031330 
#    y 0.000000 3.281280 0.000000 
#    z 0.031330 0.000000 3.662800 
# 
# 
# High freq. dielectric constant tensor:
#      x y z
#    x 1.795900 0.000000 0.001360 
#    y 0.000000 1.748930 0.000000 
#    z 0.001360 0.000000 1.776700 
# 
# From -- ./inp_files/295493.got.cif
#   From: 2010.06.25/outbox.cif.g09.slc.cpg/sg12_148_cif.got.tgz:295493.got - 2010.06.28 00:19:55.
