data_PCOD8084306
_publ_section_title
;
Structure prediction by ZEFSAII (Michael W. Deem and Ramdas Pophale) SiO2 
 PCOD8084306
Probable space group: C 2/M
;
_chemical_formula_sum "Si O2"
_cell_formula_units_Z 56
_cell_length_a 27.113143
_cell_length_b 14.760513
_cell_length_c 11.750095
_cell_angle_alpha 90.000000
_cell_angle_beta 141.907543
_cell_angle_gamma 90.000000
_cell_volume 2901.083182
_symmetry_space_group_name_H-M "C 2/M"
_symmetry_group_IT_number 12
_symmetry_cell_setting 'monoclinic'
loop_
_space_group_symop_operation_xyz
x,y,z
-x,y,-z
-x,-y,-z
x,-y,z
1/2+x,1/2+y,z
1/2-x,1/2+y,-z
1/2-x,1/2-y,-z
1/2+x,1/2-y,z
loop_
_atom_site_type_symbol
_atom_site_label
_atom_site_fract_x
_atom_site_fract_y
_atom_site_fract_z
Si Si1 0.697525 0.726829 0.514012
Si Si2 0.104687 0.895793 0.931259
Si Si3 0.805703 0.337446 0.119604
Si Si4 0.955886 0.895802 0.801037
Si Si5 0.407961 0.685478 0.327018
Si Si6 0.224414 0.897694 0.761226
Si Si7 0.726268 0.899403 0.693465
O O1 0.750000 0.750000 0.500000
O O2 0.618221 0.672680 0.335374
O O3 0.747056 0.665480 0.694510
O O4 0.676048 0.823122 0.535075
O O5 0.128583 0.848333 0.857814
O O6 0.021057 0.858981 0.828909
O O7 0.093301 0.000000 0.883005
O O8 0.178514 0.881793 0.153761
O O9 0.894184 0.294662 0.301172
O O10 0.786820 0.397937 0.194571
O O11 0.750000 0.250000 0.000000
O O12 0.794930 0.395239 0.984362
O O13 0.928495 0.000000 0.726766
O O14 0.000000 0.891831 0.000000
O O15 0.500000 0.659663 0.500000
O O16 0.361079 0.636581 0.345054
O O17 0.214667 0.000000 0.700276
O O18 0.702170 0.000000 0.605616
#
# Coordination Sequence:
#
# PCOD8084306 Si02
#       7
#     8   8   8   8   8   8   8
#     4  12  24  38  58  87 118 157 201 242 291 352
#     4  10  19  32  55  87 117 150 186 232 301 364
#     4  10  18  35  56  84 120 158 195 232 284 348
#     4  10  22  40  60  88 124 154 190 242 303 363
#     4  11  20  31  53  87 123 154 187 231 294 357
#     4  11  21  37  61  89 122 151 190 247 300 353
#     4  11  21  38  61  86 117 156 201 243 289 348
#
# _framework density 19.303135999999999
#
# number of rings (size 3 to 8) (size 9 to 14) (size 15 to 20)
#    0.000    1.286    5.714    3.000    0.000    4.571 
#    0.000    0.000    0.000    2.143    0.000    1.000 
#    0.000    0.000    0.000    0.000    0.000    0.000 
#
# Total GULP energy -346993.730929 kJ/mol
# GULP energy per Si atom -12392.633247 kJ/mol
# Density = 1.925920 g / cm^3
# Si number density = 19.303136 Si / 1000 Ang^3
#
#
#
# Elastic Constant Matrix: (Units=GPa)
#
#
# Indices 1 2 3 4 5 6 
#
# 1 99.9064 42.2421 21.0556 0.0000 -10.6793 0.0000
# 2 42.2421 125.4341 41.8289 0.0000 -0.1507 0.0000
# 3 21.0556 41.8289 53.8563 0.0000 -6.2244 0.0000
# 4 0.0000 0.0000 0.0000 32.0251 0.0000 0.0700
# 5 -10.6793 -0.1507 -6.2244 0.0000 27.5250 0.0000
# 6 0.0000 0.0000 0.0000 0.0700 0.0000 20.0846
#
#
#
# Elastic Compliance Matrix: (Units=1/GPa)
#
#
# Indices 1 2 3 4 5 6 
#
# 1 0.012341 -0.003661 -0.001469 0.000000 0.004436 0.000000
# 2 -0.003661 0.011940 -0.008214 0.000000 -0.003212 0.000000
# 3 -0.001469 -0.008214 0.026134 0.000000 0.005295 0.000000
# 4 0.000000 0.000000 0.000000 0.031226 0.000000 -0.000109
# 5 0.004436 -0.003212 0.005295 0.000000 0.039232 0.000000
# 6 0.000000 0.000000 0.000000 -0.000109 0.000000 0.049790
#
#
# Mechanical properties :
#
#
# Convention : Reuss Voigt Hill
#
# Bulk Modulus (GPa) = 42.14445 54.38334 48.26389
# Shear Modulus (GPa) = 24.35954 27.53162 25.94558
#
# Velocity S-wave (km/s) = 3.55624 3.78071 3.67019
# Velocity P-wave (km/s) = 6.22437 6.87698 6.55880
#
# Compressibility (1/GPa) = 0.02372792
#
# Stress axis : x y z
#
# Youngs Moduli (GPa) = 81.03081 83.74914 38.26493
#
# Poissons Ratio (x) = 0.30660 0.05620
# Poissons Ratio (y) = 0.29665 0.31430
# Poissons Ratio (z) = 0.11902 0.68790
#
# Static dielectric constant tensor:
#      x y z
#    x 3.723950 0.000000 0.039680 
#    y 0.000000 3.675260 0.000000 
#    z 0.039680 0.000000 3.678180 
# 
# 
# High freq. dielectric constant tensor:
#      x y z
#    x 1.740680 0.000000 -0.016730 
#    y 0.000000 1.747090 0.000000 
#    z -0.016730 0.000000 1.736710 
# 
# From -- ./inp_files/183533.got.cif
#   From: 2010.06.25/outbox.cif.g09.slc.cpg/sg12_92_cif.got.tgz:183533.got - 2010.06.28 00:19:55.
