data_PCOD8084814
_publ_section_title
;
Structure prediction by ZEFSAII (Michael W. Deem and Ramdas Pophale) SiO2 
 PCOD8084814
Probable space group: C 2/M
;
_chemical_formula_sum "Si O2"
_cell_formula_units_Z 56
_cell_length_a 23.626406
_cell_length_b 9.192686
_cell_length_c 19.484699
_cell_angle_alpha 90.000000
_cell_angle_beta 53.336161
_cell_angle_gamma 90.000000
_cell_volume 3394.617293
_symmetry_space_group_name_H-M "C 2/M"
_symmetry_group_IT_number 12
_symmetry_cell_setting 'monoclinic'
loop_
_space_group_symop_operation_xyz
x,y,z
-x,y,-z
-x,-y,-z
x,-y,z
1/2+x,1/2+y,z
1/2-x,1/2+y,-z
1/2-x,1/2-y,-z
1/2+x,1/2-y,z
loop_
_atom_site_type_symbol
_atom_site_label
_atom_site_fract_x
_atom_site_fract_y
_atom_site_fract_z
Si Si1 0.950762 0.673069 0.096425
Si Si2 0.456999 0.172858 0.846671
Si Si3 0.064551 0.658470 0.504589
Si Si4 0.535127 0.825739 0.312452
Si Si5 0.295950 0.829087 0.171683
Si Si6 0.194277 0.329482 0.993639
Si Si7 0.339988 0.173965 0.680569
O O1 0.952218 0.500000 0.090356
O O2 0.980697 0.727260 0.148141
O O3 0.870896 0.728473 0.145826
O O4 0.000000 0.736456 0.000000
O O5 0.468546 0.237196 0.761990
O O6 0.383078 0.228609 0.930547
O O7 0.456442 0.000000 0.843751
O O8 0.092511 0.500000 0.507161
O O9 0.032717 0.738683 0.595568
O O10 0.127736 0.734611 0.415624
O O11 0.000000 0.637270 0.500000
O O12 0.608877 0.776823 0.293894
O O13 0.530925 0.000000 0.317099
O O14 0.236021 0.744785 0.256240
O O15 0.287040 0.000000 0.190753
O O16 0.290323 0.790050 0.095920
O O17 0.200114 0.500000 0.003101
O O18 0.250000 0.250000 0.000000
O O19 0.333450 0.000000 0.683593
#
# Coordination Sequence:
#
# PCOD8084814 Si02
#       7
#     8   8   8   8   8   8   8
#     4   9  15  27  43  57  77 111 151 181 205 237
#     4   9  15  24  41  62  82 106 141 181 211 239
#     4   7  11  21  38  60  84 108 135 169 208 248
#     4   8  13  22  40  66  87 104 136 179 214 246
#     4  10  19  29  43  63  87 113 142 176 209 246
#     4  10  19  29  42  63  89 113 135 166 211 256
#     4   9  16  27  44  65  89 114 137 168 213 259
#
# _framework density 16.496704999999999
#
# number of rings (size 3 to 8) (size 9 to 14) (size 15 to 20)
#    0.000    3.143    1.429    2.571    0.000    1.714 
#    0.000    0.000    0.000    6.000    0.000    0.000 
#    0.000    0.000    0.000    0.000    0.000    0.000 
#
# Total GULP energy -346893.382232 kJ/mol
# GULP energy per Si atom -12389.049365 kJ/mol
# Density = 1.645916 g / cm^3
# Si number density = 16.496705 Si / 1000 Ang^3
#
#
#
# Elastic Constant Matrix: (Units=GPa)
#
#
# Indices 1 2 3 4 5 6 
#
# 1 100.9831 16.7083 63.2177 -0.0001 -17.6092 0.0002
# 2 16.7083 11.7008 23.3971 0.0003 -4.1876 0.0000
# 3 63.2177 23.3971 161.3670 -0.0002 -9.8331 -0.0001
# 4 -0.0001 0.0003 -0.0002 17.0626 -0.0001 -5.7037
# 5 -17.6092 -4.1876 -9.8331 -0.0001 20.7520 0.0001
# 6 0.0002 0.0000 -0.0001 -5.7037 0.0001 14.1351
#
#
#
# Elastic Compliance Matrix: (Units=1/GPa)
#
#
# Indices 1 2 3 4 5 6 
#
# 1 0.015926 -0.011361 -0.004024 0.000000 0.009315 0.000000
# 2 -0.011361 0.134209 -0.014360 -0.000003 0.010638 -0.000001
# 3 -0.004024 -0.014360 0.009753 0.000000 -0.001692 0.000000
# 4 0.000000 -0.000003 0.000000 0.067746 0.000000 0.027336
# 5 0.009315 0.010638 -0.001692 0.000000 0.057437 0.000000
# 6 0.000000 -0.000001 0.000000 0.027336 0.000000 0.081776
#
#
# Mechanical properties :
#
#
# Convention : Reuss Voigt Hill
#
# Bulk Modulus (GPa) = 9.96051 53.41079 31.68565
# Shear Modulus (GPa) = 10.87421 21.77179 16.32300
#
# Velocity S-wave (km/s) = 2.57023 3.63680 3.14900
# Velocity P-wave (km/s) = 3.85475 7.07686 5.69829
#
# Compressibility (1/GPa) = 0.10039648
#
# Stress axis : x y z
#
# Youngs Moduli (GPa) = 62.79047 7.45108 102.53522
#
# Poissons Ratio (x) = 0.08465 0.41264
# Poissons Ratio (y) = 0.71335 1.47245
# Poissons Ratio (z) = 0.25269 0.10700
#
# Static dielectric constant tensor:
#      x y z
#    x 3.135390 0.000000 0.148210 
#    y 0.000000 2.513450 0.000000 
#    z 0.148210 0.000000 3.534550 
# 
# 
# High freq. dielectric constant tensor:
#      x y z
#    x 1.619300 0.000000 0.005370 
#    y 0.000000 1.569860 0.000000 
#    z 0.005370 0.000000 1.651350 
# 
# From -- ./inp_files/320738.got.cif
#   From: 2010.06.25/outbox.cif.g09.slc.cpg/sg12_161_cif.got.tgz:320738.got - 2010.06.28 00:19:55.
