data_PCOD8084858
_publ_section_title
;
Structure prediction by ZEFSAII (Michael W. Deem and Ramdas Pophale) SiO2 
 PCOD8084858
Probable space group: C 2/M
;
_chemical_formula_sum "Si O2"
_cell_formula_units_Z 64
_cell_length_a 27.721436
_cell_length_b 8.993833
_cell_length_c 15.970569
_cell_angle_alpha 90.000000
_cell_angle_beta 93.091725
_cell_angle_gamma 90.000000
_cell_volume 3976.018012
_symmetry_space_group_name_H-M "C 2/M"
_symmetry_group_IT_number 12
_symmetry_cell_setting 'monoclinic'
loop_
_space_group_symop_operation_xyz
x,y,z
-x,y,-z
-x,-y,-z
x,-y,z
1/2+x,1/2+y,z
1/2-x,1/2+y,-z
1/2-x,1/2-y,-z
1/2+x,1/2-y,z
loop_
_atom_site_type_symbol
_atom_site_label
_atom_site_fract_x
_atom_site_fract_y
_atom_site_fract_z
Si Si1 0.109499 0.172785 0.468824
Si Si2 0.748644 0.828753 0.260872
Si Si3 0.846810 0.323162 0.229802
Si Si4 0.180967 0.664041 0.951985
Si Si5 0.925887 0.827328 0.347019
Si Si6 0.709742 0.827978 0.441311
Si Si7 0.210999 0.835416 0.104365
Si Si8 0.017826 0.667796 0.407142
O O1 0.097978 0.196712 0.565021
O O2 0.159370 0.250966 0.454364
O O3 0.068755 0.247362 0.406728
O O4 0.112539 0.000000 0.446204
O O5 0.799098 0.741501 0.269320
O O6 0.721877 0.808355 0.345578
O O7 0.712367 0.766059 0.187043
O O8 0.760113 0.000000 0.241959
O O9 0.845305 0.500000 0.240680
O O10 0.848611 0.277840 0.131630
O O11 0.894135 0.255996 0.275528
O O12 0.163018 0.500000 0.975922
O O13 0.236561 0.656938 0.931135
O O14 0.173860 0.769497 0.031855
O O15 0.979135 0.756271 0.347605
O O16 0.929744 0.000000 0.324598
O O17 0.750000 0.750000 0.500000
O O18 0.706763 0.000000 0.466807
O O19 0.193019 0.000000 0.127424
O O20 0.023765 0.500000 0.373434
O O21 0.000000 0.665757 0.500000
#
# Coordination Sequence:
#
# PCOD8084858 Si02
#       8
#     8   8   8   8   8   8   8   8
#     4  10  20  33  48  65  87 116 149 186 225 262
#     4  10  20  32  44  60  85 117 151 186 223 260
#     4  10  19  29  43  64  89 118 150 181 217 262
#     4   8  15  26  39  58  84 112 141 175 215 258
#     4  10  19  30  45  66  91 117 145 179 222 267
#     4  11  23  35  47  64  87 118 154 189 224 260
#     4   9  16  26  42  61  80 108 145 180 215 257
#     4   9  17  30  48  67  86 111 144 181 220 263
#
# _framework density 16.096506000000002
#
# number of rings (size 3 to 8) (size 9 to 14) (size 15 to 20)
#    0.000    2.375    0.000    4.125    0.000   11.500 
#    0.000    0.000    0.000    0.000    0.000    0.000 
#    0.000    1.000    0.000   10.500    0.000    5.250 
#
# Total GULP energy -396778.100674 kJ/mol
# GULP energy per Si atom -12399.315646 kJ/mol
# Density = 1.605987 g / cm^3
# Si number density = 16.096506 Si / 1000 Ang^3
#
#
#
# Elastic Constant Matrix: (Units=GPa)
#
#
# Indices 1 2 3 4 5 6 
#
# 1 100.6629 63.3236 44.5104 0.0000 23.3346 0.0000
# 2 63.3236 139.5631 62.6573 0.0000 17.8867 0.0000
# 3 44.5104 62.6573 81.4062 0.0000 22.1612 0.0000
# 4 0.0000 0.0000 0.0000 28.2637 0.0000 6.5508
# 5 23.3346 17.8867 22.1612 0.0000 20.4687 0.0000
# 6 0.0000 0.0000 0.0000 6.5508 0.0000 27.4401
#
#
#
# Elastic Compliance Matrix: (Units=1/GPa)
#
#
# Indices 1 2 3 4 5 6 
#
# 1 0.017018 -0.005298 -0.001710 0.000000 -0.012920 0.000000
# 2 -0.005298 0.012604 -0.007728 0.000000 0.003393 0.000000
# 3 -0.001710 -0.007728 0.023818 0.000000 -0.017085 0.000000
# 4 0.000000 0.000000 0.000000 0.037453 0.000000 -0.008941
# 5 -0.012920 0.003393 -0.017085 0.000000 0.079117 0.000000
# 6 0.000000 0.000000 0.000000 -0.008941 0.000000 0.038578
#
#
# Mechanical properties :
#
#
# Convention : Reuss Voigt Hill
#
# Bulk Modulus (GPa) = 41.72169 73.62385 57.67277
# Shear Modulus (GPa) = 20.32124 25.31057 22.81591
#
# Velocity S-wave (km/s) = 3.55697 3.96968 3.76898
# Velocity P-wave (km/s) = 6.54564 8.17616 7.40591
#
# Compressibility (1/GPa) = 0.02396835
#
# Stress axis : x y z
#
# Youngs Moduli (GPa) = 58.76164 79.34245 41.98498
#
# Poissons Ratio (x) = 0.42036 0.07179
# Poissons Ratio (y) = 0.31132 0.32444
# Poissons Ratio (z) = 0.10048 0.61313
#
# Static dielectric constant tensor:
#      x y z
#    x 2.772990 0.000000 0.246630 
#    y 0.000000 3.354720 0.000000 
#    z 0.246630 0.000000 3.097320 
# 
# 
# High freq. dielectric constant tensor:
#      x y z
#    x 1.579390 0.000000 0.026770 
#    y 0.000000 1.641610 0.000000 
#    z 0.026770 0.000000 1.606420 
# 
# From -- ./inp_files/238809.got.cif
#   From: 2010.06.25/outbox.cif.g09.slc.cpg/sg12_120_cif.got.tgz:238809.got - 2010.06.28 00:19:55.
