data_PCOD8084860
_publ_section_title
;
Structure prediction by ZEFSAII (Michael W. Deem and Ramdas Pophale) SiO2 
 PCOD8084860
Probable space group: C 2/M
;
_chemical_formula_sum "Si O2"
_cell_formula_units_Z 64
_cell_length_a 27.775270
_cell_length_b 9.174654
_cell_length_c 14.373483
_cell_angle_alpha 90.000000
_cell_angle_beta 87.669061
_cell_angle_gamma 90.000000
_cell_volume 3659.742342
_symmetry_space_group_name_H-M "C 2/M"
_symmetry_group_IT_number 12
_symmetry_cell_setting 'monoclinic'
loop_
_space_group_symop_operation_xyz
x,y,z
-x,y,-z
-x,-y,-z
x,-y,z
1/2+x,1/2+y,z
1/2-x,1/2+y,-z
1/2-x,1/2-y,-z
1/2+x,1/2-y,z
loop_
_atom_site_type_symbol
_atom_site_label
_atom_site_fract_x
_atom_site_fract_y
_atom_site_fract_z
Si Si1 0.736263 0.327414 0.406488
Si Si2 0.586173 0.337177 0.199602
Si Si3 0.200697 0.333771 0.771311
Si Si4 0.605273 0.835208 0.867721
Si Si5 0.159799 0.334735 0.297945
Si Si6 0.271274 0.836343 0.884632
Si Si7 0.845279 0.839378 0.978962
Si Si8 0.998407 0.668533 0.891915
O O1 0.730444 0.500000 0.421441
O O2 0.750000 0.250000 0.500000
O O3 0.779131 0.288377 0.330719
O O4 0.686048 0.260773 0.374818
O O5 0.573632 0.500000 0.236711
O O6 0.607865 0.239356 0.281687
O O7 0.538278 0.265522 0.162741
O O8 0.627359 0.348380 0.119932
O O9 0.216073 0.500000 0.790852
O O10 0.142580 0.313229 0.778754
O O11 0.221533 0.235291 0.853285
O O12 0.618911 0.736310 0.952962
O O13 0.550709 0.801178 0.841124
O O14 0.607945 0.000000 0.905317
O O15 0.151663 0.500000 0.334516
O O16 0.191695 0.335907 0.203306
O O17 0.261294 0.000000 0.919713
O O18 0.294598 0.745929 0.968693
O O19 0.832471 0.000000 0.016875
O O20 0.982833 0.500000 0.884685
O O21 0.000000 0.715392 0.000000
#
# Coordination Sequence:
#
# PCOD8084860 Si02
#       8
#     8   8   8   8   8   8   8   8
#     4  10  19  33  54  79 104 127 154 188 234 290
#     4  10  19  30  46  68  97 129 164 207 249 285
#     4   9  19  34  49  67  94 125 156 194 235 282
#     4  10  20  33  47  64  90 125 165 204 242 280
#     4   9  17  30  49  73  99 126 159 197 239 285
#     4   9  17  29  46  65  89 123 161 198 235 279
#     4  10  19  29  43  64  90 124 164 203 241 280
#     4  10  19  31  48  68  91 125 170 214 249 281
#
# _framework density 17.487569000000001
#
# number of rings (size 3 to 8) (size 9 to 14) (size 15 to 20)
#    0.000    2.375    1.250    1.875    0.000    6.250 
#    0.000    0.000    0.000    0.000    0.000    0.875 
#    0.000    7.000    0.000    0.000    0.000    0.000 
#
# Total GULP energy -396759.034314 kJ/mol
# GULP energy per Si atom -12398.719822 kJ/mol
# Density = 1.744777 g / cm^3
# Si number density = 17.487569 Si / 1000 Ang^3
#
#
#
# Elastic Constant Matrix: (Units=GPa)
#
#
# Indices 1 2 3 4 5 6 
#
# 1 113.5872 57.4617 34.4737 0.0000 19.6317 0.0000
# 2 57.4617 125.9470 44.8234 0.0000 19.5069 0.0000
# 3 34.4737 44.8234 65.7598 0.0000 17.7900 0.0000
# 4 0.0000 0.0000 0.0000 24.0485 0.0000 10.0605
# 5 19.6317 19.5069 17.7900 0.0000 22.0555 0.0000
# 6 0.0000 0.0000 0.0000 10.0605 0.0000 24.6704
#
#
#
# Elastic Compliance Matrix: (Units=1/GPa)
#
#
# Indices 1 2 3 4 5 6 
#
# 1 0.012518 -0.004011 -0.002269 0.000000 -0.005765 0.000000
# 2 -0.004011 0.012127 -0.005408 0.000000 -0.002794 0.000000
# 3 -0.002269 -0.005408 0.023334 0.000000 -0.012019 0.000000
# 4 0.000000 0.000000 0.000000 0.050136 0.000000 -0.020445
# 5 -0.005765 -0.002794 -0.012019 0.000000 0.062636 0.000000
# 6 0.000000 0.000000 0.000000 -0.020445 0.000000 0.048872
#
#
# Mechanical properties :
#
#
# Convention : Reuss Voigt Hill
#
# Bulk Modulus (GPa) = 40.64412 64.31238 52.47825
# Shear Modulus (GPa) = 20.72984 25.39057 23.06020
#
# Velocity S-wave (km/s) = 3.44670 3.81454 3.63528
# Velocity P-wave (km/s) = 6.25555 7.50046 6.90611
#
# Compressibility (1/GPa) = 0.02460381
#
# Stress axis : x y z
#
# Youngs Moduli (GPa) = 79.88689 82.46116 42.85655
#
# Poissons Ratio (x) = 0.33073 0.09724
# Poissons Ratio (y) = 0.32040 0.23175
# Poissons Ratio (z) = 0.18126 0.44592
#
# Static dielectric constant tensor:
#      x y z
#    x 3.326110 0.000000 0.053150 
#    y 0.000000 3.505910 0.000000 
#    z 0.053150 0.000000 2.893690 
# 
# 
# High freq. dielectric constant tensor:
#      x y z
#    x 1.672760 0.000000 0.011270 
#    y 0.000000 1.691000 0.000000 
#    z 0.011270 0.000000 1.629320 
# 
# From -- ./inp_files/244030.got.cif
#   From: 2010.06.25/outbox.cif.g09.slc.cpg/sg12_123_cif.got.tgz:244030.got - 2010.06.28 00:19:55.
