data_PCOD8084023
_publ_section_title
;
Structure prediction by ZEFSAII (Michael W. Deem and Ramdas Pophale) SiO2 
 PCOD8084023
Probable space group: C 2/M
;
_chemical_formula_sum "Si O2"
_cell_formula_units_Z 56
_cell_length_a 16.471263
_cell_length_b 17.413046
_cell_length_c 13.896016
_cell_angle_alpha 90.000000
_cell_angle_beta 131.996408
_cell_angle_gamma 90.000000
_cell_volume 2962.033229
_symmetry_space_group_name_H-M "C 2/M"
_symmetry_group_IT_number 12
_symmetry_cell_setting 'monoclinic'
loop_
_space_group_symop_operation_xyz
x,y,z
-x,y,-z
-x,-y,-z
x,-y,z
1/2+x,1/2+y,z
1/2-x,1/2+y,-z
1/2-x,1/2-y,-z
1/2+x,1/2-y,z
loop_
_atom_site_type_symbol
_atom_site_label
_atom_site_fract_x
_atom_site_fract_y
_atom_site_fract_z
Si Si1 0.808230 0.242474 0.913691
Si Si2 0.577192 0.272397 0.810189
Si Si3 0.929700 0.306385 0.535865
Si Si4 0.200017 0.585539 0.436255
Si Si5 0.873942 0.086473 0.894444
Si Si6 0.781822 0.279763 0.680513
Si Si7 0.388357 0.367529 0.695901
O O1 0.696936 0.282027 0.860738
O O2 0.801965 0.148585 0.896871
O O3 0.831238 0.276095 0.826809
O O4 0.903998 0.262957 0.066773
O O5 0.508051 0.219378 0.684503
O O6 0.518219 0.356485 0.777364
O O7 0.863135 0.379779 0.521517
O O8 0.847600 0.239315 0.432534
O O9 0.000000 0.333256 0.500000
O O10 0.158137 0.500000 0.381657
O O11 0.186863 0.635463 0.329838
O O12 0.329641 0.585858 0.564317
O O13 0.850651 0.089800 0.762551
O O14 0.850144 0.000000 0.914079
O O15 0.000000 0.109809 0.000000
O O16 0.845885 0.220872 0.662258
#
# Coordination Sequence:
#
# PCOD8084023 Si02
#       7
#     8   8   8   8   8   8   8
#     4  10  22  33  56  87 110 152 196 238 270 332
#     4  11  19  35  57  83 112 142 201 235 280 322
#     4  11  20  37  60  83 110 147 189 242 288 328
#     4  11  22  36  57  87 117 147 186 233 290 347
#     4  10  19  32  51  80 116 147 177 225 292 338
#     4  10  19  35  59  81 109 146 193 236 272 331
#     4  10  18  34  56  79 108 145 189 236 274 330
#
# _framework density 18.905932
#
# number of rings (size 3 to 8) (size 9 to 14) (size 15 to 20)
#    0.000    1.571    5.714    1.286    0.000    0.286 
#    0.000    0.714    0.000    9.857    0.000    0.000 
#    0.000    0.000    0.000    0.000    0.000    0.000 
#
# Total GULP energy -346915.017108 kJ/mol
# GULP energy per Si atom -12389.822040 kJ/mol
# Density = 1.886290 g / cm^3
# Si number density = 18.905932 Si / 1000 Ang^3
#
#
#
# Elastic Constant Matrix: (Units=GPa)
#
#
# Indices 1 2 3 4 5 6 
#
# 1 83.1981 41.6198 21.6226 0.0000 -2.2530 0.0000
# 2 41.6198 91.0518 25.6857 0.0000 -14.6626 0.0000
# 3 21.6226 25.6857 106.3771 0.0000 -18.9838 0.0000
# 4 0.0000 0.0000 0.0000 17.2230 0.0000 -1.6082
# 5 -2.2530 -14.6626 -18.9838 0.0000 27.0254 0.0000
# 6 0.0000 0.0000 0.0000 -1.6082 0.0000 13.2682
#
#
#
# Elastic Compliance Matrix: (Units=1/GPa)
#
#
# Indices 1 2 3 4 5 6 
#
# 1 0.016228 -0.007471 -0.002260 0.000000 -0.004288 0.000000
# 2 -0.007471 0.015854 -0.001013 0.000000 0.007267 0.000000
# 3 -0.002260 -0.001013 0.011402 0.000000 0.007271 0.000000
# 4 0.000000 0.000000 0.000000 0.058727 0.000000 0.007118
# 5 -0.004288 0.007267 0.007271 0.000000 0.045695 0.000000
# 6 0.000000 0.000000 0.000000 0.007118 0.000000 0.076231
#
#
# Mechanical properties :
#
#
# Convention : Reuss Voigt Hill
#
# Bulk Modulus (GPa) = 45.46043 50.94258 48.20150
# Shear Modulus (GPa) = 19.76631 24.28323 22.02477
#
# Velocity S-wave (km/s) = 3.23694 3.58777 3.41686
# Velocity P-wave (km/s) = 6.16994 6.64580 6.41228
#
# Compressibility (1/GPa) = 0.02199715
#
# Stress axis : x y z
#
# Youngs Moduli (GPa) = 61.62199 63.07712 87.70390
#
# Poissons Ratio (x) = 0.47124 0.19820
# Poissons Ratio (y) = 0.46037 0.08880
# Poissons Ratio (z) = 0.13926 0.06387
#
# Static dielectric constant tensor:
#      x y z
#    x 3.549460 0.000000 0.039610 
#    y 0.000000 3.174640 0.000000 
#    z 0.039610 0.000000 3.871480 
# 
# 
# High freq. dielectric constant tensor:
#      x y z
#    x 1.721480 0.000000 -0.003760 
#    y 0.000000 1.688190 0.000000 
#    z -0.003760 0.000000 1.755230 
# 
# From -- ./inp_files/216424.got.cif
#   From: 2010.06.25/outbox.cif.g09.slc.cpg/sg12_109_cif.got.tgz:216424.got - 2010.06.28 00:19:55.
