data_PCOD8084807
_publ_section_title
;
Structure prediction by ZEFSAII (Michael W. Deem and Ramdas Pophale) SiO2 
 PCOD8084807
Probable space group: C 2/M
;
_chemical_formula_sum "Si O2"
_cell_formula_units_Z 64
_cell_length_a 26.085721
_cell_length_b 10.226316
_cell_length_c 14.202840
_cell_angle_alpha 90.000000
_cell_angle_beta 100.421936
_cell_angle_gamma 90.000000
_cell_volume 3726.255430
_symmetry_space_group_name_H-M "C 2/M"
_symmetry_group_IT_number 12
_symmetry_cell_setting 'monoclinic'
loop_
_space_group_symop_operation_xyz
x,y,z
-x,y,-z
-x,-y,-z
x,-y,z
1/2+x,1/2+y,z
1/2-x,1/2+y,-z
1/2-x,1/2-y,-z
1/2+x,1/2-y,z
loop_
_atom_site_type_symbol
_atom_site_label
_atom_site_fract_x
_atom_site_fract_y
_atom_site_fract_z
Si Si1 0.678433 0.147767 0.785980
Si Si2 0.401657 0.356472 0.784370
Si Si3 0.054019 0.649827 0.065578
Si Si4 0.147955 0.850301 0.421195
Si Si5 0.204826 0.221876 0.175309
Si Si6 0.657733 0.849849 0.987818
Si Si7 0.341041 0.354382 0.373120
Si Si8 0.278844 0.142577 0.636438
O O1 0.741012 0.144440 0.797706
O O2 0.661814 0.201998 0.882677
O O3 0.649937 0.244081 0.702583
O O4 0.658000 0.000000 0.762178
O O5 0.427579 0.500000 0.806679
O O6 0.436974 0.244501 0.842673
O O7 0.396954 0.322802 0.671391
O O8 0.344156 0.367225 0.811813
O O9 0.053055 0.500000 0.101523
O O10 0.098866 0.670544 0.003380
O O11 0.000000 0.689512 0.000000
O O12 0.125415 0.827278 0.520005
O O13 0.196586 0.754965 0.419278
O O14 0.167766 0.000000 0.417186
O O15 0.205633 0.343156 0.248184
O O16 0.198181 0.271863 0.066592
O O17 0.674897 0.000000 0.996127
O O18 0.353347 0.500000 0.335934
O O19 0.282820 0.348841 0.393859
O O20 0.299064 0.000000 0.610128
#
# Coordination Sequence:
#
# PCOD8084807 Si02
#       8
#     8   8   8   8   8   8   8   8
#     4  10  19  29  42  62  87 118 154 187 212 242
#     4   9  17  28  44  67  91 114 142 177 214 254
#     4   9  18  33  51  69  90 114 137 168 216 269
#     4   9  17  28  41  58  84 115 145 180 222 258
#     4   9  16  27  41  60  90 123 147 173 213 257
#     4   9  17  29  45  65  88 114 146 180 215 256
#     4   9  18  30  40  54  81 118 153 183 216 253
#     4   9  16  24  38  59  81 111 152 188 215 247
#
# _framework density 17.175419999999999
#
# number of rings (size 3 to 8) (size 9 to 14) (size 15 to 20)
#    0.000    2.875    0.000    1.500    0.000    7.250 
#    0.000    3.125    0.000    0.000    0.000    0.875 
#    0.000    7.000    0.000    0.000    0.000    0.000 
#
# Total GULP energy -396581.481271 kJ/mol
# GULP energy per Si atom -12393.171290 kJ/mol
# Density = 1.713633 g / cm^3
# Si number density = 17.175420 Si / 1000 Ang^3
#
#
#
# Elastic Constant Matrix: (Units=GPa)
#
#
# Indices 1 2 3 4 5 6 
#
# 1 22.5286 9.9628 15.7548 0.0000 9.2751 0.0000
# 2 9.9628 92.6691 63.7690 0.0000 5.0269 0.0000
# 3 15.7548 63.7690 143.4924 0.0000 1.8522 0.0000
# 4 0.0000 0.0000 0.0000 27.3947 0.0000 0.8041
# 5 9.2751 5.0269 1.8522 0.0000 16.6015 0.0000
# 6 0.0000 0.0000 0.0000 0.8041 0.0000 13.3747
#
#
#
# Elastic Compliance Matrix: (Units=1/GPa)
#
#
# Indices 1 2 3 4 5 6 
#
# 1 0.063181 -0.000660 -0.006200 0.000000 -0.034407 0.000000
# 2 -0.000660 0.015814 -0.006908 0.000000 -0.003649 0.000000
# 3 -0.006200 -0.006908 0.010663 0.000000 0.004366 0.000000
# 4 0.000000 0.000000 0.000000 0.036568 0.000000 -0.002199
# 5 -0.034407 -0.003649 0.004366 0.000000 0.080076 0.000000
# 6 0.000000 0.000000 0.000000 -0.002199 0.000000 0.074900
#
#
# Mechanical properties :
#
#
# Convention : Reuss Voigt Hill
#
# Bulk Modulus (GPa) = 16.09720 48.62926 32.36323
# Shear Modulus (GPa) = 15.17703 22.75441 18.96572
#
# Velocity S-wave (km/s) = 2.97585 3.64376 3.32661
# Velocity P-wave (km/s) = 4.60436 6.78804 5.79989
#
# Compressibility (1/GPa) = 0.06212260
#
# Stress axis : x y z
#
# Youngs Moduli (GPa) = 15.82757 63.23612 93.77890
#
# Poissons Ratio (x) = 0.04174 0.58139
# Poissons Ratio (y) = 0.01045 0.64784
# Poissons Ratio (z) = 0.09812 0.43685
#
# Static dielectric constant tensor:
#      x y z
#    x 2.711850 0.000000 0.062470 
#    y 0.000000 3.231260 0.000000 
#    z 0.062470 0.000000 3.442350 
# 
# 
# High freq. dielectric constant tensor:
#      x y z
#    x 1.596520 0.000000 0.006560 
#    y 0.000000 1.667830 0.000000 
#    z 0.006560 0.000000 1.673840 
# 
# From -- ./inp_files/248515.got.cif
#   From: 2010.06.25/outbox.cif.g09.slc.cpg/sg12_125_cif.got.tgz:248515.got - 2010.06.28 00:19:55.
