data_PCOD8084357
_publ_section_title
;
Structure prediction by ZEFSAII (Michael W. Deem and Ramdas Pophale) SiO2 
 PCOD8084357
Probable space group: C 2/M
;
_chemical_formula_sum "Si O2"
_cell_formula_units_Z 48
_cell_length_a 19.296215
_cell_length_b 15.560002
_cell_length_c 11.385040
_cell_angle_alpha 90.000000
_cell_angle_beta 133.543415
_cell_angle_gamma 90.000000
_cell_volume 2477.798715
_symmetry_space_group_name_H-M "C 2/M"
_symmetry_group_IT_number 12
_symmetry_cell_setting 'monoclinic'
loop_
_space_group_symop_operation_xyz
x,y,z
-x,y,-z
-x,-y,-z
x,-y,z
1/2+x,1/2+y,z
1/2-x,1/2+y,-z
1/2-x,1/2-y,-z
1/2+x,1/2-y,z
loop_
_atom_site_type_symbol
_atom_site_label
_atom_site_fract_x
_atom_site_fract_y
_atom_site_fract_z
Si Si1 0.645759 0.267813 0.924797
Si Si2 0.122753 0.642961 0.221527
Si Si3 0.396176 0.328219 0.869600
Si Si4 0.989908 0.098372 0.349925
Si Si5 0.817921 0.098549 0.556858
Si Si6 0.431490 0.093746 0.093520
O O1 0.594977 0.338128 0.784525
O O2 0.592866 0.175309 0.853543
O O3 0.750000 0.250000 0.000000
O O4 0.652724 0.308630 0.063080
O O5 0.082568 0.739562 0.173289
O O6 0.226658 0.648439 0.400883
O O7 0.045802 0.589818 0.206689
O O8 0.127894 0.603837 0.096936
O O9 0.327655 0.386293 0.708374
O O10 0.500000 0.374750 0.000000
O O11 0.000000 0.105004 0.500000
O O12 0.086871 0.129615 0.399401
O O13 0.965570 0.000000 0.284168
O O14 0.797852 0.000000 0.507143
O O15 0.403191 0.000000 0.115373
#
# Coordination Sequence:
#
# PCOD8084357 Si02
#       6
#     8   8   8   8   8   8
#     4  11  24  41  59  87 119 160 204 244 300 359
#     4  10  18  35  59  89 117 147 195 246 297 353
#     4  11  20  39  60  85 117 158 199 246 302 353
#     4  10  23  41  61  88 121 157 200 252 301 354
#     4  11  22  35  60  92 120 153 197 248 304 360
#     4  10  19  35  60  86 119 154 193 247 299 353
#
# _framework density 19.372032999999998
#
# number of rings (size 3 to 8) (size 9 to 14) (size 15 to 20)
#    0.000    1.500    5.000    2.500    4.667    1.667 
#    0.000    0.000    0.000    0.500    0.000    0.000 
#    0.000    0.000    0.000    0.000    0.000    0.000 
#
# Total GULP energy -297538.978812 kJ/mol
# GULP energy per Si atom -12397.457450 kJ/mol
# Density = 1.932794 g / cm^3
# Si number density = 19.372033 Si / 1000 Ang^3
#
#
#
# Elastic Constant Matrix: (Units=GPa)
#
#
# Indices 1 2 3 4 5 6 
#
# 1 101.2238 25.4439 47.1701 0.0000 7.0027 0.0000
# 2 25.4439 91.7097 39.4785 0.0000 3.3088 0.0000
# 3 47.1701 39.4785 126.1089 0.0000 19.6011 0.0000
# 4 0.0000 0.0000 0.0000 23.6602 0.0000 -3.3877
# 5 7.0027 3.3088 19.6011 0.0000 29.6548 0.0000
# 6 0.0000 0.0000 0.0000 -3.3877 0.0000 14.8755
#
#
#
# Elastic Compliance Matrix: (Units=1/GPa)
#
#
# Indices 1 2 3 4 5 6 
#
# 1 0.012174 -0.001639 -0.004037 0.000000 -0.000024 0.000000
# 2 -0.001639 0.012871 -0.003626 0.000000 0.001347 0.000000
# 3 -0.004037 -0.003626 0.011550 0.000000 -0.006277 0.000000
# 4 0.000000 0.000000 0.000000 0.043690 0.000000 0.009950
# 5 -0.000024 0.001347 -0.006277 0.000000 0.037725 0.000000
# 6 0.000000 0.000000 0.000000 0.009950 0.000000 0.069491
#
#
# Mechanical properties :
#
#
# Convention : Reuss Voigt Hill
#
# Bulk Modulus (GPa) = 55.57982 60.35859 57.96921
# Shear Modulus (GPa) = 23.57373 27.43475 25.50424
#
# Velocity S-wave (km/s) = 3.49219 3.76733 3.63237
# Velocity P-wave (km/s) = 6.70921 7.08159 6.89792
#
# Compressibility (1/GPa) = 0.01799214
#
# Stress axis : x y z
#
# Youngs Moduli (GPa) = 82.14337 77.69538 86.57888
#
# Poissons Ratio (x) = 0.12734 0.34950
# Poissons Ratio (y) = 0.13463 0.31390
# Poissons Ratio (z) = 0.33160 0.28169
#
# Static dielectric constant tensor:
#      x y z
#    x 3.355310 0.000000 0.027200 
#    y 0.000000 3.678270 0.000000 
#    z 0.027200 0.000000 3.510260 
# 
# 
# High freq. dielectric constant tensor:
#      x y z
#    x 1.732920 0.000000 0.010340 
#    y 0.000000 1.762140 0.000000 
#    z 0.010340 0.000000 1.746500 
# 
# From -- ./inp_files/167640.got.cif
#   From: 2010.06.25/outbox.cif.g09.slc.cpg/sg12_84_cif.got.tgz:167640.got - 2010.06.28 00:19:55.
