data_PCOD8084166
_publ_section_title
;
Structure prediction by ZEFSAII (Michael W. Deem and Ramdas Pophale) SiO2 
 PCOD8084166
Probable space group: C 2/M
;
_chemical_formula_sum "Si O2"
_cell_formula_units_Z 64
_cell_length_a 30.813303
_cell_length_b 8.685048
_cell_length_c 11.941851
_cell_angle_alpha 90.000000
_cell_angle_beta 89.750596
_cell_angle_gamma 90.000000
_cell_volume 3195.788365
_symmetry_space_group_name_H-M "C 2/M"
_symmetry_group_IT_number 12
_symmetry_cell_setting 'monoclinic'
loop_
_space_group_symop_operation_xyz
x,y,z
-x,y,-z
-x,-y,-z
x,-y,z
1/2+x,1/2+y,z
1/2-x,1/2+y,-z
1/2-x,1/2-y,-z
1/2+x,1/2-y,z
loop_
_atom_site_type_symbol
_atom_site_label
_atom_site_fract_x
_atom_site_fract_y
_atom_site_fract_z
Si Si1 0.328456 0.181946 0.731483
Si Si2 0.424978 0.819832 0.737035
Si Si3 0.326848 0.822273 0.257413
Si Si4 0.002227 0.179661 0.870315
Si Si5 0.075923 0.678053 0.722057
Si Si6 0.297165 0.818659 0.498195
Si Si7 0.050813 0.177889 0.492625
Si Si8 0.250855 0.318931 0.121742
O O1 0.376197 0.226280 0.775874
O O2 0.323163 0.246652 0.605211
O O3 0.290325 0.251121 0.809910
O O4 0.323506 0.000000 0.728599
O O5 0.456974 0.720256 0.812383
O O6 0.429957 0.782393 0.606026
O O7 0.434229 0.000000 0.755349
O O8 0.376867 0.794711 0.223192
O O9 0.322094 0.768206 0.386024
O O10 0.296147 0.721040 0.179944
O O11 0.313425 0.000000 0.242609
O O12 0.040937 0.274169 0.814337
O O13 0.011572 0.000000 0.853355
O O14 0.000000 0.225822 0.000000
O O15 0.069215 0.500000 0.690060
O O16 0.072197 0.776962 0.609741
O O17 0.250000 0.750000 0.500000
O O18 0.292862 0.000000 0.505515
O O19 0.000000 0.210339 0.500000
O O20 0.060599 0.000000 0.466511
O O21 0.246576 0.500000 0.112654
O O22 0.250000 0.250000 0.000000
#
# Coordination Sequence:
#
# PCOD8084166 Si02
#       8
#     8   8   8   8   8   8   8   8
#     4   9  20  38  60  88 121 155 192 243 296 348
#     4  11  22  39  65  91 118 156 203 248 297 356
#     4  10  22  39  61  91 124 154 195 248 298 353
#     4  11  25  44  62  85 121 158 198 252 307 357
#     4  11  23  40  65  92 120 159 204 248 295 355
#     4  10  18  34  59  87 120 153 189 234 290 350
#     4  11  22  37  60  91 129 161 191 241 304 362
#     4  11  23  41  63  86 119 160 204 250 299 351
#
# _framework density 20.026357000000001
#
# number of rings (size 3 to 8) (size 9 to 14) (size 15 to 20)
#    0.000    1.500    2.500    2.625    0.000    5.500 
#    0.000    8.750    0.000    0.000    0.000    0.000 
#    0.000    0.000    0.000    0.000    0.000    0.000 
#
# Total GULP energy -396883.274952 kJ/mol
# GULP energy per Si atom -12402.602342 kJ/mol
# Density = 1.998078 g / cm^3
# Si number density = 20.026357 Si / 1000 Ang^3
#
#
#
# Elastic Constant Matrix: (Units=GPa)
#
#
# Indices 1 2 3 4 5 6 
#
# 1 138.1000 26.4417 54.6082 0.0000 3.2226 0.0000
# 2 26.4417 39.8204 21.1518 0.0000 1.4944 0.0000
# 3 54.6082 21.1518 130.8512 0.0000 2.6121 0.0000
# 4 0.0000 0.0000 0.0000 29.1736 0.0000 -0.6023
# 5 3.2226 1.4944 2.6121 0.0000 8.3518 0.0000
# 6 0.0000 0.0000 0.0000 -0.6023 0.0000 28.7990
#
#
#
# Elastic Compliance Matrix: (Units=1/GPa)
#
#
# Indices 1 2 3 4 5 6 
#
# 1 0.009392 -0.004491 -0.003157 0.000000 -0.001833 0.000000
# 2 -0.004491 0.029724 -0.002877 0.000000 -0.002686 0.000000
# 3 -0.003157 -0.002877 0.009449 0.000000 -0.001222 0.000000
# 4 0.000000 0.000000 0.000000 0.034292 0.000000 0.000717
# 5 -0.001833 -0.002686 -0.001222 0.000000 0.121305 0.000000
# 6 0.000000 0.000000 0.000000 0.000717 0.000000 0.034738
#
#
# Mechanical properties :
#
#
# Convention : Reuss Voigt Hill
#
# Bulk Modulus (GPa) = 36.34336 57.01944 46.68140
# Shear Modulus (GPa) = 18.57889 27.03620 22.80754
#
# Velocity S-wave (km/s) = 3.04916 3.67826 3.37839
# Velocity P-wave (km/s) = 5.53025 6.82448 6.21116
#
# Compressibility (1/GPa) = 0.02751534
#
# Stress axis : x y z
#
# Youngs Moduli (GPa) = 106.47191 33.64310 105.82809
#
# Poissons Ratio (x) = 0.15109 0.33411
# Poissons Ratio (y) = 0.47815 0.30447
# Poissons Ratio (z) = 0.33614 0.09679
#
# Static dielectric constant tensor:
#      x y z
#    x 3.930630 0.000000 -0.084660 
#    y 0.000000 3.518390 0.000000 
#    z -0.084660 0.000000 3.716480 
# 
# 
# High freq. dielectric constant tensor:
#      x y z
#    x 1.796370 0.000000 -0.000230 
#    y 0.000000 1.772520 0.000000 
#    z -0.000230 0.000000 1.780680 
# 
# From -- ./inp_files/187440.got.cif
#   From: 2010.06.25/outbox.cif.g09.slc.cpg/sg12_94_cif.got.tgz:187440.got - 2010.06.28 00:19:55.
