data_PCOD8084178
_publ_section_title
;
Structure prediction by ZEFSAII (Michael W. Deem and Ramdas Pophale) SiO2 
 PCOD8084178
Probable space group: C 2/M
;
_chemical_formula_sum "Si O2"
_cell_formula_units_Z 64
_cell_length_a 19.731747
_cell_length_b 8.951127
_cell_length_c 24.430345
_cell_angle_alpha 90.000000
_cell_angle_beta 129.547396
_cell_angle_gamma 90.000000
_cell_volume 3327.227645
_symmetry_space_group_name_H-M "C 2/M"
_symmetry_group_IT_number 12
_symmetry_cell_setting 'monoclinic'
loop_
_space_group_symop_operation_xyz
x,y,z
-x,y,-z
-x,-y,-z
x,-y,z
1/2+x,1/2+y,z
1/2-x,1/2+y,-z
1/2-x,1/2-y,-z
1/2+x,1/2-y,z
loop_
_atom_site_type_symbol
_atom_site_label
_atom_site_fract_x
_atom_site_fract_y
_atom_site_fract_z
Si Si1 0.167053 0.677545 0.236044
Si Si2 0.969956 0.677609 0.125032
Si Si3 0.572350 0.822838 0.376419
Si Si4 0.070828 0.822448 0.490863
Si Si5 0.767647 0.677054 0.613464
Si Si6 0.420739 0.177287 0.216952
Si Si7 0.404765 0.829570 0.977252
Si Si8 0.737394 0.323567 0.168998
O O1 0.174707 0.500000 0.236683
O O2 0.194053 0.737702 0.309668
O O3 0.231567 0.749318 0.225240
O O4 0.069744 0.735091 0.171390
O O5 0.972679 0.500000 0.127310
O O6 0.929445 0.742891 0.160079
O O7 0.911956 0.730287 0.043458
O O8 0.546341 0.745273 0.419722
O O9 0.668523 0.770978 0.403517
O O10 0.501038 0.767198 0.295610
O O11 0.568883 0.000000 0.383000
O O12 0.168525 0.762104 0.555592
O O13 0.000000 0.768330 0.500000
O O14 0.069377 0.000000 0.485747
O O15 0.767209 0.500000 0.615007
O O16 0.329261 0.236383 0.193025
O O17 0.423229 0.000000 0.215506
O O18 0.370179 0.000000 0.956781
O O19 0.500000 0.819639 0.000000
O O20 0.339146 0.723538 0.911477
O O21 0.735737 0.500000 0.174678
#
# Coordination Sequence:
#
# PCOD8084178 Si02
#       8
#     8   8   8   8   8   8   8   8
#     4  10  18  34  60  82 100 137 192 231 255 306
#     4   9  16  32  58  80 100 134 184 230 258 300
#     4  10  19  36  61  81 102 141 189 226 256 312
#     4  10  22  37  52  81 120 147 170 216 278 326
#     4   9  18  34  59  83 104 140 187 225 263 314
#     4   9  19  35  54  79 109 140 177 223 272 316
#     4  10  19  34  57  82 103 136 187 229 257 307
#     4  11  23  35  50  79 116 144 167 216 286 331
#
# _framework density 19.235232
#
# number of rings (size 3 to 8) (size 9 to 14) (size 15 to 20)
#    0.000    2.250    2.500    0.750    1.750    1.000 
#    0.000    1.875    0.000    3.000    0.000    0.000 
#    0.000    0.000    0.000    0.000    0.000    0.000 
#
# Total GULP energy -396747.419554 kJ/mol
# GULP energy per Si atom -12398.356861 kJ/mol
# Density = 1.919145 g / cm^3
# Si number density = 19.235232 Si / 1000 Ang^3
#
#
#
# Elastic Constant Matrix: (Units=GPa)
#
#
# Indices 1 2 3 4 5 6 
#
# 1 149.4687 23.4594 52.2287 0.0000 -18.5834 0.0000
# 2 23.4594 22.2623 14.1379 0.0000 -4.2969 0.0000
# 3 52.2287 14.1379 96.8908 0.0000 -20.4192 0.0000
# 4 0.0000 0.0000 0.0000 20.2714 0.0000 -7.3257
# 5 -18.5834 -4.2969 -20.4192 0.0000 39.9885 0.0000
# 6 0.0000 0.0000 0.0000 -7.3257 0.0000 17.9656
#
#
#
# Elastic Compliance Matrix: (Units=1/GPa)
#
#
# Indices 1 2 3 4 5 6 
#
# 1 0.009286 -0.007170 -0.003600 0.000000 0.001707 0.000000
# 2 -0.007170 0.055162 -0.004076 0.000000 0.000514 0.000000
# 3 -0.003600 -0.004076 0.013908 0.000000 0.004991 0.000000
# 4 0.000000 0.000000 0.000000 0.057856 0.000000 0.023591
# 5 0.001707 0.000514 0.004991 0.000000 0.028404 0.000000
# 6 0.000000 0.000000 0.000000 0.023591 0.000000 0.065282
#
#
# Mechanical properties :
#
#
# Convention : Reuss Voigt Hill
#
# Bulk Modulus (GPa) = 20.54859 49.80821 35.17840
# Shear Modulus (GPa) = 18.12851 27.56482 22.84666
#
# Velocity S-wave (km/s) = 3.07329 3.78966 3.45012
# Velocity P-wave (km/s) = 4.82695 6.71559 5.84802
#
# Compressibility (1/GPa) = 0.04866514
#
# Stress axis : x y z
#
# Youngs Moduli (GPa) = 107.69326 18.12852 71.90232
#
# Poissons Ratio (x) = 0.12997 0.25882
# Poissons Ratio (y) = 0.77212 0.29306
# Poissons Ratio (z) = 0.38765 0.07389
#
# Static dielectric constant tensor:
#      x y z
#    x 3.794630 0.000000 -0.061720 
#    y 0.000000 3.036660 0.000000 
#    z -0.061720 0.000000 3.767250 
# 
# 
# High freq. dielectric constant tensor:
#      x y z
#    x 1.760320 0.000000 -0.007590 
#    y 0.000000 1.699080 0.000000 
#    z -0.007590 0.000000 1.761280 
# 
# From -- ./inp_files/346123.got.cif
#   From: 2010.06.25/outbox.cif.g09.slc.cpg/sg12_174_cif.got.tgz:346123.got - 2010.06.28 00:19:55.
