data_PCOD8084439
_publ_section_title
;
Structure prediction by ZEFSAII (Michael W. Deem and Ramdas Pophale) SiO2 
 PCOD8084439
Probable space group: C 2/M
;
_chemical_formula_sum "Si O2"
_cell_formula_units_Z 36
_cell_length_a 28.805152
_cell_length_b 13.822946
_cell_length_c 10.044923
_cell_angle_alpha 90.000000
_cell_angle_beta 28.112406
_cell_angle_gamma 90.000000
_cell_volume 1884.626635
_symmetry_space_group_name_H-M "C 2/M"
_symmetry_group_IT_number 12
_symmetry_cell_setting 'monoclinic'
loop_
_space_group_symop_operation_xyz
x,y,z
-x,y,-z
-x,-y,-z
x,-y,z
1/2+x,1/2+y,z
1/2-x,1/2+y,-z
1/2-x,1/2-y,-z
1/2+x,1/2-y,z
loop_
_atom_site_type_symbol
_atom_site_label
_atom_site_fract_x
_atom_site_fract_y
_atom_site_fract_z
Si Si1 0.388309 0.500000 0.977461
Si Si2 0.754104 0.706350 0.342692
Si Si3 0.452134 0.707592 0.761379
Si Si4 0.827027 0.500000 0.539720
Si Si5 0.070350 0.695555 0.697849
Si Si6 0.758540 0.500000 0.430924
O O1 0.290574 0.500000 0.129613
O O2 0.351144 0.500000 0.225711
O O3 0.456302 0.593002 0.779402
O O4 0.750000 0.750000 0.500000
O O5 0.651624 0.724314 0.527852
O O6 0.774103 0.592281 0.297969
O O7 0.839014 0.758717 0.044453
O O8 0.500000 0.732081 0.500000
O O9 0.509233 0.767088 0.728253
O O10 0.877737 0.594663 0.472831
O O11 0.161097 0.500000 0.652361
O O12 0.000000 0.677721 0.000000
#
# Coordination Sequence:
#
# PCOD8084439 Si02
#       6
#     4   8   8   4   8   4
#     4  10  19  44  67  88 130 178 213 268 321 384
#     4  12  20  42  62  97 133 164 217 278 311 378
#     4  12  26  42  66  97 137 173 215 270 333 388
#     4  10  19  37  66  94 125 170 220 259 319 386
#     4  12  22  38  70  98 126 173 226 262 325 387
#     4  10  18  35  71  91 127 170 213 270 326 362
#
# _framework density 19.101927
#
# number of rings (size 3 to 8) (size 9 to 14) (size 15 to 20)
#    0.667    0.000    8.889    0.667    0.000    2.667 
#    0.000    4.444    0.000    0.000    0.000    0.000 
#    0.000    0.000    0.000    0.000    0.000    0.000 
#
# Total GULP energy -223236.021378 kJ/mol
# GULP energy per Si atom -12402.001188 kJ/mol
# Density = 1.905845 g / cm^3
# Si number density = 19.101927 Si / 1000 Ang^3
#
#
#
# Elastic Constant Matrix: (Units=GPa)
#
#
# Indices 1 2 3 4 5 6 
#
# 1 64.4416 21.9854 16.7399 0.0000 -6.6016 0.0000
# 2 21.9854 142.0311 8.7591 0.0000 -3.2897 0.0000
# 3 16.7399 8.7591 81.2087 0.0000 9.5669 0.0000
# 4 0.0000 0.0000 0.0000 55.9083 0.0000 6.1509
# 5 -6.6016 -3.2897 9.5669 0.0000 33.2814 0.0000
# 6 0.0000 0.0000 0.0000 6.1509 0.0000 40.7202
#
#
#
# Elastic Compliance Matrix: (Units=1/GPa)
#
#
# Indices 1 2 3 4 5 6 
#
# 1 0.017816 -0.002413 -0.003934 0.000000 0.004426 0.000000
# 2 -0.002413 0.007444 -0.000348 0.000000 0.000357 0.000000
# 3 -0.003934 -0.000348 0.013723 0.000000 -0.004759 0.000000
# 4 0.000000 0.000000 0.000000 0.018189 0.000000 -0.002747
# 5 0.004426 0.000357 -0.004759 0.000000 0.032328 0.000000
# 6 0.000000 0.000000 0.000000 -0.002747 0.000000 0.024973
#
#
# Mechanical properties :
#
#
# Convention : Reuss Voigt Hill
#
# Bulk Modulus (GPa) = 39.07008 42.51671 40.79339
# Shear Modulus (GPa) = 36.65876 41.99511 39.32694
#
# Velocity S-wave (km/s) = 4.38552 4.69388 4.54232
# Velocity P-wave (km/s) = 6.79276 7.18907 6.99372
#
# Compressibility (1/GPa) = 0.02559503
#
# Stress axis : x y z
#
# Youngs Moduli (GPa) = 56.12805 134.33825 72.87026
#
# Poissons Ratio (x) = 0.32412 0.28666
# Poissons Ratio (y) = 0.13542 0.02533
# Poissons Ratio (z) = 0.22080 0.04670
#
# Static dielectric constant tensor:
#      x y z
#    x 3.151010 0.000000 -0.192440 
#    y 0.000000 3.709070 0.000000 
#    z -0.192440 0.000000 3.530770 
# 
# 
# High freq. dielectric constant tensor:
#      x y z
#    x 1.713980 0.000000 -0.023020 
#    y 0.000000 1.759050 0.000000 
#    z -0.023020 0.000000 1.732460 
# 
# From -- ./inp_files/72792.got.cif
#   From: 2010.06.25/outbox.cif.g09.slc.cpg/sg12_37_cif.got.tgz:72792.got - 2010.06.28 00:19:55.
