data_PCOD8084463
_publ_section_title
;
Structure prediction by ZEFSAII (Michael W. Deem and Ramdas Pophale) SiO2 
 PCOD8084463
Probable space group: C 2/M
;
_chemical_formula_sum "Si O2"
_cell_formula_units_Z 56
_cell_length_a 32.200485
_cell_length_b 16.865943
_cell_length_c 9.019407
_cell_angle_alpha 90.000000
_cell_angle_beta 41.878130
_cell_angle_gamma 90.000000
_cell_volume 3269.894839
_symmetry_space_group_name_H-M "C 2/M"
_symmetry_group_IT_number 12
_symmetry_cell_setting 'monoclinic'
loop_
_space_group_symop_operation_xyz
x,y,z
-x,y,-z
-x,-y,-z
x,-y,z
1/2+x,1/2+y,z
1/2-x,1/2+y,-z
1/2-x,1/2-y,-z
1/2+x,1/2-y,z
loop_
_atom_site_type_symbol
_atom_site_label
_atom_site_fract_x
_atom_site_fract_y
_atom_site_fract_z
Si Si1 0.841086 0.758449 0.153380
Si Si2 0.669671 0.815220 0.272047
Si Si3 0.293451 0.411931 0.410652
Si Si4 0.833173 0.373890 0.403305
Si Si5 0.436141 0.000000 0.084335
Si Si6 0.259174 0.680421 0.776696
Si Si7 0.936809 0.500000 0.751367
Si Si8 0.425987 0.171508 0.703274
O O1 0.839004 0.851776 0.200444
O O2 0.844136 0.712391 0.301725
O O3 0.776370 0.740325 0.241160
O O4 0.899183 0.734597 0.894500
O O5 0.677046 0.871589 0.393319
O O6 0.687978 0.726422 0.272136
O O7 0.599681 0.809610 0.393294
O O8 0.711399 0.851692 0.027657
O O9 0.322545 0.500000 0.323667
O O10 0.224725 0.415690 0.522287
O O11 0.287976 0.389384 0.599952
O O12 0.896178 0.422055 0.217641
O O13 0.500000 0.000000 0.000000
O O14 0.459080 0.000000 0.857944
O O15 0.900924 0.582414 0.810806
O O16 0.000000 0.500000 0.500000
O O17 0.500000 0.178600 0.500000
#
# Coordination Sequence:
#
# PCOD8084463 Si02
#       8
#     8   8   8   8   4   8   4   8
#     4  10  18  36  57  75 109 146 186 226 276 339
#     4  10  19  32  55  76 107 143 181 223 269 320
#     4  11  20  35  55  82 110 143 185 230 287 331
#     4  11  20  34  53  78 113 151 183 224 269 322
#     4  12  26  36  52  82 120 152 193 227 258 322
#     4   9  18  34  54  78 107 142 177 226 279 334
#     4  10  22  40  50  74 114 156 190 222 266 319
#     4  10  22  36  56  76 109 150 187 220 276 336
#
# _framework density 17.125934000000001
#
# number of rings (size 3 to 8) (size 9 to 14) (size 15 to 20)
#    0.000    1.714    5.000    0.857    4.000    0.000 
#    1.286    0.000    0.000    0.429    0.000    1.000 
#    0.000    0.000    0.000    0.000    0.000    0.000 
#
# Total GULP energy -347029.344672 kJ/mol
# GULP energy per Si atom -12393.905167 kJ/mol
# Density = 1.708695 g / cm^3
# Si number density = 17.125934 Si / 1000 Ang^3
#
#
#
# Elastic Constant Matrix: (Units=GPa)
#
#
# Indices 1 2 3 4 5 6 
#
# 1 111.4526 37.7729 40.8298 0.0000 7.8641 0.0000
# 2 37.7729 123.6375 49.0715 0.0000 1.1450 0.0000
# 3 40.8298 49.0715 83.7670 0.0000 16.1835 0.0000
# 4 0.0000 0.0000 0.0000 8.0707 0.0000 16.6965
# 5 7.8641 1.1450 16.1835 0.0000 36.0193 0.0000
# 6 0.0000 0.0000 0.0000 16.6965 0.0000 -10.7994
#
#
#
# Elastic Compliance Matrix: (Units=1/GPa)
#
#
# Indices 1 2 3 4 5 6 
#
# 1 0.011175 -0.001668 -0.004390 0.000000 -0.000415 0.000000
# 2 -0.001668 0.011027 -0.006187 0.000000 0.002793 0.000000
# 3 -0.004390 -0.006187 0.019140 0.000000 -0.007445 0.000000
# 4 0.000000 0.000000 0.000000 0.029512 0.000000 0.045627
# 5 -0.000415 0.002793 -0.007445 0.000000 0.031109 0.000000
# 6 0.000000 0.000000 0.000000 0.045627 0.000000 -0.022055
#
#
# Mechanical properties :
#
#
# Convention : Reuss Voigt Hill
#
# Bulk Modulus (GPa) = 59.33402 63.80060 61.56731
# Shear Modulus (GPa) = 45.44828 19.40366 32.42597
#
# Velocity S-wave (km/s) = 5.15706 3.36966 4.35602
# Velocity P-wave (km/s) = 8.37743 7.24390 7.83120
#
# Compressibility (1/GPa) = 0.01685374
#
# Stress axis : x y z
#
# Youngs Moduli (GPa) = 89.48431 90.68396 52.24687
#
# Poissons Ratio (x) = 0.15126 0.22935
# Poissons Ratio (y) = 0.14926 0.32323
# Poissons Ratio (z) = 0.39282 0.56102
#
# Static dielectric constant tensor:
#      x y z
#    x 3.157810 0.000000 0.234810 
#    y 0.000000 3.338420 0.000000 
#    z 0.234810 0.000000 3.197100 
# 
# 
# High freq. dielectric constant tensor:
#      x y z
#    x 1.654510 0.000000 0.025800 
#    y 0.000000 1.640990 0.000000 
#    z 0.025800 0.000000 1.658850 
# 
# From -- ./inp_files/111596.got.cif
#   From: 2010.06.25/outbox.cif.g09.slc.cpg/sg12_56_cif.got.tgz:111596.got - 2010.06.28 00:19:55.
