data_PCOD8084602
_publ_section_title
;
Structure prediction by ZEFSAII (Michael W. Deem and Ramdas Pophale) SiO2 
 PCOD8084602
Probable space group: C 2/M
;
_chemical_formula_sum "Si O2"
_cell_formula_units_Z 48
_cell_length_a 17.850391
_cell_length_b 14.316339
_cell_length_c 16.665998
_cell_angle_alpha 90.000000
_cell_angle_beta 33.436962
_cell_angle_gamma 90.000000
_cell_volume 2346.809074
_symmetry_space_group_name_H-M "C 2/M"
_symmetry_group_IT_number 12
_symmetry_cell_setting 'monoclinic'
loop_
_space_group_symop_operation_xyz
x,y,z
-x,y,-z
-x,-y,-z
x,-y,z
1/2+x,1/2+y,z
1/2-x,1/2+y,-z
1/2-x,1/2-y,-z
1/2+x,1/2-y,z
loop_
_atom_site_type_symbol
_atom_site_label
_atom_site_fract_x
_atom_site_fract_y
_atom_site_fract_z
Si Si1 0.996484 0.663528 0.614993
Si Si2 0.392311 0.639026 0.653631
Si Si3 0.683353 0.604372 0.105135
Si Si4 0.952272 0.713706 0.832464
Si Si5 0.878618 0.716681 0.166063
Si Si6 0.223550 0.602302 0.299065
O O1 0.142525 0.630071 0.452707
O O2 0.964411 0.763777 0.607862
O O3 0.997680 0.664666 0.709739
O O4 0.877657 0.596764 0.687195
O O5 0.500000 0.584076 0.500000
O O6 0.367948 0.586484 0.758637
O O7 0.250393 0.650458 0.733279
O O8 0.687127 0.500000 0.061651
O O9 0.586884 0.676494 0.142895
O O10 0.829702 0.653706 0.979125
O O11 0.078649 0.707693 0.779515
O O12 0.843082 0.824006 0.176611
O O13 0.000000 0.684382 0.000000
O O14 0.288816 0.500000 0.252188
#
# Coordination Sequence:
#
# PCOD8084602 Si02
#       6
#     8   8   8   8   8   8
#     4   9  17  35  58  82 112 159 201 230 291 363
#     4  10  18  38  63  85 110 159 204 235 294 361
#     4  10  22  39  61  89 120 156 202 249 296 360
#     4  10  22  38  61  87 121 163 197 244 305 351
#     4  11  21  38  60  85 120 157 198 247 303 355
#     4  10  20  34  57  88 119 152 197 249 293 355
#
# _framework density 20.453302999999998
#
# number of rings (size 3 to 8) (size 9 to 14) (size 15 to 20)
#    0.000    2.000    5.000    1.000    2.333    3.333 
#    0.000    1.667    0.000    0.000    0.000    0.000 
#    0.000    0.000    0.000    0.000    0.000    0.000 
#
# Total GULP energy -297475.930352 kJ/mol
# GULP energy per Si atom -12394.830431 kJ/mol
# Density = 2.040675 g / cm^3
# Si number density = 20.453303 Si / 1000 Ang^3
#
#
#
# Elastic Constant Matrix: (Units=GPa)
#
#
# Indices 1 2 3 4 5 6 
#
# 1 115.7353 11.1073 44.3267 0.0000 8.7244 0.0000
# 2 11.1073 95.6037 15.3733 -0.0002 2.7382 0.0001
# 3 44.3267 15.3733 97.6785 -0.0002 4.9336 0.0001
# 4 0.0000 -0.0002 -0.0002 -0.9034 0.0001 0.6297
# 5 8.7244 2.7382 4.9336 0.0001 30.0920 -0.0001
# 6 0.0000 0.0001 0.0001 0.6297 -0.0001 8.4724
#
#
#
# Elastic Compliance Matrix: (Units=1/GPa)
#
#
# Indices 1 2 3 4 5 6 
#
# 1 0.010631 -0.000423 -0.004643 0.000001 -0.002283 0.000000
# 2 -0.000423 0.010763 -0.001471 -0.000002 -0.000616 0.000000
# 3 -0.004643 -0.001471 0.012606 -0.000003 -0.000587 0.000000
# 4 0.000001 -0.000002 -0.000003 -1.052395 0.000004 0.078213
# 5 -0.002283 -0.000616 -0.000587 0.000004 0.034045 0.000000
# 6 0.000000 0.000000 0.000000 0.078213 0.000000 0.112218
#
#
# Mechanical properties :
#
#
# Convention : Reuss Voigt Hill
#
# Bulk Modulus (GPa) = 47.78579 50.07025 48.92802
# Shear Modulus (GPa) = -5.86797 23.41287 8.77245
#
# Velocity S-wave (km/s) = -1.69564 3.38701 2.07324
# Velocity P-wave (km/s) = 4.42499 6.31104 5.45022
#
# Compressibility (1/GPa) = 0.02092672
#
# Stress axis : x y z
#
# Youngs Moduli (GPa) = 94.06286 92.90951 79.32980
#
# Poissons Ratio (x) = 0.03932 0.36829
# Poissons Ratio (y) = 0.03981 0.11668
# Poissons Ratio (z) = 0.43669 0.13665
#
# Static dielectric constant tensor:
#      x y z
#    x 3.704820 0.000000 0.274810 
#    y 0.000000 3.533800 0.000000 
#    z 0.274810 0.000000 3.866330 
# 
# 
# High freq. dielectric constant tensor:
#      x y z
#    x 1.783910 0.000000 0.013630 
#    y 0.000000 1.787880 0.000000 
#    z 0.013630 0.000000 1.799710 
# 
# From -- ./inp_files/278016.got.cif
#   From: 2010.06.25/outbox.cif.g09.slc.cpg/sg12_140_cif.got.tgz:278016.got - 2010.06.28 00:19:55.
