data_PCOD8084693
_publ_section_title
;
Structure prediction by ZEFSAII (Michael W. Deem and Ramdas Pophale) SiO2 
 PCOD8084693
Probable space group: C 2/M
;
_chemical_formula_sum "Si O2"
_cell_formula_units_Z 64
_cell_length_a 31.695963
_cell_length_b 9.087778
_cell_length_c 16.056869
_cell_angle_alpha 90.000000
_cell_angle_beta 68.707376
_cell_angle_gamma 90.000000
_cell_volume 4309.395215
_symmetry_space_group_name_H-M "C 2/M"
_symmetry_group_IT_number 12
_symmetry_cell_setting 'monoclinic'
loop_
_space_group_symop_operation_xyz
x,y,z
-x,y,-z
-x,-y,-z
x,-y,z
1/2+x,1/2+y,z
1/2-x,1/2+y,-z
1/2-x,1/2-y,-z
1/2+x,1/2-y,z
loop_
_atom_site_type_symbol
_atom_site_label
_atom_site_fract_x
_atom_site_fract_y
_atom_site_fract_z
Si Si1 0.237210 0.171424 0.818476
Si Si2 0.230705 0.170203 0.632888
Si Si3 0.679443 0.829226 0.530543
Si Si4 0.496081 0.833932 0.404133
Si Si5 0.906588 0.827049 0.481587
Si Si6 0.791396 0.668856 0.012075
Si Si7 0.164238 0.667938 0.184923
Si Si8 0.085384 0.172076 0.331678
O O1 0.228038 0.218326 0.730565
O O2 0.200794 0.256858 0.903076
O O3 0.288410 0.214366 0.806524
O O4 0.229274 0.000000 0.838393
O O5 0.281626 0.198453 0.565288
O O6 0.195611 0.271872 0.608730
O O7 0.217458 0.000000 0.629301
O O8 0.636284 0.737350 0.534557
O O9 0.666555 0.000000 0.546608
O O10 0.500000 0.832183 0.500000
O O11 0.451205 0.746085 0.409539
O O12 0.539961 0.754398 0.334331
O O13 0.493419 0.000000 0.371447
O O14 0.902503 0.788178 0.581967
O O15 0.909364 0.000000 0.464362
O O16 0.778493 0.500000 0.034954
O O17 0.750000 0.750000 0.000000
O O18 0.833419 0.683639 0.917703
O O19 0.152318 0.500000 0.218479
O O20 0.126079 0.777122 0.244181
O O21 0.077165 0.000000 0.326307
#
# Coordination Sequence:
#
# PCOD8084693 Si02
#       8
#     8   8   8   8   8   8   8   8
#     4   9  17  29  44  60  81 111 143 174 211 251
#     4   9  18  31  44  60  84 111 140 177 215 247
#     4  10  19  30  44  61  82 110 144 177 209 247
#     4   9  17  29  44  60  80 108 139 170 205 246
#     4  10  19  30  43  60  84 111 140 174 210 246
#     4   9  17  28  41  58  81 108 139 174 209 246
#     4   9  17  28  41  59  84 112 140 171 207 247
#     4  10  19  28  41  62  85 110 140 173 207 245
#
# _framework density 14.851272
#
# number of rings (size 3 to 8) (size 9 to 14) (size 15 to 20)
#    0.000    2.625    0.000    3.375    0.000    7.500 
#    0.000    0.000    0.000    0.000    0.000    0.000 
#    0.000    1.000    0.000   10.500    0.000    5.750 
#
# Total GULP energy -396752.372938 kJ/mol
# GULP energy per Si atom -12398.511654 kJ/mol
# Density = 1.481747 g / cm^3
# Si number density = 14.851272 Si / 1000 Ang^3
#
#
#
# Elastic Constant Matrix: (Units=GPa)
#
#
# Indices 1 2 3 4 5 6 
#
# 1 79.0937 47.5315 35.7822 0.0000 -3.4539 0.0000
# 2 47.5315 88.4913 45.9810 0.0000 -3.4931 0.0000
# 3 35.7822 45.9810 90.8635 0.0000 1.1209 0.0000
# 4 0.0000 0.0000 0.0000 25.9401 0.0000 -2.3979
# 5 -3.4539 -3.4931 1.1209 0.0000 15.5008 0.0000
# 6 0.0000 0.0000 0.0000 -2.3979 0.0000 27.4504
#
#
#
# Elastic Compliance Matrix: (Units=1/GPa)
#
#
# Indices 1 2 3 4 5 6 
#
# 1 0.019437 -0.008605 -0.003332 0.000000 0.002633 0.000000
# 2 -0.008605 0.019396 -0.006463 0.000000 0.002921 0.000000
# 3 -0.003332 -0.006463 0.015629 0.000000 -0.003329 0.000000
# 4 0.000000 0.000000 0.000000 0.038864 0.000000 0.003395
# 5 0.002633 0.002921 -0.003329 0.000000 0.065998 0.000000
# 6 0.000000 0.000000 0.000000 0.003395 0.000000 0.036726
#
#
# Mechanical properties :
#
#
# Convention : Reuss Voigt Hill
#
# Bulk Modulus (GPa) = 56.61720 57.44865 57.03293
# Shear Modulus (GPa) = 20.94357 22.38853 21.66605
#
# Velocity S-wave (km/s) = 3.75936 3.88689 3.82366
# Velocity P-wave (km/s) = 7.55310 7.67532 7.61445
#
# Compressibility (1/GPa) = 0.01766248
#
# Stress axis : x y z
#
# Youngs Moduli (GPa) = 51.44900 51.55772 63.98256
#
# Poissons Ratio (x) = 0.44364 0.21321
# Poissons Ratio (y) = 0.44270 0.41350
# Poissons Ratio (z) = 0.17145 0.33320
#
# Static dielectric constant tensor:
#      x y z
#    x 2.681350 0.000000 -0.147140 
#    y 0.000000 3.026830 0.000000 
#    z -0.147140 0.000000 2.528920 
# 
# 
# High freq. dielectric constant tensor:
#      x y z
#    x 1.540090 0.000000 -0.008550 
#    y 0.000000 1.584120 0.000000 
#    z -0.008550 0.000000 1.549300 
# 
# From -- ./inp_files/248239.got.cif
#   From: 2010.06.25/outbox.cif.g09.slc.cpg/sg12_125_cif.got.tgz:248239.got - 2010.06.28 00:19:55.
