data_PCOD8084167
_publ_section_title
;
Structure prediction by ZEFSAII (Michael W. Deem and Ramdas Pophale) SiO2 
 PCOD8084167
Probable space group: C 2/M
;
_chemical_formula_sum "Si O2"
_cell_formula_units_Z 40
_cell_length_a 13.461230
_cell_length_b 15.164144
_cell_length_c 11.951117
_cell_angle_alpha 90.000000
_cell_angle_beta 59.375622
_cell_angle_gamma 90.000000
_cell_volume 2099.301511
_symmetry_space_group_name_H-M "C 2/M"
_symmetry_group_IT_number 12
_symmetry_cell_setting 'monoclinic'
loop_
_space_group_symop_operation_xyz
x,y,z
-x,y,-z
-x,-y,-z
x,-y,z
1/2+x,1/2+y,z
1/2-x,1/2+y,-z
1/2-x,1/2-y,-z
1/2+x,1/2-y,z
loop_
_atom_site_type_symbol
_atom_site_label
_atom_site_fract_x
_atom_site_fract_y
_atom_site_fract_z
Si Si1 0.867409 0.500000 0.107337
Si Si2 0.186605 0.500000 0.601258
Si Si3 0.781244 0.681594 0.156326
Si Si4 0.500000 0.301067 0.000000
Si Si5 0.163842 0.307588 0.621713
Si Si6 0.545430 0.500000 0.597355
Si Si7 0.530689 0.328859 0.225440
O O1 0.845983 0.500000 0.251085
O O2 0.808114 0.585649 0.089039
O O3 0.000000 0.500000 0.000000
O O4 0.138393 0.405492 0.582195
O O5 0.318512 0.500000 0.487827
O O6 0.773177 0.678860 0.295373
O O7 0.659169 0.707980 0.173122
O O8 0.883590 0.744528 0.058984
O O9 0.495726 0.357776 0.888274
O O10 0.250000 0.250000 0.500000
O O11 0.044361 0.256458 0.700570
O O12 0.500000 0.500000 0.500000
O O13 0.497682 0.413089 0.684238
#
# Coordination Sequence:
#
# PCOD8084167 Si02
#       7
#     4   4   8   4   8   4   8
#     4  10  18  34  59  87 123 151 194 258 302 353
#     4  10  20  36  55  84 125 153 200 242 306 363
#     4  10  20  36  58  89 119 157 206 254 305 361
#     4  10  22  40  56  84 124 168 202 247 308 369
#     4  10  20  36  59  89 121 162 194 254 311 358
#     4  12  22  37  62  94 116 151 205 263 311 364
#     4  11  23  37  63  88 122 161 207 256 305 370
#
# _framework density 19.053957
#
# number of rings (size 3 to 8) (size 9 to 14) (size 15 to 20)
#    0.000    1.600    3.000    3.600    0.000    0.400 
#    0.000    0.000    0.000    7.200    0.000    0.000 
#    0.000    0.000    0.000    0.000    0.000    0.000 
#
# Total GULP energy -247823.450501 kJ/mol
# GULP energy per Si atom -12391.172525 kJ/mol
# Density = 1.901059 g / cm^3
# Si number density = 19.053957 Si / 1000 Ang^3
#
#
#
# Elastic Constant Matrix: (Units=GPa)
#
#
# Indices 1 2 3 4 5 6 
#
# 1 133.0706 48.5137 48.1352 0.0000 -14.8546 0.0000
# 2 48.5137 133.2493 42.6892 0.0000 6.1882 0.0000
# 3 48.1352 42.6892 98.5253 0.0000 -5.1719 0.0000
# 4 0.0000 0.0000 0.0000 22.7712 0.0000 -0.4632
# 5 -14.8546 6.1882 -5.1719 0.0000 33.4707 0.0000
# 6 0.0000 0.0000 0.0000 -0.4632 0.0000 24.5065
#
#
#
# Elastic Compliance Matrix: (Units=1/GPa)
#
#
# Indices 1 2 3 4 5 6 
#
# 1 0.010356 -0.002831 -0.003593 0.000000 0.004564 0.000000
# 2 -0.002831 0.009654 -0.002984 0.000000 -0.003502 0.000000
# 3 -0.003593 -0.002984 0.013251 0.000000 0.001004 0.000000
# 4 0.000000 0.000000 0.000000 0.043932 0.000000 0.000830
# 5 0.004564 -0.003502 0.001004 0.000000 0.032705 0.000000
# 6 0.000000 0.000000 0.000000 0.000830 0.000000 0.040821
#
#
# Mechanical properties :
#
#
# Convention : Reuss Voigt Hill
#
# Bulk Modulus (GPa) = 69.22937 71.50240 70.36589
# Shear Modulus (GPa) = 28.67781 31.18349 29.93065
#
# Velocity S-wave (km/s) = 3.88375 4.04987 3.96768
# Velocity P-wave (km/s) = 7.51822 7.71209 7.61577
#
# Compressibility (1/GPa) = 0.01444474
#
# Stress axis : x y z
#
# Youngs Moduli (GPa) = 96.55901 103.58332 75.46808
#
# Poissons Ratio (x) = 0.29328 0.27118
# Poissons Ratio (y) = 0.27339 0.22516
# Poissons Ratio (z) = 0.34697 0.30904
#
# Static dielectric constant tensor:
#      x y z
#    x 3.375970 0.000000 -0.165960 
#    y 0.000000 4.016040 0.000000 
#    z -0.165960 0.000000 3.744920 
# 
# 
# High freq. dielectric constant tensor:
#      x y z
#    x 1.722410 0.000000 -0.024090 
#    y 0.000000 1.747680 0.000000 
#    z -0.024090 0.000000 1.752620 
# 
# From -- ./inp_files/129653.got.cif
#   From: 2010.06.25/outbox.cif.g09.slc.cpg/sg12_65_cif.got.tgz:129653.got - 2010.06.28 00:19:55.
