data_PCOD8084423
_publ_section_title
;
Structure prediction by ZEFSAII (Michael W. Deem and Ramdas Pophale) SiO2 
 PCOD8084423
Probable space group: C 2/M
;
_chemical_formula_sum "Si O2"
_cell_formula_units_Z 48
_cell_length_a 21.976689
_cell_length_b 8.825743
_cell_length_c 12.408450
_cell_angle_alpha 90.000000
_cell_angle_beta 101.476058
_cell_angle_gamma 90.000000
_cell_volume 2358.634591
_symmetry_space_group_name_H-M "C 2/M"
_symmetry_group_IT_number 12
_symmetry_cell_setting 'monoclinic'
loop_
_space_group_symop_operation_xyz
x,y,z
-x,y,-z
-x,-y,-z
x,-y,z
1/2+x,1/2+y,z
1/2-x,1/2+y,-z
1/2-x,1/2-y,-z
1/2+x,1/2-y,z
loop_
_atom_site_type_symbol
_atom_site_label
_atom_site_fract_x
_atom_site_fract_y
_atom_site_fract_z
Si Si1 0.643442 0.171952 0.193029
Si Si2 0.523619 0.669963 0.124367
Si Si3 0.427617 0.318577 0.460910
Si Si4 0.596783 0.669545 0.782282
Si Si5 0.315541 0.823087 0.556382
Si Si6 0.684873 0.678430 0.994235
O O1 0.571999 0.211097 0.190161
O O2 0.682563 0.200511 0.314449
O O3 0.651019 0.000000 0.156388
O O4 0.663167 0.284449 0.105950
O O5 0.551537 0.500000 0.119600
O O6 0.471856 0.667352 0.196195
O O7 0.500000 0.727988 0.000000
O O8 0.500000 0.265703 0.500000
O O9 0.425071 0.500000 0.468136
O O10 0.404431 0.255072 0.336323
O O11 0.377906 0.251543 0.528185
O O12 0.621898 0.500000 0.775064
O O13 0.640908 0.751391 0.885622
O O14 0.250000 0.750000 0.500000
O O15 0.315449 0.000000 0.525555
O O16 0.686733 0.500000 0.982230
O O17 0.750000 0.750000 0.000000
#
# Coordination Sequence:
#
# PCOD8084423 Si02
#       6
#     8   8   8   8   8   8
#     4  11  24  41  61  89 124 160 201 256 310 365
#     4  10  18  35  62  91 121 159 200 242 298 367
#     4  10  21  40  67  95 126 166 209 256 315 381
#     4   9  19  36  60  90 123 156 195 246 303 362
#     4  11  26  45  65  91 125 166 215 269 319 375
#     4  11  23  40  60  87 123 161 202 250 303 365
#
# _framework density 20.350757999999999
#
# number of rings (size 3 to 8) (size 9 to 14) (size 15 to 20)
#    0.000    1.667    1.667    2.500    2.333    4.667 
#    0.000    1.667    0.000    0.000    0.000    0.000 
#    0.000    0.000    0.000    0.000    0.000    0.000 
#
# Total GULP energy -297445.858510 kJ/mol
# GULP energy per Si atom -12393.577438 kJ/mol
# Density = 2.030444 g / cm^3
# Si number density = 20.350758 Si / 1000 Ang^3
#
#
#
# Elastic Constant Matrix: (Units=GPa)
#
#
# Indices 1 2 3 4 5 6 
#
# 1 127.0162 40.7250 48.1203 0.0000 15.3981 0.0000
# 2 40.7250 64.3378 44.1160 0.0000 10.9883 0.0000
# 3 48.1203 44.1160 131.2148 0.0000 11.1315 0.0000
# 4 0.0000 0.0000 0.0000 27.6695 0.0000 -1.2798
# 5 15.3981 10.9883 11.1315 0.0000 32.8205 0.0000
# 6 0.0000 0.0000 0.0000 -1.2798 0.0000 29.7245
#
#
#
# Elastic Compliance Matrix: (Units=1/GPa)
#
#
# Indices 1 2 3 4 5 6 
#
# 1 0.010497 -0.004820 -0.002006 0.000000 -0.002631 0.000000
# 2 -0.004820 0.023108 -0.005701 0.000000 -0.003542 0.000000
# 3 -0.002006 -0.005701 0.010329 0.000000 -0.000653 0.000000
# 4 0.000000 0.000000 0.000000 0.036213 0.000000 0.001559
# 5 -0.002631 -0.003542 -0.000653 0.000000 0.033110 0.000000
# 6 0.000000 0.000000 0.000000 0.001559 0.000000 0.033709
#
#
# Mechanical properties :
#
#
# Convention : Reuss Voigt Hill
#
# Bulk Modulus (GPa) = 52.96526 65.38792 59.17659
# Shear Modulus (GPa) = 28.04035 30.68339 29.36187
#
# Velocity S-wave (km/s) = 3.71597 3.88716 3.80253
# Velocity P-wave (km/s) = 6.67038 7.23511 6.95848
#
# Compressibility (1/GPa) = 0.01888030
#
# Stress axis : x y z
#
# Youngs Moduli (GPa) = 95.26259 43.27508 96.81504
#
# Poissons Ratio (x) = 0.20858 0.19421
# Poissons Ratio (y) = 0.45915 0.55196
# Poissons Ratio (z) = 0.19110 0.24672
#
# Static dielectric constant tensor:
#      x y z
#    x 3.227720 0.000000 0.232770 
#    y 0.000000 3.556280 0.000000 
#    z 0.232770 0.000000 3.920370 
# 
# 
# High freq. dielectric constant tensor:
#      x y z
#    x 1.802460 0.000000 0.002830 
#    y 0.000000 1.770210 0.000000 
#    z 0.002830 0.000000 1.814090 
# 
# From -- ./inp_files/172418.got.cif
#   From: 2010.06.25/outbox.cif.g09.slc.cpg/sg12_87_cif.got.tgz:172418.got - 2010.06.28 00:19:55.
