data_PCOD8084297
_publ_section_title
;
Structure prediction by ZEFSAII (Michael W. Deem and Ramdas Pophale) SiO2 
 PCOD8084297
Probable space group: C 2/M
;
_chemical_formula_sum "Si O2"
_cell_formula_units_Z 56
_cell_length_a 5.293253
_cell_length_b 15.356126
_cell_length_c 31.779839
_cell_angle_alpha 90.000000
_cell_angle_beta 99.769614
_cell_angle_gamma 90.000000
_cell_volume 2545.726665
_symmetry_space_group_name_H-M "C 2/M"
_symmetry_group_IT_number 12
_symmetry_cell_setting 'monoclinic'
loop_
_space_group_symop_operation_xyz
x,y,z
-x,y,-z
-x,-y,-z
x,-y,z
1/2+x,1/2+y,z
1/2-x,1/2+y,-z
1/2-x,1/2-y,-z
1/2+x,1/2-y,z
loop_
_atom_site_type_symbol
_atom_site_label
_atom_site_fract_x
_atom_site_fract_y
_atom_site_fract_z
Si Si1 0.168314 0.305514 0.390107
Si Si2 0.226952 0.602717 0.477303
Si Si3 0.768438 0.347174 0.018098
Si Si4 0.554968 0.151001 0.294829
Si Si5 0.864584 0.601842 0.112707
Si Si6 0.082603 0.102010 0.835478
Si Si7 0.518275 0.346349 0.258745
O O1 0.450453 0.265353 0.393241
O O2 0.173542 0.374764 0.427596
O O3 0.098101 0.356711 0.345732
O O4 0.500000 0.642433 0.500000
O O5 0.232345 0.500000 0.482524
O O6 0.000000 0.642353 0.500000
O O7 0.820410 0.344331 0.069098
O O8 0.500000 0.395965 0.000000
O O9 0.750000 0.250000 0.000000
O O10 0.000000 0.395965 0.000000
O O11 0.546163 0.250479 0.278871
O O12 0.787941 0.103940 0.276610
O O13 0.287283 0.104015 0.275137
O O14 0.853310 0.500000 0.101620
O O15 0.640685 0.628359 0.138536
O O16 0.140951 0.628318 0.138613
O O17 0.038935 0.157669 0.792289
O O18 0.070760 0.000000 0.824089
#
# Coordination Sequence:
#
# PCOD8084297 Si02
#       7
#     8   8   8   8   8   8   8
#     4  12  21  37  63  88 121 157 202 255 294 358
#     4  10  23  42  60  85 123 160 198 251 311 366
#     4  10  21  38  56  81 114 145 178 231 278 328
#     4  10  19  35  54  79 111 147 182 229 284 329
#     4  10  21  38  58  80 110 148 187 232 278 329
#     4  10  21  37  57  83 112 145 188 229 274 333
#     4  10  18  35  56  78 110 147 180 227 281 330
#
# _framework density 21.997647000000001
#
# number of rings (size 3 to 8) (size 9 to 14) (size 15 to 20)
#    0.000    1.714    2.857    2.571    0.000    2.286 
#    0.000   18.571    0.000    0.000    0.000    0.000 
#    0.000    0.000    0.000    0.000    0.000    0.000 
#
# Total GULP energy -347152.891034 kJ/mol
# GULP energy per Si atom -12398.317537 kJ/mol
# Density = 2.194758 g / cm^3
# Si number density = 21.997647 Si / 1000 Ang^3
#
#
#
# Elastic Constant Matrix: (Units=GPa)
#
#
# Indices 1 2 3 4 5 6 
#
# 1 243.5501 8.7332 89.7567 0.0000 -1.2059 0.0000
# 2 8.7332 17.8846 24.0158 0.0000 -0.2142 0.0000
# 3 89.7567 24.0158 216.0063 0.0000 -4.3964 0.0000
# 4 0.0000 0.0000 0.0000 17.7051 0.0000 0.0222
# 5 -1.2059 -0.2142 -4.3964 0.0000 45.9665 0.0000
# 6 0.0000 0.0000 0.0000 0.0222 0.0000 2.7411
#
#
#
# Elastic Compliance Matrix: (Units=1/GPa)
#
#
# Indices 1 2 3 4 5 6 
#
# 1 0.004851 0.000399 -0.002061 0.000000 -0.000068 0.000000
# 2 0.000399 0.065766 -0.007486 0.000000 -0.000399 0.000000
# 3 -0.002061 -0.007486 0.006329 0.000000 0.000516 0.000000
# 4 0.000000 0.000000 0.000000 0.056481 0.000000 -0.000457
# 5 -0.000068 -0.000399 0.000516 0.000000 0.021801 0.000000
# 6 0.000000 0.000000 0.000000 -0.000457 0.000000 0.364820
#
#
# Mechanical properties :
#
#
# Convention : Reuss Voigt Hill
#
# Bulk Modulus (GPa) = 17.05055 80.27248 48.66151
# Shear Modulus (GPa) = 8.96226 36.94490 22.95358
#
# Velocity S-wave (km/s) = 2.02065 4.10261 3.23376
# Velocity P-wave (km/s) = 3.63483 7.68196 6.00934
#
# Compressibility (1/GPa) = 0.05864913
#
# Stress axis : x y z
#
# Youngs Moduli (GPa) = 206.14262 15.20532 158.00665
#
# Poissons Ratio (x) = -0.00606 0.32572
# Poissons Ratio (y) = -0.08215 1.18279
# Poissons Ratio (z) = 0.42495 0.11382
#
# Static dielectric constant tensor:
#      x y z
#    x 9.558060 0.000000 0.270520 
#    y 0.000000 3.312050 0.000000 
#    z 0.270520 0.000000 3.985470 
# 
# 
# High freq. dielectric constant tensor:
#      x y z
#    x 1.905950 0.000000 0.000830 
#    y 0.000000 1.813540 0.000000 
#    z 0.000830 0.000000 1.876410 
# 
# From -- ./inp_files/354956.got.cif
#   From: 2010.06.25/outbox.cif.g09.slc.cpg/sg12_178_cif.got.tgz:354956.got - 2010.06.28 00:19:55.
