data_PCOD8084988
_publ_section_title
;
Structure prediction by ZEFSAII (Michael W. Deem and Ramdas Pophale) SiO2 
 PCOD8084988
Probable space group: C 2/M
;
_chemical_formula_sum "Si O2"
_cell_formula_units_Z 48
_cell_length_a 24.213456
_cell_length_b 8.973530
_cell_length_c 14.384403
_cell_angle_alpha 90.000000
_cell_angle_beta 110.329579
_cell_angle_gamma 90.000000
_cell_volume 2930.760653
_symmetry_space_group_name_H-M "C 2/M"
_symmetry_group_IT_number 12
_symmetry_cell_setting 'monoclinic'
loop_
_space_group_symop_operation_xyz
x,y,z
-x,y,-z
-x,-y,-z
x,-y,z
1/2+x,1/2+y,z
1/2-x,1/2+y,-z
1/2-x,1/2-y,-z
1/2+x,1/2-y,z
loop_
_atom_site_type_symbol
_atom_site_label
_atom_site_fract_x
_atom_site_fract_y
_atom_site_fract_z
Si Si1 0.456436 0.674009 0.558117
Si Si2 0.286566 0.672214 0.650532
Si Si3 0.163550 0.672271 0.500568
Si Si4 0.556549 0.163659 0.968405
Si Si5 0.870556 0.676528 0.824719
Si Si6 0.019057 0.323112 0.236866
O O1 0.500000 0.710280 0.500000
O O2 0.447719 0.500000 0.569221
O O3 0.393715 0.744723 0.494768
O O4 0.484720 0.744320 0.666644
O O5 0.304047 0.500000 0.650810
O O6 0.215997 0.693068 0.606020
O O7 0.317166 0.762659 0.586420
O O8 0.310394 0.738890 0.761814
O O9 0.147962 0.500000 0.475403
O O10 0.534929 0.241454 0.859630
O O11 0.579904 0.000000 0.955647
O O12 0.500000 0.145919 0.000000
O O13 0.607679 0.240777 0.061284
O O14 0.859950 0.500000 0.824569
O O15 0.918764 0.715309 0.774368
O O16 0.012419 0.500000 0.244737
#
# Coordination Sequence:
#
# PCOD8084988 Si02
#       6
#     8   8   8   8   8   8
#     4  11  23  35  47  66  93 123 155 195 238 271
#     4  10  19  29  45  69  97 122 148 188 232 272
#     4  10  20  33  47  65  89 123 160 189 225 273
#     4   7  12  23  40  64  92 119 149 183 218 266
#     4   9  15  25  44  69  95 124 152 178 221 277
#     4   9  16  28  46  66  90 122 157 189 221 266
#
# _framework density 16.378001000000001
#
# number of rings (size 3 to 8) (size 9 to 14) (size 15 to 20)
#    0.000    2.667    1.667    3.500    0.000    3.333 
#    0.000    0.833    0.000    3.000    0.000    1.167 
#    0.000    0.000    0.000    0.000    0.000    0.000 
#
# Total GULP energy -297360.053331 kJ/mol
# GULP energy per Si atom -12390.002222 kJ/mol
# Density = 1.634072 g / cm^3
# Si number density = 16.378001 Si / 1000 Ang^3
#
#
#
# Elastic Constant Matrix: (Units=GPa)
#
#
# Indices 1 2 3 4 5 6 
#
# 1 66.0504 38.4353 52.3442 0.0000 11.2538 0.0000
# 2 38.4353 63.6512 52.9926 0.0000 4.9765 0.0000
# 3 52.3442 52.9926 149.9438 0.0000 29.3404 0.0000
# 4 0.0000 0.0000 0.0000 21.2834 0.0000 3.2616
# 5 11.2538 4.9765 29.3404 0.0000 23.9013 0.0000
# 6 0.0000 0.0000 0.0000 3.2616 0.0000 21.0062
#
#
#
# Elastic Compliance Matrix: (Units=1/GPa)
#
#
# Indices 1 2 3 4 5 6 
#
# 1 0.026131 -0.012206 -0.003814 0.000000 -0.005080 0.000000
# 2 -0.012206 0.028785 -0.007718 0.000000 0.009228 0.000000
# 3 -0.003814 -0.007718 0.013244 0.000000 -0.012855 0.000000
# 4 0.000000 0.000000 0.000000 0.048130 0.000000 -0.007473
# 5 -0.005080 0.009228 -0.012855 0.000000 0.058089 0.000000
# 6 0.000000 0.000000 0.000000 -0.007473 0.000000 0.048765
#
#
# Mechanical properties :
#
#
# Convention : Reuss Voigt Hill
#
# Bulk Modulus (GPa) = 48.34806 63.02106 55.68456
# Shear Modulus (GPa) = 18.01699 22.29639 20.15669
#
# Velocity S-wave (km/s) = 3.32033 3.69367 3.51196
# Velocity P-wave (km/s) = 6.65460 7.53349 7.10764
#
# Compressibility (1/GPa) = 0.02068335
#
# Stress axis : x y z
#
# Youngs Moduli (GPa) = 38.26831 34.74004 75.50848
#
# Poissons Ratio (x) = 0.42405 0.28801
# Poissons Ratio (y) = 0.46712 0.58275
# Poissons Ratio (z) = 0.14596 0.26811
#
# Static dielectric constant tensor:
#      x y z
#    x 2.796410 0.000000 0.399850 
#    y 0.000000 2.963890 0.000000 
#    z 0.399850 0.000000 3.456450 
# 
# 
# High freq. dielectric constant tensor:
#      x y z
#    x 1.579630 0.000000 0.035410 
#    y 0.000000 1.619500 0.000000 
#    z 0.035410 0.000000 1.642080 
# 
# From -- ./inp_files/236606.got.cif
#   From: 2010.06.25/outbox.cif.g09.slc.cpg/sg12_119_cif.got.tgz:236606.got - 2010.06.28 00:19:55.
