data_PCOD8084781
_publ_section_title
;
Structure prediction by ZEFSAII (Michael W. Deem and Ramdas Pophale) SiO2 
 PCOD8084781
Probable space group: C 2/M
;
_chemical_formula_sum "Si O2"
_cell_formula_units_Z 56
_cell_length_a 5.268948
_cell_length_b 26.286338
_cell_length_c 21.087229
_cell_angle_alpha 90.000000
_cell_angle_beta 72.389121
_cell_angle_gamma 90.000000
_cell_volume 2783.730127
_symmetry_space_group_name_H-M "C 2/M"
_symmetry_group_IT_number 12
_symmetry_cell_setting 'monoclinic'
loop_
_space_group_symop_operation_xyz
x,y,z
-x,y,-z
-x,-y,-z
x,-y,z
1/2+x,1/2+y,z
1/2-x,1/2+y,-z
1/2-x,1/2-y,-z
1/2+x,1/2-y,z
loop_
_atom_site_type_symbol
_atom_site_label
_atom_site_fract_x
_atom_site_fract_y
_atom_site_fract_z
Si Si1 0.638664 0.110351 0.771954
Si Si2 0.646109 0.228135 0.073524
Si Si3 0.650715 0.718631 0.432404
Si Si4 0.935083 0.942283 0.928354
Si Si5 0.243377 0.716932 0.712891
Si Si6 0.560955 0.109758 0.074369
Si Si7 0.140249 0.941738 0.770152
O O1 0.650782 0.171364 0.765202
O O2 0.547462 0.095247 0.848795
O O3 0.423636 0.086608 0.739648
O O4 0.928378 0.085198 0.739143
O O5 0.355970 0.252764 0.111459
O O6 0.640368 0.168188 0.066688
O O7 0.750000 0.250000 0.000000
O O8 0.500000 0.686023 0.500000
O O9 0.442817 0.765307 0.435105
O O10 0.685126 0.691688 0.361392
O O11 0.178255 0.925972 0.957207
O O12 0.043930 0.936287 0.849406
O O13 0.680857 0.903715 0.956202
O O14 0.847142 0.000000 0.948517
O O15 0.502887 0.743059 0.723864
O O16 0.172666 0.000000 0.747249
#
# Coordination Sequence:
#
# PCOD8084781 Si02
#       7
#     8   8   8   8   8   8   8
#     4  10  19  29  44  68  95 122 150 181 223 273
#     4  10  21  36  52  71  90 120 159 191 217 246
#     4   8  14  25  40  56  77 111 153 189 221 258
#     4   9  17  30  49  74  98 119 144 180 229 278
#     4  10  19  29  41  61  93 127 151 181 223 267
#     4  10  19  31  49  72  96 121 151 185 220 266
#     4   9  17  30  46  64  91 122 152 187 223 264
#
# _framework density 20.116893000000001
#
# number of rings (size 3 to 8) (size 9 to 14) (size 15 to 20)
#    0.000    2.571    0.000    2.571    0.000    4.571 
#    0.000    0.000    0.000    0.000    0.000   40.000 
#    0.000    3.429    0.000    0.000    0.000    0.000 
#
# Total GULP energy -347065.940322 kJ/mol
# GULP energy per Si atom -12395.212154 kJ/mol
# Density = 2.007111 g / cm^3
# Si number density = 20.116893 Si / 1000 Ang^3
#
#
#
# Elastic Constant Matrix: (Units=GPa)
#
#
# Indices 1 2 3 4 5 6 
#
# 1 187.9140 74.6194 17.3485 0.0000 -3.5018 0.0000
# 2 74.6194 123.0257 -8.0405 0.0000 -6.7013 0.0000
# 3 17.3485 -8.0405 28.5395 0.0000 -5.8583 0.0000
# 4 0.0000 0.0000 0.0000 4.6115 0.0000 -1.6664
# 5 -3.5018 -6.7013 -5.8583 0.0000 16.0048 0.0000
# 6 0.0000 0.0000 0.0000 -1.6664 0.0000 39.0181
#
#
#
# Elastic Compliance Matrix: (Units=1/GPa)
#
#
# Indices 1 2 3 4 5 6 
#
# 1 0.008140 -0.005579 -0.007173 0.000000 -0.003180 0.000000
# 2 -0.005579 0.012441 0.008342 0.000000 0.007042 0.000000
# 3 -0.007173 0.008342 0.045568 0.000000 0.018603 0.000000
# 4 0.000000 0.000000 0.000000 0.220248 0.000000 0.009406
# 5 -0.003180 0.007042 0.018603 0.000000 0.071543 0.000000
# 6 0.000000 0.000000 0.000000 0.009406 0.000000 0.026031
#
#
# Mechanical properties :
#
#
# Convention : Reuss Voigt Hill
#
# Bulk Modulus (GPa) = 17.44312 56.37046 36.90679
# Shear Modulus (GPa) = 12.13884 28.96366 20.55125
#
# Velocity S-wave (km/s) = 2.45912 3.79854 3.19970
# Velocity P-wave (km/s) = 4.09301 6.87902 5.66010
#
# Compressibility (1/GPa) = 0.05732920
#
# Stress axis : x y z
#
# Youngs Moduli (GPa) = 122.85027 80.37839 21.94518
#
# Poissons Ratio (x) = 0.44845 0.15741
# Poissons Ratio (y) = 0.68541 -0.18307
# Poissons Ratio (z) = 0.88118 -0.67052
#
# Static dielectric constant tensor:
#      x y z
#    x 2.408520 0.000000 0.009830 
#    y 0.000000 3.444730 0.000000 
#    z 0.009830 0.000000 3.655600 
# 
# 
# High freq. dielectric constant tensor:
#      x y z
#    x 1.828310 0.000000 -0.002970 
#    y 0.000000 1.751040 0.000000 
#    z -0.002970 0.000000 1.750520 
# 
# From -- ./inp_files/298023.got.cif
#   From: 2010.06.25/outbox.cif.g09.slc.cpg/sg12_150_cif.got.tgz:298023.got - 2010.06.28 00:19:55.
