data_PCOD8084513
_publ_section_title
;
Structure prediction by ZEFSAII (Michael W. Deem and Ramdas Pophale) SiO2 
 PCOD8084513
Probable space group: C 2/M
;
_chemical_formula_sum "Si O2"
_cell_formula_units_Z 64
_cell_length_a 17.064059
_cell_length_b 22.244358
_cell_length_c 14.334829
_cell_angle_alpha 90.000000
_cell_angle_beta 146.981836
_cell_angle_gamma 90.000000
_cell_volume 2964.936779
_symmetry_space_group_name_H-M "C 2/M"
_symmetry_group_IT_number 12
_symmetry_cell_setting 'monoclinic'
loop_
_space_group_symop_operation_xyz
x,y,z
-x,y,-z
-x,-y,-z
x,-y,z
1/2+x,1/2+y,z
1/2-x,1/2+y,-z
1/2-x,1/2-y,-z
1/2+x,1/2-y,z
loop_
_atom_site_type_symbol
_atom_site_label
_atom_site_fract_x
_atom_site_fract_y
_atom_site_fract_z
Si Si1 0.874811 0.761461 0.808212
Si Si2 0.298821 0.129680 0.954125
Si Si3 0.872625 0.237350 0.309114
Si Si4 0.641078 0.863169 0.774296
Si Si5 0.646782 0.608627 0.181200
Si Si6 0.869941 0.360801 0.727390
Si Si7 0.866110 0.432359 0.539764
Si Si8 0.667061 0.432031 0.665615
O O1 0.728461 0.767717 0.716874
O O2 0.903062 0.831115 0.809441
O O3 0.855230 0.712313 0.705979
O O4 0.000000 0.736037 0.000000
O O5 0.210817 0.188734 0.835385
O O6 0.221901 0.073307 0.827143
O O7 0.288073 0.124490 0.054266
O O8 0.463578 0.126655 0.083859
O O9 0.917522 0.294054 0.288528
O O10 0.000000 0.209242 0.500000
O O11 0.758945 0.878111 0.815657
O O12 0.504087 0.906396 0.623410
O O13 0.731634 0.565401 0.335532
O O14 0.500000 0.576637 0.000000
O O15 0.824851 0.390063 0.585131
O O16 0.762147 0.385847 0.699052
O O17 0.897560 0.500000 0.606041
O O18 0.500000 0.413965 0.500000
O O19 0.688795 0.500000 0.650734
#
# Coordination Sequence:
#
# PCOD8084513 Si02
#       8
#     8   8   8   8   8   8   8   8
#     4  10  18  36  62  90 132 166 205 255 324 398
#     4  11  22  37  62  95 127 173 217 263 321 392
#     4  11  20  36  61  93 130 168 207 260 328 390
#     4  10  23  41  63  92 128 168 218 272 323 386
#     4  10  23  42  64  95 129 168 213 277 336 388
#     4  11  22  40  66  96 130 174 217 266 325 394
#     4  11  25  45  67  93 126 174 232 275 318 385
#     4  11  24  41  61  93 136 176 217 270 324 384
#
# _framework density 21.585619999999999
#
# number of rings (size 3 to 8) (size 9 to 14) (size 15 to 20)
#    0.000    1.375    2.500    3.375    0.000    5.750 
#    0.000    0.000    0.000    0.000    0.000    0.000 
#    0.000    0.000    0.000    0.000    0.000    0.000 
#
# Total GULP energy -396530.401945 kJ/mol
# GULP energy per Si atom -12391.575061 kJ/mol
# Density = 2.153649 g / cm^3
# Si number density = 21.585620 Si / 1000 Ang^3
#
#
#
# Elastic Constant Matrix: (Units=GPa)
#
#
# Indices 1 2 3 4 5 6 
#
# 1 82.1785 33.4791 46.8148 0.0000 -0.2906 0.0000
# 2 33.4791 75.5817 28.8239 0.0000 3.4759 0.0000
# 3 46.8148 28.8239 151.3633 0.0000 0.8001 0.0000
# 4 0.0000 0.0000 0.0000 27.3280 0.0000 -3.5214
# 5 -0.2906 3.4759 0.8001 0.0000 21.3305 0.0000
# 6 0.0000 0.0000 0.0000 -3.5214 0.0000 25.9648
#
#
#
# Elastic Compliance Matrix: (Units=1/GPa)
#
#
# Indices 1 2 3 4 5 6 
#
# 1 0.016962 -0.006009 -0.004109 0.000000 0.001364 0.000000
# 2 -0.006009 0.016502 -0.001269 0.000000 -0.002723 0.000000
# 3 -0.004109 -0.001269 0.008120 0.000000 -0.000154 0.000000
# 4 0.000000 0.000000 0.000000 0.037243 0.000000 0.005051
# 5 0.001364 -0.002723 -0.000154 0.000000 0.047349 0.000000
# 6 0.000000 0.000000 0.000000 0.005051 0.000000 0.039199
#
#
# Mechanical properties :
#
#
# Convention : Reuss Voigt Hill
#
# Bulk Modulus (GPa) = 53.16679 58.59545 55.88112
# Shear Modulus (GPa) = 25.71739 28.25839 26.98789
#
# Velocity S-wave (km/s) = 3.45543 3.62212 3.53975
# Velocity P-wave (km/s) = 6.37214 6.68562 6.53076
#
# Compressibility (1/GPa) = 0.01880873
#
# Stress axis : x y z
#
# Youngs Moduli (GPa) = 58.95368 60.59913 123.15135
#
# Poissons Ratio (x) = 0.36415 0.50605
# Poissons Ratio (y) = 0.35427 0.15633
# Poissons Ratio (z) = 0.24225 0.07693
#
# Static dielectric constant tensor:
#      x y z
#    x 3.732960 0.000000 0.107820 
#    y 0.000000 3.878970 0.000000 
#    z 0.107820 0.000000 4.003980 
# 
# 
# High freq. dielectric constant tensor:
#      x y z
#    x 1.829010 0.000000 0.009920 
#    y 0.000000 1.845560 0.000000 
#    z 0.009920 0.000000 1.857920 
# 
# From -- ./inp_files/228200.got.cif
#   From: 2010.06.25/outbox.cif.g09.slc.cpg/sg12_115_cif.got.tgz:228200.got - 2010.06.28 00:19:55.
