data_PCOD8084697
_publ_section_title
;
Structure prediction by ZEFSAII (Michael W. Deem and Ramdas Pophale) SiO2 
 PCOD8084697
Probable space group: C 2/M
;
_chemical_formula_sum "Si O2"
_cell_formula_units_Z 56
_cell_length_a 30.783691
_cell_length_b 13.591002
_cell_length_c 9.119850
_cell_angle_alpha 90.000000
_cell_angle_beta 107.232847
_cell_angle_gamma 90.000000
_cell_volume 3644.287692
_symmetry_space_group_name_H-M "C 2/M"
_symmetry_group_IT_number 12
_symmetry_cell_setting 'monoclinic'
loop_
_space_group_symop_operation_xyz
x,y,z
-x,y,-z
-x,-y,-z
x,-y,z
1/2+x,1/2+y,z
1/2-x,1/2+y,-z
1/2-x,1/2-y,-z
1/2+x,1/2-y,z
loop_
_atom_site_type_symbol
_atom_site_label
_atom_site_fract_x
_atom_site_fract_y
_atom_site_fract_z
Si Si1 0.098242 0.387468 0.773141
Si Si2 0.318649 0.202704 0.989495
Si Si3 0.237277 0.889686 0.069628
Si Si4 0.598242 0.112532 0.423343
Si Si5 1.000000 0.616154 0.659690
Si Si6 0.737277 0.389686 0.404926
Si Si7 0.181351 0.297296 0.352197
O O1 0.109622 0.500000 0.828906
O O2 0.099400 0.376332 0.599400
O O3 0.047946 0.355883 0.785729
O O4 0.134024 0.314272 0.881529
O O5 0.303486 0.314727 0.008203
O O6 0.325430 0.182662 0.825430
O O7 0.280548 0.128225 0.010289
O O8 0.253450 0.874665 0.253450
O O9 0.219027 0.000000 0.024493
O O10 0.547946 0.144117 0.310163
O O11 0.634024 0.185728 0.386519
O O12 0.609622 0.000000 0.390337
O O13 0.000000 0.500000 0.637354
O O14 0.000000 0.666896 0.500000
O O15 0.719027 0.500000 0.413561
O O16 0.780548 0.371775 0.550807
O O17 0.696515 0.314727 0.401232
#
# Coordination Sequence:
#
# PCOD8084697 Si02
#       7
#     8   8   8   8   8   8   8
#     4   9  16  27  43  61  83 111 138 162 193 238
#     4  10  19  28  41  63  85 104 132 170 206 236
#     4   9  18  32  45  56  77 111 143 166 193 236
#     4   9  16  27  43  61  83 111 138 162 193 238
#     4   7  12  24  41  59  78 105 140 166 185 227
#     4   9  18  32  45  56  77 111 143 166 193 236
#     4  10  19  28  41  63  85 104 132 170 206 236
#
# _framework density 15.366515
#
# number of rings (size 3 to 8) (size 9 to 14) (size 15 to 20)
#    0.000    3.000    0.000    3.429    0.000    5.714 
#    0.000    0.714    0.000    2.571    0.000    1.000 
#    0.000    8.000    0.000    0.000    0.000    0.000 
#
# Total GULP energy -346971.094959 kJ/mol
# GULP energy per Si atom -12391.824820 kJ/mol
# Density = 1.533154 g / cm^3
# Si number density = 15.366515 Si / 1000 Ang^3
#
#
#
# Elastic Constant Matrix: (Units=GPa)
#
#
# Indices 1 2 3 4 5 6 
#
# 1 137.5185 53.0538 47.2282 0.0000 13.3251 0.0000
# 2 53.0538 83.1022 29.7809 0.0000 6.0337 0.0000
# 3 47.2282 29.7809 50.5488 0.0000 9.2227 0.0000
# 4 0.0000 0.0000 0.0000 19.6560 0.0000 0.3624
# 5 13.3251 6.0337 9.2227 0.0000 20.5107 0.0000
# 6 0.0000 0.0000 0.0000 0.3624 0.0000 21.0536
#
#
#
# Elastic Compliance Matrix: (Units=1/GPa)
#
#
# Indices 1 2 3 4 5 6 
#
# 1 0.012104 -0.004632 -0.008055 0.000000 -0.002879 0.000000
# 2 -0.004632 0.017031 -0.005819 0.000000 0.000615 0.000000
# 3 -0.008055 -0.005819 0.032103 0.000000 -0.007491 0.000000
# 4 0.000000 0.000000 0.000000 0.050891 0.000000 -0.000876
# 5 -0.002879 0.000615 -0.007491 0.000000 0.053813 0.000000
# 6 0.000000 0.000000 0.000000 -0.000876 0.000000 0.047513
#
#
# Mechanical properties :
#
#
# Convention : Reuss Voigt Hill
#
# Bulk Modulus (GPa) = 41.27470 59.03282 50.15376
# Shear Modulus (GPa) = 19.33933 21.65115 20.49524
#
# Velocity S-wave (km/s) = 3.55144 3.75771 3.65603
# Velocity P-wave (km/s) = 6.61327 7.57147 7.10853
#
# Compressibility (1/GPa) = 0.02422792
#
# Stress axis : x y z
#
# Youngs Moduli (GPa) = 82.61837 58.71696 31.14967
#
# Poissons Ratio (x) = 0.27196 0.25090
# Poissons Ratio (y) = 0.38267 0.18125
# Poissons Ratio (z) = 0.66546 0.34165
#
# Static dielectric constant tensor:
#      x y z
#    x 3.129690 0.000000 0.070820 
#    y 0.000000 2.789360 0.000000 
#    z 0.070820 0.000000 2.856530 
# 
# 
# High freq. dielectric constant tensor:
#      x y z
#    x 1.588940 0.000000 0.002520 
#    y 0.000000 1.559050 0.000000 
#    z 0.002520 0.000000 1.579220 
# 
# From -- ./inp_files/110882.got.cif
#   From: 2010.06.25/outbox.cif.g09.slc.cpg/sg12_56_cif.got.tgz:110882.got - 2010.06.28 00:19:55.
