data_PCOD8084735
_publ_section_title
;
Structure prediction by ZEFSAII (Michael W. Deem and Ramdas Pophale) SiO2 
 PCOD8084735
Probable space group: C 2/M
;
_chemical_formula_sum "Si O2"
_cell_formula_units_Z 56
_cell_length_a 19.257506
_cell_length_b 9.510123
_cell_length_c 28.181164
_cell_angle_alpha 90.000000
_cell_angle_beta 141.289144
_cell_angle_gamma 90.000000
_cell_volume 3227.724017
_symmetry_space_group_name_H-M "C 2/M"
_symmetry_group_IT_number 12
_symmetry_cell_setting 'monoclinic'
loop_
_space_group_symop_operation_xyz
x,y,z
-x,y,-z
-x,-y,-z
x,-y,z
1/2+x,1/2+y,z
1/2-x,1/2+y,-z
1/2-x,1/2-y,-z
1/2+x,1/2-y,z
loop_
_atom_site_type_symbol
_atom_site_label
_atom_site_fract_x
_atom_site_fract_y
_atom_site_fract_z
Si Si1 0.152021 0.161092 0.712321
Si Si2 0.900597 0.160123 0.059548
Si Si3 0.854942 0.841486 0.809421
Si Si4 0.176405 0.337136 0.893937
Si Si5 0.178182 0.161539 0.317592
Si Si6 0.544564 0.337290 0.751209
Si Si7 0.887538 0.165247 0.415115
O O1 0.264085 0.243502 0.785602
O O2 0.058348 0.187578 0.702171
O O3 0.104245 0.209335 0.635903
O O4 0.187716 0.000000 0.729255
O O5 0.880872 0.270484 0.090710
O O6 0.023243 0.188034 0.103514
O O7 0.894797 0.000000 0.076935
O O8 0.809926 0.179598 0.969623
O O9 0.864220 0.812008 0.758212
O O10 0.816394 0.000000 0.798772
O O11 0.141314 0.500000 0.871959
O O12 0.137122 0.256557 0.826263
O O13 0.285314 0.256255 0.385895
O O14 0.079385 0.208769 0.300172
O O15 0.211268 0.000000 0.343764
O O16 0.564435 0.500000 0.775645
O O17 0.000000 0.216090 0.500000
O O18 0.868987 0.000000 0.411911
#
# Coordination Sequence:
#
# PCOD8084735 Si02
#       7
#     8   8   8   8   8   8   8
#     4   9  19  33  51  72  96 130 165 196 241 297
#     4   9  17  31  47  68  98 131 166 205 251 292
#     4   9  16  30  50  69  93 126 164 205 243 282
#     4  10  19  28  46  73  98 127 166 210 248 287
#     4   9  17  30  51  73  93 126 165 197 233 285
#     4  10  19  34  50  68 100 134 163 200 246 294
#     4   9  18  34  54  76 101 125 154 198 245 287
#
# _framework density 17.349685999999998
#
# number of rings (size 3 to 8) (size 9 to 14) (size 15 to 20)
#    0.000    2.714    1.429    0.429    0.000    2.571 
#    0.000    1.429    0.000    4.286    0.000    0.000 
#    0.000    0.000    0.000    0.000    0.000    0.000 
#
# Total GULP energy -347165.400938 kJ/mol
# GULP energy per Si atom -12398.764319 kJ/mol
# Density = 1.731020 g / cm^3
# Si number density = 17.349686 Si / 1000 Ang^3
#
#
#
# Elastic Constant Matrix: (Units=GPa)
#
#
# Indices 1 2 3 4 5 6 
#
# 1 102.7964 41.4715 50.6915 0.0000 15.1444 0.0000
# 2 41.4715 68.3444 51.5297 0.0000 8.7129 -0.0001
# 3 50.6915 51.5297 113.9250 0.0000 19.0107 0.0000
# 4 0.0000 0.0000 0.0000 27.6994 0.0000 5.8291
# 5 15.1444 8.7129 19.0107 0.0000 22.7242 0.0000
# 6 0.0000 -0.0001 0.0000 5.8291 0.0000 23.7916
#
#
#
# Elastic Compliance Matrix: (Units=1/GPa)
#
#
# Indices 1 2 3 4 5 6 
#
# 1 0.014214 -0.005840 -0.002878 0.000000 -0.004826 0.000000
# 2 -0.005840 0.024604 -0.008839 0.000000 0.001853 0.000000
# 3 -0.002878 -0.008839 0.015308 0.000000 -0.007499 0.000000
# 4 0.000000 0.000000 0.000000 0.038064 0.000000 -0.009326
# 5 -0.004826 0.001853 -0.007499 0.000000 0.052785 0.000000
# 6 0.000000 0.000000 0.000000 -0.009326 0.000000 0.044317
#
#
# Mechanical properties :
#
#
# Convention : Reuss Voigt Hill
#
# Bulk Modulus (GPa) = 52.60024 63.60569 58.10296
# Shear Modulus (GPa) = 21.66906 24.26793 22.96850
#
# Velocity S-wave (km/s) = 3.53790 3.74405 3.64243
# Velocity P-wave (km/s) = 6.86094 7.44521 7.15904
#
# Compressibility (1/GPa) = 0.01901132
#
# Stress axis : x y z
#
# Youngs Moduli (GPa) = 70.35211 40.64395 65.32679
#
# Poissons Ratio (x) = 0.23737 0.18799
# Poissons Ratio (y) = 0.41087 0.57744
# Poissons Ratio (z) = 0.20245 0.35926
#
# Static dielectric constant tensor:
#      x y z
#    x 3.089790 0.000000 0.114820 
#    y 0.000000 3.267680 0.000000 
#    z 0.114820 0.000000 3.255590 
# 
# 
# High freq. dielectric constant tensor:
#      x y z
#    x 1.650380 0.000000 0.014420 
#    y 0.000000 1.671840 0.000000 
#    z 0.014420 0.000000 1.658360 
# 
# From -- ./inp_files/280416.got.cif
#   From: 2010.06.25/outbox.cif.g09.slc.cpg/sg12_141_cif.got.tgz:280416.got - 2010.06.28 00:19:55.
