data_PCOD8084617
_publ_section_title
;
Structure prediction by ZEFSAII (Michael W. Deem and Ramdas Pophale) SiO2 
 PCOD8084617
Probable space group: C 2/M
;
_chemical_formula_sum "Si O2"
_cell_formula_units_Z 44
_cell_length_a 19.372296
_cell_length_b 10.020726
_cell_length_c 11.327686
_cell_angle_alpha 90.000000
_cell_angle_beta 115.852222
_cell_angle_gamma 90.000000
_cell_volume 1978.910776
_symmetry_space_group_name_H-M "C 2/M"
_symmetry_group_IT_number 12
_symmetry_cell_setting 'monoclinic'
loop_
_space_group_symop_operation_xyz
x,y,z
-x,y,-z
-x,-y,-z
x,-y,z
1/2+x,1/2+y,z
1/2-x,1/2+y,-z
1/2-x,1/2-y,-z
1/2+x,1/2-y,z
loop_
_atom_site_type_symbol
_atom_site_label
_atom_site_fract_x
_atom_site_fract_y
_atom_site_fract_z
Si Si1 0.105383 0.500000 0.565466
Si Si2 0.176705 0.000000 0.568926
Si Si3 0.717702 0.500000 0.334958
Si Si4 0.464448 0.718091 0.155704
Si Si5 0.346544 0.000000 0.779615
Si Si6 0.381148 0.289533 0.859855
Si Si7 0.010757 0.500000 0.265640
Si Si8 0.578214 0.287598 0.623795
O O1 0.191076 0.500000 0.572366
O O2 0.031038 0.500000 0.421223
O O3 0.100156 0.630813 0.644169
O O4 0.141942 0.133586 0.598516
O O5 0.170862 0.000000 0.422823
O O6 0.264020 0.000000 0.665155
O O7 0.693032 0.370477 0.239459
O O8 0.551586 0.680659 0.185242
O O9 0.433707 0.651483 0.253549
O O10 0.463196 0.875934 0.180601
O O11 0.408489 0.667273 0.010502
O O12 0.361667 0.866010 0.864932
O O13 0.402396 0.000000 0.711355
O O14 0.500000 0.313973 0.500000
#
# Coordination Sequence:
#
# PCOD8084617 Si02
#       8
#     4   4   4   8   4   8   4   8
#     4  12  24  40  69  99 124 168 210 265 319 372
#     4  12  27  40  62  91 134 171 203 266 327 379
#     4  12  26  43  61  97 132 169 215 257 322 384
#     4  10  21  40  67  96 125 167 217 261 316 370
#     4  10  21  41  64  95 120 166 220 257 313 371
#     4  10  23  42  68  93 127 171 214 263 308 380
#     4  10  18  38  69  97 124 158 216 273 300 365
#     4  12  24  41  63  98 129 162 212 266 325 371
#
# _framework density 22.234453999999999
#
# number of rings (size 3 to 8) (size 9 to 14) (size 15 to 20)
#    0.000    1.091    2.727    3.818    2.545    6.545 
#    0.000    5.455    0.000    0.000    0.000    0.000 
#    0.000    0.000    0.000    0.000    0.000    0.000 
#
# Total GULP energy -272662.465979 kJ/mol
# GULP energy per Si atom -12393.748454 kJ/mol
# Density = 2.218385 g / cm^3
# Si number density = 22.234454 Si / 1000 Ang^3
#
#
#
# Elastic Constant Matrix: (Units=GPa)
#
#
# Indices 1 2 3 4 5 6 
#
# 1 67.1346 22.5407 44.4345 0.0000 -17.0708 0.0000
# 2 22.5407 90.4104 27.5364 0.0000 -3.4742 0.0000
# 3 44.4345 27.5364 117.8163 0.0000 -15.6907 0.0000
# 4 0.0000 0.0000 0.0000 10.8362 0.0000 -5.2838
# 5 -17.0708 -3.4742 -15.6907 0.0000 39.5394 0.0000
# 6 0.0000 0.0000 0.0000 -5.2838 0.0000 27.2568
#
#
#
# Elastic Compliance Matrix: (Units=1/GPa)
#
#
# Indices 1 2 3 4 5 6 
#
# 1 0.022086 -0.003212 -0.006701 0.000000 0.006594 0.000000
# 2 -0.003212 0.012376 -0.001817 0.000000 -0.001020 0.000000
# 3 -0.006701 -0.001817 0.011649 0.000000 0.001570 0.000000
# 4 0.000000 0.000000 0.000000 0.101917 0.000000 0.019757
# 5 0.006594 -0.001020 0.001570 0.000000 0.028672 0.000000
# 6 0.000000 0.000000 0.000000 0.019757 0.000000 0.040518
#
#
# Mechanical properties :
#
#
# Convention : Reuss Voigt Hill
#
# Bulk Modulus (GPa) = 44.14895 51.59828 47.87361
# Shear Modulus (GPa) = 20.14293 27.58311 23.86302
#
# Velocity S-wave (km/s) = 3.01314 3.52598 3.27960
# Velocity P-wave (km/s) = 5.65725 6.31138 5.99325
#
# Compressibility (1/GPa) = 0.02265060
#
# Stress axis : x y z
#
# Youngs Moduli (GPa) = 45.27831 80.80369 85.84632
#
# Poissons Ratio (x) = 0.25955 0.57523
# Poissons Ratio (y) = 0.14544 0.15598
# Poissons Ratio (z) = 0.30340 0.14682
#
# Static dielectric constant tensor:
#      x y z
#    x 4.825400 0.000000 -0.711900 
#    y 0.000000 4.101540 0.000000 
#    z -0.711900 0.000000 4.368120 
# 
# 
# High freq. dielectric constant tensor:
#      x y z
#    x 1.875910 0.000000 -0.005840 
#    y 0.000000 1.877410 0.000000 
#    z -0.005840 0.000000 1.870490 
# 
# From -- ./inp_files/154461.got.cif
#   From: 2010.06.25/outbox.cif.g09.slc.cpg/sg12_78_cif.got.tgz:154461.got - 2010.06.28 00:19:55.
