data_PCOD8084271
_publ_section_title
;
Structure prediction by ZEFSAII (Michael W. Deem and Ramdas Pophale) SiO2 
 PCOD8084271
Probable space group: C 2/M
;
_chemical_formula_sum "Si O2"
_cell_formula_units_Z 56
_cell_length_a 19.493786
_cell_length_b 17.082128
_cell_length_c 13.226810
_cell_angle_alpha 90.000000
_cell_angle_beta 133.941401
_cell_angle_gamma 90.000000
_cell_volume 3171.435367
_symmetry_space_group_name_H-M "C 2/M"
_symmetry_group_IT_number 12
_symmetry_cell_setting 'monoclinic'
loop_
_space_group_symop_operation_xyz
x,y,z
-x,y,-z
-x,-y,-z
x,-y,z
1/2+x,1/2+y,z
1/2-x,1/2+y,-z
1/2-x,1/2-y,-z
1/2+x,1/2-y,z
loop_
_atom_site_type_symbol
_atom_site_label
_atom_site_fract_x
_atom_site_fract_y
_atom_site_fract_z
Si Si1 0.107828 0.774635 0.813419
Si Si2 0.197237 0.087922 0.011814
Si Si3 0.237091 0.284085 0.776009
Si Si4 0.608896 0.825175 0.134951
Si Si5 0.573690 0.085525 0.296371
Si Si6 0.441447 0.191578 0.534225
Si Si7 0.134194 0.618402 0.956094
O O1 0.198676 0.768748 0.830608
O O2 0.119807 0.709606 0.911963
O O3 0.006694 0.760163 0.652742
O O4 0.113093 0.859007 0.875032
O O5 0.240016 0.129065 0.156688
O O6 0.281087 0.077305 0.016368
O O7 0.159411 0.000000 0.998873
O O8 0.330954 0.253955 0.815501
O O9 0.157306 0.276712 0.608575
O O10 0.621776 0.861386 0.258936
O O11 0.500000 0.804127 0.000000
O O12 0.649682 0.886152 0.093037
O O13 0.588538 0.124265 0.419873
O O14 0.461859 0.072266 0.165985
O O15 0.622670 0.000000 0.346046
O O16 0.500000 0.154550 0.500000
#
# Coordination Sequence:
#
# PCOD8084271 Si02
#       7
#     8   8   8   8   8   8   8
#     4   9  16  33  53  78 105 134 175 213 254 314
#     4  11  19  28  55  86 107 131 168 224 274 300
#     4  10  18  35  53  77 103 136 181 213 249 309
#     4  10  19  31  52  75 100 142 172 210 248 302
#     4  10  21  32  46  77 110 132 164 206 263 321
#     4   9  20  34  57  75  99 139 173 211 259 307
#     4   9  16  31  50  75 105 135 164 210 259 311
#
# _framework density 17.657619
#
# number of rings (size 3 to 8) (size 9 to 14) (size 15 to 20)
#    0.000    2.286    2.857    2.143    0.000    4.571 
#    0.000    0.000    0.000    5.143    0.000    0.000 
#    0.000    0.000    0.000    0.000    0.000    0.000 
#
# Total GULP energy -346954.088512 kJ/mol
# GULP energy per Si atom -12391.217447 kJ/mol
# Density = 1.761743 g / cm^3
# Si number density = 17.657619 Si / 1000 Ang^3
#
#
#
# Elastic Constant Matrix: (Units=GPa)
#
#
# Indices 1 2 3 4 5 6 
#
# 1 90.4449 29.0094 33.0282 0.0000 -5.1511 0.0000
# 2 29.0094 112.4326 42.6408 0.0000 1.3099 0.0000
# 3 33.0282 42.6408 88.1743 0.0000 -11.0631 0.0000
# 4 0.0000 0.0000 0.0000 9.6236 0.0000 1.9197
# 5 -5.1511 1.3099 -11.0631 0.0000 23.6613 0.0000
# 6 0.0000 0.0000 0.0000 1.9197 0.0000 10.9514
#
#
#
# Elastic Compliance Matrix: (Units=1/GPa)
#
#
# Indices 1 2 3 4 5 6 
#
# 1 0.013150 -0.001953 -0.003833 0.000000 0.001178 0.000000
# 2 -0.001953 0.011423 -0.005232 0.000000 -0.003504 0.000000
# 3 -0.003833 -0.005232 0.016189 0.000000 0.007024 0.000000
# 4 0.000000 0.000000 0.000000 0.107676 0.000000 -0.018875
# 5 0.001178 -0.003504 0.007024 0.000000 0.045998 0.000000
# 6 0.000000 0.000000 0.000000 -0.018875 0.000000 0.094622
#
#
# Mechanical properties :
#
#
# Convention : Reuss Voigt Hill
#
# Bulk Modulus (GPa) = 53.40547 55.60096 54.50322
# Shear Modulus (GPa) = 15.75614 21.27214 18.51414
#
# Velocity S-wave (km/s) = 2.99040 3.47464 3.24158
# Velocity P-wave (km/s) = 6.49877 6.90321 6.70404
#
# Compressibility (1/GPa) = 0.01872467
#
# Stress axis : x y z
#
# Youngs Moduli (GPa) = 76.04704 87.54017 61.77091
#
# Poissons Ratio (x) = 0.17094 0.23679
# Poissons Ratio (y) = 0.14850 0.32321
# Poissons Ratio (z) = 0.29152 0.45805
#
# Static dielectric constant tensor:
#      x y z
#    x 3.336780 0.000000 -0.118720 
#    y 0.000000 3.041400 0.000000 
#    z -0.118720 0.000000 3.281320 
# 
# 
# High freq. dielectric constant tensor:
#      x y z
#    x 1.679990 0.000000 -0.014650 
#    y 0.000000 1.654100 0.000000 
#    z -0.014650 0.000000 1.671170 
# 
# From -- ./inp_files/226591.got.cif
#   From: 2010.06.25/outbox.cif.g09.slc.cpg/sg12_114_cif.got.tgz:226591.got - 2010.06.28 00:19:55.
