data_PCOD8084603
_publ_section_title
;
Structure prediction by ZEFSAII (Michael W. Deem and Ramdas Pophale) SiO2 
 PCOD8084603
Probable space group: C 2/M
;
_chemical_formula_sum "Si O2"
_cell_formula_units_Z 64
_cell_length_a 11.150159
_cell_length_b 33.238782
_cell_length_c 17.097847
_cell_angle_alpha 90.000000
_cell_angle_beta 30.804994
_cell_angle_gamma 90.000000
_cell_volume 3245.169615
_symmetry_space_group_name_H-M "C 2/M"
_symmetry_group_IT_number 12
_symmetry_cell_setting 'monoclinic'
loop_
_space_group_symop_operation_xyz
x,y,z
-x,y,-z
-x,-y,-z
x,-y,z
1/2+x,1/2+y,z
1/2-x,1/2+y,-z
1/2-x,1/2-y,-z
1/2+x,1/2-y,z
loop_
_atom_site_type_symbol
_atom_site_label
_atom_site_fract_x
_atom_site_fract_y
_atom_site_fract_z
Si Si1 0.274719 0.953375 0.350648
Si Si2 0.532244 0.350821 0.651598
Si Si3 0.184228 0.787416 0.332042
Si Si4 0.028120 0.784896 0.894933
Si Si5 0.492722 0.113038 0.328284
Si Si6 0.097639 0.660801 0.125330
Si Si7 0.721399 0.150351 0.330023
Si Si8 0.095835 0.404191 0.865878
O O1 0.399011 0.930304 0.353151
O O2 0.394145 0.939729 0.202940
O O3 0.000000 0.943593 0.500000
O O4 0.323540 0.000000 0.337348
O O5 0.442410 0.306318 0.674311
O O6 0.772234 0.358803 0.471872
O O7 0.567310 0.353519 0.726476
O O8 0.353375 0.385867 0.730311
O O9 0.376822 0.753765 0.203689
O O10 0.336122 0.822499 0.286438
O O11 0.000000 0.771474 0.500000
O O12 0.220305 0.819107 0.772849
O O13 0.000000 0.772852 0.000000
O O14 0.780173 0.803262 0.004542
O O15 0.651492 0.134197 0.172131
O O16 0.648886 0.109778 0.321373
O O17 0.086955 0.630911 0.056885
O O18 0.500000 0.168025 0.500000
O O19 0.000000 0.422955 0.000000
#
# Coordination Sequence:
#
# PCOD8084603 Si02
#       8
#     8   8   8   8   8   8   8   8
#     4  10  20  35  63  97 127 157 192 240 298 356
#     4  10  20  37  62  85 111 153 211 248 290 357
#     4  11  23  38  60  82 116 156 199 261 313 359
#     4  12  24  39  53  83 118 154 199 254 320 356
#     4  10  18  38  63  86 112 157 202 243 284 357
#     4  10  21  37  60  81 114 156 205 251 299 363
#     4  10  22  39  59  82 113 155 212 248 288 360
#     4  10  20  34  60  92 121 155 195 245 297 350
#
# _framework density 19.721620000000001
#
# number of rings (size 3 to 8) (size 9 to 14) (size 15 to 20)
#    0.000    1.625    3.750    1.500    0.000    4.250 
#    0.000    2.500    0.000    4.125    0.000   11.375 
#    0.000    0.000    0.000    0.000    0.000    0.000 
#
# Total GULP energy -396471.137666 kJ/mol
# GULP energy per Si atom -12389.723052 kJ/mol
# Density = 1.967673 g / cm^3
# Si number density = 19.721620 Si / 1000 Ang^3
#
#
#
# Elastic Constant Matrix: (Units=GPa)
#
#
# Indices 1 2 3 4 5 6 
#
# 1 129.2344 53.8555 35.4900 0.0000 4.4941 0.0000
# 2 53.8555 95.3679 33.9375 0.0000 2.4985 0.0000
# 3 35.4900 33.9375 93.2896 0.0000 11.9091 0.0000
# 4 0.0000 0.0000 0.0000 18.6768 0.0000 -3.3490
# 5 4.4941 2.4985 11.9091 0.0000 27.2888 0.0000
# 6 0.0000 0.0000 0.0000 -3.3490 0.0000 23.2594
#
#
#
# Elastic Compliance Matrix: (Units=1/GPa)
#
#
# Indices 1 2 3 4 5 6 
#
# 1 0.010470 -0.005171 -0.002057 0.000000 -0.000353 0.000000
# 2 -0.005171 0.014618 -0.003482 0.000000 0.001033 0.000000
# 3 -0.002057 -0.003482 0.013433 0.000000 -0.005205 0.000000
# 4 0.000000 0.000000 0.000000 0.054961 0.000000 0.007914
# 5 -0.000353 0.001033 -0.005205 0.000000 0.038880 0.000000
# 6 0.000000 0.000000 0.000000 0.007914 0.000000 0.044133
#
#
# Mechanical properties :
#
#
# Convention : Reuss Voigt Hill
#
# Bulk Modulus (GPa) = 58.47892 62.71755 60.59823
# Shear Modulus (GPa) = 24.55591 26.81891 25.68741
#
# Velocity S-wave (km/s) = 3.53246 3.69165 3.61293
# Velocity P-wave (km/s) = 6.80840 7.07400 6.94247
#
# Compressibility (1/GPa) = 0.01710018
#
# Stress axis : x y z
#
# Youngs Moduli (GPa) = 95.51061 68.40750 74.44337
#
# Poissons Ratio (x) = 0.35376 0.15311
# Poissons Ratio (y) = 0.49393 0.25925
# Poissons Ratio (z) = 0.19644 0.23823
#
# Static dielectric constant tensor:
#      x y z
#    x 3.762950 0.000000 0.005770 
#    y 0.000000 3.213650 0.000000 
#    z 0.005770 0.000000 3.586170 
# 
# 
# High freq. dielectric constant tensor:
#      x y z
#    x 1.772580 0.000000 0.006050 
#    y 0.000000 1.726040 0.000000 
#    z 0.006050 0.000000 1.780300 
# 
# From -- ./inp_files/266269.got.cif
#   From: 2010.06.25/outbox.cif.g09.slc.cpg/sg12_134_cif.got.tgz:266269.got - 2010.06.28 00:19:55.
