data_PCOD8084523
_publ_section_title
;
Structure prediction by ZEFSAII (Michael W. Deem and Ramdas Pophale) SiO2 
 PCOD8084523
Probable space group: C 2/M
;
_chemical_formula_sum "Si O2"
_cell_formula_units_Z 40
_cell_length_a 15.704186
_cell_length_b 9.705461
_cell_length_c 19.805158
_cell_angle_alpha 90.000000
_cell_angle_beta 41.175991
_cell_angle_gamma 90.000000
_cell_volume 1987.387972
_symmetry_space_group_name_H-M "C 2/M"
_symmetry_group_IT_number 12
_symmetry_cell_setting 'monoclinic'
loop_
_space_group_symop_operation_xyz
x,y,z
-x,y,-z
-x,-y,-z
x,-y,z
1/2+x,1/2+y,z
1/2-x,1/2+y,-z
1/2-x,1/2-y,-z
1/2+x,1/2-y,z
loop_
_atom_site_type_symbol
_atom_site_label
_atom_site_fract_x
_atom_site_fract_y
_atom_site_fract_z
Si Si1 0.243670 0.500000 0.137087
Si Si2 0.731711 0.000000 0.767389
Si Si3 0.056782 0.000000 0.097730
Si Si4 0.103799 0.779564 0.572229
Si Si5 0.901607 0.774847 0.116684
Si Si6 0.313054 0.500000 0.570955
Si Si7 0.538911 0.000000 0.656905
Si Si8 0.043651 0.000000 0.261670
O O1 0.285924 0.363936 0.153146
O O2 0.089035 0.500000 0.219850
O O3 0.309251 0.500000 0.024099
O O4 0.646872 0.137686 0.817950
O O5 0.815596 0.000000 0.649493
O O6 0.824091 0.000000 0.776170
O O7 0.087578 0.000000 0.158100
O O8 0.974434 0.135230 0.129342
O O9 0.250000 0.750000 0.500000
O O10 0.032428 0.632192 0.610822
O O11 0.103273 0.867324 0.503419
O O12 0.040833 0.865363 0.671216
O O13 0.000000 0.729488 0.000000
O O14 0.166310 0.500000 0.628490
#
# Coordination Sequence:
#
# PCOD8084523 Si02
#       8
#     4   4   4   8   8   4   4   4
#     4   9  18  40  62  89 118 155 204 248 287 354
#     4  12  23  38  59  93 123 154 200 249 300 349
#     4   9  21  40  65  86 118 166 199 236 299 361
#     4   9  20  38  58  86 116 155 198 246 297 352
#     4   9  20  40  61  85 124 162 196 240 298 357
#     4   9  22  38  56  82 121 166 190 242 312 358
#     4  10  18  36  64  89 117 151 206 251 290 351
#     4  11  23  39  62  88 124 159 194 252 300 345
#
# _framework density 20.126919000000001
#
# number of rings (size 3 to 8) (size 9 to 14) (size 15 to 20)
#    0.000    2.400    0.000    3.300    5.600    1.600 
#    3.600    3.000    0.000    2.400    0.000    0.000 
#    0.000    0.000    0.000    0.000    0.000    0.000 
#
# Total GULP energy -247915.082746 kJ/mol
# GULP energy per Si atom -12395.754137 kJ/mol
# Density = 2.008111 g / cm^3
# Si number density = 20.126919 Si / 1000 Ang^3
#
#
#
# Elastic Constant Matrix: (Units=GPa)
#
#
# Indices 1 2 3 4 5 6 
#
# 1 78.2472 31.6427 55.5268 0.0000 13.2385 0.0000
# 2 31.6427 176.3193 78.3105 0.0000 9.7180 0.0000
# 3 55.5268 78.3105 138.8810 0.0000 12.8797 0.0000
# 4 0.0000 0.0000 0.0000 33.3460 0.0000 -3.0965
# 5 13.2385 9.7180 12.8797 0.0000 43.6054 0.0000
# 6 0.0000 0.0000 0.0000 -3.0965 0.0000 2.4738
#
#
#
# Elastic Compliance Matrix: (Units=1/GPa)
#
#
# Indices 1 2 3 4 5 6 
#
# 1 0.018347 0.000019 -0.007022 0.000000 -0.003500 0.000000
# 2 0.000019 0.007575 -0.004238 0.000000 -0.000442 0.000000
# 3 -0.007022 -0.004238 0.012453 0.000000 -0.000602 0.000000
# 4 0.000000 0.000000 0.000000 0.033933 0.000000 0.042474
# 5 -0.003500 -0.000442 -0.000602 0.000000 0.024272 0.000000
# 6 0.000000 0.000000 0.000000 0.042474 0.000000 0.457404
#
#
# Mechanical properties :
#
#
# Convention : Reuss Voigt Hill
#
# Bulk Modulus (GPa) = 62.91549 80.48973 71.70261
# Shear Modulus (GPa) = 8.59457 31.08288 19.83873
#
# Velocity S-wave (km/s) = 2.06869 3.93408 3.14296
# Velocity P-wave (km/s) = 6.08549 7.79191 6.99096
#
# Compressibility (1/GPa) = 0.01589434
#
# Stress axis : x y z
#
# Youngs Moduli (GPa) = 54.50373 132.02007 80.30182
#
# Poissons Ratio (x) = -0.00249 0.56384
# Poissons Ratio (y) = -0.00103 0.34029
# Poissons Ratio (z) = 0.38270 0.55945
#
# Static dielectric constant tensor:
#      x y z
#    x 3.207600 0.000000 -0.130440 
#    y 0.000000 4.319860 0.000000 
#    z -0.130440 0.000000 3.750280 
# 
# 
# High freq. dielectric constant tensor:
#      x y z
#    x 1.751480 0.000000 -0.014310 
#    y 0.000000 1.802690 0.000000 
#    z -0.014310 0.000000 1.796880 
# 
# From -- ./inp_files/313565.got.cif
#   From: 2010.06.25/outbox.cif.g09.slc.cpg/sg12_157_cif.got.tgz:313565.got - 2010.06.28 00:19:55.
