data_PCOD8084211
_publ_section_title
;
Structure prediction by ZEFSAII (Michael W. Deem and Ramdas Pophale) SiO2 
 PCOD8084211
Probable space group: C 2/M
;
_chemical_formula_sum "Si O2"
_cell_formula_units_Z 48
_cell_length_a 24.172938
_cell_length_b 19.349665
_cell_length_c 9.984473
_cell_angle_alpha 90.000000
_cell_angle_beta 146.363281
_cell_angle_gamma 90.000000
_cell_volume 2586.897258
_symmetry_space_group_name_H-M "C 2/M"
_symmetry_group_IT_number 12
_symmetry_cell_setting 'monoclinic'
loop_
_space_group_symop_operation_xyz
x,y,z
-x,y,-z
-x,-y,-z
x,-y,z
1/2+x,1/2+y,z
1/2-x,1/2+y,-z
1/2-x,1/2-y,-z
1/2+x,1/2-y,z
loop_
_atom_site_type_symbol
_atom_site_label
_atom_site_fract_x
_atom_site_fract_y
_atom_site_fract_z
Si Si1 0.884930 0.581023 0.249116
Si Si2 0.687096 0.174656 0.135267
Si Si3 0.104265 0.815269 0.033424
Si Si4 0.759720 0.422011 0.255820
Si Si5 0.613825 0.286898 0.350243
Si Si6 0.891776 0.632165 0.747592
O O1 0.876623 0.500000 0.199227
O O2 0.824054 0.601789 0.258314
O O3 0.000000 0.602724 0.500000
O O4 0.835300 0.623280 0.029627
O O5 0.621372 0.243783 0.988666
O O6 0.803467 0.197156 0.371325
O O7 0.667768 0.136116 0.234875
O O8 0.159846 0.876243 0.067004
O O9 0.150618 0.811283 0.276805
O O10 0.985669 0.827655 0.804637
O O11 0.722017 0.500000 0.163040
O O12 0.831431 0.418288 0.528957
O O13 0.592212 0.205318 0.295942
O O14 0.000000 0.600290 0.000000
#
# Coordination Sequence:
#
# PCOD8084211 Si02
#       6
#     8   8   8   8   8   8
#     4  10  24  42  57  81 123 160 188 241 306 346
#     4  11  19  35  62  85 113 151 197 245 283 349
#     4  10  19  36  60  88 121 151 190 242 302 341
#     4  11  23  39  56  82 123 161 194 238 296 350
#     4  10  18  34  60  91 118 147 185 252 301 331
#     4  11  18  33  62  89 113 146 192 247 297 343
#
# _framework density 18.555046000000001
#
# number of rings (size 3 to 8) (size 9 to 14) (size 15 to 20)
#    0.000    1.500    6.667    2.000    0.000    1.667 
#    0.000    3.333    0.000    2.000    0.000    0.000 
#    0.000    0.000    0.000    0.000    0.000    0.000 
#
# Total GULP energy -297615.448608 kJ/mol
# GULP energy per Si atom -12400.643692 kJ/mol
# Density = 1.851281 g / cm^3
# Si number density = 18.555046 Si / 1000 Ang^3
#
#
#
# Elastic Constant Matrix: (Units=GPa)
#
#
# Indices 1 2 3 4 5 6 
#
# 1 105.0756 48.5503 27.1028 0.0000 -0.7755 0.0000
# 2 48.5503 60.5402 19.4144 0.0000 -7.1278 0.0000
# 3 27.1028 19.4144 68.7499 0.0000 -10.8492 0.0000
# 4 0.0000 0.0000 0.0000 29.3408 0.0000 -2.6078
# 5 -0.7755 -7.1278 -10.8492 0.0000 23.6564 0.0000
# 6 0.0000 0.0000 0.0000 -2.6078 0.0000 27.9608
#
#
#
# Elastic Compliance Matrix: (Units=1/GPa)
#
#
# Indices 1 2 3 4 5 6 
#
# 1 0.016116 -0.012329 -0.003638 0.000000 -0.004855 0.000000
# 2 -0.012329 0.027847 -0.001879 0.000000 0.007125 0.000000
# 3 -0.003638 -0.001879 0.017682 0.000000 0.007424 0.000000
# 4 0.000000 0.000000 0.000000 0.034367 0.000000 0.003205
# 5 -0.004855 0.007125 0.007424 0.000000 0.047664 0.000000
# 6 0.000000 0.000000 0.000000 0.003205 0.000000 0.036063
#
#
# Mechanical properties :
#
#
# Convention : Reuss Voigt Hill
#
# Bulk Modulus (GPa) = 38.53184 47.16676 42.84930
# Shear Modulus (GPa) = 22.31320 25.47815 23.89567
#
# Velocity S-wave (km/s) = 3.47153 3.70957 3.59252
# Velocity P-wave (km/s) = 6.07289 6.61989 6.35228
#
# Compressibility (1/GPa) = 0.02595256
#
# Stress axis : x y z
#
# Youngs Moduli (GPa) = 62.04898 35.91059 56.55568
#
# Poissons Ratio (x) = 0.44276 0.20574
# Poissons Ratio (y) = 0.76503 0.10626
# Poissons Ratio (z) = 0.22572 0.06747
#
# Static dielectric constant tensor:
#      x y z
#    x 3.401790 0.000000 0.129450 
#    y 0.000000 3.176880 0.000000 
#    z 0.129450 0.000000 3.388650 
# 
# 
# High freq. dielectric constant tensor:
#      x y z
#    x 1.720090 0.000000 0.014990 
#    y 0.000000 1.699200 0.000000 
#    z 0.014990 0.000000 1.714900 
# 
# From -- ./inp_files/62785.got.cif
#   From: 2010.06.25/outbox.cif.g09.slc.cpg/sg12_32_cif.got.tgz:62785.got - 2010.06.28 00:19:55.
