data_PCOD8084391
_publ_section_title
;
Structure prediction by ZEFSAII (Michael W. Deem and Ramdas Pophale) SiO2 
 PCOD8084391
Probable space group: C 2/M
;
_chemical_formula_sum "Si O2"
_cell_formula_units_Z 56
_cell_length_a 15.213112
_cell_length_b 8.529370
_cell_length_c 25.888745
_cell_angle_alpha 90.000000
_cell_angle_beta 54.273387
_cell_angle_gamma 90.000000
_cell_volume 2727.103946
_symmetry_space_group_name_H-M "C 2/M"
_symmetry_group_IT_number 12
_symmetry_cell_setting 'monoclinic'
loop_
_space_group_symop_operation_xyz
x,y,z
-x,y,-z
-x,-y,-z
x,-y,z
1/2+x,1/2+y,z
1/2-x,1/2+y,-z
1/2-x,1/2-y,-z
1/2+x,1/2-y,z
loop_
_atom_site_type_symbol
_atom_site_label
_atom_site_fract_x
_atom_site_fract_y
_atom_site_fract_z
Si Si1 0.280933 0.317234 0.718886
Si Si2 0.357180 0.681022 0.144648
Si Si3 0.899066 0.179156 0.497005
Si Si4 0.011682 0.680493 0.634254
Si Si5 0.415655 0.817702 0.919685
Si Si6 0.218577 0.682233 0.934831
Si Si7 0.289585 0.816993 0.367187
O O1 0.254377 0.500000 0.736137
O O2 0.233276 0.218318 0.782113
O O3 0.409745 0.294717 0.672874
O O4 0.228881 0.248923 0.683879
O O5 0.351115 0.500000 0.131698
O O6 0.474547 0.722364 0.127244
O O7 0.335227 0.782154 0.101280
O O8 0.795726 0.253224 0.562295
O O9 0.000000 0.189142 0.500000
O O10 0.918854 0.286713 0.440653
O O11 0.879147 0.000000 0.485944
O O12 0.973967 0.500000 0.647295
O O13 0.087899 0.716642 0.657413
O O14 0.330812 0.776208 0.903446
O O15 0.443843 0.000000 0.907590
O O16 0.366048 0.767323 0.991844
O O17 0.245807 0.500000 0.930148
O O18 0.262388 0.000000 0.373722
#
# Coordination Sequence:
#
# PCOD8084391 Si02
#       7
#     8   8   8   8   8   8   8
#     4  11  23  43  62  79 111 159 203 241 293 357
#     4  12  25  40  60  89 124 161 204 252 303 360
#     4  10  18  35  61  85 113 151 193 231 286 358
#     4  11  22  37  58  88 118 145 188 245 302 350
#     4  10  21  39  64  94 126 160 200 249 301 355
#     4  10  21  39  64  94 125 160 203 248 299 358
#     4   9  20  38  60  83 112 151 191 236 291 354
#
# _framework density 20.534604999999999
#
# number of rings (size 3 to 8) (size 9 to 14) (size 15 to 20)
#    0.000    1.571    1.429    3.857    0.000    4.857 
#    0.000    7.857    0.000    0.000    0.000    0.000 
#    0.000    0.000    0.000    0.000    0.000    0.000 
#
# Total GULP energy -347351.540197 kJ/mol
# GULP energy per Si atom -12405.412150 kJ/mol
# Density = 2.048787 g / cm^3
# Si number density = 20.534605 Si / 1000 Ang^3
#
#
#
# Elastic Constant Matrix: (Units=GPa)
#
#
# Indices 1 2 3 4 5 6 
#
# 1 97.9819 20.4633 20.9300 0.0000 2.9076 0.0000
# 2 20.4633 50.5496 23.3360 0.0000 3.0129 0.0002
# 3 20.9300 23.3360 62.8513 0.0000 -3.6525 -0.0001
# 4 0.0000 0.0000 0.0000 29.4298 0.0000 -3.2124
# 5 2.9076 3.0129 -3.6525 0.0000 14.0656 -0.0001
# 6 0.0000 0.0002 -0.0001 -3.2124 -0.0001 30.8786
#
#
#
# Elastic Compliance Matrix: (Units=1/GPa)
#
#
# Indices 1 2 3 4 5 6 
#
# 1 0.011550 -0.003248 -0.002780 0.000000 -0.002414 0.000000
# 2 -0.003248 0.025600 -0.008836 0.000000 -0.007107 0.000000
# 3 -0.002780 -0.008836 0.020571 0.000000 0.007809 0.000000
# 4 0.000000 0.000000 0.000000 0.034369 0.000000 0.003576
# 5 -0.002414 -0.007107 0.007809 0.000000 0.075145 0.000000
# 6 0.000000 0.000000 0.000000 0.003576 0.000000 0.032757
#
#
# Mechanical properties :
#
#
# Convention : Reuss Voigt Hill
#
# Bulk Modulus (GPa) = 35.72543 37.87128 36.79836
# Shear Modulus (GPa) = 20.91584 24.65169 22.78377
#
# Velocity S-wave (km/s) = 3.19496 3.46858 3.33457
# Velocity P-wave (km/s) = 5.57188 5.87572 5.72581
#
# Compressibility (1/GPa) = 0.02799126
#
# Stress axis : x y z
#
# Youngs Moduli (GPa) = 86.58081 39.06197 48.61163
#
# Poissons Ratio (x) = 0.12688 0.13516
# Poissons Ratio (y) = 0.28123 0.42956
# Poissons Ratio (z) = 0.24074 0.34517
#
# Static dielectric constant tensor:
#      x y z
#    x 3.743630 0.000000 0.038750 
#    y 0.000000 3.534050 0.000000 
#    z 0.038750 0.000000 3.696450 
# 
# 
# High freq. dielectric constant tensor:
#      x y z
#    x 1.814300 0.000000 -0.000590 
#    y 0.000000 1.791660 0.000000 
#    z -0.000590 0.000000 1.797240 
# 
# From -- ./inp_files/338567.got.cif
#   From: 2010.06.25/outbox.cif.g09.slc.cpg/sg12_170_cif.got.tgz:338567.got - 2010.06.28 00:19:55.
