data_PCOD8084732
_publ_section_title
;
Structure prediction by ZEFSAII (Michael W. Deem and Ramdas Pophale) SiO2 
 PCOD8084732
Probable space group: C 2/M
;
_chemical_formula_sum "Si O2"
_cell_formula_units_Z 64
_cell_length_a 11.466741
_cell_length_b 23.199057
_cell_length_c 14.397510
_cell_angle_alpha 90.000000
_cell_angle_beta 111.202353
_cell_angle_gamma 90.000000
_cell_volume 3570.734643
_symmetry_space_group_name_H-M "C 2/M"
_symmetry_group_IT_number 12
_symmetry_cell_setting 'monoclinic'
loop_
_space_group_symop_operation_xyz
x,y,z
-x,y,-z
-x,-y,-z
x,-y,z
1/2+x,1/2+y,z
1/2-x,1/2+y,-z
1/2-x,1/2-y,-z
1/2+x,1/2-y,z
loop_
_atom_site_type_symbol
_atom_site_label
_atom_site_fract_x
_atom_site_fract_y
_atom_site_fract_z
Si Si1 0.572975 0.286400 0.611229
Si Si2 0.465258 0.844359 0.387548
Si Si3 0.099845 0.871488 0.107157
Si Si4 0.691143 0.788183 0.907052
Si Si5 0.982796 0.785531 0.772690
Si Si6 0.157269 0.675457 0.280635
Si Si7 0.485831 0.887291 0.101537
Si Si8 0.669051 0.935492 0.779549
O O1 0.500000 0.306431 0.500000
O O2 0.602598 0.217493 0.618291
O O3 0.475160 0.303983 0.663572
O O4 0.696238 0.325723 0.656754
O O5 0.500000 0.868754 0.500000
O O6 0.586718 0.837017 0.357535
O O7 0.372873 0.889028 0.309608
O O8 0.200389 0.823433 0.109796
O O9 0.020396 0.843132 0.167087
O O10 0.181583 0.927011 0.159638
O O11 0.000000 0.888872 0.000000
O O12 0.618387 0.746623 0.815152
O O13 0.591318 0.828537 0.929549
O O14 0.750000 0.750000 0.000000
O O15 0.876255 0.739232 0.767959
O O16 0.118099 0.627879 0.190914
O O17 0.407742 0.930294 0.145652
O O18 0.500000 0.912464 0.000000
O O19 0.648955 0.000000 0.735411
#
# Coordination Sequence:
#
# PCOD8084732 Si02
#       8
#     8   8   8   8   8   8   8   8
#     4  10  20  31  48  75 108 141 163 189 242 306
#     4   9  19  35  53  74  98 129 167 210 253 298
#     4  11  21  32  48  75 103 138 170 196 248 297
#     4  10  19  28  45  74 106 132 162 198 231 293
#     4  10  19  29  47  70 104 139 167 199 234 290
#     4   9  18  31  46  73 109 135 163 195 235 296
#     4   9  20  32  51  74  98 134 167 205 248 294
#     4  10  22  39  52  71  97 123 173 227 256 288
#
# _framework density 17.923483000000001
#
# number of rings (size 3 to 8) (size 9 to 14) (size 15 to 20)
#    0.000    2.250    1.250    3.750    5.250    6.250 
#    0.000    0.000    0.000    0.000    0.000    0.875 
#    0.000    9.500    0.000    0.000    0.000    0.000 
#
# Total GULP energy -396538.692325 kJ/mol
# GULP energy per Si atom -12391.834135 kJ/mol
# Density = 1.788269 g / cm^3
# Si number density = 17.923483 Si / 1000 Ang^3
#
#
#
# Elastic Constant Matrix: (Units=GPa)
#
#
# Indices 1 2 3 4 5 6 
#
# 1 58.2606 14.8407 27.7139 0.0000 17.0673 0.0000
# 2 14.8407 51.1431 18.6809 0.0000 8.3904 0.0000
# 3 27.7139 18.6809 113.2328 0.0000 4.4025 0.0000
# 4 0.0000 0.0000 0.0000 12.5239 0.0000 2.5782
# 5 17.0673 8.3904 4.4025 0.0000 31.0151 0.0000
# 6 0.0000 0.0000 0.0000 2.5782 0.0000 10.3462
#
#
#
# Elastic Compliance Matrix: (Units=1/GPa)
#
#
# Indices 1 2 3 4 5 6 
#
# 1 0.023624 -0.003222 -0.004805 0.000000 -0.011446 0.000000
# 2 -0.003222 0.022105 -0.002710 0.000000 -0.003822 0.000000
# 3 -0.004805 -0.002710 0.010380 0.000000 0.001904 0.000000
# 4 0.000000 0.000000 0.000000 0.084165 0.000000 -0.020974
# 5 -0.011446 -0.003822 0.001904 0.000000 0.039305 0.000000
# 6 0.000000 0.000000 0.000000 -0.020974 0.000000 0.101880
#
#
# Mechanical properties :
#
#
# Convention : Reuss Voigt Hill
#
# Bulk Modulus (GPa) = 28.87244 38.34529 33.60886
# Shear Modulus (GPa) = 15.89930 21.53709 18.71820
#
# Velocity S-wave (km/s) = 2.98160 3.47019 3.23513
# Velocity P-wave (km/s) = 5.29121 6.12345 5.72248
#
# Compressibility (1/GPa) = 0.03463511
#
# Stress axis : x y z
#
# Youngs Moduli (GPa) = 42.32968 45.23915 96.33451
#
# Poissons Ratio (x) = 0.14577 0.46293
# Poissons Ratio (y) = 0.13639 0.26103
# Poissons Ratio (z) = 0.20341 0.12258
#
# Static dielectric constant tensor:
#      x y z
#    x 3.245520 0.000000 0.038250 
#    y 0.000000 2.861520 0.000000 
#    z 0.038250 0.000000 3.377930 
# 
# 
# High freq. dielectric constant tensor:
#      x y z
#    x 1.686760 0.000000 0.001510 
#    y 0.000000 1.641630 0.000000 
#    z 0.001510 0.000000 1.706220 
# 
# From -- ./inp_files/207708.got.cif
#   From: 2010.06.25/outbox.cif.g09.slc.cpg/sg12_104_cif.got.tgz:207708.got - 2010.06.28 00:19:55.
