data_PCOD8084475
_publ_section_title
;
Structure prediction by ZEFSAII (Michael W. Deem and Ramdas Pophale) SiO2 
 PCOD8084475
Probable space group: C 2/M
;
_chemical_formula_sum "Si O2"
_cell_formula_units_Z 48
_cell_length_a 8.901508
_cell_length_b 12.388131
_cell_length_c 22.883317
_cell_angle_alpha 90.000000
_cell_angle_beta 106.750862
_cell_angle_gamma 90.000000
_cell_volume 2416.337171
_symmetry_space_group_name_H-M "C 2/M"
_symmetry_group_IT_number 12
_symmetry_cell_setting 'monoclinic'
loop_
_space_group_symop_operation_xyz
x,y,z
-x,y,-z
-x,-y,-z
x,-y,z
1/2+x,1/2+y,z
1/2-x,1/2+y,-z
1/2-x,1/2-y,-z
1/2+x,1/2-y,z
loop_
_atom_site_type_symbol
_atom_site_label
_atom_site_fract_x
_atom_site_fract_y
_atom_site_fract_z
Si Si1 0.162632 0.373967 0.640286
Si Si2 0.855150 0.678645 0.668439
Si Si3 0.929716 0.125342 0.929090
Si Si4 0.152269 0.785059 0.543722
Si Si5 0.872885 0.248915 0.141015
Si Si6 0.825031 0.379151 0.792439
O O1 0.201210 0.500000 0.639637
O O2 0.324327 0.308482 0.673708
O O3 0.097159 0.324608 0.571970
O O4 0.035801 0.350215 0.676890
O O5 0.748834 0.639921 0.600541
O O6 0.796635 0.618413 0.719687
O O7 0.767417 0.189262 0.906626
O O8 0.055430 0.161881 0.895104
O O9 0.894287 0.000000 0.915642
O O10 0.000000 0.150292 0.000000
O O11 0.250000 0.750000 0.500000
O O12 0.000000 0.845953 0.500000
O O13 0.810540 0.189429 0.191814
O O14 0.003092 0.333367 0.175486
O O15 0.817501 0.500000 0.816325
#
# Coordination Sequence:
#
# PCOD8084475 Si02
#       6
#     8   8   8   8   8   8
#     4  10  21  38  60  81 108 146 183 225 291 345
#     4  10  21  37  58  84 112 145 189 239 282 343
#     4  10  20  37  60  88 123 158 193 236 285 333
#     4  10  18  36  58  80 113 140 180 240 284 342
#     4  10  22  37  59  89 118 153 199 239 278 334
#     4  11  22  39  60  82 116 155 193 238 289 339
#
# _framework density 19.864778000000001
#
# number of rings (size 3 to 8) (size 9 to 14) (size 15 to 20)
#    1.000    0.833    1.667    3.000    0.000    0.333 
#    0.000    7.500    0.000   11.500    0.000    0.000 
#    0.000    0.000    0.000    0.000    0.000    0.000 
#
# Total GULP energy -297412.526511 kJ/mol
# GULP energy per Si atom -12392.188605 kJ/mol
# Density = 1.981956 g / cm^3
# Si number density = 19.864778 Si / 1000 Ang^3
#
#
#
# Elastic Constant Matrix: (Units=GPa)
#
#
# Indices 1 2 3 4 5 6 
#
# 1 63.1093 5.2503 13.4177 0.0000 -3.5649 0.0000
# 2 5.2503 82.3770 2.8120 0.0000 5.9824 0.0000
# 3 13.4177 2.8120 92.0744 0.0000 -6.6391 0.0000
# 4 0.0000 0.0000 0.0000 17.4185 0.0000 -4.6748
# 5 -3.5649 5.9824 -6.6391 0.0000 28.4083 0.0000
# 6 0.0000 0.0000 0.0000 -4.6748 0.0000 16.3862
#
#
#
# Elastic Compliance Matrix: (Units=1/GPa)
#
#
# Indices 1 2 3 4 5 6 
#
# 1 0.016515 -0.001105 -0.002245 0.000000 0.001781 0.000000
# 2 -0.001105 0.012432 -0.000425 0.000000 -0.002856 0.000000
# 3 -0.002245 -0.000425 0.011379 0.000000 0.002467 0.000000
# 4 0.000000 0.000000 0.000000 0.062170 0.000000 0.017737
# 5 0.001781 -0.002856 0.002467 0.000000 0.036602 0.000000
# 6 0.000000 0.000000 0.000000 0.017737 0.000000 0.066087
#
#
# Mechanical properties :
#
#
# Convention : Reuss Voigt Hill
#
# Bulk Modulus (GPa) = 30.50930 31.16896 30.83913
# Shear Modulus (GPa) = 22.35535 26.84798 24.60167
#
# Velocity S-wave (km/s) = 3.35830 3.68031 3.52299
# Velocity P-wave (km/s) = 5.51629 5.81242 5.66629
#
# Compressibility (1/GPa) = 0.03277690
#
# Stress axis : x y z
#
# Youngs Moduli (GPa) = 60.55002 80.43987 87.88331
#
# Poissons Ratio (x) = 0.08891 0.19726
# Poissons Ratio (y) = 0.06693 0.03731
# Poissons Ratio (z) = 0.13591 0.03415
#
# Static dielectric constant tensor:
#      x y z
#    x 3.703010 0.000000 -0.085740 
#    y 0.000000 3.418400 0.000000 
#    z -0.085740 0.000000 3.667040 
# 
# 
# High freq. dielectric constant tensor:
#      x y z
#    x 1.780080 0.000000 -0.011090 
#    y 0.000000 1.753060 0.000000 
#    z -0.011090 0.000000 1.782880 
# 
# From -- ./inp_files/332036.got.cif
#   From: 2010.06.25/outbox.cif.g09.slc.cpg/sg12_167_cif.got.tgz:332036.got - 2010.06.28 00:19:55.
