data_PCOD8084468
_publ_section_title
;
Structure prediction by ZEFSAII (Michael W. Deem and Ramdas Pophale) SiO2 
 PCOD8084468
Probable space group: C 2/M
;
_chemical_formula_sum "Si O2"
_cell_formula_units_Z 56
_cell_length_a 16.312906
_cell_length_b 16.582549
_cell_length_c 13.949571
_cell_angle_alpha 90.000000
_cell_angle_beta 53.059327
_cell_angle_gamma 90.000000
_cell_volume 3015.994829
_symmetry_space_group_name_H-M "C 2/M"
_symmetry_group_IT_number 12
_symmetry_cell_setting 'monoclinic'
loop_
_space_group_symop_operation_xyz
x,y,z
-x,y,-z
-x,-y,-z
x,-y,z
1/2+x,1/2+y,z
1/2-x,1/2+y,-z
1/2-x,1/2-y,-z
1/2+x,1/2-y,z
loop_
_atom_site_type_symbol
_atom_site_label
_atom_site_fract_x
_atom_site_fract_y
_atom_site_fract_z
Si Si1 0.429336 0.792090 0.460109
Si Si2 0.100218 0.796584 0.242297
Si Si3 0.599561 0.094800 0.693394
Si Si4 0.250724 0.211780 0.307700
Si Si5 0.610157 0.158633 0.088639
Si Si6 0.113159 0.792716 0.930659
Si Si7 0.320096 0.590883 0.964658
O O1 0.500000 0.819363 0.500000
O O2 0.486460 0.718796 0.363843
O O3 0.413310 0.869424 0.404151
O O4 0.318144 0.760071 0.567942
O O5 0.179753 0.818023 0.270327
O O6 0.135613 0.715867 0.161802
O O7 0.100408 0.870390 0.167606
O O8 0.695833 0.135822 0.679137
O O9 0.495830 0.110652 0.825894
O O10 0.621197 0.000000 0.670592
O O11 0.337276 0.273227 0.207493
O O12 0.606932 0.210188 0.994615
O O13 0.702744 0.095478 0.010959
O O14 0.177461 0.862470 0.936559
O O15 0.000000 0.828428 0.000000
O O16 0.354759 0.500000 0.955676
#
# Coordination Sequence:
#
# PCOD8084468 Si02
#       7
#     8   8   8   8   8   8   8
#     4   9  21  39  63  80 100 149 197 222 260 331
#     4   9  18  36  59  80 105 146 199 224 258 324
#     4  11  23  36  55  88 117 137 174 236 291 322
#     4  11  19  37  60  81 110 148 185 220 272 332
#     4  10  18  36  57  82 110 149 181 222 274 337
#     4  11  20  36  59  82 110 147 188 221 268 340
#     4  11  21  34  56  84 116 146 181 233 277 317
#
# _framework density 18.56767
#
# number of rings (size 3 to 8) (size 9 to 14) (size 15 to 20)
#    0.000    1.714    4.286    1.714    0.000    1.143 
#    0.000    2.143    0.000    2.571    0.000    0.000 
#    0.000    0.000    0.000    0.000    0.000    0.000 
#
# Total GULP energy -347196.649622 kJ/mol
# GULP energy per Si atom -12399.880344 kJ/mol
# Density = 1.852541 g / cm^3
# Si number density = 18.567670 Si / 1000 Ang^3
#
#
#
# Elastic Constant Matrix: (Units=GPa)
#
#
# Indices 1 2 3 4 5 6 
#
# 1 82.5155 40.1987 31.4333 0.0000 -4.1237 0.0000
# 2 40.1987 115.9396 46.7116 0.0000 -1.7437 0.0000
# 3 31.4333 46.7116 123.6057 0.0000 -13.2526 0.0000
# 4 0.0000 0.0000 0.0000 13.2495 0.0000 -2.7751
# 5 -4.1237 -1.7437 -13.2526 0.0000 28.0877 0.0000
# 6 0.0000 0.0000 0.0000 -2.7751 0.0000 18.3888
#
#
#
# Elastic Compliance Matrix: (Units=1/GPa)
#
#
# Indices 1 2 3 4 5 6 
#
# 1 0.015093 -0.004381 -0.002079 0.000000 0.000963 0.000000
# 2 -0.004381 0.011487 -0.003391 0.000000 -0.001530 0.000000
# 3 -0.002079 -0.003391 0.010370 0.000000 0.004377 0.000000
# 4 0.000000 0.000000 0.000000 0.077938 0.000000 0.011762
# 5 0.000963 -0.001530 0.004377 0.000000 0.037714 0.000000
# 6 0.000000 0.000000 0.000000 0.011762 0.000000 0.056156
#
#
# Mechanical properties :
#
#
# Convention : Reuss Voigt Hill
#
# Bulk Modulus (GPa) = 57.97902 62.08310 60.03106
# Shear Modulus (GPa) = 21.34822 25.52635 23.43729
#
# Velocity S-wave (km/s) = 3.39448 3.71182 3.55669
# Velocity P-wave (km/s) = 6.83058 7.20270 7.01911
#
# Compressibility (1/GPa) = 0.01724762
#
# Stress axis : x y z
#
# Youngs Moduli (GPa) = 66.25401 87.05186 96.43302
#
# Poissons Ratio (x) = 0.38137 0.20053
# Poissons Ratio (y) = 0.29025 0.32702
# Poissons Ratio (z) = 0.13777 0.29521
#
# Static dielectric constant tensor:
#      x y z
#    x 3.498900 0.000000 -0.076360 
#    y 0.000000 3.025950 0.000000 
#    z -0.076360 0.000000 3.672200 
# 
# 
# High freq. dielectric constant tensor:
#      x y z
#    x 1.727840 0.000000 -0.002520 
#    y 0.000000 1.682940 0.000000 
#    z -0.002520 0.000000 1.730110 
# 
# From -- ./inp_files/225199.got.cif
#   From: 2010.06.25/outbox.cif.g09.slc.cpg/sg12_113_cif.got.tgz:225199.got - 2010.06.28 00:19:55.
