data_PCOD8084976
_publ_section_title
;
Structure prediction by ZEFSAII (Michael W. Deem and Ramdas Pophale) SiO2 
 PCOD8084976
Probable space group: C 2/M
;
_chemical_formula_sum "Si O2"
_cell_formula_units_Z 48
_cell_length_a 24.099505
_cell_length_b 9.367369
_cell_length_c 14.080817
_cell_angle_alpha 90.000000
_cell_angle_beta 69.236854
_cell_angle_gamma 90.000000
_cell_volume 2972.283627
_symmetry_space_group_name_H-M "C 2/M"
_symmetry_group_IT_number 12
_symmetry_cell_setting 'monoclinic'
loop_
_space_group_symop_operation_xyz
x,y,z
-x,y,-z
-x,-y,-z
x,-y,z
1/2+x,1/2+y,z
1/2-x,1/2+y,-z
1/2-x,1/2-y,-z
1/2+x,1/2-y,z
loop_
_atom_site_type_symbol
_atom_site_label
_atom_site_fract_x
_atom_site_fract_y
_atom_site_fract_z
Si Si1 0.121203 0.338335 0.853115
Si Si2 0.210629 0.336963 0.645929
Si Si3 0.012627 0.663982 0.780728
Si Si4 0.444127 0.661388 0.964536
Si Si5 0.837038 0.834447 0.499092
Si Si6 0.048054 0.333322 0.549500
O O1 0.115868 0.500000 0.893808
O O2 0.185550 0.307987 0.767123
O O3 0.073507 0.309624 0.799506
O O4 0.111468 0.235700 0.949089
O O5 0.195320 0.500000 0.624375
O O6 0.178510 0.230579 0.593550
O O7 0.281336 0.312515 0.603884
O O8 0.992570 0.500000 0.798560
O O9 0.022176 0.713450 0.667006
O O10 0.959635 0.757689 0.857622
O O11 0.426387 0.500000 0.950875
O O12 0.500000 0.670151 0.000000
O O13 0.892866 0.754671 0.511090
O O14 0.852406 0.000000 0.475418
O O15 0.064274 0.500000 0.538966
O O16 0.000000 0.293613 0.500000
#
# Coordination Sequence:
#
# PCOD8084976 Si02
#       6
#     8   8   8   8   8   8
#     4   9  15  26  44  63  87 119 151 179 214 270
#     4   9  17  30  46  66  93 125 154 182 224 277
#     4   9  16  28  44  61  84 118 154 184 218 265
#     4   9  17  26  38  61  91 116 142 180 226 272
#     4  10  19  29  45  68  94 121 152 191 231 269
#     4  10  20  34  50  66  89 124 162 194 224 266
#
# _framework density 16.149198999999999
#
# number of rings (size 3 to 8) (size 9 to 14) (size 15 to 20)
#    0.000    2.667    1.667    1.000    0.000    4.333 
#    0.000    0.000    0.000    0.000    0.000    1.167 
#    0.000    0.000    0.000    0.000    0.000    0.000 
#
# Total GULP energy -297581.830743 kJ/mol
# GULP energy per Si atom -12399.242948 kJ/mol
# Density = 1.611244 g / cm^3
# Si number density = 16.149199 Si / 1000 Ang^3
#
#
#
# Elastic Constant Matrix: (Units=GPa)
#
#
# Indices 1 2 3 4 5 6 
#
# 1 71.1328 47.6840 43.9269 0.0000 -12.8247 0.0000
# 2 47.6840 95.8539 57.8975 0.0000 -17.6437 0.0000
# 3 43.9269 57.8975 109.8806 0.0000 -25.8779 0.0000
# 4 0.0000 0.0000 0.0000 23.1503 0.0000 -6.9046
# 5 -12.8247 -17.6437 -25.8779 0.0000 22.8146 0.0000
# 6 0.0000 0.0000 0.0000 -6.9046 0.0000 20.4300
#
#
#
# Elastic Compliance Matrix: (Units=1/GPa)
#
#
# Indices 1 2 3 4 5 6 
#
# 1 0.022573 -0.008395 -0.004286 0.000000 0.001335 0.000000
# 2 -0.008395 0.018653 -0.005713 0.000000 0.003227 0.000000
# 3 -0.004286 -0.005713 0.016670 0.000000 0.012080 0.000000
# 4 0.000000 0.000000 0.000000 0.048038 0.000000 0.016235
# 5 0.001335 0.003227 0.012080 0.000000 0.060780 0.000000
# 6 0.000000 0.000000 0.000000 0.016235 0.000000 0.054434
#
#
# Mechanical properties :
#
#
# Convention : Reuss Voigt Hill
#
# Bulk Modulus (GPa) = 47.37461 63.98714 55.68088
# Shear Modulus (GPa) = 18.86992 21.76958 20.31975
#
# Velocity S-wave (km/s) = 3.42200 3.67553 3.55103
# Velocity P-wave (km/s) = 6.70915 7.59745 7.16708
#
# Compressibility (1/GPa) = 0.02110835
#
# Stress axis : x y z
#
# Youngs Moduli (GPa) = 44.30013 53.61041 59.98977
#
# Poissons Ratio (x) = 0.45004 0.25715
# Poissons Ratio (y) = 0.37188 0.34270
# Poissons Ratio (z) = 0.18989 0.30626
#
# Static dielectric constant tensor:
#      x y z
#    x 2.730680 0.000000 -0.298270 
#    y 0.000000 3.138760 0.000000 
#    z -0.298270 0.000000 3.131650 
# 
# 
# High freq. dielectric constant tensor:
#      x y z
#    x 1.569370 0.000000 -0.030860 
#    y 0.000000 1.627340 0.000000 
#    z -0.030860 0.000000 1.620130 
# 
# From -- ./inp_files/172097.got.cif
#   From: 2010.06.25/outbox.cif.g09.slc.cpg/sg12_87_cif.got.tgz:172097.got - 2010.06.28 00:19:55.
