data_PCOD8084041
_publ_section_title
;
Structure prediction by ZEFSAII (Michael W. Deem and Ramdas Pophale) SiO2 
 PCOD8084041
Probable space group: C 2/M
;
_chemical_formula_sum "Si O2"
_cell_formula_units_Z 56
_cell_length_a 9.591440
_cell_length_b 27.263057
_cell_length_c 17.234171
_cell_angle_alpha 90.000000
_cell_angle_beta 37.124628
_cell_angle_gamma 90.000000
_cell_volume 2719.960321
_symmetry_space_group_name_H-M "C 2/M"
_symmetry_group_IT_number 12
_symmetry_cell_setting 'monoclinic'
loop_
_space_group_symop_operation_xyz
x,y,z
-x,y,-z
-x,-y,-z
x,-y,z
1/2+x,1/2+y,z
1/2-x,1/2+y,-z
1/2-x,1/2-y,-z
1/2+x,1/2-y,z
loop_
_atom_site_type_symbol
_atom_site_label
_atom_site_fract_x
_atom_site_fract_y
_atom_site_fract_z
Si Si1 0.285362 0.696280 0.554599
Si Si2 0.745374 0.647182 0.591573
Si Si3 0.266957 0.634353 0.071427
Si Si4 0.191976 0.595041 0.677021
Si Si5 0.143505 0.055956 0.549903
Si Si6 0.934276 0.192161 0.854341
Si Si7 0.302039 0.769717 0.799252
O O1 0.500000 0.725258 0.500000
O O2 0.345861 0.677744 0.441791
O O3 0.248466 0.650483 0.628310
O O4 0.063949 0.732575 0.648767
O O5 0.748591 0.589137 0.571513
O O6 0.580611 0.655066 0.737474
O O7 0.000000 0.664803 0.500000
O O8 0.227175 0.678012 0.148845
O O9 0.057931 0.595093 0.169444
O O10 0.500000 0.607902 0.000000
O O11 0.286008 0.657685 0.977135
O O12 0.381606 0.574237 0.651800
O O13 0.197655 0.561223 0.597622
O O14 0.143315 0.000000 0.577835
O O15 0.104183 0.231832 0.821192
O O16 0.764068 0.225182 0.876614
#
# Coordination Sequence:
#
# PCOD8084041 Si02
#       7
#     8   8   8   8   8   8   8
#     4  10  18  34  56  84 113 157 196 248 301 344
#     4  11  22  38  57  86 124 157 195 247 312 362
#     4   9  20  37  58  84 118 167 202 242 285 345
#     4   9  16  34  63  89 117 146 194 239 293 356
#     4  10  20  36  65  96 117 144 189 249 307 364
#     4  11  23  37  55  83 118 162 208 247 294 343
#     4  10  22  36  55  81 118 158 207 257 283 336
#
# _framework density 20.588536000000001
#
# number of rings (size 3 to 8) (size 9 to 14) (size 15 to 20)
#    0.000    2.000    4.286    1.286    4.000    1.429 
#    0.000    2.143    0.000    4.286    0.000    0.000 
#    0.000    0.000    0.000    0.000    0.000    0.000 
#
# Total GULP energy -347121.510113 kJ/mol
# GULP energy per Si atom -12397.196790 kJ/mol
# Density = 2.054168 g / cm^3
# Si number density = 20.588536 Si / 1000 Ang^3
#
#
#
# Elastic Constant Matrix: (Units=GPa)
#
#
# Indices 1 2 3 4 5 6 
#
# 1 94.2524 31.7906 40.6613 0.0000 3.9892 0.0000
# 2 31.7906 62.9812 22.8530 0.0000 -1.1385 0.0000
# 3 40.6613 22.8530 117.9146 0.0000 -10.5116 -0.0001
# 4 0.0000 0.0000 0.0000 17.6834 0.0000 2.3335
# 5 3.9892 -1.1385 -10.5116 0.0000 23.2860 0.0000
# 6 0.0000 0.0000 -0.0001 2.3335 0.0000 17.8720
#
#
#
# Elastic Compliance Matrix: (Units=1/GPa)
#
#
# Indices 1 2 3 4 5 6 
#
# 1 0.014681 -0.005922 -0.004339 0.000000 -0.004763 0.000000
# 2 -0.005922 0.019478 -0.001623 0.000000 0.001234 0.000000
# 3 -0.004339 -0.001623 0.010785 0.000000 0.005532 0.000000
# 4 0.000000 0.000000 0.000000 0.057542 0.000000 -0.007513
# 5 -0.004763 0.001234 0.005532 0.000000 0.046318 0.000000
# 6 0.000000 0.000000 0.000000 -0.007513 0.000000 0.056935
#
#
# Mechanical properties :
#
#
# Convention : Reuss Voigt Hill
#
# Bulk Modulus (GPa) = 47.22479 51.75089 49.48784
# Shear Modulus (GPa) = 21.13583 23.75782 22.44682
#
# Velocity S-wave (km/s) = 3.20751 3.40065 3.30549
# Velocity P-wave (km/s) = 6.05844 6.37256 6.21748
#
# Compressibility (1/GPa) = 0.02117532
#
# Stress axis : x y z
#
# Youngs Moduli (GPa) = 68.11564 51.33971 92.72267
#
# Poissons Ratio (x) = 0.30403 0.40237
# Poissons Ratio (y) = 0.40337 0.15048
# Poissons Ratio (z) = 0.29558 0.08332
#
# Static dielectric constant tensor:
#      x y z
#    x 3.926620 0.000000 -0.292760 
#    y 0.000000 3.397170 0.000000 
#    z -0.292760 0.000000 4.237600 
# 
# 
# High freq. dielectric constant tensor:
#      x y z
#    x 1.807530 0.000000 -0.004640 
#    y 0.000000 1.762070 0.000000 
#    z -0.004640 0.000000 1.803640 
# 
# From -- ./inp_files/260102.got.cif
#   From: 2010.06.25/outbox.cif.g09.slc.cpg/sg12_131_cif.got.tgz:260102.got - 2010.06.28 00:19:55.
