data_PCOD8084050
_publ_section_title
;
Structure prediction by ZEFSAII (Michael W. Deem and Ramdas Pophale) SiO2 
 PCOD8084050
Probable space group: C 2/M
;
_chemical_formula_sum "Si O2"
_cell_formula_units_Z 56
_cell_length_a 17.163028
_cell_length_b 25.529364
_cell_length_c 9.237143
_cell_angle_alpha 90.000000
_cell_angle_beta 46.761071
_cell_angle_gamma 90.000000
_cell_volume 2948.513546
_symmetry_space_group_name_H-M "C 2/M"
_symmetry_group_IT_number 12
_symmetry_cell_setting 'monoclinic'
loop_
_space_group_symop_operation_xyz
x,y,z
-x,y,-z
-x,-y,-z
x,-y,z
1/2+x,1/2+y,z
1/2-x,1/2+y,-z
1/2-x,1/2-y,-z
1/2+x,1/2-y,z
loop_
_atom_site_type_symbol
_atom_site_label
_atom_site_fract_x
_atom_site_fract_y
_atom_site_fract_z
Si Si1 0.532473 0.775802 0.613015
Si Si2 0.602676 0.143284 0.767671
Si Si3 0.770405 0.937788 0.455389
Si Si4 0.755203 0.229351 0.653351
Si Si5 0.416754 0.287354 0.983140
Si Si6 0.097007 0.908960 0.971951
Si Si7 0.526427 0.559285 0.620332
O O1 0.500000 0.800570 0.500000
O O2 0.569890 0.823406 0.668022
O O3 0.619966 0.730048 0.467314
O O4 0.438074 0.742909 0.807004
O O5 0.659329 0.089451 0.644594
O O6 0.692637 0.174309 0.747159
O O7 0.500000 0.131004 0.000000
O O8 0.795039 0.921483 0.255409
O O9 0.869280 0.916500 0.429579
O O10 0.754575 0.000000 0.485930
O O11 0.750000 0.250000 0.500000
O O12 0.702642 0.272954 0.821864
O O13 0.500000 0.266483 0.000000
O O14 0.421771 0.348990 0.961970
O O15 0.000000 0.930933 0.000000
O O16 0.082470 0.938312 0.143966
O O17 0.500000 0.587430 0.500000
O O18 0.557972 0.500000 0.547028
#
# Coordination Sequence:
#
# PCOD8084050 Si02
#       7
#     8   8   8   8   8   8   8
#     4  11  23  36  56  87 121 146 187 240 284 337
#     4  11  21  41  61  77 109 158 199 238 284 338
#     4  10  21  37  59  87 110 151 203 239 282 339
#     4  10  18  34  57  75 107 151 185 216 274 337
#     4  11  18  34  54  84 111 152 191 221 274 348
#     4   9  18  29  53  81 116 146 185 224 277 346
#     4   9  18  34  55  84 122 150 178 235 299 345
#
# _framework density 18.992622000000001
#
# number of rings (size 3 to 8) (size 9 to 14) (size 15 to 20)
#    0.000    1.857    4.286    2.143    4.000    3.143 
#    0.000    1.429    0.000    0.429    0.000    0.000 
#    0.000    0.000    0.000    0.000    0.000    0.000 
#
# Total GULP energy -346886.436116 kJ/mol
# GULP energy per Si atom -12388.801290 kJ/mol
# Density = 1.894939 g / cm^3
# Si number density = 18.992622 Si / 1000 Ang^3
#
#
#
# Elastic Constant Matrix: (Units=GPa)
#
#
# Indices 1 2 3 4 5 6 
#
# 1 54.4259 26.9993 54.2584 0.0000 12.0193 0.0000
# 2 26.9993 71.5769 42.0090 0.0000 0.3304 0.0000
# 3 54.2584 42.0090 160.6679 0.0000 -4.0291 0.0000
# 4 0.0000 0.0000 0.0000 30.3459 0.0000 -6.5175
# 5 12.0193 0.3304 -4.0291 0.0000 32.6445 0.0000
# 6 0.0000 0.0000 0.0000 -6.5175 0.0000 15.1177
#
#
#
# Elastic Compliance Matrix: (Units=1/GPa)
#
#
# Indices 1 2 3 4 5 6 
#
# 1 0.035555 -0.007191 -0.010486 0.000000 -0.014313 0.000000
# 2 -0.007191 0.017974 -0.002216 0.000000 0.002192 0.000000
# 3 -0.010486 -0.002216 0.010474 0.000000 0.005176 0.000000
# 4 0.000000 0.000000 0.000000 0.036316 0.000000 0.015656
# 5 -0.014313 0.002192 0.005176 0.000000 0.036519 0.000000
# 6 0.000000 0.000000 0.000000 0.015656 0.000000 0.072897
#
#
# Mechanical properties :
#
#
# Convention : Reuss Voigt Hill
#
# Bulk Modulus (GPa) = 41.29291 59.24491 50.26891
# Shear Modulus (GPa) = 19.41024 26.51521 22.96272
#
# Velocity S-wave (km/s) = 3.20032 3.74047 3.48089
# Velocity P-wave (km/s) = 5.95356 7.06514 6.53303
#
# Compressibility (1/GPa) = 0.02421723
#
# Stress axis : x y z
#
# Youngs Moduli (GPa) = 28.12505 55.63540 95.47116
#
# Poissons Ratio (x) = 0.40010 1.00110
# Poissons Ratio (y) = 0.20226 0.21157
# Poissons Ratio (z) = 0.29492 0.12329
#
# Static dielectric constant tensor:
#      x y z
#    x 3.654720 0.000000 -0.061150 
#    y 0.000000 3.250580 0.000000 
#    z -0.061150 0.000000 3.755330 
# 
# 
# High freq. dielectric constant tensor:
#      x y z
#    x 1.694370 0.000000 0.003120 
#    y 0.000000 1.720040 0.000000 
#    z 0.003120 0.000000 1.757600 
# 
# From -- ./inp_files/79063.got.cif
#   From: 2010.06.25/outbox.cif.g09.slc.cpg/sg12_40_cif.got.tgz:79063.got - 2010.06.28 00:19:55.
