data_PCOD8084849
_publ_section_title
;
Structure prediction by ZEFSAII (Michael W. Deem and Ramdas Pophale) SiO2 
 PCOD8084849
Probable space group: C 2/M
;
_chemical_formula_sum "Si O2"
_cell_formula_units_Z 56
_cell_length_a 24.443055
_cell_length_b 9.240866
_cell_length_c 19.147129
_cell_angle_alpha 90.000000
_cell_angle_beta 49.384400
_cell_angle_gamma 90.000000
_cell_volume 3282.973917
_symmetry_space_group_name_H-M "C 2/M"
_symmetry_group_IT_number 12
_symmetry_cell_setting 'monoclinic'
loop_
_space_group_symop_operation_xyz
x,y,z
-x,y,-z
-x,-y,-z
x,-y,z
1/2+x,1/2+y,z
1/2-x,1/2+y,-z
1/2-x,1/2-y,-z
1/2+x,1/2-y,z
loop_
_atom_site_type_symbol
_atom_site_label
_atom_site_fract_x
_atom_site_fract_y
_atom_site_fract_z
Si Si1 0.047478 0.329404 0.898676
Si Si2 0.541276 0.168583 0.752161
Si Si3 0.300250 0.830912 0.403032
Si Si4 0.030758 0.667007 0.324197
Si Si5 0.935243 0.839876 0.500863
Si Si6 0.288432 0.833006 0.251519
Si Si7 0.842534 0.670438 0.681703
O O1 0.034759 0.500000 0.910361
O O2 0.022361 0.264691 0.843990
O O3 0.131254 0.292077 0.839471
O O4 0.000000 0.257015 0.000000
O O5 0.617252 0.227589 0.658130
O O6 0.473952 0.194208 0.755378
O O7 0.556181 0.000000 0.752650
O O8 0.250000 0.750000 0.500000
O O9 0.275507 0.798693 0.344065
O O10 0.294579 0.000000 0.424889
O O11 0.015404 0.500000 0.355904
O O12 0.108506 0.711626 0.291173
O O13 0.965073 0.761134 0.407931
O O14 0.873822 0.741392 0.585471
O O15 0.000000 0.856605 0.500000
O O16 0.904664 0.000000 0.507502
O O17 0.236866 0.736980 0.244473
O O18 0.271793 0.000000 0.249907
O O19 0.838323 0.500000 0.674848
#
# Coordination Sequence:
#
# PCOD8084849 Si02
#       7
#     8   8   8   8   8   8   8
#     4   8  14  28  52  76  92 110 144 192 241 284
#     4   8  15  28  45  66  91 116 147 189 233 271
#     4   9  18  30  43  62  89 119 148 184 227 269
#     4   9  17  29  44  64  91 123 158 192 224 266
#     4   9  17  28  41  59  86 122 160 195 227 256
#     4   9  18  31  46  68  95 118 149 192 233 273
#     4  10  19  29  43  63  90 126 163 190 218 267
#
# _framework density 17.057704999999999
#
# number of rings (size 3 to 8) (size 9 to 14) (size 15 to 20)
#    0.000    3.143    0.000    2.571    2.000    2.857 
#    0.000    0.000    0.000    2.143    0.000    0.000 
#    0.000    0.000    0.000    0.000    0.000    0.429 
#
# Total GULP energy -346929.546059 kJ/mol
# GULP energy per Si atom -12390.340931 kJ/mol
# Density = 1.701888 g / cm^3
# Si number density = 17.057705 Si / 1000 Ang^3
#
#
#
# Elastic Constant Matrix: (Units=GPa)
#
#
# Indices 1 2 3 4 5 6 
#
# 1 118.2713 41.8001 58.5503 -0.0019 1.5683 0.0006
# 2 41.8001 55.0627 32.4679 -0.0124 -1.5474 0.0058
# 3 58.5503 32.4679 124.4030 -0.0049 5.7148 0.0023
# 4 -0.0019 -0.0124 -0.0049 13.4599 0.0032 -3.5298
# 5 1.5683 -1.5474 5.7148 0.0032 16.4471 -0.0012
# 6 0.0006 0.0058 0.0023 -3.5298 -0.0012 19.6154
#
#
#
# Elastic Compliance Matrix: (Units=1/GPa)
#
#
# Indices 1 2 3 4 5 6 
#
# 1 0.013228 -0.007562 -0.004229 -0.000006 -0.000503 0.000001
# 2 -0.007562 0.026054 -0.003441 0.000020 0.004368 -0.000003
# 3 -0.004229 -0.003441 0.011100 0.000001 -0.003778 0.000000
# 4 -0.000006 0.000020 0.000001 0.077974 -0.000012 0.014031
# 5 -0.000503 0.004368 -0.003778 -0.000012 0.062573 0.000001
# 6 0.000001 -0.000003 0.000000 0.014031 0.000001 0.053505
#
#
# Mechanical properties :
#
#
# Convention : Reuss Voigt Hill
#
# Bulk Modulus (GPa) = 50.20785 62.59705 56.40245
# Shear Modulus (GPa) = 17.75954 20.89907 19.32931
#
# Velocity S-wave (km/s) = 3.23018 3.50408 3.36991
# Velocity P-wave (km/s) = 6.58863 7.29029 6.94832
#
# Compressibility (1/GPa) = 0.01991721
#
# Stress axis : x y z
#
# Youngs Moduli (GPa) = 75.59638 38.38192 90.08690
#
# Poissons Ratio (x) = 0.29026 0.38097
# Poissons Ratio (y) = 0.57170 0.31000
# Poissons Ratio (z) = 0.31969 0.13208
#
# Static dielectric constant tensor:
#      x y z
#    x 3.265730 0.000000 0.033250 
#    y 0.000000 3.005370 0.000000 
#    z 0.033250 0.000000 3.170030 
# 
# 
# High freq. dielectric constant tensor:
#      x y z
#    x 1.663510 0.000000 -0.000820 
#    y 0.000000 1.631250 0.000000 
#    z -0.000820 0.000000 1.625360 
# 
# From -- ./inp_files/287334.got.cif
#   From: 2010.06.25/outbox.cif.g09.slc.cpg/sg12_144_cif.got.tgz:287334.got - 2010.06.28 00:19:55.
