data_PCOD8084487
_publ_section_title
;
Structure prediction by ZEFSAII (Michael W. Deem and Ramdas Pophale) SiO2 
 PCOD8084487
Probable space group: C 2/M
;
_chemical_formula_sum "Si O2"
_cell_formula_units_Z 64
_cell_length_a 17.459826
_cell_length_b 22.682026
_cell_length_c 14.793870
_cell_angle_alpha 90.000000
_cell_angle_beta 33.107634
_cell_angle_gamma 90.000000
_cell_volume 3200.118354
_symmetry_space_group_name_H-M "C 2/M"
_symmetry_group_IT_number 12
_symmetry_cell_setting 'monoclinic'
loop_
_space_group_symop_operation_xyz
x,y,z
-x,y,-z
-x,-y,-z
x,-y,z
1/2+x,1/2+y,z
1/2-x,1/2+y,-z
1/2-x,1/2-y,-z
1/2+x,1/2-y,z
loop_
_atom_site_type_symbol
_atom_site_label
_atom_site_fract_x
_atom_site_fract_y
_atom_site_fract_z
Si Si1 0.894561 0.146096 0.957879
Si Si2 0.590236 0.763941 0.495729
Si Si3 0.373621 0.566302 0.348405
Si Si4 0.823768 0.567821 0.743307
Si Si5 0.039398 0.934122 0.358914
Si Si6 0.854518 0.817075 0.805454
Si Si7 0.148269 0.745865 0.880781
Si Si8 0.116893 0.609164 0.507947
O O1 0.841390 0.185764 0.926283
O O2 0.044558 0.116344 0.789706
O O3 0.792398 0.091153 0.073538
O O4 0.893872 0.188153 0.045779
O O5 0.500000 0.786185 0.500000
O O6 0.505223 0.711260 0.627968
O O7 0.745491 0.743977 0.309821
O O8 0.601040 0.821404 0.548908
O O9 0.411191 0.500000 0.277912
O O10 0.405687 0.571765 0.423804
O O11 0.209827 0.578807 0.493738
O O12 0.797300 0.500000 0.746858
O O13 0.812806 0.603848 0.660641
O O14 0.970148 0.575478 0.650398
O O15 0.000000 0.919463 0.500000
O O16 0.152205 0.885662 0.217445
O O17 0.104331 0.000000 0.287688
O O18 0.720714 0.786498 0.893327
O O19 0.000000 0.715102 0.000000
#
# Coordination Sequence:
#
# PCOD8084487 Si02
#       8
#     8   8   8   8   8   8   8   8
#     4  11  22  38  55  82 117 155 201 243 293 345
#     4  10  18  36  59  79 115 160 198 235 286 352
#     4  10  21  35  56  86 118 150 196 251 289 341
#     4  11  21  34  56  82 121 167 198 231 286 351
#     4   9  18  37  61  82 105 139 188 243 294 346
#     4  10  22  39  60  83 111 153 198 236 296 363
#     4  11  21  36  57  84 115 146 190 248 300 351
#     4  11  19  36  54  86 121 157 198 238 288 345
#
# _framework density 19.999261000000001
#
# number of rings (size 3 to 8) (size 9 to 14) (size 15 to 20)
#    0.000    1.625    2.500    4.875    0.000    0.500 
#    0.000   11.875    0.000    0.375    0.000    0.000 
#    0.000    0.000    0.000    0.000    0.000    0.000 
#
# Total GULP energy -396694.957378 kJ/mol
# GULP energy per Si atom -12396.717418 kJ/mol
# Density = 1.995374 g / cm^3
# Si number density = 19.999261 Si / 1000 Ang^3
#
#
#
# Elastic Constant Matrix: (Units=GPa)
#
#
# Indices 1 2 3 4 5 6 
#
# 1 77.6743 22.5517 30.9273 -0.0023 -19.3760 0.0028
# 2 22.5517 85.7335 13.5289 0.0018 -3.7706 -0.0055
# 3 30.9273 13.5289 68.3814 0.0076 -8.3863 -0.0063
# 4 -0.0023 0.0018 0.0076 23.2390 -0.0033 7.3917
# 5 -19.3760 -3.7706 -8.3863 -0.0033 25.9871 0.0068
# 6 0.0028 -0.0055 -0.0063 7.3917 0.0068 23.7162
#
#
#
# Elastic Compliance Matrix: (Units=1/GPa)
#
#
# Indices 1 2 3 4 5 6 
#
# 1 0.019531 -0.003562 -0.006670 0.000010 0.011893 -0.000011
# 2 -0.003562 0.012715 -0.001046 -0.000002 -0.001148 0.000004
# 3 -0.006670 -0.001046 0.017929 -0.000009 0.000661 0.000008
# 4 0.000010 -0.000002 -0.000009 0.047766 0.000014 -0.014888
# 5 0.011893 -0.001148 0.000661 0.000014 0.047395 -0.000019
# 6 -0.000011 0.000004 0.000008 -0.014888 -0.000019 0.046805
#
#
# Mechanical properties :
#
#
# Convention : Reuss Voigt Hill
#
# Bulk Modulus (GPa) = 36.20595 40.64501 38.42548
# Shear Modulus (GPa) = 22.33108 25.57388 23.95248
#
# Velocity S-wave (km/s) = 3.34517 3.57983 3.46449
# Velocity P-wave (km/s) = 5.75006 6.11999 5.93791
#
# Compressibility (1/GPa) = 0.02761977
#
# Stress axis : x y z
#
# Youngs Moduli (GPa) = 51.20068 78.64427 55.77704
#
# Poissons Ratio (x) = 0.28012 0.37204
# Poissons Ratio (y) = 0.18237 0.05832
# Poissons Ratio (z) = 0.34152 0.08223
#
# Static dielectric constant tensor:
#      x y z
#    x 3.580400 0.000000 -0.042260 
#    y 0.000000 3.698030 0.000010 
#    z -0.042260 0.000010 3.480760 
# 
# 
# High freq. dielectric constant tensor:
#      x y z
#    x 1.770960 0.000000 -0.003580 
#    y 0.000000 1.790510 0.000000 
#    z -0.003580 0.000000 1.755110 
# 
# From -- ./inp_files/228150.got.cif
#   From: 2010.06.25/outbox.cif.g09.slc.cpg/sg12_115_cif.got.tgz:228150.got - 2010.06.28 00:19:55.
