data_PCOD8084425
_publ_section_title
;
Structure prediction by ZEFSAII (Michael W. Deem and Ramdas Pophale) SiO2 
 PCOD8084425
Probable space group: C 2/M
;
_chemical_formula_sum "Si O2"
_cell_formula_units_Z 48
_cell_length_a 31.665532
_cell_length_b 13.784962
_cell_length_c 10.094425
_cell_angle_alpha 90.000000
_cell_angle_beta 145.412115
_cell_angle_gamma 90.000000
_cell_volume 2501.322263
_symmetry_space_group_name_H-M "C 2/M"
_symmetry_group_IT_number 12
_symmetry_cell_setting 'monoclinic'
loop_
_space_group_symop_operation_xyz
x,y,z
-x,y,-z
-x,-y,-z
x,-y,z
1/2+x,1/2+y,z
1/2-x,1/2+y,-z
1/2-x,1/2-y,-z
1/2+x,1/2-y,z
loop_
_atom_site_type_symbol
_atom_site_label
_atom_site_fract_x
_atom_site_fract_y
_atom_site_fract_z
Si Si1 0.088180 0.606510 0.731459
Si Si2 0.583089 0.783584 0.462023
Si Si3 0.925210 0.889793 0.379192
Si Si4 0.835896 0.387578 0.559552
Si Si5 0.089668 0.705693 0.002040
Si Si6 0.162419 0.109002 0.106071
O O1 0.123323 0.500000 0.836195
O O2 0.115510 0.651886 0.664971
O O3 0.000000 0.601586 0.500000
O O4 0.116142 0.670717 0.925713
O O5 0.591113 0.671808 0.530261
O O6 0.631958 0.810208 0.461709
O O7 0.498137 0.805385 0.204542
O O8 0.000000 0.848835 0.500000
O O9 0.938402 0.000000 0.459794
O O10 0.858128 0.880473 0.102120
O O11 0.853542 0.500000 0.567139
O O12 0.871721 0.364011 0.792945
O O13 0.748789 0.368653 0.344591
O O14 0.116089 0.817687 0.080401
O O15 0.143033 0.000000 0.104325
#
# Coordination Sequence:
#
# PCOD8084425 Si02
#       6
#     8   8   8   8   8   8
#     4   9  17  30  52  79 108 143 191 236 270 321
#     4  11  20  35  58  87 115 148 189 240 294 335
#     4  10  18  35  63  89 111 145 198 247 284 333
#     4  11  25  39  55  84 125 160 185 228 295 353
#     4  11  20  37  59  84 110 154 201 236 276 338
#     4  10  21  39  62  85 113 154 197 237 286 343
#
# _framework density 19.189851999999998
#
# number of rings (size 3 to 8) (size 9 to 14) (size 15 to 20)
#    0.000    1.667    3.333    2.500    0.000    3.333 
#    0.000    0.833    0.000    3.000    0.000    0.000 
#    0.000    0.000    0.000    0.000    0.000    0.000 
#
# Total GULP energy -297599.276173 kJ/mol
# GULP energy per Si atom -12399.969841 kJ/mol
# Density = 1.914617 g / cm^3
# Si number density = 19.189852 Si / 1000 Ang^3
#
#
#
# Elastic Constant Matrix: (Units=GPa)
#
#
# Indices 1 2 3 4 5 6 
#
# 1 -23.4824 -37.0326 -152.4284 0.0000 -65.7022 0.0000
# 2 -37.0326 58.5059 -130.8917 0.0000 -50.4090 0.0000
# 3 -152.4284 -130.8917 -282.4711 0.0000 -128.2983 0.0000
# 4 0.0000 0.0000 0.0000 29.4029 0.0000 -4.8957
# 5 -65.7022 -50.4090 -128.2983 0.0000 -20.8073 0.0000
# 6 0.0000 0.0000 0.0000 -4.8957 0.0000 31.7973
#
#
#
# Elastic Compliance Matrix: (Units=1/GPa)
#
#
# Indices 1 2 3 4 5 6 
#
# 1 0.020296 -0.005682 -0.008073 0.000000 -0.000541 0.000000
# 2 -0.005682 0.010139 -0.000764 0.000000 -0.001912 0.000000
# 3 -0.008073 -0.000764 0.006247 0.000000 -0.011178 0.000000
# 4 0.000000 0.000000 0.000000 0.034905 0.000000 0.005374
# 5 -0.000541 -0.001912 -0.011178 0.000000 0.027203 0.000000
# 6 0.000000 0.000000 0.000000 0.005374 0.000000 0.032277
#
#
# Mechanical properties :
#
#
# Convention : Reuss Voigt Hill
#
# Bulk Modulus (GPa) = 130.82071 -98.68367 16.06852
# Shear Modulus (GPa) = 30.74005 12.93893 21.83949
#
# Velocity S-wave (km/s) = 4.00671 2.59947 3.37720
# Velocity P-wave (km/s) = 9.47231 6.52127 4.85787
#
# Compressibility (1/GPa) = 0.00764405
#
# Stress axis : x y z
#
# Youngs Moduli (GPa) = 49.27126 98.62551 160.06600
#
# Poissons Ratio (x) = 0.56037 1.29227
# Poissons Ratio (y) = 0.27995 0.12230
# Poissons Ratio (z) = 0.39778 0.07536
#
# Static dielectric constant tensor:
#      x y z
#    x 3.080960 0.000000 -0.062080 
#    y 0.000000 3.782600 0.000000 
#    z -0.062080 0.000000 3.582150 
# 
# 
# High freq. dielectric constant tensor:
#      x y z
#    x 1.702940 0.000000 -0.004990 
#    y 0.000000 1.764030 0.000000 
#    z -0.004990 0.000000 1.751300 
# 
# From -- ./inp_files/111484.got.cif
#   From: 2010.06.25/outbox.cif.g09.slc.cpg/sg12_56_cif.got.tgz:111484.got - 2010.06.28 00:19:55.
