data_PCOD8084422
_publ_section_title
;
Structure prediction by ZEFSAII (Michael W. Deem and Ramdas Pophale) SiO2 
 PCOD8084422
Probable space group: C 2/M
;
_chemical_formula_sum "Si O2"
_cell_formula_units_Z 56
_cell_length_a 18.963352
_cell_length_b 16.048381
_cell_length_c 9.723303
_cell_angle_alpha 90.000000
_cell_angle_beta 95.946174
_cell_angle_gamma 90.000000
_cell_volume 2943.182479
_symmetry_space_group_name_H-M "C 2/M"
_symmetry_group_IT_number 12
_symmetry_cell_setting 'monoclinic'
loop_
_space_group_symop_operation_xyz
x,y,z
-x,y,-z
-x,-y,-z
x,-y,z
1/2+x,1/2+y,z
1/2-x,1/2+y,-z
1/2-x,1/2-y,-z
1/2+x,1/2-y,z
loop_
_atom_site_type_symbol
_atom_site_label
_atom_site_fract_x
_atom_site_fract_y
_atom_site_fract_z
Si Si1 0.175554 0.752595 0.558396
Si Si2 0.715339 0.406032 0.704408
Si Si3 0.307404 0.405915 0.983900
Si Si4 0.916628 0.223454 0.963937
Si Si5 0.594420 0.000000 0.902619
Si Si6 0.628565 0.835071 0.296400
Si Si7 0.932620 0.500000 0.798224
Si Si8 0.166290 0.334255 0.843111
O O1 0.250000 0.750000 0.500000
O O2 0.161801 0.849049 0.601473
O O3 0.119063 0.717156 0.436241
O O4 0.177173 0.692424 0.689168
O O5 0.720490 0.500000 0.644602
O O6 0.790886 0.360057 0.720131
O O7 0.685380 0.408703 0.851099
O O8 0.297633 0.500000 0.923920
O O9 0.242614 0.346316 0.928726
O O10 0.379352 0.366435 0.935821
O O11 0.880400 0.265441 0.089058
O O12 0.904378 0.280964 0.830865
O O13 0.000000 0.210481 0.000000
O O14 0.625394 0.920591 0.833642
O O15 0.511589 0.000000 0.866021
O O16 0.615011 0.000000 0.070200
O O17 0.583258 0.919635 0.297800
#
# Coordination Sequence:
#
# PCOD8084422 Si02
#       8
#     8   8   8   8   4   8   4   8
#     4  10  23  38  58  90 126 160 202 261 311 366
#     4  10  18  35  62  90 115 154 207 259 307 358
#     4  11  21  37  65  93 118 156 206 267 311 356
#     4  12  24  39  63  91 124 167 210 254 307 371
#     4  11  22  35  63  97 126 161 207 254 300 374
#     4  11  21  38  59  88 127 168 198 246 315 372
#     4  11  20  37  59  91 135 169 198 240 315 382
#     4  12  21  41  63  93 125 157 213 258 309 370
#
# _framework density 19.027023
#
# number of rings (size 3 to 8) (size 9 to 14) (size 15 to 20)
#    0.000    1.000    5.714    3.000    0.000    0.857 
#    1.286    4.286    0.000    0.000    0.000    2.000 
#    0.000    0.000    0.000    0.000    0.000    0.000 
#
# Total GULP energy -347150.701933 kJ/mol
# GULP energy per Si atom -12398.239355 kJ/mol
# Density = 1.898372 g / cm^3
# Si number density = 19.027023 Si / 1000 Ang^3
#
#
#
# Elastic Constant Matrix: (Units=GPa)
#
#
# Indices 1 2 3 4 5 6 
#
# 1 94.0471 43.1543 27.0299 0.0000 2.1254 0.0000
# 2 43.1543 92.7410 24.5791 0.0000 3.3375 0.0000
# 3 27.0299 24.5791 91.5405 0.0000 2.2795 0.0000
# 4 0.0000 0.0000 0.0000 34.6584 0.0000 10.7655
# 5 2.1254 3.3375 2.2795 0.0000 18.9040 0.0000
# 6 0.0000 0.0000 0.0000 10.7655 0.0000 19.2094
#
#
#
# Elastic Compliance Matrix: (Units=1/GPa)
#
#
# Indices 1 2 3 4 5 6 
#
# 1 0.014064 -0.005853 -0.002575 0.000000 -0.000237 0.000000
# 2 -0.005853 0.014098 -0.002018 0.000000 -0.001588 0.000000
# 3 -0.002575 -0.002018 0.012247 0.000000 -0.000831 0.000000
# 4 0.000000 0.000000 0.000000 0.034934 0.000000 -0.019578
# 5 -0.000237 -0.001588 -0.000831 0.000000 0.053306 0.000000
# 6 0.000000 0.000000 0.000000 -0.019578 0.000000 0.063030
#
#
# Mechanical properties :
#
#
# Convention : Reuss Voigt Hill
#
# Bulk Modulus (GPa) = 51.23707 51.98391 51.61049
# Shear Modulus (GPa) = 22.82287 26.79205 24.80746
#
# Velocity S-wave (km/s) = 3.46713 3.75654 3.61474
# Velocity P-wave (km/s) = 6.55859 6.79676 6.67873
#
# Compressibility (1/GPa) = 0.01951712
#
# Stress axis : x y z
#
# Youngs Moduli (GPa) = 71.10161 70.93078 81.65282
#
# Poissons Ratio (x) = 0.41518 0.21028
# Poissons Ratio (y) = 0.41618 0.16474
# Poissons Ratio (z) = 0.18311 0.14311
#
# Static dielectric constant tensor:
#      x y z
#    x 3.373200 0.000000 0.119690 
#    y 0.000000 4.033600 0.000000 
#    z 0.119690 0.000000 3.823820 
# 
# 
# High freq. dielectric constant tensor:
#      x y z
#    x 1.714740 0.000000 0.001680 
#    y 0.000000 1.756700 0.000000 
#    z 0.001680 0.000000 1.729640 
# 
# From -- ./inp_files/86409.got.cif
#   From: 2010.06.25/outbox.cif.g09.slc.cpg/sg12_44_cif.got.tgz:86409.got - 2010.06.28 00:19:55.
