data_PCOD8084822
_publ_section_title
;
Structure prediction by ZEFSAII (Michael W. Deem and Ramdas Pophale) SiO2 
 PCOD8084822
Probable space group: C 2/M
;
_chemical_formula_sum "Si O2"
_cell_formula_units_Z 56
_cell_length_a 28.613485
_cell_length_b 9.168697
_cell_length_c 13.689589
_cell_angle_alpha 90.000000
_cell_angle_beta 104.903195
_cell_angle_gamma 90.000000
_cell_volume 3470.631573
_symmetry_space_group_name_H-M "C 2/M"
_symmetry_group_IT_number 12
_symmetry_cell_setting 'monoclinic'
loop_
_space_group_symop_operation_xyz
x,y,z
-x,y,-z
-x,-y,-z
x,-y,z
1/2+x,1/2+y,z
1/2-x,1/2+y,-z
1/2-x,1/2-y,-z
1/2+x,1/2-y,z
loop_
_atom_site_type_symbol
_atom_site_label
_atom_site_fract_x
_atom_site_fract_y
_atom_site_fract_z
Si Si1 0.055754 0.666970 0.425529
Si Si2 0.507982 0.668868 0.114049
Si Si3 0.898589 0.166328 0.721049
Si Si4 0.799007 0.829883 0.413077
Si Si5 0.958152 0.667547 0.259485
Si Si6 0.100446 0.173305 0.623411
Si Si7 0.793771 0.833367 0.634592
O O1 0.068680 0.500000 0.457876
O O2 0.090879 0.722006 0.359574
O O3 0.062579 0.766282 0.523904
O O4 0.000830 0.681376 0.361125
O O5 0.493426 0.500000 0.117658
O O6 0.564684 0.693271 0.169803
O O7 0.473505 0.762011 0.165280
O O8 0.500000 0.724482 0.000000
O O9 0.842883 0.192303 0.724041
O O10 0.904052 0.000000 0.684023
O O11 0.845566 0.776529 0.377418
O O12 0.805349 0.784566 0.529542
O O13 0.750365 0.757521 0.343413
O O14 0.792684 0.000000 0.397132
O O15 0.943966 0.500000 0.233145
O O16 0.912346 0.755023 0.278766
O O17 0.095368 0.000000 0.627004
O O18 0.777268 0.000000 0.628291
#
# Coordination Sequence:
#
# PCOD8084822 Si02
#       7
#     8   8   8   8   8   8   8
#     4  10  19  29  42  63  92 123 156 189 220 263
#     4   9  18  33  53  74  93 117 150 187 229 276
#     4   9  16  29  47  67  93 121 153 189 224 269
#     4   9  18  29  41  61  89 121 157 191 222 260
#     4  10  21  33  45  66  93 121 153 188 228 272
#     4  11  20  31  45  63  90 125 159 189 225 266
#     4   9  16  28  43  62  88 121 156 188 224 262
#
# _framework density 16.135392
#
# number of rings (size 3 to 8) (size 9 to 14) (size 15 to 20)
#    0.000    2.429    1.429    1.714    0.000    5.429 
#    0.000    0.000    0.000    0.000    0.000    1.000 
#    0.000    0.000    0.000    0.000    0.000    0.000 
#
# Total GULP energy -347142.185889 kJ/mol
# GULP energy per Si atom -12397.935210 kJ/mol
# Density = 1.609867 g / cm^3
# Si number density = 16.135392 Si / 1000 Ang^3
#
#
#
# Elastic Constant Matrix: (Units=GPa)
#
#
# Indices 1 2 3 4 5 6 
#
# 1 110.3158 52.1159 49.0926 0.0000 -12.1203 0.0000
# 2 52.1159 74.9693 38.3916 0.0000 -10.6219 0.0000
# 3 49.0926 38.3916 76.8831 0.0000 -7.1689 0.0000
# 4 0.0000 0.0000 0.0000 16.5294 0.0000 -0.5083
# 5 -12.1203 -10.6219 -7.1689 0.0000 14.9712 0.0000
# 6 0.0000 0.0000 0.0000 -0.5083 0.0000 26.1346
#
#
#
# Elastic Compliance Matrix: (Units=1/GPa)
#
#
# Indices 1 2 3 4 5 6 
#
# 1 0.015604 -0.007123 -0.005967 0.000000 0.004722 0.000000
# 2 -0.007123 0.022360 -0.005941 0.000000 0.007253 0.000000
# 3 -0.005967 -0.005941 0.019825 0.000000 0.000448 0.000000
# 4 0.000000 0.000000 0.000000 0.060535 0.000000 0.001177
# 5 0.004722 0.007253 0.000448 0.000000 0.075978 0.000000
# 6 0.000000 0.000000 0.000000 0.001177 0.000000 0.038286
#
#
# Mechanical properties :
#
#
# Convention : Reuss Voigt Hill
#
# Bulk Modulus (GPa) = 50.68875 60.15206 55.42040
# Shear Modulus (GPa) = 18.03586 19.69825 18.86705
#
# Velocity S-wave (km/s) = 3.34695 3.49780 3.42321
# Velocity P-wave (km/s) = 6.81315 7.32621 7.07433
#
# Compressibility (1/GPa) = 0.01972824
#
# Stress axis : x y z
#
# Youngs Moduli (GPa) = 64.08645 44.72195 50.44104
#
# Poissons Ratio (x) = 0.31854 0.30096
# Poissons Ratio (y) = 0.45647 0.29968
# Poissons Ratio (z) = 0.38238 0.26570
#
# Static dielectric constant tensor:
#      x y z
#    x 3.173490 0.000000 0.046250 
#    y 0.000000 3.109890 0.000000 
#    z 0.046250 0.000000 2.755880 
# 
# 
# High freq. dielectric constant tensor:
#      x y z
#    x 1.620980 0.000000 -0.000500 
#    y 0.000000 1.627830 0.000000 
#    z -0.000500 0.000000 1.570340 
# 
# From -- ./inp_files/247822.got.cif
#   From: 2010.06.25/outbox.cif.g09.slc.cpg/sg12_124_cif.got.tgz:247822.got - 2010.06.28 00:19:55.
