data_PCOD8084929
_publ_section_title
;
Structure prediction by ZEFSAII (Michael W. Deem and Ramdas Pophale) SiO2 
 PCOD8084929
Probable space group: C 2/M
;
_chemical_formula_sum "Si O2"
_cell_formula_units_Z 56
_cell_length_a 19.173626
_cell_length_b 9.354803
_cell_length_c 20.520022
_cell_angle_alpha 90.000000
_cell_angle_beta 61.925689
_cell_angle_gamma 90.000000
_cell_volume 3247.518872
_symmetry_space_group_name_H-M "C 2/M"
_symmetry_group_IT_number 12
_symmetry_cell_setting 'monoclinic'
loop_
_space_group_symop_operation_xyz
x,y,z
-x,y,-z
-x,-y,-z
x,-y,z
1/2+x,1/2+y,z
1/2-x,1/2+y,-z
1/2-x,1/2-y,-z
1/2+x,1/2-y,z
loop_
_atom_site_type_symbol
_atom_site_label
_atom_site_fract_x
_atom_site_fract_y
_atom_site_fract_z
Si Si1 0.401763 0.658157 0.857078
Si Si2 0.761135 0.342422 0.149869
Si Si3 0.214340 0.665193 0.423599
Si Si4 0.173791 0.332918 0.009042
Si Si5 0.465139 0.668482 0.696335
Si Si6 0.685002 0.832462 0.287956
Si Si7 0.631834 0.332971 0.565724
O O1 0.420758 0.500000 0.875978
O O2 0.318416 0.658487 0.857084
O O3 0.401436 0.767204 0.918771
O O4 0.465548 0.703826 0.773864
O O5 0.773519 0.500000 0.175399
O O6 0.754711 0.226324 0.210096
O O7 0.832358 0.309401 0.066920
O O8 0.196097 0.500000 0.444302
O O9 0.211925 0.702955 0.348915
O O10 0.300840 0.708055 0.411708
O O11 0.147021 0.753460 0.490908
O O12 0.181486 0.500000 0.022602
O O13 0.250000 0.250000 0.000000
O O14 0.449330 0.500000 0.692841
O O15 0.397719 0.755033 0.688416
O O16 0.548649 0.718710 0.631168
O O17 0.674872 0.000000 0.279589
O O18 0.630836 0.500000 0.551274
#
# Coordination Sequence:
#
# PCOD8084929 Si02
#       7
#     8   8   8   8   8   8   8
#     4   8  14  24  37  56  83 111 140 177 216 252
#     4   8  15  26  38  56  85 117 148 180 212 254
#     4   9  19  34  49  68  91 113 144 185 224 260
#     4   9  15  22  34  54  81 113 145 176 211 251
#     4   9  18  31  46  66  91 118 149 182 216 259
#     4  10  19  29  44  67  94 119 142 179 227 265
#     4   9  18  34  53  67  84 116 152 182 215 261
#
# _framework density 17.243935
#
# number of rings (size 3 to 8) (size 9 to 14) (size 15 to 20)
#    0.000    3.143    0.000    2.571    0.000    8.000 
#    0.000    2.857    0.000    0.000    0.000    1.000 
#    0.000    8.000    0.000    0.000    0.000    0.000 
#
# Total GULP energy -346986.905443 kJ/mol
# GULP energy per Si atom -12392.389480 kJ/mol
# Density = 1.720469 g / cm^3
# Si number density = 17.243935 Si / 1000 Ang^3
#
#
#
# Elastic Constant Matrix: (Units=GPa)
#
#
# Indices 1 2 3 4 5 6 
#
# 1 30.8124 28.0722 34.5873 0.0000 8.1778 -0.0001
# 2 28.0722 86.2263 68.9039 -0.0001 9.5352 -0.0003
# 3 34.5873 68.9039 138.0250 0.0000 18.4722 0.0000
# 4 0.0000 -0.0001 0.0000 36.9144 0.0000 1.9193
# 5 8.1778 9.5352 18.4722 0.0000 5.3053 0.0000
# 6 -0.0001 -0.0003 0.0000 1.9193 0.0000 14.6632
#
#
#
# Elastic Compliance Matrix: (Units=1/GPa)
#
#
# Indices 1 2 3 4 5 6 
#
# 1 0.064077 -0.012882 0.000925 0.000000 -0.078839 0.000000
# 2 -0.012882 0.021897 -0.009538 0.000000 0.013713 0.000000
# 3 0.000925 -0.009538 0.018111 0.000000 -0.047342 0.000000
# 4 0.000000 0.000000 0.000000 0.027275 0.000000 -0.003570
# 5 -0.078839 0.013713 -0.047342 0.000000 0.450207 0.000000
# 6 0.000000 0.000000 0.000000 -0.003570 0.000000 0.068665
#
#
# Mechanical properties :
#
#
# Convention : Reuss Voigt Hill
#
# Bulk Modulus (GPa) = 16.36820 57.57673 36.97246
# Shear Modulus (GPa) = 7.00685 19.60992 13.30838
#
# Velocity S-wave (km/s) = 2.01797 3.37591 2.78109
# Velocity P-wave (km/s) = 3.86553 6.97551 5.63915
#
# Compressibility (1/GPa) = 0.06109409
#
# Stress axis : x y z
#
# Youngs Moduli (GPa) = 15.60631 45.66787 55.21587
#
# Poissons Ratio (x) = 0.58830 -0.05110
# Poissons Ratio (y) = 0.20104 0.52667
# Poissons Ratio (z) = -0.01444 0.43560
#
# Static dielectric constant tensor:
#      x y z
#    x 2.719970 0.000000 -0.108370 
#    y 0.000000 3.370390 0.000000 
#    z -0.108370 0.000000 4.025510 
# 
# 
# High freq. dielectric constant tensor:
#      x y z
#    x 1.599940 0.000000 -0.001490 
#    y 0.000000 1.669150 0.000000 
#    z -0.001490 0.000000 1.687980 
# 
# From -- ./inp_files/319042.got.cif
#   From: 2010.06.25/outbox.cif.g09.slc.cpg/sg12_160_cif.got.tgz:319042.got - 2010.06.28 00:19:55.
