data_PCOD8084253
_publ_section_title
;
Structure prediction by ZEFSAII (Michael W. Deem and Ramdas Pophale) SiO2 
 PCOD8084253
Probable space group: C 2/M
;
_chemical_formula_sum "Si O2"
_cell_formula_units_Z 64
_cell_length_a 11.645550
_cell_length_b 14.769483
_cell_length_c 17.051362
_cell_angle_alpha 90.000000
_cell_angle_beta 83.447435
_cell_angle_gamma 90.000000
_cell_volume 2913.654634
_symmetry_space_group_name_H-M "C 2/M"
_symmetry_group_IT_number 12
_symmetry_cell_setting 'monoclinic'
loop_
_space_group_symop_operation_xyz
x,y,z
-x,y,-z
-x,-y,-z
x,-y,z
1/2+x,1/2+y,z
1/2-x,1/2+y,-z
1/2-x,1/2-y,-z
1/2+x,1/2-y,z
loop_
_atom_site_type_symbol
_atom_site_label
_atom_site_fract_x
_atom_site_fract_y
_atom_site_fract_z
Si Si1 0.524120 0.791799 0.409685
Si Si2 0.831338 0.099592 0.790977
Si Si3 0.011737 0.100406 0.651609
Si Si4 0.631318 0.163329 0.717122
Si Si5 0.800645 0.723294 0.079119
Si Si6 0.991674 0.395440 0.123746
Si Si7 0.744484 0.098268 0.142675
Si Si8 0.746390 0.349971 0.690173
O O1 0.500000 0.821166 0.500000
O O2 0.522470 0.682013 0.403999
O O3 0.424442 0.839841 0.365057
O O4 0.648734 0.829219 0.376308
O O5 0.954024 0.123769 0.741115
O O6 0.737358 0.095168 0.726475
O O7 0.796430 0.171607 0.860649
O O8 0.837534 0.000000 0.829317
O O9 0.149934 0.094260 0.650128
O O10 0.970301 0.000000 0.625362
O O11 0.532011 0.143938 0.788027
O O12 0.686134 0.260719 0.728118
O O13 0.916796 0.662280 0.066184
O O14 0.832243 0.820559 0.115999
O O15 0.750000 0.750000 0.000000
O O16 0.952341 0.500000 0.119442
O O17 0.128352 0.385726 0.099668
O O18 0.710469 0.095048 0.237305
O O19 0.798055 0.000000 0.116249
#
# Coordination Sequence:
#
# PCOD8084253 Si02
#       8
#     8   8   8   8   8   8   8   8
#     4  11  23  38  63  92 128 168 209 260 330 385
#     4  10  20  40  67  94 121 168 226 267 306 379
#     4  10  22  39  62  89 124 165 214 269 315 373
#     4  10  18  34  64  88 119 158 210 259 304 364
#     4  11  23  38  59  92 131 161 198 259 321 370
#     4  10  21  39  65  91 118 161 211 259 302 367
#     4  11  22  37  63  91 121 160 209 256 309 372
#     4  11  20  38  62  92 121 162 213 260 311 376
#
# _framework density 21.965540000000001
#
# number of rings (size 3 to 8) (size 9 to 14) (size 15 to 20)
#    0.000    1.500    5.000    1.875    1.750    3.750 
#    0.000    1.250    0.000    6.000    0.000    7.000 
#    0.000    0.000    0.000    0.000    0.000    0.000 
#
# Total GULP energy -396480.715376 kJ/mol
# GULP energy per Si atom -12390.022356 kJ/mol
# Density = 2.191555 g / cm^3
# Si number density = 21.965540 Si / 1000 Ang^3
#
#
#
# Elastic Constant Matrix: (Units=GPa)
#
#
# Indices 1 2 3 4 5 6 
#
# 1 85.3891 20.1646 24.5583 0.0000 0.5989 0.0000
# 2 20.1646 116.7136 28.1440 0.0000 -6.0546 0.0000
# 3 24.5583 28.1440 95.6743 0.0000 20.2821 0.0000
# 4 0.0000 0.0000 0.0000 0.6375 0.0000 2.1535
# 5 0.5989 -6.0546 20.2821 0.0000 21.4499 0.0000
# 6 0.0000 0.0000 0.0000 2.1535 0.0000 26.7231
#
#
#
# Elastic Compliance Matrix: (Units=1/GPa)
#
#
# Indices 1 2 3 4 5 6 
#
# 1 0.013003 -0.001263 -0.003519 0.000000 0.002608 0.000000
# 2 -0.001263 0.010122 -0.004085 0.000000 0.006755 0.000000
# 3 -0.003519 -0.004085 0.015985 0.000000 -0.016170 0.000000
# 4 0.000000 0.000000 0.000000 2.155352 0.000000 -0.173693
# 5 0.002608 0.006755 -0.016170 0.000000 0.063744 0.000000
# 6 0.000000 0.000000 0.000000 -0.173693 0.000000 0.051418
#
#
# Mechanical properties :
#
#
# Convention : Reuss Voigt Hill
#
# Bulk Modulus (GPa) = 46.78270 49.27895 48.03083
# Shear Modulus (GPa) = 2.14180 24.75610 13.44895
#
# Velocity S-wave (km/s) = 0.98853 3.36079 2.47710
# Velocity P-wave (km/s) = 4.75893 6.12725 5.48592
#
# Compressibility (1/GPa) = 0.02137542
#
# Stress axis : x y z
#
# Youngs Moduli (GPa) = 76.90463 98.79765 62.55839
#
# Poissons Ratio (x) = 0.12475 0.22016
# Poissons Ratio (y) = 0.09710 0.25558
# Poissons Ratio (z) = 0.27064 0.40363
#
# Static dielectric constant tensor:
#      x y z
#    x 4.107500 0.000000 0.123470 
#    y 0.000000 4.255830 0.000000 
#    z 0.123470 0.000000 3.597950 
# 
# 
# High freq. dielectric constant tensor:
#      x y z
#    x 1.857460 0.000000 0.004140 
#    y 0.000000 1.874870 0.000000 
#    z 0.004140 0.000000 1.830370 
# 
# From -- ./inp_files/263347.got.cif
#   From: 2010.06.25/outbox.cif.g09.slc.cpg/sg12_132_cif.got.tgz:263347.got - 2010.06.28 00:19:55.
