data_PCOD8084900
_publ_section_title
;
Structure prediction by ZEFSAII (Michael W. Deem and Ramdas Pophale) SiO2 
 PCOD8084900
Probable space group: C 2/M
;
_chemical_formula_sum "Si O2"
_cell_formula_units_Z 56
_cell_length_a 22.441857
_cell_length_b 9.271459
_cell_length_c 25.478492
_cell_angle_alpha 90.000000
_cell_angle_beta 140.876591
_cell_angle_gamma 90.000000
_cell_volume 3345.068455
_symmetry_space_group_name_H-M "C 2/M"
_symmetry_group_IT_number 12
_symmetry_cell_setting 'monoclinic'
loop_
_space_group_symop_operation_xyz
x,y,z
-x,y,-z
-x,-y,-z
x,-y,z
1/2+x,1/2+y,z
1/2-x,1/2+y,-z
1/2-x,1/2-y,-z
1/2+x,1/2-y,z
loop_
_atom_site_type_symbol
_atom_site_label
_atom_site_fract_x
_atom_site_fract_y
_atom_site_fract_z
Si Si1 0.624718 0.665725 0.447779
Si Si2 0.166908 0.668148 0.375349
Si Si3 0.152788 0.661665 0.104662
Si Si4 0.226691 0.333422 0.739366
Si Si5 0.461043 0.332218 0.417247
Si Si6 0.011984 0.337893 0.923359
Si Si7 0.889946 0.167077 0.766839
O O1 0.622098 0.500000 0.427117
O O2 0.721248 0.696876 0.545034
O O3 0.615381 0.768476 0.391280
O O4 0.539350 0.703623 0.427636
O O5 0.143066 0.500000 0.354753
O O6 0.126662 0.747964 0.297644
O O7 0.194344 0.500000 0.128517
O O8 0.235754 0.768014 0.179942
O O9 0.070106 0.664088 0.090245
O O10 0.109544 0.710616 0.018732
O O11 0.206880 0.500000 0.735687
O O12 0.130972 0.257905 0.657849
O O13 0.301152 0.307268 0.743927
O O14 0.500000 0.282818 0.500000
O O15 0.433724 0.500000 0.399191
O O16 0.022773 0.500000 0.908079
O O17 0.985796 0.228172 0.858860
O O18 0.905628 0.000000 0.764991
#
# Coordination Sequence:
#
# PCOD8084900 Si02
#       7
#     8   8   8   8   8   8   8
#     4   9  19  34  50  69  92 119 153 192 233 273
#     4  10  19  32  51  70  90 119 154 193 233 275
#     4   8  14  26  43  62  88 122 156 189 226 272
#     4  10  20  30  43  67  97 127 157 191 231 273
#     4  10  20  34  51  69  92 124 158 190 226 272
#     4   8  14  25  42  64  89 119 155 191 227 270
#     4  10  19  29  43  67  98 127 154 189 233 275
#
# _framework density 16.741061999999999
#
# number of rings (size 3 to 8) (size 9 to 14) (size 15 to 20)
#    0.000    2.714    0.000    3.000    0.000    4.857 
#    0.000    2.857    0.000    0.000    0.000    1.000 
#    0.000    0.000    0.000    0.000    0.000    0.000 
#
# Total GULP energy -347150.663765 kJ/mol
# GULP energy per Si atom -12398.237992 kJ/mol
# Density = 1.670296 g / cm^3
# Si number density = 16.741062 Si / 1000 Ang^3
#
#
#
# Elastic Constant Matrix: (Units=GPa)
#
#
# Indices 1 2 3 4 5 6 
#
# 1 45.8444 49.1611 50.2050 0.0000 -4.7375 0.0000
# 2 49.1611 119.0409 97.8837 0.0000 -10.0344 0.0001
# 3 50.2050 97.8837 164.4091 0.0000 -11.1049 0.0000
# 4 0.0000 0.0000 0.0000 28.3305 0.0000 -1.4001
# 5 -4.7375 -10.0344 -11.1049 0.0000 20.5991 0.0000
# 6 0.0000 0.0001 0.0000 -1.4001 0.0000 20.5988
#
#
#
# Elastic Compliance Matrix: (Units=1/GPa)
#
#
# Indices 1 2 3 4 5 6 
#
# 1 0.040986 -0.012968 -0.004759 0.000000 0.000544 0.000000
# 2 -0.012968 0.020721 -0.008195 0.000000 0.002694 0.000000
# 3 -0.004759 -0.008195 0.012527 0.000000 0.001667 0.000000
# 4 0.000000 0.000000 0.000000 0.035417 0.000000 0.002407
# 5 0.000544 0.002694 0.001667 0.000000 0.050882 0.000000
# 6 0.000000 0.000000 0.000000 0.002407 0.000000 0.048710
#
#
# Mechanical properties :
#
#
# Convention : Reuss Voigt Hill
#
# Bulk Modulus (GPa) = 44.65834 80.42158 62.53996
# Shear Modulus (GPa) = 18.61855 22.70866 20.66360
#
# Velocity S-wave (km/s) = 3.33851 3.68702 3.51708
# Velocity P-wave (km/s) = 6.44939 8.14053 7.34380
#
# Compressibility (1/GPa) = 0.02239223
#
# Stress axis : x y z
#
# Youngs Moduli (GPa) = 24.39851 48.25941 79.82702
#
# Poissons Ratio (x) = 0.62581 0.37986
# Poissons Ratio (y) = 0.31639 0.65418
# Poissons Ratio (z) = 0.11610 0.39548
#
# Static dielectric constant tensor:
#      x y z
#    x 2.792910 0.000000 -0.065610 
#    y 0.000000 3.259300 0.000000 
#    z -0.065610 0.000000 3.402200 
# 
# 
# High freq. dielectric constant tensor:
#      x y z
#    x 1.598160 0.000000 -0.008110 
#    y 0.000000 1.651630 0.000000 
#    z -0.008110 0.000000 1.656640 
# 
# From -- ./inp_files/348636.got.cif
#   From: 2010.06.25/outbox.cif.g09.slc.cpg/sg12_175_cif.got.tgz:348636.got - 2010.06.28 00:19:55.
