data_PCOD8084102
_publ_section_title
;
Structure prediction by ZEFSAII (Michael W. Deem and Ramdas Pophale) SiO2 
 PCOD8084102
Probable space group: C 2/M
;
_chemical_formula_sum "Si O2"
_cell_formula_units_Z 64
_cell_length_a 32.453777
_cell_length_b 17.869664
_cell_length_c 9.935498
_cell_angle_alpha 90.000000
_cell_angle_beta 146.542960
_cell_angle_gamma 90.000000
_cell_volume 3176.642892
_symmetry_space_group_name_H-M "C 2/M"
_symmetry_group_IT_number 12
_symmetry_cell_setting 'monoclinic'
loop_
_space_group_symop_operation_xyz
x,y,z
-x,y,-z
-x,-y,-z
x,-y,z
1/2+x,1/2+y,z
1/2-x,1/2+y,-z
1/2-x,1/2-y,-z
1/2+x,1/2-y,z
loop_
_atom_site_type_symbol
_atom_site_label
_atom_site_fract_x
_atom_site_fract_y
_atom_site_fract_z
Si Si1 0.097781 0.678486 0.044409
Si Si2 0.433505 0.654651 0.050998
Si Si3 0.360184 0.586297 0.613822
Si Si4 0.670217 0.584776 0.023671
Si Si5 0.177365 0.347755 0.534795
Si Si6 0.967051 0.585807 0.760751
Si Si7 0.082958 0.912963 0.522080
Si Si8 0.244482 0.290130 0.341293
O O1 0.144728 0.644938 0.296244
O O2 0.156346 0.688232 0.078412
O O3 0.064010 0.759512 0.989329
O O4 0.027899 0.623117 0.824503
O O5 0.362152 0.640438 0.952100
O O6 0.506812 0.633102 0.334959
O O7 0.428236 0.604461 0.901331
O O8 0.338337 0.500000 0.562409
O O9 0.381204 0.610681 0.521260
O O10 0.288488 0.632477 0.465169
O O11 0.645899 0.500000 0.991195
O O12 0.640158 0.608802 0.795348
O O13 0.759716 0.589645 0.269150
O O14 0.109945 0.365842 0.455512
O O15 0.217807 0.266189 0.665968
O O16 0.952335 0.500000 0.677052
O O17 0.000000 0.589917 0.000000
O O18 0.062319 0.000000 0.468461
O O19 0.250000 0.250000 0.500000
#
# Coordination Sequence:
#
# PCOD8084102 Si02
#       8
#     8   8   8   8   8   8   8   8
#     4  10  20  33  56  84 119 149 192 250 304 344
#     4  12  20  35  61  86 118 161 200 244 295 359
#     4  11  22  36  59  88 116 158 202 244 304 365
#     4  11  22  38  60  86 121 162 199 246 303 364
#     4  10  18  34  58  81 113 152 192 248 303 352
#     4   9  19  32  51  82 114 150 197 247 303 357
#     4  10  24  39  54  86 127 159 197 245 298 364
#     4  10  18  35  53  84 117 149 190 247 302 353
#
# _framework density 20.147055000000002
#
# number of rings (size 3 to 8) (size 9 to 14) (size 15 to 20)
#    0.000    1.625    3.750    3.000    1.750    4.000 
#    0.000    2.500    0.000    0.000    0.000    0.000 
#    0.000    6.000    0.000    0.000    0.000    0.000 
#
# Total GULP energy -396677.201681 kJ/mol
# GULP energy per Si atom -12396.162553 kJ/mol
# Density = 2.010120 g / cm^3
# Si number density = 20.147055 Si / 1000 Ang^3
#
#
#
# Elastic Constant Matrix: (Units=GPa)
#
#
# Indices 1 2 3 4 5 6 
#
# 1 84.1259 52.0646 50.5305 0.0000 28.7990 0.0000
# 2 52.0646 93.6374 38.2970 0.0000 20.5139 0.0000
# 3 50.5305 38.2970 92.6441 0.0000 14.0066 0.0000
# 4 0.0000 0.0000 0.0000 24.8677 0.0000 15.2508
# 5 28.7990 20.5139 14.0066 0.0000 43.7832 0.0000
# 6 0.0000 0.0000 0.0000 15.2508 0.0000 31.8387
#
#
#
# Elastic Compliance Matrix: (Units=1/GPa)
#
#
# Indices 1 2 3 4 5 6 
#
# 1 0.026258 -0.008571 -0.009221 0.000000 -0.010306 0.000000
# 2 -0.008571 0.016571 -0.001948 0.000000 -0.001503 0.000000
# 3 -0.009221 -0.001948 0.016365 0.000000 0.001742 0.000000
# 4 0.000000 0.000000 0.000000 0.056939 0.000000 -0.027274
# 5 -0.010306 -0.001503 0.001742 0.000000 0.029766 0.000000
# 6 0.000000 0.000000 0.000000 -0.027274 0.000000 0.044472
#
#
# Mechanical properties :
#
#
# Convention : Reuss Voigt Hill
#
# Bulk Modulus (GPa) = 50.72313 61.35462 56.03888
# Shear Modulus (GPa) = 21.14860 28.73229 24.94045
#
# Velocity S-wave (km/s) = 3.24344 3.78051 3.52223
# Velocity P-wave (km/s) = 6.26559 7.04101 6.66459
#
# Compressibility (1/GPa) = 0.01971487
#
# Stress axis : x y z
#
# Youngs Moduli (GPa) = 38.08382 60.34543 61.10613
#
# Poissons Ratio (x) = 0.51722 0.56343
# Poissons Ratio (y) = 0.32642 0.11904
# Poissons Ratio (z) = 0.35115 0.11756
#
# Static dielectric constant tensor:
#      x y z
#    x 3.881890 0.000000 0.424690 
#    y 0.000000 3.684050 0.000000 
#    z 0.424690 0.000000 3.568180 
# 
# 
# High freq. dielectric constant tensor:
#      x y z
#    x 1.770350 0.000000 0.036070 
#    y 0.000000 1.788210 0.000000 
#    z 0.036070 0.000000 1.760000 
# 
# From -- ./inp_files/112880.got.cif
#   From: 2010.06.25/outbox.cif.g09.slc.cpg/sg12_57_cif.got.tgz:112880.got - 2010.06.28 00:19:55.
