data_PCOD8084158
_publ_section_title
;
Structure prediction by ZEFSAII (Michael W. Deem and Ramdas Pophale) SiO2 
 PCOD8084158
Probable space group: C 2/M
;
_chemical_formula_sum "Si O2"
_cell_formula_units_Z 32
_cell_length_a 26.825027
_cell_length_b 8.757331
_cell_length_c 27.870221
_cell_angle_alpha 90.000000
_cell_angle_beta 164.413751
_cell_angle_gamma 90.000000
_cell_volume 1759.145138
_symmetry_space_group_name_H-M "C 2/M"
_symmetry_group_IT_number 12
_symmetry_cell_setting 'monoclinic'
loop_
_space_group_symop_operation_xyz
x,y,z
-x,y,-z
-x,-y,-z
x,-y,z
1/2+x,1/2+y,z
1/2-x,1/2+y,-z
1/2-x,1/2-y,-z
1/2+x,1/2-y,z
loop_
_atom_site_type_symbol
_atom_site_label
_atom_site_fract_x
_atom_site_fract_y
_atom_site_fract_z
Si Si1 0.386102 0.819601 0.939977
Si Si2 0.888146 0.826405 0.766526
Si Si3 0.984199 0.673293 0.378019
Si Si4 0.773775 0.819033 0.470028
O O1 0.178394 0.755476 0.743621
O O2 0.378226 0.000000 0.932309
O O3 0.500000 0.756743 0.000000
O O4 0.480911 0.764570 0.076490
O O5 0.672762 0.823181 0.585186
O O6 0.892903 0.744552 0.718603
O O7 0.959768 0.000000 0.828153
O O8 0.925877 0.500000 0.311890
O O9 0.029031 0.761841 0.369504
O O10 0.750000 0.750000 0.500000
O O11 0.767984 0.000000 0.466965
#
# Coordination Sequence:
#
# PCOD8084158 Si02
#       4
#     8   8   8   8
#     4  11  23  37  56  83 114 149 187 229 279 331
#     4   9  20  37  57  82 112 146 187 230 275 328
#     4   9  20  37  57  82 112 146 187 230 275 328
#     4  10  18  34  59  84 113 146 182 225 277 331
#
# _framework density 18.190655
#
# number of rings (size 3 to 8) (size 9 to 14) (size 15 to 20)
#    1.500    0.750    0.000    3.750    0.000    3.000 
#    0.000    6.250    0.000    0.000    0.000    0.000 
#    0.000    0.000    0.000    0.000    0.000    0.000 
#
# Total GULP energy -198259.405805 kJ/mol
# GULP energy per Si atom -12391.212863 kJ/mol
# Density = 1.814925 g / cm^3
# Si number density = 18.190655 Si / 1000 Ang^3
#
#
#
# Elastic Constant Matrix: (Units=GPa)
#
#
# Indices 1 2 3 4 5 6 
#
# 1 42.4912 14.6394 -10.9861 0.0201 1.9865 -0.0074
# 2 14.6394 109.8114 4.1030 0.0986 5.0777 0.0577
# 3 -10.9861 4.1030 36.4829 0.0365 -1.6052 0.0215
# 4 0.0201 0.0986 0.0365 32.1445 0.0101 2.0464
# 5 1.9865 5.0777 -1.6052 0.0101 30.7640 -0.0090
# 6 -0.0074 0.0577 0.0215 2.0464 -0.0090 29.3791
#
#
#
# Elastic Compliance Matrix: (Units=1/GPa)
#
#
# Indices 1 2 3 4 5 6 
#
# 1 0.027129 -0.003907 0.008580 -0.000015 -0.000659 0.000009
# 2 -0.003907 0.009784 -0.002342 -0.000023 -0.001485 -0.000017
# 3 0.008580 -0.002342 0.030319 -0.000032 0.001415 -0.000013
# 4 -0.000015 -0.000023 -0.000032 0.031248 -0.000008 -0.002176
# 5 -0.000659 -0.001485 0.001415 -0.000008 0.032867 0.000012
# 6 0.000009 -0.000017 -0.000013 -0.002176 0.000012 0.034189
#
#
# Mechanical properties :
#
#
# Convention : Reuss Voigt Hill
#
# Bulk Modulus (GPa) = 13.90929 22.69980 18.30455
# Shear Modulus (GPa) = 27.05044 30.52613 28.78829
#
# Velocity S-wave (km/s) = 3.86041 4.10093 3.98249
# Velocity P-wave (km/s) = 5.24723 5.91011 5.58851
#
# Compressibility (1/GPa) = 0.07189440
#
# Stress axis : x y z
#
# Youngs Moduli (GPa) = 36.86033 102.21240 32.98215
#
# Poissons Ratio (x) = 0.39933 -0.28298
# Poissons Ratio (y) = 0.14401 0.07725
# Poissons Ratio (z) = -0.31626 0.23939
#
# Static dielectric constant tensor:
#      x y z
#    x 3.304270 -0.000060 0.042650 
#    y -0.000060 3.460510 0.000010 
#    z 0.042650 0.000010 3.161770 
# 
# 
# High freq. dielectric constant tensor:
#      x y z
#    x 1.686140 -0.000010 -0.000300 
#    y -0.000010 1.725710 -0.000020 
#    z -0.000300 -0.000020 1.688170 
# 
# From -- ./inp_files/81844.got.cif
#   From: 2010.06.25/outbox.cif.g09.slc.cpg/sg12_41_cif.got.tgz:81844.got - 2010.06.28 00:19:55.
