data_PCOD8084898
_publ_section_title
;
Structure prediction by ZEFSAII (Michael W. Deem and Ramdas Pophale) SiO2 
 PCOD8084898
Probable space group: C 2/M
;
_chemical_formula_sum "Si O2"
_cell_formula_units_Z 56
_cell_length_a 19.307109
_cell_length_b 9.123645
_cell_length_c 25.454788
_cell_angle_alpha 90.000000
_cell_angle_beta 135.034916
_cell_angle_gamma 90.000000
_cell_volume 3168.657461
_symmetry_space_group_name_H-M "C 2/M"
_symmetry_group_IT_number 12
_symmetry_cell_setting 'monoclinic'
loop_
_space_group_symop_operation_xyz
x,y,z
-x,y,-z
-x,-y,-z
x,-y,z
1/2+x,1/2+y,z
1/2-x,1/2+y,-z
1/2-x,1/2-y,-z
1/2+x,1/2-y,z
loop_
_atom_site_type_symbol
_atom_site_label
_atom_site_fract_x
_atom_site_fract_y
_atom_site_fract_z
Si Si1 0.847173 0.326852 0.908198
Si Si2 0.007120 0.827165 0.194992
Si Si3 0.695131 0.827182 0.517858
Si Si4 0.981427 0.337448 0.640653
Si Si5 0.164684 0.333109 0.340070
Si Si6 0.019229 0.326631 0.925811
Si Si7 0.130090 0.828642 0.781773
O O1 0.840412 0.500000 0.907541
O O2 0.738812 0.258230 0.843094
O O3 0.914846 0.282319 0.895314
O O4 0.895096 0.274418 0.988655
O O5 0.110583 0.749069 0.263207
O O6 0.964984 0.764619 0.118391
O O7 0.927013 0.786478 0.195942
O O8 0.024492 0.000000 0.200625
O O9 0.750000 0.750000 0.500000
O O10 0.578118 0.801560 0.445329
O O11 0.733065 0.751574 0.592088
O O12 0.720051 0.000000 0.531704
O O13 0.025522 0.500000 0.661419
O O14 0.904065 0.325751 0.646224
O O15 0.072768 0.230682 0.699724
O O16 0.187876 0.500000 0.335929
O O17 0.024298 0.500000 0.916937
O O18 0.137359 0.000000 0.777782
#
# Coordination Sequence:
#
# PCOD8084898 Si02
#       7
#     8   8   8   8   8   8   8
#     4   8  16  32  51  68  85 114 155 190 221 261
#     4  10  19  29  43  67  97 121 144 182 230 273
#     4   9  15  23  36  56  85 119 152 185 221 263
#     4   8  15  25  37  58  88 118 147 180 220 264
#     4   9  16  26  40  59  85 118 154 186 219 263
#     4   9  17  32  52  67  85 116 153 189 222 265
#     4   9  17  29  45  65  91 120 150 185 223 265
#
# _framework density 17.673100000000002
#
# number of rings (size 3 to 8) (size 9 to 14) (size 15 to 20)
#    0.000    3.143    0.000    3.000    0.000    5.143 
#    0.000    2.857    0.000    0.000    0.000    1.000 
#    0.000    8.000    0.000    0.000    0.000    0.000 
#
# Total GULP energy -346988.433918 kJ/mol
# GULP energy per Si atom -12392.444068 kJ/mol
# Density = 1.763288 g / cm^3
# Si number density = 17.673100 Si / 1000 Ang^3
#
#
#
# Elastic Constant Matrix: (Units=GPa)
#
#
# Indices 1 2 3 4 5 6 
#
# 1 37.1472 24.3678 39.0512 0.0000 17.7899 0.0000
# 2 24.3678 68.5623 42.2612 0.0000 12.8219 0.0000
# 3 39.0512 42.2612 116.8523 0.0000 36.0250 0.0000
# 4 0.0000 0.0000 0.0000 35.1253 0.0000 -2.0196
# 5 17.7899 12.8219 36.0250 0.0000 17.4932 0.0000
# 6 0.0000 0.0000 0.0000 -2.0196 0.0000 11.3838
#
#
#
# Elastic Compliance Matrix: (Units=1/GPa)
#
#
# Indices 1 2 3 4 5 6 
#
# 1 0.059254 -0.011602 0.000958 0.000000 -0.053727 0.000000
# 2 -0.011602 0.021044 -0.007164 0.000000 0.011128 0.000000
# 3 0.000958 -0.007164 0.026048 0.000000 -0.049364 0.000000
# 4 0.000000 0.000000 0.000000 0.028763 0.000000 0.005103
# 5 -0.053727 0.011128 -0.049364 0.000000 0.205306 0.000000
# 6 0.000000 0.000000 0.000000 0.005103 0.000000 0.088749
#
#
# Mechanical properties :
#
#
# Convention : Reuss Voigt Hill
#
# Bulk Modulus (GPa) = 14.13874 48.21357 31.17616
# Shear Modulus (GPa) = 10.23841 20.59257 15.41549
#
# Velocity S-wave (km/s) = 2.40952 3.41720 2.95660
# Velocity P-wave (km/s) = 3.96971 6.55054 5.41610
#
# Compressibility (1/GPa) = 0.07072764
#
# Stress axis : x y z
#
# Youngs Moduli (GPa) = 16.87650 47.52041 38.39124
#
# Poissons Ratio (x) = 0.55134 -0.03676
# Poissons Ratio (y) = 0.19580 0.27504
# Poissons Ratio (z) = -0.01616 0.34044
#
# Static dielectric constant tensor:
#      x y z
#    x 2.921210 0.000000 0.338470 
#    y 0.000000 3.184820 0.000000 
#    z 0.338470 0.000000 3.939120 
# 
# 
# High freq. dielectric constant tensor:
#      x y z
#    x 1.623020 0.000000 0.012990 
#    y 0.000000 1.674170 0.000000 
#    z 0.012990 0.000000 1.703340 
# 
# From -- ./inp_files/342338.got.cif
#   From: 2010.06.25/outbox.cif.g09.slc.cpg/sg12_172_cif.got.tgz:342338.got - 2010.06.28 00:19:55.
