data_PCOD8084489
_publ_section_title
;
Structure prediction by ZEFSAII (Michael W. Deem and Ramdas Pophale) SiO2 
 PCOD8084489
Probable space group: C 2/M
;
_chemical_formula_sum "Si O2"
_cell_formula_units_Z 56
_cell_length_a 18.302457
_cell_length_b 17.799953
_cell_length_c 9.881919
_cell_angle_alpha 90.000000
_cell_angle_beta 115.796456
_cell_angle_gamma 90.000000
_cell_volume 2898.536881
_symmetry_space_group_name_H-M "C 2/M"
_symmetry_group_IT_number 12
_symmetry_cell_setting 'monoclinic'
loop_
_space_group_symop_operation_xyz
x,y,z
-x,y,-z
-x,-y,-z
x,-y,z
1/2+x,1/2+y,z
1/2-x,1/2+y,-z
1/2-x,1/2-y,-z
1/2+x,1/2-y,z
loop_
_atom_site_type_symbol
_atom_site_label
_atom_site_fract_x
_atom_site_fract_y
_atom_site_fract_z
Si Si1 0.052333 0.155554 0.907737
Si Si2 0.314951 0.692261 0.386206
Si Si3 0.067144 0.734643 0.303313
Si Si4 0.941352 0.583280 0.578440
Si Si5 0.744984 0.085826 0.552498
Si Si6 0.928693 0.083980 0.342412
Si Si7 0.315036 0.302692 0.803038
O O1 0.048735 0.086346 0.799080
O O2 0.017653 0.223728 0.789781
O O3 0.145754 0.175714 0.021021
O O4 0.000000 0.136098 0.000000
O O5 0.384903 0.733931 0.527738
O O6 0.254589 0.643331 0.433611
O O7 0.352114 0.637149 0.305674
O O8 0.268405 0.756173 0.262597
O O9 0.043465 0.647044 0.297642
O O10 0.120765 0.747084 0.214581
O O11 0.961104 0.500000 0.653181
O O12 0.846252 0.587110 0.462795
O O13 0.000000 0.600297 0.500000
O O14 0.804172 0.118056 0.715958
O O15 0.771130 0.000000 0.536840
O O16 0.000000 0.110644 0.500000
O O17 0.903554 0.000000 0.360852
#
# Coordination Sequence:
#
# PCOD8084489 Si02
#       7
#     8   8   8   8   8   8   8
#     4  10  23  39  59  87 121 157 192 241 301 349
#     4  11  19  36  60  87 112 154 196 251 279 346
#     4  10  18  36  59  84 116 157 198 240 285 347
#     4  10  20  32  54  89 119 149 196 245 289 340
#     4  10  19  34  57  87 121 155 191 243 297 343
#     4  11  24  40  59  88 119 156 203 240 286 358
#     4  10  20  36  57  89 118 151 199 240 293 358
#
# _framework density 19.320091000000001
#
# number of rings (size 3 to 8) (size 9 to 14) (size 15 to 20)
#    0.000    1.714    4.286    1.286    2.000    1.429 
#    0.000    0.000    0.000    7.286    0.000    0.000 
#    0.000    0.000    0.000    0.000    0.000    0.000 
#
# Total GULP energy -346978.744972 kJ/mol
# GULP energy per Si atom -12392.098035 kJ/mol
# Density = 1.927612 g / cm^3
# Si number density = 19.320091 Si / 1000 Ang^3
#
#
#
# Elastic Constant Matrix: (Units=GPa)
#
#
# Indices 1 2 3 4 5 6 
#
# 1 65.2698 24.8759 35.0150 0.0000 -2.7679 0.0000
# 2 24.8759 94.9890 24.0567 0.0000 -1.1692 0.0000
# 3 35.0150 24.0567 107.7963 0.0000 12.2373 0.0000
# 4 0.0000 0.0000 0.0000 5.3654 0.0000 -4.2287
# 5 -2.7679 -1.1692 12.2373 0.0000 27.0977 0.0000
# 6 0.0000 0.0000 0.0000 -4.2287 0.0000 30.8131
#
#
#
# Elastic Compliance Matrix: (Units=1/GPa)
#
#
# Indices 1 2 3 4 5 6 
#
# 1 0.020309 -0.003659 -0.006322 0.000000 0.004772 0.000000
# 2 -0.003659 0.011891 -0.001561 0.000000 0.000844 0.000000
# 3 -0.006322 -0.001561 0.012395 0.000000 -0.006311 0.000000
# 4 0.000000 0.000000 0.000000 0.208985 0.000000 0.028681
# 5 0.004772 0.000844 -0.006311 0.000000 0.040277 0.000000
# 6 0.000000 0.000000 0.000000 0.028681 0.000000 0.036390
#
#
# Mechanical properties :
#
#
# Convention : Reuss Voigt Hill
#
# Bulk Modulus (GPa) = 46.48620 48.43894 47.46257
# Shear Modulus (GPa) = 13.86948 24.92907 19.39928
#
# Velocity S-wave (km/s) = 2.68223 3.59600 3.17219
# Velocity P-wave (km/s) = 5.80567 6.50906 6.16740
#
# Compressibility (1/GPa) = 0.02151176
#
# Stress axis : x y z
#
# Youngs Moduli (GPa) = 49.23809 84.09379 80.67647
#
# Poissons Ratio (x) = 0.30768 0.51005
# Poissons Ratio (y) = 0.18015 0.12595
# Poissons Ratio (z) = 0.31129 0.13129
#
# Static dielectric constant tensor:
#      x y z
#    x 3.524670 0.000000 0.131450 
#    y 0.000000 3.742670 0.000000 
#    z 0.131450 0.000000 3.423370 
# 
# 
# High freq. dielectric constant tensor:
#      x y z
#    x 1.747640 0.000000 0.009050 
#    y 0.000000 1.759130 0.000000 
#    z 0.009050 0.000000 1.722010 
# 
# From -- ./inp_files/89245.got.cif
#   From: 2010.06.25/outbox.cif.g09.slc.cpg/sg12_45_cif.got.tgz:89245.got - 2010.06.28 00:19:55.
