data_PCOD8084151
_publ_section_title
;
Structure prediction by ZEFSAII (Michael W. Deem and Ramdas Pophale) SiO2 
 PCOD8084151
Probable space group: C 2/M
;
_chemical_formula_sum "Si O2"
_cell_formula_units_Z 32
_cell_length_a 28.344420
_cell_length_b 10.486172
_cell_length_c 8.093359
_cell_angle_alpha 90.000000
_cell_angle_beta 43.656323
_cell_angle_gamma 90.000000
_cell_volume 1660.622002
_symmetry_space_group_name_H-M "C 2/M"
_symmetry_group_IT_number 12
_symmetry_cell_setting 'monoclinic'
loop_
_space_group_symop_operation_xyz
x,y,z
-x,y,-z
-x,-y,-z
x,-y,z
1/2+x,1/2+y,z
1/2-x,1/2+y,-z
1/2-x,1/2-y,-z
1/2+x,1/2-y,z
loop_
_atom_site_type_symbol
_atom_site_label
_atom_site_fract_x
_atom_site_fract_y
_atom_site_fract_z
Si Si1 0.216272 0.500000 0.933436
Si Si2 0.684475 0.234009 0.786156
Si Si3 0.579926 0.236447 0.772541
Si Si4 0.211155 0.000000 0.736395
Si Si5 0.149047 0.500000 0.458484
Si Si6 0.145416 0.000000 0.545798
O O1 0.190858 0.625787 0.904942
O O2 0.298754 0.500000 0.742748
O O3 0.186970 0.500000 0.189427
O O4 0.750000 0.250000 0.500000
O O5 0.615756 0.211223 0.857328
O O6 0.679505 0.370841 0.895402
O O7 0.598380 0.375140 0.652861
O O8 0.602828 0.126313 0.587735
O O9 0.500000 0.227380 0.000000
O O10 0.293920 0.000000 0.540488
O O11 0.193086 0.000000 0.587403
#
# Coordination Sequence:
#
# PCOD8084151 Si02
#       6
#     4   8   8   4   4   4
#     4  12  22  35  61  91 114 147 191 254 285 334
#     4  11  18  38  62  81 112 151 203 230 279 344
#     4  11  22  38  60  86 118 156 194 235 280 350
#     4  10  18  34  59  83 109 147 194 240 269 335
#     4  12  23  35  55  91 125 146 189 241 298 328
#     4  10  19  38  62  87 110 147 206 235 285 332
#
# _framework density 19.269888000000002
#
# number of rings (size 3 to 8) (size 9 to 14) (size 15 to 20)
#    0.000    1.000    7.500    1.500    0.000    4.000 
#    0.000    2.500    0.000    0.000    0.000   10.500 
#    0.000    0.000    0.000    0.000    0.000    0.000 
#
# Total GULP energy -198350.380438 kJ/mol
# GULP energy per Si atom -12396.898777 kJ/mol
# Density = 1.922603 g / cm^3
# Si number density = 19.269888 Si / 1000 Ang^3
#
#
#
# Elastic Constant Matrix: (Units=GPa)
#
#
# Indices 1 2 3 4 5 6 
#
# 1 65.4274 29.5072 58.8806 0.0000 -23.2835 0.0000
# 2 29.5072 170.7524 58.2164 0.0000 7.9396 0.0000
# 3 58.8806 58.2164 132.0709 0.0000 -16.9755 0.0000
# 4 0.0000 0.0000 0.0000 23.8604 0.0000 -4.7895
# 5 -23.2835 7.9396 -16.9755 0.0000 27.9787 0.0000
# 6 0.0000 0.0000 0.0000 -4.7895 0.0000 15.9677
#
#
#
# Elastic Compliance Matrix: (Units=1/GPa)
#
#
# Indices 1 2 3 4 5 6 
#
# 1 0.035250 -0.003359 -0.011216 0.000000 0.023482 0.000000
# 2 -0.003359 0.007680 -0.002741 0.000000 -0.006638 0.000000
# 3 -0.011216 -0.002741 0.013753 0.000000 -0.000212 0.000000
# 4 0.000000 0.000000 0.000000 0.044595 0.000000 0.013376
# 5 0.023482 -0.006638 -0.000212 0.000000 0.057038 0.000000
# 6 0.000000 0.000000 0.000000 0.013376 0.000000 0.066639
#
#
# Mechanical properties :
#
#
# Convention : Reuss Voigt Hill
#
# Bulk Modulus (GPa) = 45.35124 73.49546 59.42335
# Shear Modulus (GPa) = 18.73098 28.33780 23.53439
#
# Velocity S-wave (km/s) = 3.12113 3.83897 3.49851
# Velocity P-wave (km/s) = 6.04768 7.60744 6.87195
#
# Compressibility (1/GPa) = 0.02205011
#
# Stress axis : x y z
#
# Youngs Moduli (GPa) = 28.36919 130.20737 72.71073
#
# Poissons Ratio (x) = 0.43739 0.81554
# Poissons Ratio (y) = 0.09530 0.19929
# Poissons Ratio (z) = 0.31819 0.35689
#
# Static dielectric constant tensor:
#      x y z
#    x 3.333060 0.000000 -0.172720 
#    y 0.000000 4.930990 0.000000 
#    z -0.172720 0.000000 3.173700 
# 
# 
# High freq. dielectric constant tensor:
#      x y z
#    x 1.727140 0.000000 -0.015990 
#    y 0.000000 1.792670 0.000000 
#    z -0.015990 0.000000 1.710700 
# 
# From -- ./inp_files/101799.got.cif
#   From: 2010.06.25/outbox.cif.g09.slc.cpg/sg12_51_cif.got.tgz:101799.got - 2010.06.28 00:19:55.
