data_PCOD8084109
_publ_section_title
;
Structure prediction by ZEFSAII (Michael W. Deem and Ramdas Pophale) SiO2 
 PCOD8084109
Probable space group: C 2/M
;
_chemical_formula_sum "Si O2"
_cell_formula_units_Z 56
_cell_length_a 22.697776
_cell_length_b 28.345790
_cell_length_c 12.084146
_cell_angle_alpha 90.000000
_cell_angle_beta 155.887145
_cell_angle_gamma 90.000000
_cell_volume 3176.269730
_symmetry_space_group_name_H-M "C 2/M"
_symmetry_group_IT_number 12
_symmetry_cell_setting 'monoclinic'
loop_
_space_group_symop_operation_xyz
x,y,z
-x,y,-z
-x,-y,-z
x,-y,z
1/2+x,1/2+y,z
1/2-x,1/2+y,-z
1/2-x,1/2-y,-z
1/2+x,1/2-y,z
loop_
_atom_site_type_symbol
_atom_site_label
_atom_site_fract_x
_atom_site_fract_y
_atom_site_fract_z
Si Si1 0.869561 0.554027 0.032335
Si Si2 0.021773 0.825173 0.708367
Si Si3 0.459730 0.384584 0.055114
Si Si4 0.805952 0.446202 0.451623
Si Si5 0.230127 0.855383 0.872250
Si Si6 0.401584 0.227505 0.227836
Si Si7 0.271850 0.446290 0.439164
O O1 0.827955 0.500000 0.992743
O O2 0.039524 0.562492 0.339245
O O3 0.783378 0.590344 0.962848
O O4 0.831852 0.565400 0.840680
O O5 0.053230 0.839127 0.888720
O O6 0.146265 0.846196 0.842770
O O7 0.014680 0.768129 0.696670
O O8 0.869560 0.845177 0.404662
O O9 0.582015 0.417086 0.317104
O O10 0.500000 0.368571 0.000000
O O11 0.309334 0.412209 0.802856
O O12 0.755589 0.500000 0.346700
O O13 0.816454 0.435262 0.600524
O O14 0.368952 0.820236 0.103024
O O15 0.500000 0.213273 0.500000
O O16 0.250000 0.250000 0.000000
O O17 0.322812 0.500000 0.523409
#
# Coordination Sequence:
#
# PCOD8084109 Si02
#       7
#     8   8   8   8   8   8   8
#     4  10  19  32  50  78 113 145 174 215 274 326
#     4  10  19  36  56  81 110 133 179 230 266 315
#     4  10  19  32  54  78 106 143 178 222 272 318
#     4   9  18  31  47  74 107 142 190 229 252 302
#     4  10  20  35  57  82 109 141 177 223 267 317
#     4  10  18  34  58  83 101 131 176 223 264 301
#     4   9  16  29  51  73 100 144 189 224 258 305
#
# _framework density 17.630744
#
# number of rings (size 3 to 8) (size 9 to 14) (size 15 to 20)
#    0.000    2.286    4.286    0.857    0.000    5.714 
#    0.000    2.857    0.000    4.714    0.000    0.000 
#    0.000    0.000    0.000    0.000    0.000    0.000 
#
# Total GULP energy -347086.371576 kJ/mol
# GULP energy per Si atom -12395.941842 kJ/mol
# Density = 1.759062 g / cm^3
# Si number density = 17.630744 Si / 1000 Ang^3
#
#
#
# Elastic Constant Matrix: (Units=GPa)
#
#
# Indices 1 2 3 4 5 6 
#
# 1 51.3549 44.4606 32.4024 0.0000 -8.4613 0.0000
# 2 44.4606 119.1779 49.1821 0.0000 -1.6804 0.0000
# 3 32.4024 49.1821 98.7858 0.0000 -2.6005 0.0000
# 4 0.0000 0.0000 0.0000 30.8236 0.0000 -1.9039
# 5 -8.4613 -1.6804 -2.6005 0.0000 22.0439 0.0000
# 6 0.0000 0.0000 0.0000 -1.9039 0.0000 22.0795
#
#
#
# Elastic Compliance Matrix: (Units=1/GPa)
#
#
# Indices 1 2 3 4 5 6 
#
# 1 0.033674 -0.010027 -0.005751 0.000000 0.011482 0.000000
# 2 -0.010027 0.013547 -0.003541 0.000000 -0.003234 0.000000
# 3 -0.005751 -0.003541 0.013750 0.000000 -0.000855 0.000000
# 4 0.000000 0.000000 0.000000 0.032616 0.000000 0.002812
# 5 0.011482 -0.003234 -0.000855 0.000000 0.049424 0.000000
# 6 0.000000 0.000000 0.000000 0.002812 0.000000 0.045533
#
#
# Mechanical properties :
#
#
# Convention : Reuss Voigt Hill
#
# Bulk Modulus (GPa) = 44.77696 57.93429 51.35562
# Shear Modulus (GPa) = 21.31050 24.54098 22.92574
#
# Velocity S-wave (km/s) = 3.48043 3.73492 3.60992
# Velocity P-wave (km/s) = 6.45007 7.17849 6.82400
#
# Compressibility (1/GPa) = 0.02233292
#
# Stress axis : x y z
#
# Youngs Moduli (GPa) = 29.69670 73.81590 72.72980
#
# Poissons Ratio (x) = 0.74017 0.41825
# Poissons Ratio (y) = 0.29778 0.25752
# Poissons Ratio (z) = 0.17078 0.26137
#
# Static dielectric constant tensor:
#      x y z
#    x 2.947850 0.000000 -0.004600 
#    y 0.000000 3.447230 0.000000 
#    z -0.004600 0.000000 3.433010 
# 
# 
# High freq. dielectric constant tensor:
#      x y z
#    x 1.644780 0.000000 -0.000260 
#    y 0.000000 1.674990 0.000000 
#    z -0.000260 0.000000 1.695730 
# 
# From -- ./inp_files/125201.got.cif
#   From: 2010.06.25/outbox.cif.g09.slc.cpg/sg12_63_cif.got.tgz:125201.got - 2010.06.28 00:19:55.
