data_PCOD8084323
_publ_section_title
;
Structure prediction by ZEFSAII (Michael W. Deem and Ramdas Pophale) SiO2 
 PCOD8084323
Probable space group: C 2/M
;
_chemical_formula_sum "Si O2"
_cell_formula_units_Z 44
_cell_length_a 11.855715
_cell_length_b 25.805595
_cell_length_c 8.161374
_cell_angle_alpha 90.000000
_cell_angle_beta 58.752343
_cell_angle_gamma 90.000000
_cell_volume 2134.700892
_symmetry_space_group_name_H-M "C 2/M"
_symmetry_group_IT_number 12
_symmetry_cell_setting 'monoclinic'
loop_
_space_group_symop_operation_xyz
x,y,z
-x,y,-z
-x,-y,-z
x,-y,z
1/2+x,1/2+y,z
1/2-x,1/2+y,-z
1/2-x,1/2-y,-z
1/2+x,1/2-y,z
loop_
_atom_site_type_symbol
_atom_site_label
_atom_site_fract_x
_atom_site_fract_y
_atom_site_fract_z
Si Si1 0.675418 0.000000 0.241516
Si Si2 0.344741 0.196641 0.132414
Si Si3 0.598322 0.000000 0.678049
Si Si4 0.500000 0.153862 0.500000
Si Si5 0.358017 0.409067 0.166422
Si Si6 0.799142 0.605088 0.407740
Si Si7 0.249016 0.697319 0.157929
O O1 0.758073 0.947760 0.150868
O O2 0.630307 0.000000 0.462447
O O3 0.560457 0.000000 0.190915
O O4 0.278566 0.153289 0.299749
O O5 0.319808 0.256003 0.207799
O O6 0.500000 0.184082 0.000000
O O7 0.261246 0.200085 0.029294
O O8 0.660500 0.051669 0.715988
O O9 0.422195 0.116833 0.434831
O O10 0.600428 0.191718 0.333944
O O11 0.332286 0.406420 0.383918
O O12 0.340364 0.351527 0.116947
O O13 0.500000 0.428868 0.000000
#
# Coordination Sequence:
#
# PCOD8084323 Si02
#       7
#     4   8   4   4   8   8   8
#     4   9  17  30  59  87 117 151 191 238 281 333
#     4  11  22  39  57  82 117 149 190 243 292 346
#     4   9  16  32  56  88 114 149 191 237 287 339
#     4  10  18  35  58  84 114 151 190 238 280 346
#     4  10  20  36  57  85 118 154 199 232 282 339
#     4  10  20  35  59  84 118 153 191 239 288 336
#     4  10  22  38  57  83 114 150 194 240 289 343
#
# _framework density 20.611785999999999
#
# number of rings (size 3 to 8) (size 9 to 14) (size 15 to 20)
#    0.000    2.000    1.818    4.091    0.000    2.909 
#    6.545    1.364    0.000    0.000    0.000    5.091 
#    0.000    0.000    0.000    0.000    0.000    0.000 
#
# Total GULP energy -272564.087869 kJ/mol
# GULP energy per Si atom -12389.276721 kJ/mol
# Density = 2.056487 g / cm^3
# Si number density = 20.611786 Si / 1000 Ang^3
#
#
#
# Elastic Constant Matrix: (Units=GPa)
#
#
# Indices 1 2 3 4 5 6 
#
# 1 47.8217 31.9325 33.7613 0.0000 -8.0266 0.0000
# 2 31.9325 174.7946 39.2188 0.0000 2.4459 0.0000
# 3 33.7613 39.2188 81.9987 0.0000 -21.4409 0.0000
# 4 0.0000 0.0000 0.0000 -7.5654 0.0000 -42.8876
# 5 -8.0266 2.4459 -21.4409 0.0000 35.2588 0.0000
# 6 0.0000 0.0000 0.0000 -42.8876 0.0000 -43.8791
#
#
#
# Elastic Compliance Matrix: (Units=1/GPa)
#
#
# Indices 1 2 3 4 5 6 
#
# 1 0.030944 -0.003173 -0.011086 0.000000 0.000523 0.000000
# 2 -0.003173 0.006966 -0.002783 0.000000 -0.002898 0.000000
# 3 -0.011086 -0.002783 0.020787 0.000000 0.010310 0.000000
# 4 0.000000 0.000000 0.000000 0.029109 0.000000 -0.028452
# 5 0.000523 -0.002898 0.010310 0.000000 0.034951 0.000000
# 6 0.000000 0.000000 0.000000 -0.028452 0.000000 0.005019
#
#
# Mechanical properties :
#
#
# Convention : Reuss Voigt Hill
#
# Bulk Modulus (GPa) = 40.63030 57.16003 48.89517
# Shear Modulus (GPa) = 29.40066 10.07635 19.73851
#
# Velocity S-wave (km/s) = 3.78087 2.21342 3.09792
# Velocity P-wave (km/s) = 6.23016 5.85869 6.04728
#
# Compressibility (1/GPa) = 0.02461217
#
# Stress axis : x y z
#
# Youngs Moduli (GPa) = 32.31623 143.56282 48.10786
#
# Poissons Ratio (x) = 0.45552 0.53334
# Poissons Ratio (y) = 0.10254 0.13388
# Poissons Ratio (z) = 0.35827 0.39951
#
# Static dielectric constant tensor:
#      x y z
#    x 3.390940 0.000000 -0.191430 
#    y 0.000000 4.176070 0.000000 
#    z -0.191430 0.000000 3.692520 
# 
# 
# High freq. dielectric constant tensor:
#      x y z
#    x 1.769030 0.000000 -0.016690 
#    y 0.000000 1.832840 0.000000 
#    z -0.016690 0.000000 1.789410 
# 
# From -- ./inp_files/51228.got.cif
#   From: 2010.06.25/outbox.cif.g09.slc.cpg/sg12_26_cif.got.tgz:51228.got - 2010.06.28 00:19:55.
