data_PCOD8084952
_publ_section_title
;
Structure prediction by ZEFSAII (Michael W. Deem and Ramdas Pophale) SiO2 
 PCOD8084952
Probable space group: C 2/M
;
_chemical_formula_sum "Si O2"
_cell_formula_units_Z 56
_cell_length_a 18.766071
_cell_length_b 8.722502
_cell_length_c 29.682348
_cell_angle_alpha 90.000000
_cell_angle_beta 142.357321
_cell_angle_gamma 90.000000
_cell_volume 2967.328379
_symmetry_space_group_name_H-M "C 2/M"
_symmetry_group_IT_number 12
_symmetry_cell_setting 'monoclinic'
loop_
_space_group_symop_operation_xyz
x,y,z
-x,y,-z
-x,-y,-z
x,-y,z
1/2+x,1/2+y,z
1/2-x,1/2+y,-z
1/2-x,1/2-y,-z
1/2+x,1/2-y,z
loop_
_atom_site_type_symbol
_atom_site_label
_atom_site_fract_x
_atom_site_fract_y
_atom_site_fract_z
Si Si1 0.751925 0.317778 0.365528
Si Si2 0.136436 0.179680 0.069291
Si Si3 0.206119 0.817917 0.201556
Si Si4 0.589079 0.817963 0.634671
Si Si5 0.952637 0.182162 0.797684
Si Si6 0.827781 0.682688 0.500158
Si Si7 0.286360 0.681518 0.065538
O O1 0.756178 0.500000 0.368734
O O2 0.852011 0.256785 0.381814
O O3 0.625412 0.261693 0.283957
O O4 0.776931 0.252556 0.427642
O O5 0.187156 0.245728 0.141763
O O6 0.197542 0.267684 0.059418
O O7 0.161048 0.000000 0.075795
O O8 0.000000 0.215637 0.000000
O O9 0.332921 0.764279 0.283491
O O10 0.105048 0.756157 0.184629
O O11 0.197931 0.000000 0.196135
O O12 0.458580 0.752638 0.572895
O O13 0.585561 0.000000 0.631305
O O14 0.083852 0.244397 0.857863
O O15 0.952092 0.000000 0.798977
O O16 0.825292 0.500000 0.500203
O O17 0.750000 0.750000 0.500000
O O18 0.285913 0.500000 0.061381
O O19 0.250000 0.750000 0.000000
#
# Coordination Sequence:
#
# PCOD8084952 Si02
#       7
#     8   8   8   8   8   8   8
#     4   8  14  27  48  70  91 120 161 201 232 270
#     4  10  20  34  52  73  98 130 166 201 240 288
#     4   8  14  27  48  71  94 121 156 199 242 282
#     4   8  14  26  46  70  92 119 160 202 233 270
#     4   8  15  29  49  72  95 121 156 198 241 283
#     4  10  19  29  44  69  98 125 154 193 238 280
#     4  11  22  35  52  74 100 129 162 200 242 289
#
# _framework density 18.872195999999999
#
# number of rings (size 3 to 8) (size 9 to 14) (size 15 to 20)
#    0.000    3.000    0.000    3.429    0.000    5.429 
#    0.000    0.000    0.000    2.571    0.000    6.000 
#    0.000    0.000    0.000    0.000    0.000    0.000 
#
# Total GULP energy -347043.592377 kJ/mol
# GULP energy per Si atom -12394.414013 kJ/mol
# Density = 1.882924 g / cm^3
# Si number density = 18.872196 Si / 1000 Ang^3
#
#
#
# Elastic Constant Matrix: (Units=GPa)
#
#
# Indices 1 2 3 4 5 6 
#
# 1 148.1337 25.7099 106.5241 0.0000 -4.3034 -0.0001
# 2 25.7099 20.5725 27.5480 0.0000 1.8119 -0.0004
# 3 106.5241 27.5480 183.7420 0.0000 -3.7730 0.0000
# 4 0.0000 0.0000 0.0000 10.9136 0.0000 -2.2596
# 5 -4.3034 1.8119 -3.7730 0.0000 41.8451 0.0000
# 6 -0.0001 -0.0004 0.0000 -2.2596 0.0000 25.3265
#
#
#
# Elastic Compliance Matrix: (Units=1/GPa)
#
#
# Indices 1 2 3 4 5 6 
#
# 1 0.012452 -0.007529 -0.006069 0.000000 0.001059 0.000000
# 2 -0.007529 0.065875 -0.005597 0.000000 -0.004131 0.000001
# 3 -0.006069 -0.005597 0.009810 0.000000 0.000503 0.000000
# 4 0.000000 0.000000 0.000000 0.093354 0.000000 0.008329
# 5 0.001059 -0.004131 0.000503 0.000000 0.024231 0.000000
# 6 0.000000 0.000001 0.000000 0.008329 0.000000 0.040227
#
#
# Mechanical properties :
#
#
# Convention : Reuss Voigt Hill
#
# Bulk Modulus (GPa) = 20.10059 74.66802 47.38430
# Shear Modulus (GPa) = 16.61569 28.46143 22.53856
#
# Velocity S-wave (km/s) = 2.97043 3.88766 3.45958
# Velocity P-wave (km/s) = 4.73694 7.73323 6.41254
#
# Compressibility (1/GPa) = 0.04974979
#
# Stress axis : x y z
#
# Youngs Moduli (GPa) = 80.30807 15.18017 101.93632
#
# Poissons Ratio (x) = 0.11429 0.61860
# Poissons Ratio (y) = 0.60462 0.57050
# Poissons Ratio (z) = 0.48735 0.08496
#
# Static dielectric constant tensor:
#      x y z
#    x 3.580250 0.000000 -0.006560 
#    y 0.000000 2.851810 0.000000 
#    z -0.006560 0.000000 4.042810 
# 
# 
# High freq. dielectric constant tensor:
#      x y z
#    x 1.734290 0.000000 -0.000720 
#    y 0.000000 1.669260 0.000000 
#    z -0.000720 0.000000 1.755090 
# 
# From -- ./inp_files/377736.got.cif
#   From: 2010.06.25/outbox.cif.g09.slc.cpg/sg12_189_cif.got.tgz:377736.got - 2010.06.28 00:19:55.
