data_PCOD8084028
_publ_section_title
;
Structure prediction by ZEFSAII (Michael W. Deem and Ramdas Pophale) SiO2 
 PCOD8084028
Probable space group: C 2/M
;
_chemical_formula_sum "Si O2"
_cell_formula_units_Z 56
_cell_length_a 21.547090
_cell_length_b 13.335051
_cell_length_c 15.809185
_cell_angle_alpha 90.000000
_cell_angle_beta 42.005077
_cell_angle_gamma 90.000000
_cell_volume 3039.809860
_symmetry_space_group_name_H-M "C 2/M"
_symmetry_group_IT_number 12
_symmetry_cell_setting 'monoclinic'
loop_
_space_group_symop_operation_xyz
x,y,z
-x,y,-z
-x,-y,-z
x,-y,z
1/2+x,1/2+y,z
1/2-x,1/2+y,-z
1/2-x,1/2-y,-z
1/2+x,1/2-y,z
loop_
_atom_site_type_symbol
_atom_site_label
_atom_site_fract_x
_atom_site_fract_y
_atom_site_fract_z
Si Si1 0.752337 0.612289 0.028446
Si Si2 0.399684 0.706818 0.611203
Si Si3 0.267043 0.382911 0.404433
Si Si4 0.050179 0.889052 0.273796
Si Si5 0.603947 0.618117 0.882011
Si Si6 0.865421 0.796747 0.461924
Si Si7 0.744276 0.296910 0.867431
O O1 0.781004 0.500000 0.026025
O O2 0.790645 0.639863 0.896970
O O3 0.641486 0.625024 0.124836
O O4 0.788328 0.687604 0.064587
O O5 0.500000 0.761482 0.500000
O O6 0.413659 0.619165 0.665905
O O7 0.363609 0.658653 0.559374
O O8 0.325488 0.788633 0.716334
O O9 0.242115 0.500000 0.417367
O O10 0.342852 0.345294 0.257655
O O11 0.172266 0.317615 0.495101
O O12 0.306087 0.365141 0.459030
O O13 0.974040 0.805263 0.324084
O O14 0.007276 0.000000 0.303907
O O15 0.597618 0.500000 0.883359
O O16 0.658274 0.649459 0.910947
O O17 0.500000 0.663011 0.000000
#
# Coordination Sequence:
#
# PCOD8084028 Si02
#       7
#     8   8   8   8   8   8   8
#     4   9  19  33  55  85 109 136 174 217 269 321
#     4   9  18  32  52  79 109 140 172 211 265 319
#     4  10  21  35  52  76 106 143 182 222 265 313
#     4   9  18  31  53  84 110 132 171 224 271 318
#     4  10  21  35  56  84 106 134 180 226 269 314
#     4  10  19  33  52  73 108 141 175 219 260 316
#     4  10  18  34  56  80 110 145 168 219 273 314
#
# _framework density 18.422205000000002
#
# number of rings (size 3 to 8) (size 9 to 14) (size 15 to 20)
#    0.000    2.429    1.429    0.857    2.000    3.143 
#    0.000    0.000    0.000   27.429    0.000    0.000 
#    0.000    0.000    0.000    0.000    0.000    0.000 
#
# Total GULP energy -346885.243556 kJ/mol
# GULP energy per Si atom -12388.758698 kJ/mol
# Density = 1.838027 g / cm^3
# Si number density = 18.422205 Si / 1000 Ang^3
#
#
#
# Elastic Constant Matrix: (Units=GPa)
#
#
# Indices 1 2 3 4 5 6 
#
# 1 67.4553 -4.8255 9.5313 0.0000 8.7024 0.0000
# 2 -4.8255 41.8473 0.3325 0.0000 -0.8382 0.0000
# 3 9.5313 0.3325 58.4998 0.0000 3.1006 0.0000
# 4 0.0000 0.0000 0.0000 21.5636 0.0000 -3.8162
# 5 8.7024 -0.8382 3.1006 0.0000 26.5877 0.0000
# 6 0.0000 0.0000 0.0000 -3.8162 0.0000 28.3067
#
#
#
# Elastic Compliance Matrix: (Units=1/GPa)
#
#
# Indices 1 2 3 4 5 6 
#
# 1 0.015911 0.001756 -0.002344 0.000000 -0.004879 0.000000
# 2 0.001756 0.024107 -0.000436 0.000000 0.000236 0.000000
# 3 -0.002344 -0.000436 0.017547 0.000000 -0.001293 0.000000
# 4 0.000000 0.000000 0.000000 0.047508 0.000000 0.006405
# 5 -0.004879 0.000236 -0.001293 0.000000 0.039367 0.000000
# 6 0.000000 0.000000 0.000000 0.006405 0.000000 0.036191
#
#
# Mechanical properties :
#
#
# Convention : Reuss Voigt Hill
#
# Bulk Modulus (GPa) = 18.01233 19.76431 18.88832
# Shear Modulus (GPa) = 24.85295 26.14254 25.49775
#
# Velocity S-wave (km/s) = 3.67696 3.77115 3.72435
# Velocity P-wave (km/s) = 5.27498 5.45105 5.36374
#
# Compressibility (1/GPa) = 0.05551753
#
# Stress axis : x y z
#
# Youngs Moduli (GPa) = 62.85021 41.48165 56.99005
#
# Poissons Ratio (x) = -0.07283 0.13357
# Poissons Ratio (y) = -0.11034 0.02482
# Poissons Ratio (z) = 0.14730 0.01807
#
# Static dielectric constant tensor:
#      x y z
#    x 3.363670 0.000000 0.042060 
#    y 0.000000 3.200860 0.000000 
#    z 0.042060 0.000000 3.742350 
# 
# 
# High freq. dielectric constant tensor:
#      x y z
#    x 1.709590 0.000000 0.014810 
#    y 0.000000 1.684740 0.000000 
#    z 0.014810 0.000000 1.721880 
# 
# From -- ./inp_files/233659.got.cif
#   From: 2010.06.25/outbox.cif.g09.slc.cpg/sg12_117_cif.got.tgz:233659.got - 2010.06.28 00:19:55.
