data_PCOD8084019
_publ_section_title
;
Structure prediction by ZEFSAII (Michael W. Deem and Ramdas Pophale) SiO2 
 PCOD8084019
Probable space group: C 2/M
;
_chemical_formula_sum "Si O2"
_cell_formula_units_Z 32
_cell_length_a 14.320057
_cell_length_b 10.616926
_cell_length_c 10.268582
_cell_angle_alpha 90.000000
_cell_angle_beta 91.147484
_cell_angle_gamma 90.000000
_cell_volume 1560.870634
_symmetry_space_group_name_H-M "C 2/M"
_symmetry_group_IT_number 12
_symmetry_cell_setting 'monoclinic'
loop_
_space_group_symop_operation_xyz
x,y,z
-x,y,-z
-x,-y,-z
x,-y,z
1/2+x,1/2+y,z
1/2-x,1/2+y,-z
1/2-x,1/2-y,-z
1/2+x,1/2-y,z
loop_
_atom_site_type_symbol
_atom_site_label
_atom_site_fract_x
_atom_site_fract_y
_atom_site_fract_z
Si Si1 0.366320 0.500000 0.700826
Si Si2 0.926411 0.251522 0.612297
Si Si3 0.446377 0.770995 0.134388
Si Si4 0.825910 0.500000 0.207532
Si Si5 0.449833 0.500000 0.133635
Si Si6 0.111558 0.500000 0.496340
O O1 0.358628 0.629388 0.617783
O O2 0.286676 0.500000 0.811160
O O3 0.470632 0.500000 0.755983
O O4 0.859966 0.371909 0.578226
O O5 0.000000 0.226509 0.500000
O O6 0.978499 0.284512 0.748544
O O7 0.394464 0.632943 0.144194
O O8 0.367263 0.876499 0.140784
O O9 0.500000 0.786397 0.000000
O O10 0.842603 0.500000 0.361695
O O11 0.500000 0.500000 0.000000
O O12 0.000000 0.500000 0.500000
#
# Coordination Sequence:
#
# PCOD8084019 Si02
#       6
#     4   8   8   4   4   4
#     4  10  23  33  57  90 113 137 186 244 276 312
#     4  10  18  38  59  80 108 151 190 220 272 344
#     4  10  19  35  61  83 107 151 190 221 270 341
#     4  12  21  36  53  91 118 135 183 249 276 309
#     4   8  18  39  57  76 107 152 186 212 268 345
#     4  10  18  34  56  77 114 148 184 220 277 331
#
# _framework density 20.501377999999999
#
# number of rings (size 3 to 8) (size 9 to 14) (size 15 to 20)
#    0.000    2.000    5.000    0.750    0.000    1.000 
#    0.000   12.500    0.000    0.000    0.000    0.000 
#    0.000    0.000    0.000    0.000    0.000    0.000 
#
# Total GULP energy -198219.278604 kJ/mol
# GULP energy per Si atom -12388.704913 kJ/mol
# Density = 2.045472 g / cm^3
# Si number density = 20.501378 Si / 1000 Ang^3
#
#
#
# Elastic Constant Matrix: (Units=GPa)
#
#
# Indices 1 2 3 4 5 6 
#
# 1 49.3141 44.6651 8.3848 0.0000 -24.3876 0.0000
# 2 44.6651 242.9697 29.2299 0.0000 -34.2362 0.0000
# 3 8.3848 29.2299 106.1474 0.0000 -14.9248 0.0000
# 4 0.0000 0.0000 0.0000 30.1961 0.0000 -5.2338
# 5 -24.3876 -34.2362 -14.9248 0.0000 20.2381 0.0000
# 6 0.0000 0.0000 0.0000 -5.2338 0.0000 1.8519
#
#
#
# Elastic Compliance Matrix: (Units=1/GPa)
#
#
# Indices 1 2 3 4 5 6 
#
# 1 0.052969 -0.001092 0.005390 0.000000 0.065958 0.000000
# 2 -0.001092 0.005431 -0.000337 0.000000 0.007623 0.000000
# 3 0.005390 -0.000337 0.011069 0.000000 0.014088 0.000000
# 4 0.000000 0.000000 0.000000 0.064914 0.000000 0.183455
# 5 0.065958 0.007623 0.014088 0.000000 0.152178 0.000000
# 6 0.000000 0.000000 0.000000 0.183455 0.000000 1.058438
#
#
# Mechanical properties :
#
#
# Convention : Reuss Voigt Hill
#
# Bulk Modulus (GPa) = 12.92136 62.55454 37.73795
# Shear Modulus (GPa) = 3.66872 31.53399 17.60135
#
# Velocity S-wave (km/s) = 1.33917 3.92617 2.93327
# Velocity P-wave (km/s) = 2.95085 7.15064 5.46988
#
# Compressibility (1/GPa) = 0.07739126
#
# Stress axis : x y z
#
# Youngs Moduli (GPa) = 18.87895 184.12051 90.34434
#
# Poissons Ratio (x) = 0.20103 -0.48700
# Poissons Ratio (y) = 0.02061 0.03049
# Poissons Ratio (z) = -0.10177 0.06214
#
# Static dielectric constant tensor:
#      x y z
#    x 3.411740 0.000000 0.020670 
#    y 0.000000 5.046020 0.000000 
#    z 0.020670 0.000000 3.865110 
# 
# 
# High freq. dielectric constant tensor:
#      x y z
#    x 1.738550 0.000000 0.002890 
#    y 0.000000 1.841860 0.000000 
#    z 0.002890 0.000000 1.803000 
# 
# From -- ./inp_files/56950.got.cif
#   From: 2010.06.25/outbox.cif.g09.slc.cpg/sg12_29_cif.got.tgz:56950.got - 2010.06.28 00:19:55.
