data_PCOD8084741
_publ_section_title
;
Structure prediction by ZEFSAII (Michael W. Deem and Ramdas Pophale) SiO2 
 PCOD8084741
Probable space group: C 2/M
;
_chemical_formula_sum "Si O2"
_cell_formula_units_Z 48
_cell_length_a 20.839711
_cell_length_b 14.823011
_cell_length_c 9.032810
_cell_angle_alpha 90.000000
_cell_angle_beta 69.652581
_cell_angle_gamma 90.000000
_cell_volume 2616.190015
_symmetry_space_group_name_H-M "C 2/M"
_symmetry_group_IT_number 12
_symmetry_cell_setting 'monoclinic'
loop_
_space_group_symop_operation_xyz
x,y,z
-x,y,-z
-x,-y,-z
x,-y,z
1/2+x,1/2+y,z
1/2-x,1/2+y,-z
1/2-x,1/2-y,-z
1/2+x,1/2-y,z
loop_
_atom_site_type_symbol
_atom_site_label
_atom_site_fract_x
_atom_site_fract_y
_atom_site_fract_z
Si Si1 0.937754 0.898501 0.449018
Si Si2 0.328044 0.398013 0.040869
Si Si3 0.232263 0.662849 0.351488
Si Si4 0.331165 0.900594 0.308988
Si Si5 0.879270 0.214508 0.246992
Si Si6 0.807856 0.847736 0.724588
O O1 0.933705 0.830098 0.313936
O O2 0.868283 0.902593 0.598350
O O3 0.000000 0.864023 0.500000
O O4 0.951895 0.000000 0.378811
O O5 0.355572 0.500000 0.003639
O O6 0.257405 0.398188 0.192648
O O7 0.383826 0.336039 0.084341
O O8 0.315753 0.353451 0.893704
O O9 0.190018 0.603964 0.501271
O O10 0.301474 0.702844 0.376499
O O11 0.185748 0.743269 0.325524
O O12 0.388107 0.823339 0.225438
O O13 0.265123 0.890040 0.257741
O O14 0.363042 0.000000 0.255531
#
# Coordination Sequence:
#
# PCOD8084741 Si02
#       6
#     8   8   8   8   8   8
#     4  11  21  33  51  70  93 130 171 204 235 279
#     4  10  19  28  47  73 105 134 152 189 244 299
#     4   9  18  30  48  70  99 130 151 195 246 290
#     4  11  18  29  52  73  96 127 160 199 245 292
#     4   9  19  33  45  69  97 127 161 196 244 284
#     4  11  18  33  46  73 103 129 161 196 238 286
#
# _framework density 18.347290999999998
#
# number of rings (size 3 to 8) (size 9 to 14) (size 15 to 20)
#    1.000    0.833    3.333    4.000    0.000    0.000 
#    0.000    0.833    0.000    3.500    0.000    0.000 
#    0.000    1.333    0.000    0.000    0.000    0.000 
#
# Total GULP energy -297447.126003 kJ/mol
# GULP energy per Si atom -12393.630250 kJ/mol
# Density = 1.830553 g / cm^3
# Si number density = 18.347291 Si / 1000 Ang^3
#
#
#
# Elastic Constant Matrix: (Units=GPa)
#
#
# Indices 1 2 3 4 5 6 
#
# 1 48.5860 37.7142 22.5111 0.0000 26.6346 0.0000
# 2 37.7142 138.2902 37.9084 0.0000 30.7881 0.0000
# 3 22.5111 37.9084 99.5128 0.0000 37.2690 0.0000
# 4 0.0000 0.0000 0.0000 22.1336 0.0000 4.5265
# 5 26.6346 30.7881 37.2690 0.0000 26.5354 0.0000
# 6 0.0000 0.0000 0.0000 4.5265 0.0000 14.5285
#
#
#
# Elastic Compliance Matrix: (Units=1/GPa)
#
#
# Indices 1 2 3 4 5 6 
#
# 1 0.059210 -0.002977 0.018364 0.000000 -0.081769 0.000000
# 2 -0.002977 0.009957 0.000186 0.000000 -0.008825 0.000000
# 3 0.018364 0.000186 0.027021 0.000000 -0.056599 0.000000
# 4 0.000000 0.000000 0.000000 0.048255 0.000000 -0.015034
# 5 -0.081769 -0.008825 -0.056599 0.000000 0.209494 0.000000
# 6 0.000000 0.000000 0.000000 -0.015034 0.000000 0.073515
#
#
# Mechanical properties :
#
#
# Convention : Reuss Voigt Hill
#
# Bulk Modulus (GPa) = 7.85341 53.62848 30.74095
# Shear Modulus (GPa) = 11.39597 25.18985 18.29291
#
# Velocity S-wave (km/s) = 2.49494 3.70935 3.16101
# Velocity P-wave (km/s) = 3.54815 6.90209 5.48763
#
# Compressibility (1/GPa) = 0.12733322
#
# Stress axis : x y z
#
# Youngs Moduli (GPa) = 16.88906 100.43215 37.00773
#
# Poissons Ratio (x) = 0.29898 -0.67960
# Poissons Ratio (y) = 0.05028 -0.00687
# Poissons Ratio (z) = -0.31015 -0.01865
#
# Static dielectric constant tensor:
#      x y z
#    x 2.874080 0.000000 0.216500 
#    y 0.000000 3.437000 0.000000 
#    z 0.216500 0.000000 3.258470 
# 
# 
# High freq. dielectric constant tensor:
#      x y z
#    x 1.646790 0.000000 0.026800 
#    y 0.000000 1.717150 0.000000 
#    z 0.026800 0.000000 1.710070 
# 
# From -- ./inp_files/85139.got.cif
#   From: 2010.06.25/outbox.cif.g09.slc.cpg/sg12_43_cif.got.tgz:85139.got - 2010.06.28 00:19:55.
