data_PCOD8084947
_publ_section_title
;
Structure prediction by ZEFSAII (Michael W. Deem and Ramdas Pophale) SiO2 
 PCOD8084947
Probable space group: C 2/M
;
_chemical_formula_sum "Si O2"
_cell_formula_units_Z 48
_cell_length_a 22.956859
_cell_length_b 8.653956
_cell_length_c 26.437614
_cell_angle_alpha 90.000000
_cell_angle_beta 30.632941
_cell_angle_gamma 90.000000
_cell_volume 2676.236246
_symmetry_space_group_name_H-M "C 2/M"
_symmetry_group_IT_number 12
_symmetry_cell_setting 'monoclinic'
loop_
_space_group_symop_operation_xyz
x,y,z
-x,y,-z
-x,-y,-z
x,-y,z
1/2+x,1/2+y,z
1/2-x,1/2+y,-z
1/2-x,1/2-y,-z
1/2+x,1/2-y,z
loop_
_atom_site_type_symbol
_atom_site_label
_atom_site_fract_x
_atom_site_fract_y
_atom_site_fract_z
Si Si1 0.333881 0.316762 0.602889
Si Si2 0.415876 0.669383 0.739812
Si Si3 0.844460 0.169872 0.398026
Si Si4 0.409575 0.822309 0.250606
Si Si5 0.957194 0.681726 0.605968
Si Si6 0.862517 0.182748 0.891475
O O1 0.343939 0.500000 0.588371
O O2 0.199921 0.265040 0.700443
O O3 0.378053 0.266570 0.624405
O O4 0.411538 0.239070 0.500455
O O5 0.359086 0.500000 0.772002
O O6 0.549968 0.644189 0.644227
O O7 0.401020 0.780838 0.702608
O O8 0.369229 0.741810 0.827866
O O9 0.750000 0.250000 0.500000
O O10 0.872603 0.296143 0.335311
O O11 0.808282 0.000000 0.403212
O O12 0.528944 0.730219 0.154383
O O13 0.436579 0.000000 0.219407
O O14 0.952813 0.500000 0.600321
O O15 0.859363 0.000000 0.892927
O O16 0.750000 0.250000 0.000000
#
# Coordination Sequence:
#
# PCOD8084947 Si02
#       6
#     8   8   8   8   8   8
#     4  10  20  34  51  71 103 144 176 206 247 299
#     4   9  19  34  49  69  99 134 167 200 248 305
#     4  10  19  29  44  68  99 133 165 202 249 299
#     4  10  20  33  51  74  99 131 170 208 251 303
#     4  11  21  31  49  76 104 137 176 215 248 287
#     4  10  21  37  58  80 103 131 164 209 261 311
#
# _framework density 17.935637
#
# number of rings (size 3 to 8) (size 9 to 14) (size 15 to 20)
#    0.000    2.000    0.000    6.500    0.000   10.667 
#    0.000    0.000    0.000    1.000    0.000    7.000 
#    0.000    0.000    0.000    0.000    0.000    0.000 
#
# Total GULP energy -297323.335430 kJ/mol
# GULP energy per Si atom -12388.472310 kJ/mol
# Density = 1.789481 g / cm^3
# Si number density = 17.935637 Si / 1000 Ang^3
#
#
#
# Elastic Constant Matrix: (Units=GPa)
#
#
# Indices 1 2 3 4 5 6 
#
# 1 72.7213 19.1823 45.3220 0.0004 -4.5175 0.0001
# 2 19.1823 50.3741 25.0984 0.0025 -4.1337 0.0001
# 3 45.3220 25.0984 126.7209 0.0015 -9.5212 -0.0005
# 4 0.0004 0.0025 0.0015 25.8452 -0.0007 0.0583
# 5 -4.5175 -4.1337 -9.5212 -0.0007 26.5542 -0.0002
# 6 0.0001 0.0001 -0.0005 0.0583 -0.0002 25.8451
#
#
#
# Elastic Compliance Matrix: (Units=1/GPa)
#
#
# Indices 1 2 3 4 5 6 
#
# 1 0.018449 -0.004125 -0.005749 0.000000 0.000435 0.000000
# 2 -0.004125 0.023043 -0.002951 -0.000002 0.001827 0.000000
# 3 -0.005749 -0.002951 0.010712 0.000000 0.002404 0.000000
# 4 0.000000 -0.000002 0.000000 0.038692 0.000001 -0.000087
# 5 0.000435 0.001827 0.002404 0.000001 0.038879 0.000000
# 6 0.000000 0.000000 0.000000 -0.000087 0.000000 0.038692
#
#
# Mechanical properties :
#
#
# Convention : Reuss Voigt Hill
#
# Bulk Modulus (GPa) = 37.65911 47.66906 42.66409
# Shear Modulus (GPa) = 24.63430 26.32982 25.48206
#
# Velocity S-wave (km/s) = 3.71007 3.83563 3.77337
# Velocity P-wave (km/s) = 6.27656 6.80085 6.54396
#
# Compressibility (1/GPa) = 0.02655400
#
# Stress axis : x y z
#
# Youngs Moduli (GPa) = 54.20343 43.39767 93.34951
#
# Poissons Ratio (x) = 0.17903 0.53662
# Poissons Ratio (y) = 0.22361 0.27548
# Poissons Ratio (z) = 0.31159 0.12807
#
# Static dielectric constant tensor:
#      x y z
#    x 3.281660 -0.000010 -0.522810 
#    y -0.000010 3.395330 -0.000020 
#    z -0.522810 -0.000020 0.305810 
# 
# 
# High freq. dielectric constant tensor:
#      x y z
#    x 1.682030 0.000000 -0.004390 
#    y 0.000000 1.705350 0.000000 
#    z -0.004390 0.000000 1.671730 
# 
# From -- ./inp_files/367109.got.cif
#   From: 2010.06.25/outbox.cif.g09.slc.cpg/sg12_184_cif.got.tgz:367109.got - 2010.06.28 00:19:55.
