data_PCOD8084265
_publ_section_title
;
Structure prediction by ZEFSAII (Michael W. Deem and Ramdas Pophale) SiO2 
 PCOD8084265
Probable space group: C 2/M
;
_chemical_formula_sum "Si O2"
_cell_formula_units_Z 36
_cell_length_a 12.698112
_cell_length_b 20.141514
_cell_length_c 13.465648
_cell_angle_alpha 90.000000
_cell_angle_beta 143.877131
_cell_angle_gamma 90.000000
_cell_volume 2030.281190
_symmetry_space_group_name_H-M "C 2/M"
_symmetry_group_IT_number 12
_symmetry_cell_setting 'monoclinic'
loop_
_space_group_symop_operation_xyz
x,y,z
-x,y,-z
-x,-y,-z
x,-y,z
1/2+x,1/2+y,z
1/2-x,1/2+y,-z
1/2-x,1/2-y,-z
1/2+x,1/2-y,z
loop_
_atom_site_type_symbol
_atom_site_label
_atom_site_fract_x
_atom_site_fract_y
_atom_site_fract_z
Si Si1 0.018376 0.000000 0.856729
Si Si2 0.555373 0.362361 0.255634
Si Si3 0.661158 0.250733 0.826904
Si Si4 0.532016 0.134858 0.416856
Si Si5 0.500000 0.294383 0.000000
Si Si6 0.691865 0.000000 0.756625
O O1 0.032894 0.934652 0.800001
O O2 0.825667 0.000000 0.765110
O O3 0.190316 0.000000 0.056433
O O4 0.466868 0.314868 0.271695
O O5 0.759065 0.370327 0.442785
O O6 0.524326 0.339942 0.116775
O O7 0.548340 0.183550 0.727182
O O8 0.750000 0.250000 0.000000
O O9 0.824191 0.252357 0.871998
O O10 0.500000 0.168183 0.500000
O O11 0.435178 0.063865 0.341455
#
# Coordination Sequence:
#
# PCOD8084265 Si02
#       6
#     4   8   8   8   4   4
#     4  11  19  32  51  77 110 139 175 209 265 322
#     4  11  21  33  53  78 108 140 176 217 261 313
#     4  10  21  35  52  75 107 142 177 216 262 313
#     4  12  20  33  52  80 113 139 174 212 263 317
#     4  10  18  35  52  75 106 136 176 220 264 311
#     4  11  20  31  52  78 109 146 162 211 273 324
#
# _framework density 17.731534
#
# number of rings (size 3 to 8) (size 9 to 14) (size 15 to 20)
#    0.000    1.111    4.444    5.667    0.000    0.000 
#    0.000    0.000    0.000    0.667    0.000    2.333 
#    0.000    0.000    0.000    0.000    0.000    0.000 
#
# Total GULP energy -223085.073894 kJ/mol
# GULP energy per Si atom -12393.615216 kJ/mol
# Density = 1.769118 g / cm^3
# Si number density = 17.731534 Si / 1000 Ang^3
#
#
#
# Elastic Constant Matrix: (Units=GPa)
#
#
# Indices 1 2 3 4 5 6 
#
# 1 46.8138 45.8765 27.0245 0.0000 16.7459 0.0000
# 2 45.8765 140.1592 53.7350 0.0000 7.5752 0.0000
# 3 27.0245 53.7350 110.5369 0.0000 19.2561 0.0000
# 4 0.0000 0.0000 0.0000 38.8282 0.0000 6.1832
# 5 16.7459 7.5752 19.2561 0.0000 31.7754 0.0000
# 6 0.0000 0.0000 0.0000 6.1832 0.0000 25.6721
#
#
#
# Elastic Compliance Matrix: (Units=1/GPa)
#
#
# Indices 1 2 3 4 5 6 
#
# 1 0.039589 -0.011640 -0.000972 0.000000 -0.017500 0.000000
# 2 -0.011640 0.012200 -0.004077 0.000000 0.005697 0.000000
# 3 -0.000972 -0.004077 0.012307 0.000000 -0.005974 0.000000
# 4 0.000000 0.000000 0.000000 0.026782 0.000000 -0.006450
# 5 -0.017500 0.005697 -0.005974 0.000000 0.042955 0.000000
# 6 0.000000 0.000000 0.000000 -0.006450 0.000000 0.040506
#
#
# Mechanical properties :
#
#
# Convention : Reuss Voigt Hill
#
# Bulk Modulus (GPa) = 32.55429 61.19799 46.87614
# Shear Modulus (GPa) = 22.94035 30.64675 26.79355
#
# Velocity S-wave (km/s) = 3.60079 4.16188 3.89146
# Velocity P-wave (km/s) = 5.97386 7.59497 6.83266
#
# Compressibility (1/GPa) = 0.03071792
#
# Stress axis : x y z
#
# Youngs Moduli (GPa) = 25.25972 81.96769 81.25317
#
# Poissons Ratio (x) = 0.95407 0.07897
# Poissons Ratio (y) = 0.29401 0.33130
# Poissons Ratio (z) = 0.02455 0.33422
#
# Static dielectric constant tensor:
#      x y z
#    x 3.696310 0.000000 0.356450 
#    y 0.000000 3.772190 0.000000 
#    z 0.356450 0.000000 3.612520 
# 
# 
# High freq. dielectric constant tensor:
#      x y z
#    x 1.640130 0.000000 0.026450 
#    y 0.000000 1.685710 0.000000 
#    z 0.026450 0.000000 1.712360 
# 
# From -- ./inp_files/46861.got.cif
#   From: 2010.06.25/outbox.cif.g09.slc.cpg/sg12_24_cif.got.tgz:46861.got - 2010.06.28 00:19:55.
