data_PCOD8084832
_publ_section_title
;
Structure prediction by ZEFSAII (Michael W. Deem and Ramdas Pophale) SiO2 
 PCOD8084832
Probable space group: C 2/M
;
_chemical_formula_sum "Si O2"
_cell_formula_units_Z 48
_cell_length_a 22.989161
_cell_length_b 9.199762
_cell_length_c 17.437313
_cell_angle_alpha 90.000000
_cell_angle_beta 48.460482
_cell_angle_gamma 90.000000
_cell_volume 2760.388590
_symmetry_space_group_name_H-M "C 2/M"
_symmetry_group_IT_number 12
_symmetry_cell_setting 'monoclinic'
loop_
_space_group_symop_operation_xyz
x,y,z
-x,y,-z
-x,-y,-z
x,-y,z
1/2+x,1/2+y,z
1/2-x,1/2+y,-z
1/2-x,1/2-y,-z
1/2+x,1/2-y,z
loop_
_atom_site_type_symbol
_atom_site_label
_atom_site_fract_x
_atom_site_fract_y
_atom_site_fract_z
Si Si1 0.973918 0.831405 0.900676
Si Si2 0.624196 0.331653 0.866168
Si Si3 0.228115 0.659437 0.091068
Si Si4 0.547689 0.160646 0.238214
Si Si5 0.054389 0.829221 0.382695
Si Si6 0.232120 0.171287 0.235030
O O1 0.059193 0.801746 0.859388
O O2 0.966780 0.740467 0.829124
O O3 0.963335 0.000000 0.889124
O O4 0.909847 0.784920 0.020220
O O5 0.647502 0.500000 0.847582
O O6 0.700482 0.240433 0.770178
O O7 0.268749 0.500000 0.055647
O O8 0.137465 0.638349 0.173937
O O9 0.259404 0.755684 0.132513
O O10 0.250000 0.750000 0.000000
O O11 0.519934 0.252605 0.336633
O O12 0.507952 0.000000 0.271585
O O13 0.142687 0.785079 0.330410
O O14 0.000000 0.781258 0.500000
O O15 0.050834 0.000000 0.369327
O O16 0.241963 0.000000 0.223635
#
# Coordination Sequence:
#
# PCOD8084832 Si02
#       6
#     8   8   8   8   8   8
#     4   9  18  32  49  69  97 135 170 194 224 275
#     4   9  18  32  49  70  98 133 168 197 228 271
#     4  10  19  29  42  64  95 127 156 188 230 280
#     4  10  20  31  46  71  98 123 155 198 243 281
#     4   9  19  36  55  72  92 122 158 196 243 297
#     4  10  19  30  47  71  95 121 155 195 239 284
#
# _framework density 17.388857000000002
#
# number of rings (size 3 to 8) (size 9 to 14) (size 15 to 20)
#    0.000    2.500    0.000    3.500    0.000    7.000 
#    0.000    1.667    0.000    1.000    0.000    0.000 
#    0.000    0.000    0.000    0.000    0.000    0.000 
#
# Total GULP energy -297335.402806 kJ/mol
# GULP energy per Si atom -12388.975117 kJ/mol
# Density = 1.734928 g / cm^3
# Si number density = 17.388857 Si / 1000 Ang^3
#
#
#
# Elastic Constant Matrix: (Units=GPa)
#
#
# Indices 1 2 3 4 5 6 
#
# 1 84.2237 46.2068 30.9302 0.0005 -2.1902 -0.0006
# 2 46.2068 87.2215 40.5345 0.0019 -0.4980 -0.0019
# 3 30.9302 40.5345 67.9016 0.0009 2.3261 -0.0008
# 4 0.0005 0.0019 0.0009 19.8859 0.0001 0.0464
# 5 -2.1902 -0.4980 2.3261 0.0001 25.5126 0.0001
# 6 -0.0006 -0.0019 -0.0008 0.0464 0.0001 31.4091
#
#
#
# Elastic Compliance Matrix: (Units=1/GPa)
#
#
# Indices 1 2 3 4 5 6 
#
# 1 0.017334 -0.007581 -0.003427 0.000000 0.001652 0.000000
# 2 -0.007581 0.019218 -0.008035 -0.000001 0.000457 0.000001
# 3 -0.003427 -0.008035 0.021166 0.000000 -0.002381 0.000000
# 4 0.000000 -0.000001 0.000000 0.050287 0.000000 -0.000074
# 5 0.001652 0.000457 -0.002381 0.000000 0.039564 0.000000
# 6 0.000000 0.000001 0.000000 -0.000074 0.000000 0.031838
#
#
# Mechanical properties :
#
#
# Convention : Reuss Voigt Hill
#
# Bulk Modulus (GPa) = 50.93535 52.74331 51.83933
# Shear Modulus (GPa) = 22.31792 23.47321 22.89557
#
# Velocity S-wave (km/s) = 3.58643 3.67808 3.63255
# Velocity P-wave (km/s) = 6.81949 6.95954 6.88988
#
# Compressibility (1/GPa) = 0.01963273
#
# Stress axis : x y z
#
# Youngs Moduli (GPa) = 57.69169 52.03568 47.24518
#
# Poissons Ratio (x) = 0.39446 0.16191
# Poissons Ratio (y) = 0.43734 0.37960
# Poissons Ratio (z) = 0.19771 0.41809
#
# Static dielectric constant tensor:
#      x y z
#    x 3.306860 0.000000 -0.070000 
#    y 0.000000 3.455440 0.000000 
#    z -0.070000 0.000000 2.952540 
# 
# 
# High freq. dielectric constant tensor:
#      x y z
#    x 1.674560 0.000000 -0.006450 
#    y 0.000000 1.679840 0.000000 
#    z -0.006450 0.000000 1.637870 
# 
# From -- ./inp_files/287267.got.cif
#   From: 2010.06.25/outbox.cif.g09.slc.cpg/sg12_144_cif.got.tgz:287267.got - 2010.06.28 00:19:55.
