data_PCOD8084746
_publ_section_title
;
Structure prediction by ZEFSAII (Michael W. Deem and Ramdas Pophale) SiO2 
 PCOD8084746
Probable space group: C 2/M
;
_chemical_formula_sum "Si O2"
_cell_formula_units_Z 44
_cell_length_a 8.532755
_cell_length_b 27.580750
_cell_length_c 10.009441
_cell_angle_alpha 90.000000
_cell_angle_beta 57.595645
_cell_angle_gamma 90.000000
_cell_volume 1988.819522
_symmetry_space_group_name_H-M "C 2/M"
_symmetry_group_IT_number 12
_symmetry_cell_setting 'monoclinic'
loop_
_space_group_symop_operation_xyz
x,y,z
-x,y,-z
-x,-y,-z
x,-y,z
1/2+x,1/2+y,z
1/2-x,1/2+y,-z
1/2-x,1/2-y,-z
1/2+x,1/2-y,z
loop_
_atom_site_type_symbol
_atom_site_label
_atom_site_fract_x
_atom_site_fract_y
_atom_site_fract_z
Si Si1 0.036640 0.144890 0.770544
Si Si2 0.714566 0.208996 0.908756
Si Si3 0.300146 0.230060 0.620319
Si Si4 0.252706 0.054842 0.735547
Si Si5 0.500000 0.388491 0.500000
Si Si6 0.845852 0.553557 0.382691
O O1 0.172853 0.188941 0.745561
O O2 0.090898 0.095599 0.826728
O O3 0.057100 0.142187 0.601542
O O4 0.827229 0.160780 0.903645
O O5 0.796598 0.225704 0.728013
O O6 0.500000 0.194663 0.000000
O O7 0.750000 0.250000 0.000000
O O8 0.500000 0.206790 0.500000
O O9 0.250000 0.250000 0.500000
O O10 0.292653 0.052914 0.561293
O O11 0.440222 0.072326 0.727883
O O12 0.191740 0.000000 0.809497
O O13 0.312908 0.418083 0.626942
O O14 0.841418 0.500000 0.324156
#
# Coordination Sequence:
#
# PCOD8084746 Si02
#       6
#     8   8   8   8   4   8
#     4  11  22  35  57  86 120 162 203 250 311 358
#     4  12  24  45  63  87 124 168 209 251 309 379
#     4  12  23  40  63  93 126 159 203 261 308 359
#     4   8  16  31  50  78 115 158 202 245 297 367
#     4  10  19  28  48  88 120 152 200 250 301 358
#     4   8  14  27  46  74 119 160 191 239 304 360
#
# _framework density 22.123678000000002
#
# number of rings (size 3 to 8) (size 9 to 14) (size 15 to 20)
#    0.000    1.818    3.636    2.455    5.091    0.727 
#    0.000    0.000    0.000    0.545    0.000    2.545 
#    0.000    0.364    0.000    0.000    0.000    0.000 
#
# Total GULP energy -272553.749204 kJ/mol
# GULP energy per Si atom -12388.806782 kJ/mol
# Density = 2.207332 g / cm^3
# Si number density = 22.123678 Si / 1000 Ang^3
#
#
#
# Elastic Constant Matrix: (Units=GPa)
#
#
# Indices 1 2 3 4 5 6 
#
# 1 138.3294 65.8045 30.7932 0.0000 -42.5809 0.0000
# 2 65.8045 122.8261 19.1067 0.0000 -30.7794 0.0000
# 3 30.7932 19.1067 57.0555 0.0000 -14.1266 0.0000
# 4 0.0000 0.0000 0.0000 16.7028 0.0000 -20.1789
# 5 -42.5809 -30.7794 -14.1266 0.0000 46.6925 0.0000
# 6 0.0000 0.0000 0.0000 -20.1789 0.0000 40.8817
#
#
#
# Elastic Compliance Matrix: (Units=1/GPa)
#
#
# Indices 1 2 3 4 5 6 
#
# 1 0.012245 -0.004184 -0.003379 0.000000 0.007387 0.000000
# 2 -0.004184 0.011358 -0.000688 0.000000 0.003464 0.000000
# 3 -0.003379 -0.000688 0.020220 0.000000 0.002583 0.000000
# 4 0.000000 0.000000 0.000000 0.148311 0.000000 0.073205
# 5 0.007387 0.003464 0.002583 0.000000 0.031218 0.000000
# 6 0.000000 0.000000 0.000000 0.073205 0.000000 0.060594
#
#
# Mechanical properties :
#
#
# Convention : Reuss Voigt Hill
#
# Bulk Modulus (GPa) = 36.60005 61.06886 48.83445
# Shear Modulus (GPa) = 16.15220 34.35583 25.25402
#
# Velocity S-wave (km/s) = 2.70494 3.94496 3.38226
# Velocity P-wave (km/s) = 5.13176 6.95799 6.11345
#
# Compressibility (1/GPa) = 0.02732237
#
# Stress axis : x y z
#
# Youngs Moduli (GPa) = 81.66325 88.04323 49.45542
#
# Poissons Ratio (x) = 0.36836 0.16710
# Poissons Ratio (y) = 0.34166 0.03402
# Poissons Ratio (z) = 0.27593 0.06057
#
# Static dielectric constant tensor:
#      x y z
#    x 4.606740 0.000000 -0.226460 
#    y 0.000000 4.222070 0.000000 
#    z -0.226460 0.000000 3.450410 
# 
# 
# High freq. dielectric constant tensor:
#      x y z
#    x 1.889880 0.000000 -0.012650 
#    y 0.000000 1.863790 0.000000 
#    z -0.012650 0.000000 1.824300 
# 
# From -- ./inp_files/124741.got.cif
#   From: 2010.06.25/outbox.cif.g09.slc.cpg/sg12_63_cif.got.tgz:124741.got - 2010.06.28 00:19:55.
