data_PCOD8084225
_publ_section_title
;
Structure prediction by ZEFSAII (Michael W. Deem and Ramdas Pophale) SiO2 
 PCOD8084225
Probable space group: C 2/M
;
_chemical_formula_sum "Si O2"
_cell_formula_units_Z 56
_cell_length_a 20.344094
_cell_length_b 14.298767
_cell_length_c 10.346460
_cell_angle_alpha 90.000000
_cell_angle_beta 128.847900
_cell_angle_gamma 90.000000
_cell_volume 2344.025808
_symmetry_space_group_name_H-M "C 2/M"
_symmetry_group_IT_number 12
_symmetry_cell_setting 'monoclinic'
loop_
_space_group_symop_operation_xyz
x,y,z
-x,y,-z
-x,-y,-z
x,-y,z
1/2+x,1/2+y,z
1/2-x,1/2+y,-z
1/2-x,1/2-y,-z
1/2+x,1/2-y,z
loop_
_atom_site_type_symbol
_atom_site_label
_atom_site_fract_x
_atom_site_fract_y
_atom_site_fract_z
Si Si1 0.444712 0.888428 0.050423
Si Si2 0.690262 0.663190 0.458842
Si Si3 0.986273 0.108908 0.831724
Si Si4 0.833889 0.888070 0.038726
Si Si5 0.275257 0.102438 0.326739
Si Si6 0.744664 0.109682 0.185626
Si Si7 0.541481 0.888424 0.418923
O O1 0.349809 0.847381 0.925782
O O2 0.443115 0.000000 0.043563
O O3 0.500000 0.848689 0.000000
O O4 0.487072 0.849445 0.233045
O O5 0.750000 0.750000 0.500000
O O6 0.589755 0.674136 0.314887
O O7 0.719807 0.588362 0.387465
O O8 0.705594 0.630595 0.622783
O O9 0.069723 0.144999 0.859887
O O10 0.967022 0.000000 0.776987
O O11 0.000000 0.124001 0.000000
O O12 0.796971 0.849817 0.128373
O O13 0.832434 0.000000 0.025902
O O14 0.776468 0.845156 0.850854
O O15 0.363568 0.155471 0.467788
O O16 0.299711 0.000000 0.303938
O O17 0.736291 0.000000 0.155199
O O18 0.500000 0.854608 0.500000
O O19 0.545158 0.000000 0.411638
#
# Coordination Sequence:
#
# PCOD8084225 Si02
#       7
#     8   8   8   8   8   8   8
#     4   9  16  27  45  74 114 155 189 226 280 349
#     4  12  25  39  56  84 124 163 204 248 307 381
#     4  10  19  38  69  97 120 156 212 269 317 372
#     4   9  18  33  63 100 121 146 197 266 334 374
#     4  10  18  34  61  87 114 153 202 253 304 365
#     4  10  20  36  59  91 126 156 199 263 324 375
#     4   9  16  26  47  79 111 143 181 230 281 337
#
# _framework density 23.890523000000002
#
# number of rings (size 3 to 8) (size 9 to 14) (size 15 to 20)
#    0.000    2.143    1.429    3.000    0.000    6.286 
#    0.000    5.000    3.143    0.000    0.000    0.000 
#    0.000    0.000    0.000    0.000    0.000    0.000 
#
# Total GULP energy -347119.608686 kJ/mol
# GULP energy per Si atom -12397.128882 kJ/mol
# Density = 2.383615 g / cm^3
# Si number density = 23.890523 Si / 1000 Ang^3
#
#
#
# Elastic Constant Matrix: (Units=GPa)
#
#
# Indices 1 2 3 4 5 6 
#
# 1 227.1676 4.3015 123.7099 0.0000 5.0242 0.0000
# 2 4.3015 20.2314 10.0315 0.0000 10.1495 0.0000
# 3 123.7099 10.0315 226.5617 0.0000 5.2706 0.0000
# 4 0.0000 0.0000 0.0000 12.4372 0.0000 12.7346
# 5 5.0242 10.1495 5.2706 0.0000 60.7138 0.0000
# 6 0.0000 0.0000 0.0000 12.7346 0.0000 14.2858
#
#
#
# Elastic Compliance Matrix: (Units=1/GPa)
#
#
# Indices 1 2 3 4 5 6 
#
# 1 0.006273 0.000527 -0.003441 0.000000 -0.000309 0.000000
# 2 0.000527 0.055097 -0.002517 0.000000 -0.009036 0.000000
# 3 -0.003441 -0.002517 0.006401 0.000000 0.000150 0.000000
# 4 0.000000 0.000000 0.000000 0.921390 0.000000 -0.821345
# 5 -0.000309 -0.009036 0.000150 0.000000 0.017994 0.000000
# 6 0.000000 0.000000 0.000000 -0.821345 0.000000 0.802163
#
#
# Mechanical properties :
#
#
# Convention : Reuss Voigt Hill
#
# Bulk Modulus (GPa) = 17.57216 83.33852 50.45534
# Shear Modulus (GPa) = 2.71865 39.88187 21.30026
#
# Velocity S-wave (km/s) = 1.06791 4.09021 2.98917
# Velocity P-wave (km/s) = 2.98192 7.56741 5.75141
#
# Compressibility (1/GPa) = 0.05690819
#
# Stress axis : x y z
#
# Youngs Moduli (GPa) = 159.41356 18.14983 156.22774
#
# Poissons Ratio (x) = -0.00957 0.53765
# Poissons Ratio (y) = -0.08408 0.39328
# Poissons Ratio (z) = 0.54861 0.04569
#
# Static dielectric constant tensor:
#      x y z
#    x 4.237610 0.000000 0.375850 
#    y 0.000000 3.467860 0.000000 
#    z 0.375850 0.000000 4.144030 
# 
# 
# High freq. dielectric constant tensor:
#      x y z
#    x 1.958720 0.000000 0.007090 
#    y 0.000000 1.914190 0.000000 
#    z 0.007090 0.000000 1.954570 
# 
# From -- ./inp_files/89693.got.cif
#   From: 2010.06.25/outbox.cif.g09.slc.cpg/sg12_45_cif.got.tgz:89693.got - 2010.06.28 00:19:55.
