data_PCOD8084985
_publ_section_title
;
Structure prediction by ZEFSAII (Michael W. Deem and Ramdas Pophale) SiO2 
 PCOD8084985
Probable space group: C 2/M
;
_chemical_formula_sum "Si O2"
_cell_formula_units_Z 64
_cell_length_a 28.300990
_cell_length_b 9.280150
_cell_length_c 15.357940
_cell_angle_alpha 90.000000
_cell_angle_beta 90.579349
_cell_angle_gamma 90.000000
_cell_volume 4033.363727
_symmetry_space_group_name_H-M "C 2/M"
_symmetry_group_IT_number 12
_symmetry_cell_setting 'monoclinic'
loop_
_space_group_symop_operation_xyz
x,y,z
-x,y,-z
-x,-y,-z
x,-y,z
1/2+x,1/2+y,z
1/2-x,1/2+y,-z
1/2-x,1/2-y,-z
1/2+x,1/2-y,z
loop_
_atom_site_type_symbol
_atom_site_label
_atom_site_fract_x
_atom_site_fract_y
_atom_site_fract_z
Si Si1 0.201731 0.667827 0.396720
Si Si2 0.294164 0.166039 0.401007
Si Si3 0.545418 0.669320 0.187178
Si Si4 0.611536 0.669476 0.347298
Si Si5 0.443835 0.341427 0.001868
Si Si6 0.946957 0.169842 0.484998
Si Si7 0.050765 0.333737 0.834501
Si Si8 0.394602 0.835270 0.336760
O O1 0.201667 0.500000 0.374142
O O2 0.251523 0.734452 0.367312
O O3 0.193555 0.698389 0.498425
O O4 0.160460 0.745012 0.342070
O O5 0.339770 0.208525 0.345007
O O6 0.279357 0.000000 0.388456
O O7 0.533108 0.500000 0.191406
O O8 0.580296 0.716189 0.264423
O O9 0.571594 0.706804 0.095903
O O10 0.496541 0.754039 0.197201
O O11 0.622211 0.500000 0.347343
O O12 0.584073 0.717706 0.433357
O O13 0.423303 0.500000 0.023862
O O14 0.500000 0.347985 0.000000
O O15 0.427416 0.229979 0.075536
O O16 0.927457 0.238286 0.397079
O O17 0.000000 0.226123 0.500000
O O18 0.946210 0.000000 0.471988
O O19 0.038337 0.500000 0.849746
O O20 0.090918 0.312644 0.762808
O O21 0.401424 0.000000 0.367029
#
# Coordination Sequence:
#
# PCOD8084985 Si02
#       8
#     8   8   8   8   8   8   8   8
#     4  10  19  31  49  69  89 115 151 193 234 272
#     4   9  18  33  49  64  88 119 152 190 230 273
#     4   9  18  32  48  66  92 126 159 188 223 271
#     4  10  19  31  47  67  92 122 155 188 226 270
#     4   8  15  29  47  65  88 120 155 190 228 269
#     4  10  20  31  44  64  91 124 159 190 217 254
#     4  10  19  29  45  69  95 122 154 191 230 269
#     4  10  20  33  46  65  92 124 155 185 226 274
#
# _framework density 15.867649
#
# number of rings (size 3 to 8) (size 9 to 14) (size 15 to 20)
#    0.000    2.500    1.250    2.250    0.000    6.000 
#    0.000    0.000    0.000    0.000    0.000    0.875 
#    0.000    0.000    0.000    0.000    0.000    0.000 
#
# Total GULP energy -396805.267266 kJ/mol
# GULP energy per Si atom -12400.164602 kJ/mol
# Density = 1.583153 g / cm^3
# Si number density = 15.867649 Si / 1000 Ang^3
#
#
#
# Elastic Constant Matrix: (Units=GPa)
#
#
# Indices 1 2 3 4 5 6 
#
# 1 95.4076 44.3496 35.3421 0.0000 -6.8932 0.0000
# 2 44.3496 61.3869 33.3458 0.0000 -3.8682 0.0000
# 3 35.3421 33.3458 72.2597 0.0000 -12.1673 0.0000
# 4 0.0000 0.0000 0.0000 22.8488 0.0000 0.9260
# 5 -6.8932 -3.8682 -12.1673 0.0000 12.8962 0.0000
# 6 0.0000 0.0000 0.0000 0.9260 0.0000 19.0398
#
#
#
# Elastic Compliance Matrix: (Units=1/GPa)
#
#
# Indices 1 2 3 4 5 6 
#
# 1 0.016487 -0.010167 -0.002855 0.000000 0.003069 0.000000
# 2 -0.010167 0.028143 -0.008926 0.000000 -0.005414 0.000000
# 3 -0.002855 -0.008926 0.022169 0.000000 0.016712 0.000000
# 4 0.000000 0.000000 0.000000 0.043852 0.000000 -0.002133
# 5 0.003069 -0.005414 0.016712 0.000000 0.093326 0.000000
# 6 0.000000 0.000000 0.000000 -0.002133 0.000000 0.052625
#
#
# Mechanical properties :
#
#
# Convention : Reuss Voigt Hill
#
# Bulk Modulus (GPa) = 43.66464 50.56991 47.11728
# Shear Modulus (GPa) = 16.22684 18.69142 17.45913
#
# Velocity S-wave (km/s) = 3.20134 3.43586 3.32067
# Velocity P-wave (km/s) = 6.42203 6.90501 6.66790
#
# Compressibility (1/GPa) = 0.02290183
#
# Stress axis : x y z
#
# Youngs Moduli (GPa) = 60.65531 35.53324 45.10862
#
# Poissons Ratio (x) = 0.36125 0.12880
# Poissons Ratio (y) = 0.61665 0.40265
# Poissons Ratio (z) = 0.17319 0.31718
#
# Static dielectric constant tensor:
#      x y z
#    x 2.883550 0.000000 -0.048410 
#    y 0.000000 3.034400 0.000000 
#    z -0.048410 0.000000 3.168060 
# 
# 
# High freq. dielectric constant tensor:
#      x y z
#    x 1.588630 0.000000 -0.003210 
#    y 0.000000 1.613220 0.000000 
#    z -0.003210 0.000000 1.598650 
# 
# From -- ./inp_files/244028.got.cif
#   From: 2010.06.25/outbox.cif.g09.slc.cpg/sg12_123_cif.got.tgz:244028.got - 2010.06.28 00:19:55.
