data_PCOD8084252
_publ_section_title
;
Structure prediction by ZEFSAII (Michael W. Deem and Ramdas Pophale) SiO2 
 PCOD8084252
Probable space group: C 2/M
;
_chemical_formula_sum "Si O2"
_cell_formula_units_Z 56
_cell_length_a 9.254262
_cell_length_b 17.328534
_cell_length_c 22.657000
_cell_angle_alpha 90.000000
_cell_angle_beta 131.048785
_cell_angle_gamma 90.000000
_cell_volume 2740.085764
_symmetry_space_group_name_H-M "C 2/M"
_symmetry_group_IT_number 12
_symmetry_cell_setting 'monoclinic'
loop_
_space_group_symop_operation_xyz
x,y,z
-x,y,-z
-x,-y,-z
x,-y,z
1/2+x,1/2+y,z
1/2-x,1/2+y,-z
1/2-x,1/2-y,-z
1/2+x,1/2-y,z
loop_
_atom_site_type_symbol
_atom_site_label
_atom_site_fract_x
_atom_site_fract_y
_atom_site_fract_z
Si Si1 0.615663 0.176504 0.473766
Si Si2 0.652944 0.091078 0.880087
Si Si3 0.972285 0.089919 0.557879
Si Si4 0.308209 0.169413 0.987543
Si Si5 0.175012 0.585485 0.284157
Si Si6 0.563155 0.590623 0.143999
Si Si7 0.100988 0.585905 0.679992
O O1 0.500000 0.196273 0.500000
O O2 0.750000 0.250000 0.500000
O O3 0.757297 0.104129 0.522251
O O4 0.463511 0.153055 0.382343
O O5 0.666629 0.109888 0.952140
O O6 0.454646 0.128078 0.800409
O O7 0.833963 0.119534 0.889360
O O8 0.641819 0.000000 0.867607
O O9 0.000000 0.126313 0.500000
O O10 0.125084 0.128395 0.645113
O O11 0.018705 0.000000 0.567436
O O12 0.500000 0.175608 0.000000
O O13 0.250000 0.250000 0.000000
O O14 0.134535 0.137679 0.900756
O O15 0.224353 0.500000 0.273663
O O16 0.056272 0.579925 0.312075
O O17 0.516915 0.500000 0.127916
O O18 0.695236 0.609101 0.236180
O O19 0.117762 0.500000 0.654868
#
# Coordination Sequence:
#
# PCOD8084252 Si02
#       7
#     8   8   8   8   8   8   8
#     4  12  26  41  55  83 120 163 206 246 300 352
#     4   9  18  36  63  92 121 152 193 241 291 355
#     4  10  18  34  63  89 116 153 196 242 292 350
#     4  12  25  41  59  86 122 161 203 243 298 357
#     4   8  15  31  61  94 114 144 189 237 291 348
#     4   9  19  39  67  94 120 155 195 243 300 359
#     4   9  18  38  66  91 118 153 200 248 297 356
#
# _framework density 20.437315999999999
#
# number of rings (size 3 to 8) (size 9 to 14) (size 15 to 20)
#    0.000    2.143    1.429    4.286    0.000    3.429 
#    5.143    0.000    0.000    0.000    0.000    0.000 
#    0.000    0.000    0.000    0.000    0.000    0.000 
#
# Total GULP energy -346925.645480 kJ/mol
# GULP energy per Si atom -12390.201624 kJ/mol
# Density = 2.039080 g / cm^3
# Si number density = 20.437316 Si / 1000 Ang^3
#
#
#
# Elastic Constant Matrix: (Units=GPa)
#
#
# Indices 1 2 3 4 5 6 
#
# 1 110.8240 29.9017 57.5553 0.0000 19.0216 0.0000
# 2 29.9017 56.2793 48.1375 0.0000 4.5440 0.0000
# 3 57.5553 48.1375 154.2216 0.0000 24.0705 0.0000
# 4 0.0000 0.0000 0.0000 17.3560 0.0000 7.0034
# 5 19.0216 4.5440 24.0705 0.0000 32.1875 0.0000
# 6 0.0000 0.0000 0.0000 7.0034 0.0000 22.3809
#
#
#
# Elastic Compliance Matrix: (Units=1/GPa)
#
#
# Indices 1 2 3 4 5 6 
#
# 1 0.012243 -0.003883 -0.002619 0.000000 -0.004728 0.000000
# 2 -0.003883 0.025655 -0.007191 0.000000 0.004050 0.000000
# 3 -0.002619 -0.007191 0.010536 0.000000 -0.005316 0.000000
# 4 0.000000 0.000000 0.000000 0.065943 0.000000 -0.020635
# 5 -0.004728 0.004050 -0.005316 0.000000 0.037266 0.000000
# 6 0.000000 0.000000 0.000000 -0.020635 0.000000 0.051138
#
#
# Mechanical properties :
#
#
# Convention : Reuss Voigt Hill
#
# Bulk Modulus (GPa) = 47.51000 65.83486 56.67243
# Shear Modulus (GPa) = 21.08089 26.76693 23.92391
#
# Velocity S-wave (km/s) = 3.21517 3.62292 3.42511
# Velocity P-wave (km/s) = 6.08935 7.05576 6.59029
#
# Compressibility (1/GPa) = 0.02104820
#
# Stress axis : x y z
#
# Youngs Moduli (GPa) = 81.68173 38.97875 94.91442
#
# Poissons Ratio (x) = 0.15134 0.24859
# Poissons Ratio (y) = 0.31715 0.68252
# Poissons Ratio (z) = 0.21393 0.28029
#
# Static dielectric constant tensor:
#      x y z
#    x 3.631780 0.000000 0.065010 
#    y 0.000000 3.468210 0.000000 
#    z 0.065010 0.000000 4.115300 
# 
# 
# High freq. dielectric constant tensor:
#      x y z
#    x 1.772680 0.000000 0.019780 
#    y 0.000000 1.769990 0.000000 
#    z 0.019780 0.000000 1.820940 
# 
# From -- ./inp_files/333389.got.cif
#   From: 2010.06.25/outbox.cif.g09.slc.cpg/sg12_167_cif.got.tgz:333389.got - 2010.06.28 00:19:55.
