data_PCOD8084657
_publ_section_title
;
Structure prediction by ZEFSAII (Michael W. Deem and Ramdas Pophale) SiO2 
 PCOD8084657
Probable space group: C 2/M
;
_chemical_formula_sum "Si O2"
_cell_formula_units_Z 56
_cell_length_a 23.207630
_cell_length_b 13.695122
_cell_length_c 14.659440
_cell_angle_alpha 90.000000
_cell_angle_beta 130.691097
_cell_angle_gamma 90.000000
_cell_volume 3532.793722
_symmetry_space_group_name_H-M "C 2/M"
_symmetry_group_IT_number 12
_symmetry_cell_setting 'monoclinic'
loop_
_space_group_symop_operation_xyz
x,y,z
-x,y,-z
-x,-y,-z
x,-y,z
1/2+x,1/2+y,z
1/2-x,1/2+y,-z
1/2-x,1/2-y,-z
1/2+x,1/2-y,z
loop_
_atom_site_type_symbol
_atom_site_label
_atom_site_fract_x
_atom_site_fract_y
_atom_site_fract_z
Si Si1 0.948175 0.718112 0.801049
Si Si2 0.658991 0.265534 0.142454
Si Si3 0.036002 0.893281 0.938088
Si Si4 0.396050 0.113154 0.037804
Si Si5 0.307271 0.885606 0.315930
Si Si6 0.910009 0.387049 0.260187
Si Si7 0.423162 0.886640 0.597453
O O1 0.888615 0.726805 0.820937
O O2 0.904161 0.677040 0.667511
O O3 0.983620 0.825908 0.818871
O O4 0.018678 0.647831 0.901300
O O5 0.736247 0.314218 0.256440
O O6 0.618505 0.346550 0.037467
O O7 0.667973 0.170762 0.086417
O O8 0.043442 0.000000 0.899958
O O9 0.000000 0.901564 0.000000
O O10 0.379850 0.134163 0.127646
O O11 0.388466 0.000000 0.006615
O O12 0.353242 0.842183 0.276588
O O13 0.357277 0.871453 0.457334
O O14 0.283462 0.000000 0.280526
O O15 0.911928 0.500000 0.286109
O O16 0.996419 0.348189 0.360171
O O17 0.431346 0.000000 0.635263
#
# Coordination Sequence:
#
# PCOD8084657 Si02
#       7
#     8   8   8   8   8   8   8
#     4   9  17  28  44  66  89 115 149 184 214 256
#     4  10  19  27  41  67  95 120 143 171 216 274
#     4   8  14  26  42  59  83 115 147 177 208 247
#     4   9  17  30  48  68  90 116 146 183 222 259
#     4  10  19  30  45  65  91 120 146 182 227 262
#     4   8  15  29  48  68  86 108 146 189 225 261
#     4   9  17  30  48  67  87 114 150 189 223 256
#
# _framework density 15.851476999999999
#
# number of rings (size 3 to 8) (size 9 to 14) (size 15 to 20)
#    0.000    3.000    0.000    3.429    0.000    5.143 
#    0.000    0.000    0.000    0.857    0.000    0.000 
#    0.000   11.429    0.000    0.000    0.000    0.000 
#
# Total GULP energy -346963.799202 kJ/mol
# GULP energy per Si atom -12391.564257 kJ/mol
# Density = 1.581540 g / cm^3
# Si number density = 15.851477 Si / 1000 Ang^3
#
#
#
# Elastic Constant Matrix: (Units=GPa)
#
#
# Indices 1 2 3 4 5 6 
#
# 1 56.2520 34.0287 37.3252 0.0000 -7.7229 0.0000
# 2 34.0287 100.9245 51.5827 0.0000 -8.7407 0.0000
# 3 37.3252 51.5827 79.5575 0.0000 -4.9611 0.0000
# 4 0.0000 0.0000 0.0000 25.4307 0.0000 2.9046
# 5 -7.7229 -8.7407 -4.9611 0.0000 13.1534 0.0000
# 6 0.0000 0.0000 0.0000 2.9046 0.0000 17.0167
#
#
#
# Elastic Compliance Matrix: (Units=1/GPa)
#
#
# Indices 1 2 3 4 5 6 
#
# 1 0.028083 -0.003239 -0.010427 0.000000 0.010404 0.000000
# 2 -0.003239 0.015734 -0.008345 0.000000 0.005406 0.000000
# 3 -0.010427 -0.008345 0.022678 0.000000 -0.003114 0.000000
# 4 0.000000 0.000000 0.000000 0.040104 0.000000 -0.006845
# 5 0.010404 0.005406 -0.003114 0.000000 0.084553 0.000000
# 6 0.000000 0.000000 0.000000 -0.006845 0.000000 0.059934
#
#
# Mechanical properties :
#
#
# Convention : Reuss Voigt Hill
#
# Bulk Modulus (GPa) = 44.49551 53.62303 49.05927
# Shear Modulus (GPa) = 16.52359 18.70666 17.61512
#
# Velocity S-wave (km/s) = 3.23213 3.43902 3.33717
# Velocity P-wave (km/s) = 6.48537 7.04776 6.77241
#
# Compressibility (1/GPa) = 0.02247418
#
# Stress axis : x y z
#
# Youngs Moduli (GPa) = 35.60830 63.55861 44.09619
#
# Poissons Ratio (x) = 0.20584 0.45979
# Poissons Ratio (y) = 0.11532 0.36797
# Poissons Ratio (z) = 0.37129 0.53037
#
# Static dielectric constant tensor:
#      x y z
#    x 2.963230 0.000000 -0.055060 
#    y 0.000000 3.160060 0.000000 
#    z -0.055060 0.000000 2.884720 
# 
# 
# High freq. dielectric constant tensor:
#      x y z
#    x 1.594450 0.000000 -0.005090 
#    y 0.000000 1.595750 0.000000 
#    z -0.005090 0.000000 1.593400 
# 
# From -- ./inp_files/240446.got.cif
#   From: 2010.06.25/outbox.cif.g09.slc.cpg/sg12_121_cif.got.tgz:240446.got - 2010.06.28 00:19:55.
