data_PCOD8084737
_publ_section_title
;
Structure prediction by ZEFSAII (Michael W. Deem and Ramdas Pophale) SiO2 
 PCOD8084737
Probable space group: C 2/M
;
_chemical_formula_sum "Si O2"
_cell_formula_units_Z 52
_cell_length_a 9.078723
_cell_length_b 26.663409
_cell_length_c 12.115802
_cell_angle_alpha 90.000000
_cell_angle_beta 97.135167
_cell_angle_gamma 90.000000
_cell_volume 2910.156144
_symmetry_space_group_name_H-M "C 2/M"
_symmetry_group_IT_number 12
_symmetry_cell_setting 'monoclinic'
loop_
_space_group_symop_operation_xyz
x,y,z
-x,y,-z
-x,-y,-z
x,-y,z
1/2+x,1/2+y,z
1/2-x,1/2+y,-z
1/2-x,1/2-y,-z
1/2+x,1/2-y,z
loop_
_atom_site_type_symbol
_atom_site_label
_atom_site_fract_x
_atom_site_fract_y
_atom_site_fract_z
Si Si1 0.000000 0.078532 0.000000
Si Si2 0.257824 0.256392 0.749016
Si Si3 0.983018 0.500000 0.818558
Si Si4 0.503346 0.109339 0.234407
Si Si5 0.804941 0.146003 0.865428
Si Si6 0.965749 0.298543 0.624400
Si Si7 0.147171 0.323760 0.069048
Si Si8 0.249249 0.500000 0.010006
O O1 0.952022 0.111903 0.889256
O O2 0.144655 0.047964 0.977977
O O3 0.347343 0.305849 0.795664
O O4 0.319114 0.233378 0.640040
O O5 0.268178 0.215674 0.846307
O O6 0.089183 0.273445 0.714522
O O7 0.966148 0.550215 0.742341
O O8 0.849039 0.500000 0.891128
O O9 0.142844 0.500000 0.893447
O O10 0.327344 0.115031 0.202819
O O11 0.553847 0.142866 0.344485
O O12 0.591752 0.127888 0.133835
O O13 0.762306 0.160638 0.986558
O O14 0.000000 0.293625 0.500000
O O15 0.000000 0.298970 0.000000
#
# Coordination Sequence:
#
# PCOD8084737 Si02
#       8
#     4   8   4   8   8   8   8   4
#     4  11  20  30  42  76 108 138 172 195 240 286
#     4  10  21  33  52  77 101 141 171 204 260 302
#     4  11  18  36  51  70  99 138 173 206 251 306
#     4   9  19  33  52  74  97 137 176 207 254 300
#     4  10  19  28  46  74 114 137 163 199 243 302
#     4  10  21  39  55  74 100 129 177 228 262 300
#     4   9  18  31  47  74 111 143 171 199 235 307
#     4  10  22  30  50  68 105 146 169 200 242 302
#
# _framework density 17.868456999999999
#
# number of rings (size 3 to 8) (size 9 to 14) (size 15 to 20)
#    0.000    2.154    1.538    2.769    7.538    0.000 
#    0.000    0.385    0.000    0.000    0.000    0.000 
#    0.000    2.769    0.000    0.000    0.000    0.000 
#
# Total GULP energy -322277.680023 kJ/mol
# GULP energy per Si atom -12395.295386 kJ/mol
# Density = 1.782779 g / cm^3
# Si number density = 17.868457 Si / 1000 Ang^3
#
#
#
# Elastic Constant Matrix: (Units=GPa)
#
#
# Indices 1 2 3 4 5 6 
#
# 1 51.0266 25.0979 2.7420 0.0000 2.0865 0.0000
# 2 25.0979 126.8028 20.5819 0.0000 0.1457 0.0000
# 3 2.7420 20.5819 54.4339 0.0000 -10.6493 0.0000
# 4 0.0000 0.0000 0.0000 13.9000 0.0000 4.8088
# 5 2.0865 0.1457 -10.6493 0.0000 21.5080 0.0000
# 6 0.0000 0.0000 0.0000 4.8088 0.0000 21.8388
#
#
#
# Elastic Compliance Matrix: (Units=1/GPa)
#
#
# Indices 1 2 3 4 5 6 
#
# 1 0.021805 -0.004338 0.000148 0.000000 -0.002013 0.000000
# 2 -0.004338 0.009329 -0.003586 0.000000 -0.001418 0.000000
# 3 0.000148 -0.003586 0.021837 0.000000 0.010822 0.000000
# 4 0.000000 0.000000 0.000000 0.077875 0.000000 -0.017148
# 5 -0.002013 -0.001418 0.010822 0.000000 0.052058 0.000000
# 6 0.000000 0.000000 0.000000 -0.017148 0.000000 0.049566
#
#
# Mechanical properties :
#
#
# Convention : Reuss Voigt Hill
#
# Bulk Modulus (GPa) = 26.72443 36.56742 31.64593
# Shear Modulus (GPa) = 19.19432 23.70545 21.44989
#
# Velocity S-wave (km/s) = 3.28106 3.64629 3.46849
# Velocity P-wave (km/s) = 5.41687 6.18357 5.81287
#
# Compressibility (1/GPa) = 0.03741894
#
# Stress axis : x y z
#
# Youngs Moduli (GPa) = 45.86003 107.19830 45.79477
#
# Poissons Ratio (x) = 0.46499 -0.00677
# Poissons Ratio (y) = 0.19892 0.16422
# Poissons Ratio (z) = -0.00678 0.38442
#
# Static dielectric constant tensor:
#      x y z
#    x 3.294940 0.000000 0.063220 
#    y 0.000000 3.516380 0.000000 
#    z 0.063220 0.000000 2.941250 
# 
# 
# High freq. dielectric constant tensor:
#      x y z
#    x 1.691750 0.000000 0.003970 
#    y 0.000000 1.699740 0.000000 
#    z 0.003970 0.000000 1.648830 
# 
# From -- ./inp_files/123799.got.cif
#   From: 2010.06.25/outbox.cif.g09.slc.cpg/sg12_62_cif.got.tgz:123799.got - 2010.06.28 00:19:55.
