data_PCOD8084922
_publ_section_title
;
Structure prediction by ZEFSAII (Michael W. Deem and Ramdas Pophale) SiO2 
 PCOD8084922
Probable space group: C 2/M
;
_chemical_formula_sum "Si O2"
_cell_formula_units_Z 56
_cell_length_a 32.167765
_cell_length_b 9.252524
_cell_length_c 20.838742
_cell_angle_alpha 90.000000
_cell_angle_beta 147.428240
_cell_angle_gamma 90.000000
_cell_volume 3339.041004
_symmetry_space_group_name_H-M "C 2/M"
_symmetry_group_IT_number 12
_symmetry_cell_setting 'monoclinic'
loop_
_space_group_symop_operation_xyz
x,y,z
-x,y,-z
-x,-y,-z
x,-y,z
1/2+x,1/2+y,z
1/2-x,1/2+y,-z
1/2-x,1/2-y,-z
1/2+x,1/2-y,z
loop_
_atom_site_type_symbol
_atom_site_label
_atom_site_fract_x
_atom_site_fract_y
_atom_site_fract_z
Si Si1 0.842681 0.833078 0.065224
Si Si2 0.638492 0.340204 0.330653
Si Si3 0.516646 0.330793 0.270330
Si Si4 0.412489 0.165639 0.395908
Si Si5 0.303501 0.668690 0.158731
Si Si6 0.250432 0.338586 0.403138
Si Si7 0.125631 0.332965 0.505887
O O1 0.840401 0.796655 0.137655
O O2 0.926835 0.792123 0.148125
O O3 0.822686 0.000000 0.027072
O O4 0.781336 0.738350 0.946425
O O5 0.632629 0.500000 0.292501
O O6 0.555920 0.291631 0.252801
O O7 0.697745 0.342616 0.466450
O O8 0.667405 0.231533 0.312986
O O9 0.529808 0.500000 0.303572
O O10 0.554160 0.239130 0.376134
O O11 0.500000 0.218083 0.500000
O O12 0.358160 0.265539 0.283240
O O13 0.388563 0.185640 0.437877
O O14 0.403351 0.000000 0.361492
O O15 0.295210 0.500000 0.160773
O O16 0.236011 0.500000 0.357861
O O17 0.293219 0.243804 0.404977
O O18 0.130977 0.500000 0.492172
#
# Coordination Sequence:
#
# PCOD8084922 Si02
#       7
#     8   8   8   8   8   8   8
#     4   9  18  33  50  68  93 122 152 188 229 271
#     4   8  14  24  39  61  88 116 148 184 222 267
#     4   9  17  29  46  68  93 122 153 187 228 270
#     4  10  21  35  49  67  93 124 155 188 228 271
#     4  10  20  32  49  71  92 120 156 191 227 266
#     4   9  16  26  40  59  87 121 152 183 222 269
#     4  10  19  29  44  66  92 123 155 188 227 270
#
# _framework density 16.771283
#
# number of rings (size 3 to 8) (size 9 to 14) (size 15 to 20)
#    0.000    2.714    0.000    3.000    0.000    6.000 
#    0.000    0.000    0.000    0.000    0.000    1.000 
#    0.000    8.000    0.000    0.000    0.000    0.000 
#
# Total GULP energy -347180.858911 kJ/mol
# GULP energy per Si atom -12399.316390 kJ/mol
# Density = 1.673311 g / cm^3
# Si number density = 16.771283 Si / 1000 Ang^3
#
#
#
# Elastic Constant Matrix: (Units=GPa)
#
#
# Indices 1 2 3 4 5 6 
#
# 1 117.6242 62.1526 51.9077 0.0000 29.3176 0.0000
# 2 62.1526 109.4844 57.5126 0.0000 12.2341 0.0000
# 3 51.9077 57.5126 80.6120 0.0000 16.9475 0.0000
# 4 0.0000 0.0000 0.0000 15.4082 0.0000 -0.3890
# 5 29.3176 12.2341 16.9475 0.0000 23.5216 0.0000
# 6 0.0000 0.0000 0.0000 -0.3890 0.0000 26.0366
#
#
#
# Elastic Compliance Matrix: (Units=1/GPa)
#
#
# Indices 1 2 3 4 5 6 
#
# 1 0.017210 -0.006282 -0.003273 0.000000 -0.015825 0.000000
# 2 -0.006282 0.016902 -0.009206 0.000000 0.005672 0.000000
# 3 -0.003273 -0.009206 0.022647 0.000000 -0.007450 0.000000
# 4 0.000000 0.000000 0.000000 0.064925 0.000000 0.000970
# 5 -0.015825 0.005672 -0.007450 0.000000 0.064656 0.000000
# 6 0.000000 0.000000 0.000000 0.000970 0.000000 0.038422
#
#
# Mechanical properties :
#
#
# Convention : Reuss Voigt Hill
#
# Bulk Modulus (GPa) = 51.98408 72.31849 62.15128
# Shear Modulus (GPa) = 18.60838 22.06978 20.33908
#
# Velocity S-wave (km/s) = 3.33459 3.63151 3.48621
# Velocity P-wave (km/s) = 6.77415 7.79730 7.30366
#
# Compressibility (1/GPa) = 0.01923666
#
# Stress axis : x y z
#
# Youngs Moduli (GPa) = 58.10657 59.16371 44.15637
#
# Poissons Ratio (x) = 0.37168 0.14451
# Poissons Ratio (y) = 0.36504 0.40651
# Poissons Ratio (z) = 0.19017 0.54467
#
# Static dielectric constant tensor:
#      x y z
#    x 3.371550 0.000000 0.252420 
#    y 0.000000 3.325440 0.000000 
#    z 0.252420 0.000000 2.759810 
# 
# 
# High freq. dielectric constant tensor:
#      x y z
#    x 1.653730 0.000000 0.020370 
#    y 0.000000 1.656340 0.000000 
#    z 0.020370 0.000000 1.598790 
# 
# From -- ./inp_files/295181.got.cif
#   From: 2010.06.25/outbox.cif.g09.slc.cpg/sg12_148_cif.got.tgz:295181.got - 2010.06.28 00:19:55.
