data_PCOD8084358
_publ_section_title
;
Structure prediction by ZEFSAII (Michael W. Deem and Ramdas Pophale) SiO2 
 PCOD8084358
Probable space group: C 2/M
;
_chemical_formula_sum "Si O2"
_cell_formula_units_Z 36
_cell_length_a 9.750367
_cell_length_b 16.645041
_cell_length_c 11.536351
_cell_angle_alpha 90.000000
_cell_angle_beta 108.531030
_cell_angle_gamma 90.000000
_cell_volume 1775.219698
_symmetry_space_group_name_H-M "C 2/M"
_symmetry_group_IT_number 12
_symmetry_cell_setting 'monoclinic'
loop_
_space_group_symop_operation_xyz
x,y,z
-x,y,-z
-x,-y,-z
x,-y,z
1/2+x,1/2+y,z
1/2-x,1/2+y,-z
1/2-x,1/2-y,-z
1/2+x,1/2-y,z
loop_
_atom_site_type_symbol
_atom_site_label
_atom_site_fract_x
_atom_site_fract_y
_atom_site_fract_z
Si Si1 0.742360 0.089026 0.799625
Si Si2 0.069172 0.747006 0.803303
Si Si3 0.837826 0.367896 0.462200
Si Si4 0.500000 0.336803 0.000000
Si Si5 0.251681 0.293871 0.348436
O O1 0.626407 0.155650 0.807494
O O2 0.757003 0.088928 0.662483
O O3 0.897267 0.106620 0.896698
O O4 0.692032 0.000000 0.825903
O O5 0.157168 0.809786 0.744373
O O6 0.900370 0.746370 0.727703
O O7 0.091851 0.779147 0.939585
O O8 0.769891 0.373312 0.575204
O O9 0.846806 0.272290 0.442053
O O10 0.000000 0.403993 0.500000
#
# Coordination Sequence:
#
# PCOD8084358 Si02
#       5
#     8   8   8   4   8
#     4  11  24  40  62  93 128 167 200 253 322 370
#     4  11  21  40  66  92 122 161 218 259 293 367
#     4  10  18  35  59  90 121 158 201 250 306 366
#     4  12  23  44  65  90 120 170 222 252 293 370
#     4  10  19  34  59  96 121 153 206 260 302 351
#
# _framework density 20.27918
#
# number of rings (size 3 to 8) (size 9 to 14) (size 15 to 20)
#    0.000    1.333    8.889    1.000    0.000    0.444 
#    0.000    0.556    0.000    4.000    0.000    0.000 
#    0.000    0.000    0.000    0.000    0.000    0.000 
#
# Total GULP energy -223004.195778 kJ/mol
# GULP energy per Si atom -12389.121988 kJ/mol
# Density = 2.023302 g / cm^3
# Si number density = 20.279180 Si / 1000 Ang^3
#
#
#
# Elastic Constant Matrix: (Units=GPa)
#
#
# Indices 1 2 3 4 5 6 
#
# 1 109.7076 13.2038 63.8244 0.0000 -14.6800 0.0000
# 2 13.2038 79.0465 38.7559 0.0000 -12.2470 0.0000
# 3 63.8244 38.7559 143.8945 0.0000 -11.1897 0.0000
# 4 0.0000 0.0000 0.0000 7.1021 0.0000 -0.9481
# 5 -14.6800 -12.2470 -11.1897 0.0000 51.2611 0.0000
# 6 0.0000 0.0000 0.0000 -0.9481 0.0000 11.9667
#
#
#
# Elastic Compliance Matrix: (Units=1/GPa)
#
#
# Indices 1 2 3 4 5 6 
#
# 1 0.012654 0.001090 -0.005701 0.000000 0.002640 0.000000
# 2 0.001090 0.015038 -0.004303 0.000000 0.002966 0.000000
# 3 -0.005701 -0.004303 0.010610 0.000000 -0.000345 0.000000
# 4 0.000000 0.000000 0.000000 0.142308 0.000000 0.011275
# 5 0.002640 0.002966 -0.000345 0.000000 0.020897 0.000000
# 6 0.000000 0.000000 0.000000 0.011275 0.000000 0.084459
#
#
# Mechanical properties :
#
#
# Convention : Reuss Voigt Hill
#
# Bulk Modulus (GPa) = 48.84113 62.69075 55.76594
# Shear Modulus (GPa) = 16.09689 28.52360 22.31025
#
# Velocity S-wave (km/s) = 2.82044 3.75446 3.32046
# Velocity P-wave (km/s) = 5.89433 7.05518 6.50072
#
# Compressibility (1/GPa) = 0.02047455
#
# Stress axis : x y z
#
# Youngs Moduli (GPa) = 79.02765 66.49820 94.24659
#
# Poissons Ratio (x) = -0.07252 0.53730
# Poissons Ratio (y) = -0.08618 0.40557
# Poissons Ratio (z) = 0.45054 0.28616
#
# Static dielectric constant tensor:
#      x y z
#    x 3.713450 0.000000 -0.228130 
#    y 0.000000 3.284090 0.000000 
#    z -0.228130 0.000000 4.124940 
# 
# 
# High freq. dielectric constant tensor:
#      x y z
#    x 1.782640 0.000000 0.007740 
#    y 0.000000 1.736240 0.000000 
#    z 0.007740 0.000000 1.816970 
# 
# From -- ./inp_files/118748.got.cif
#   From: 2010.06.25/outbox.cif.g09.slc.cpg/sg12_60_cif.got.tgz:118748.got - 2010.06.28 00:19:55.
