data_PCOD8084240
_publ_section_title
;
Structure prediction by ZEFSAII (Michael W. Deem and Ramdas Pophale) SiO2 
 PCOD8084240
Probable space group: C 2/M
;
_chemical_formula_sum "Si O2"
_cell_formula_units_Z 64
_cell_length_a 18.002724
_cell_length_b 14.206930
_cell_length_c 17.700535
_cell_angle_alpha 90.000000
_cell_angle_beta 46.534391
_cell_angle_gamma 90.000000
_cell_volume 3285.748292
_symmetry_space_group_name_H-M "C 2/M"
_symmetry_group_IT_number 12
_symmetry_cell_setting 'monoclinic'
loop_
_space_group_symop_operation_xyz
x,y,z
-x,y,-z
-x,-y,-z
x,-y,z
1/2+x,1/2+y,z
1/2-x,1/2+y,-z
1/2-x,1/2-y,-z
1/2+x,1/2-y,z
loop_
_atom_site_type_symbol
_atom_site_label
_atom_site_fract_x
_atom_site_fract_y
_atom_site_fract_z
Si Si1 0.961462 0.606571 0.724814
Si Si2 0.717923 0.891387 0.041238
Si Si3 0.621661 0.265346 0.830811
Si Si4 0.644266 0.892178 0.701777
Si Si5 0.337632 0.605390 0.464573
Si Si6 0.246436 0.892244 0.638722
Si Si7 0.380766 0.740912 0.991823
Si Si8 0.945609 0.728020 0.462998
O O1 0.988104 0.500000 0.683169
O O2 0.847304 0.616705 0.836150
O O3 0.038557 0.638949 0.736899
O O4 0.973052 0.668535 0.642155
O O5 0.657989 0.840341 0.014763
O O6 0.734601 0.000000 0.006063
O O7 0.826604 0.843233 0.983106
O O8 0.663697 0.170571 0.761946
O O9 0.681834 0.354401 0.754770
O O10 0.501291 0.274932 0.898986
O O11 0.648923 0.259837 0.899567
O O12 0.730196 0.871877 0.579478
O O13 0.642327 0.000000 0.730087
O O14 0.374146 0.500000 0.459738
O O15 0.325667 0.616472 0.383641
O O16 0.421596 0.678546 0.432968
O O17 0.348226 0.833818 0.552379
O O18 0.277233 0.000000 0.633593
O O19 0.000000 0.763304 0.500000
#
# Coordination Sequence:
#
# PCOD8084240 Si02
#       8
#     8   8   8   8   8   8   8   8
#     4  10  20  35  59  89 118 153 193 237 294 351
#     4  10  22  42  63  84 116 158 199 243 294 351
#     4  11  22  39  60  89 119 150 192 251 301 342
#     4  10  18  34  62  90 116 150 196 242 291 347
#     4  10  21  39  62  87 118 159 201 235 279 351
#     4  11  23  39  61  88 118 156 198 238 289 351
#     4  10  24  40  61  87 116 151 202 248 295 351
#     4  12  24  36  58  91 128 156 186 241 292 350
#
# _framework density 19.478059999999999
#
# number of rings (size 3 to 8) (size 9 to 14) (size 15 to 20)
#    0.000    1.500    3.750    1.500    1.750    2.750 
#    0.000    2.500    0.000    0.000    0.000    0.000 
#    0.000    0.000    0.000    0.000    0.000    0.000 
#
# Total GULP energy -396906.973037 kJ/mol
# GULP energy per Si atom -12403.342907 kJ/mol
# Density = 1.943373 g / cm^3
# Si number density = 19.478060 Si / 1000 Ang^3
#
#
#
# Elastic Constant Matrix: (Units=GPa)
#
#
# Indices 1 2 3 4 5 6 
#
# 1 65.9335 33.8323 16.1760 0.0000 7.8373 0.0000
# 2 33.8323 105.3107 37.3437 0.0000 2.2141 0.0000
# 3 16.1760 37.3437 89.8417 0.0000 13.6254 0.0000
# 4 0.0000 0.0000 0.0000 29.7778 0.0000 -2.1782
# 5 7.8373 2.2141 13.6254 0.0000 19.3001 0.0000
# 6 0.0000 0.0000 0.0000 -2.1782 0.0000 5.5311
#
#
#
# Elastic Compliance Matrix: (Units=1/GPa)
#
#
# Indices 1 2 3 4 5 6 
#
# 1 0.019076 -0.006035 0.000161 0.000000 -0.007168 0.000000
# 2 -0.006035 0.013133 -0.005057 0.000000 0.004514 0.000000
# 3 0.000161 -0.005057 0.014699 0.000000 -0.009863 0.000000
# 4 0.000000 0.000000 0.000000 0.034578 0.000000 0.013617
# 5 -0.007168 0.004514 -0.009863 0.000000 0.061169 0.000000
# 6 0.000000 0.000000 0.000000 0.013617 0.000000 0.186157
#
#
# Mechanical properties :
#
#
# Convention : Reuss Voigt Hill
#
# Bulk Modulus (GPa) = 39.92550 48.42110 44.17330
# Shear Modulus (GPa) = 13.92672 22.50406 18.21539
#
# Velocity S-wave (km/s) = 2.67684 3.40274 3.06138
# Velocity P-wave (km/s) = 5.48600 6.35228 5.93496
#
# Compressibility (1/GPa) = 0.02504665
#
# Stress axis : x y z
#
# Youngs Moduli (GPa) = 52.42218 76.14590 68.02986
#
# Poissons Ratio (x) = 0.45952 -0.01094
# Poissons Ratio (y) = 0.31635 0.34401
# Poissons Ratio (z) = -0.00843 0.38505
#
# Static dielectric constant tensor:
#      x y z
#    x 3.429320 0.000000 0.039350 
#    y 0.000000 3.671660 0.000000 
#    z 0.039350 0.000000 3.564090 
# 
# 
# High freq. dielectric constant tensor:
#      x y z
#    x 1.747570 0.000000 0.002240 
#    y 0.000000 1.764300 0.000000 
#    z 0.002240 0.000000 1.759670 
# 
# From -- ./inp_files/225699.got.cif
#   From: 2010.06.25/outbox.cif.g09.slc.cpg/sg12_113_cif.got.tgz:225699.got - 2010.06.28 00:19:55.
