data_PCOD8084749
_publ_section_title
;
Structure prediction by ZEFSAII (Michael W. Deem and Ramdas Pophale) SiO2 
 PCOD8084749
Probable space group: C 2/M
;
_chemical_formula_sum "Si O2"
_cell_formula_units_Z 44
_cell_length_a 14.628344
_cell_length_b 30.232181
_cell_length_c 10.444992
_cell_angle_alpha 90.000000
_cell_angle_beta 34.226482
_cell_angle_gamma 90.000000
_cell_volume 2598.176895
_symmetry_space_group_name_H-M "C 2/M"
_symmetry_group_IT_number 12
_symmetry_cell_setting 'monoclinic'
loop_
_space_group_symop_operation_xyz
x,y,z
-x,y,-z
-x,-y,-z
x,-y,z
1/2+x,1/2+y,z
1/2-x,1/2+y,-z
1/2-x,1/2-y,-z
1/2+x,1/2-y,z
loop_
_atom_site_type_symbol
_atom_site_label
_atom_site_fract_x
_atom_site_fract_y
_atom_site_fract_z
Si Si1 0.679241 0.612154 0.323244
Si Si2 0.457003 0.875623 0.813549
Si Si3 0.500000 0.828490 0.500000
Si Si4 0.872274 0.549071 0.261567
Si Si5 0.801486 0.311873 0.339948
Si Si6 0.678290 0.713309 0.753427
O O1 0.500000 0.599641 0.500000
O O2 0.720112 0.573694 0.376643
O O3 0.688339 0.660011 0.377913
O O4 0.780736 0.612819 0.073577
O O5 0.449680 0.859275 0.676856
O O6 0.562617 0.920804 0.696537
O O7 0.531585 0.838129 0.822175
O O8 0.663784 0.800109 0.342341
O O9 0.827625 0.500000 0.364515
O O10 0.000000 0.546075 0.000000
O O11 0.702383 0.304922 0.584291
O O12 0.837161 0.266124 0.227596
O O13 0.500000 0.694206 0.000000
#
# Coordination Sequence:
#
# PCOD8084749 Si02
#       6
#     8   8   4   8   8   8
#     4  10  19  28  50  76 100 127 159 207 253 292
#     4   9  18  35  50  70 102 128 164 207 243 305
#     4  10  22  34  51  76  98 136 175 204 248 298
#     4   8  15  31  53  72  95 129 160 198 250 296
#     4   9  19  35  47  69  98 132 173 204 250 289
#     4  10  20  34  51  69 100 137 171 214 244 290
#
# _framework density 16.934951999999999
#
# number of rings (size 3 to 8) (size 9 to 14) (size 15 to 20)
#    0.000    2.727    0.000    2.727    3.818    0.364 
#    0.000    4.091    0.000    0.000    0.000    1.273 
#    0.000    0.000    0.000    0.000    0.000    0.000 
#
# Total GULP energy -272616.916653 kJ/mol
# GULP energy per Si atom -12391.678030 kJ/mol
# Density = 1.689641 g / cm^3
# Si number density = 16.934952 Si / 1000 Ang^3
#
#
#
# Elastic Constant Matrix: (Units=GPa)
#
#
# Indices 1 2 3 4 5 6 
#
# 1 96.7075 48.9023 47.6637 0.0000 -6.2803 0.0000
# 2 48.9023 110.1927 41.2354 0.0000 -0.7072 0.0000
# 3 47.6637 41.2354 98.6208 0.0000 -25.0541 0.0000
# 4 0.0000 0.0000 0.0000 13.9378 0.0000 1.4538
# 5 -6.2803 -0.7072 -25.0541 0.0000 25.4971 0.0000
# 6 0.0000 0.0000 0.0000 1.4538 0.0000 20.8838
#
#
#
# Elastic Compliance Matrix: (Units=1/GPa)
#
#
# Indices 1 2 3 4 5 6 
#
# 1 0.015573 -0.004603 -0.006210 0.000000 -0.002394 0.000000
# 2 -0.004603 0.012729 -0.004392 0.000000 -0.005097 0.000000
# 3 -0.006210 -0.004392 0.019402 0.000000 0.017413 0.000000
# 4 0.000000 0.000000 0.000000 0.072272 0.000000 -0.005031
# 5 -0.002394 -0.005097 0.017413 0.000000 0.055599 0.000000
# 6 0.000000 0.000000 0.000000 -0.005031 0.000000 0.048234
#
#
# Mechanical properties :
#
#
# Convention : Reuss Voigt Hill
#
# Bulk Modulus (GPa) = 57.82841 64.56933 61.19887
# Shear Modulus (GPa) = 19.23194 23.24505 21.23849
#
# Velocity S-wave (km/s) = 3.37358 3.70889 3.54520
# Velocity P-wave (km/s) = 7.02824 7.52009 7.27832
#
# Compressibility (1/GPa) = 0.01729254
#
# Stress axis : x y z
#
# Youngs Moduli (GPa) = 64.21252 78.56327 51.54217
#
# Poissons Ratio (x) = 0.36160 0.32010
# Poissons Ratio (y) = 0.29555 0.22640
# Poissons Ratio (z) = 0.39879 0.34508
#
# Static dielectric constant tensor:
#      x y z
#    x 3.069380 0.000000 -0.041770 
#    y 0.000000 3.517080 0.000000 
#    z -0.041770 0.000000 3.062810 
# 
# 
# High freq. dielectric constant tensor:
#      x y z
#    x 1.642350 0.000000 -0.004570 
#    y 0.000000 1.651700 0.000000 
#    z -0.004570 0.000000 1.644630 
# 
# From -- ./inp_files/68403.got.cif
#   From: 2010.06.25/outbox.cif.g09.slc.cpg/sg12_35_cif.got.tgz:68403.got - 2010.06.28 00:19:55.
