data_PCOD8084945
_publ_section_title
;
Structure prediction by ZEFSAII (Michael W. Deem and Ramdas Pophale) SiO2 
 PCOD8084945
Probable space group: C 2/M
;
_chemical_formula_sum "Si O2"
_cell_formula_units_Z 48
_cell_length_a 30.512025
_cell_length_b 9.197202
_cell_length_c 10.345247
_cell_angle_alpha 90.000000
_cell_angle_beta 102.268005
_cell_angle_gamma 90.000000
_cell_volume 2836.842661
_symmetry_space_group_name_H-M "C 2/M"
_symmetry_group_IT_number 12
_symmetry_cell_setting 'monoclinic'
loop_
_space_group_symop_operation_xyz
x,y,z
-x,y,-z
-x,-y,-z
x,-y,z
1/2+x,1/2+y,z
1/2-x,1/2+y,-z
1/2-x,1/2-y,-z
1/2+x,1/2-y,z
loop_
_atom_site_type_symbol
_atom_site_label
_atom_site_fract_x
_atom_site_fract_y
_atom_site_fract_z
Si Si1 0.605796 0.835673 0.287419
Si Si2 0.296679 0.165555 0.638995
Si Si3 0.031866 0.829140 0.637493
Si Si4 0.477700 0.328597 0.854953
Si Si5 0.883799 0.669719 0.404361
Si Si6 0.298758 0.666300 0.381293
O O1 0.655733 0.815470 0.256889
O O2 0.572173 0.733589 0.189075
O O3 0.607542 0.793373 0.440058
O O4 0.588631 0.000000 0.261476
O O5 0.295286 0.287434 0.528251
O O6 0.252781 0.184735 0.704590
O O7 0.296160 0.000000 0.579218
O O8 0.078474 0.744540 0.658792
O O9 0.000000 0.781950 0.500000
O O10 0.008236 0.778832 0.754458
O O11 0.041792 0.000000 0.640652
O O12 0.472597 0.500000 0.855496
O O13 0.500000 0.268921 0.000000
O O14 0.883822 0.500000 0.375396
O O15 0.835328 0.734545 0.330871
O O16 0.314879 0.500000 0.381538
#
# Coordination Sequence:
#
# PCOD8084945 Si02
#       6
#     8   8   8   8   8   8
#     4   9  17  29  45  66  93 124 157 191 229 276
#     4   8  15  26  39  61  92 124 155 190 232 277
#     4  10  19  32  50  70  91 121 161 194 229 283
#     4  10  21  35  49  68  95 123 155 197 237 274
#     4  10  19  29  44  68  97 124 155 194 236 276
#     4   9  15  24  40  62  92 125 155 188 231 279
#
# _framework density 16.920218999999999
#
# number of rings (size 3 to 8) (size 9 to 14) (size 15 to 20)
#    0.000    2.667    1.667    2.000    0.000    4.667 
#    0.000    0.000    0.000    0.000    0.000    1.167 
#    0.000    0.000    0.000    0.000    0.000    0.000 
#
# Total GULP energy -297422.930695 kJ/mol
# GULP energy per Si atom -12392.622112 kJ/mol
# Density = 1.688171 g / cm^3
# Si number density = 16.920219 Si / 1000 Ang^3
#
#
#
# Elastic Constant Matrix: (Units=GPa)
#
#
# Indices 1 2 3 4 5 6 
#
# 1 162.4067 54.3747 48.3475 0.0000 19.8882 0.0000
# 2 54.3747 54.8996 22.5910 0.0000 6.3381 0.0000
# 3 48.3475 22.5910 65.9471 0.0000 2.8906 0.0000
# 4 0.0000 0.0000 0.0000 12.2017 0.0000 6.1043
# 5 19.8882 6.3381 2.8906 0.0000 16.6733 0.0000
# 6 0.0000 0.0000 0.0000 6.1043 0.0000 31.4710
#
#
#
# Elastic Compliance Matrix: (Units=1/GPa)
#
#
# Indices 1 2 3 4 5 6 
#
# 1 0.011731 -0.008281 -0.005329 0.000000 -0.009922 0.000000
# 2 -0.008281 0.027856 -0.003467 0.000000 -0.000111 0.000000
# 3 -0.005329 -0.003467 0.020074 0.000000 0.004194 0.000000
# 4 0.000000 0.000000 0.000000 0.090763 0.000000 -0.017605
# 5 -0.009922 -0.000111 0.004194 0.000000 0.071126 0.000000
# 6 0.000000 0.000000 0.000000 -0.017605 0.000000 0.035190
#
#
# Mechanical properties :
#
#
# Convention : Reuss Voigt Hill
#
# Bulk Modulus (GPa) = 39.20254 59.31997 49.26125
# Shear Modulus (GPa) = 16.70029 22.59854 19.64942
#
# Velocity S-wave (km/s) = 3.14507 3.65854 3.41148
# Velocity P-wave (km/s) = 6.03390 7.27883 6.68540
#
# Compressibility (1/GPa) = 0.02550855
#
# Stress axis : x y z
#
# Youngs Moduli (GPa) = 85.24291 35.89898 49.81542
#
# Poissons Ratio (x) = 0.29727 0.26546
# Poissons Ratio (y) = 0.70588 0.17270
# Poissons Ratio (z) = 0.45425 0.12445
#
# Static dielectric constant tensor:
#      x y z
#    x 3.584100 0.000000 0.187350 
#    y 0.000000 3.159080 0.000000 
#    z 0.187350 0.000000 2.723210 
# 
# 
# High freq. dielectric constant tensor:
#      x y z
#    x 1.676190 0.000000 0.019830 
#    y 0.000000 1.658640 0.000000 
#    z 0.019830 0.000000 1.577420 
# 
# From -- ./inp_files/185501.got.cif
#   From: 2010.06.25/outbox.cif.g09.slc.cpg/sg12_93_cif.got.tgz:185501.got - 2010.06.28 00:19:55.
