data_PCOD8084454
_publ_section_title
;
Structure prediction by ZEFSAII (Michael W. Deem and Ramdas Pophale) SiO2 
 PCOD8084454
Probable space group: C 2/M
;
_chemical_formula_sum "Si O2"
_cell_formula_units_Z 56
_cell_length_a 16.431805
_cell_length_b 14.685296
_cell_length_c 12.607400
_cell_angle_alpha 90.000000
_cell_angle_beta 106.595759
_cell_angle_gamma 90.000000
_cell_volume 2915.511842
_symmetry_space_group_name_H-M "C 2/M"
_symmetry_group_IT_number 12
_symmetry_cell_setting 'monoclinic'
loop_
_space_group_symop_operation_xyz
x,y,z
-x,y,-z
-x,-y,-z
x,-y,z
1/2+x,1/2+y,z
1/2-x,1/2+y,-z
1/2-x,1/2-y,-z
1/2+x,1/2-y,z
loop_
_atom_site_type_symbol
_atom_site_label
_atom_site_fract_x
_atom_site_fract_y
_atom_site_fract_z
Si Si1 0.584598 0.163875 0.984427
Si Si2 0.345032 0.321301 0.861846
Si Si3 0.443563 0.400207 0.718377
Si Si4 0.717260 0.393813 0.483413
Si Si5 0.900659 0.770486 0.210720
Si Si6 0.770144 0.102319 0.038859
Si Si7 0.215200 0.256404 0.650636
O O1 0.589846 0.259035 0.049310
O O2 0.670654 0.106515 0.033127
O O3 0.500000 0.113287 0.000000
O O4 0.573979 0.186608 0.855850
O O5 0.399043 0.395370 0.817192
O O6 0.295269 0.259554 0.758910
O O7 0.280159 0.370382 0.918865
O O8 0.484290 0.500000 0.723851
O O9 0.376503 0.384718 0.599583
O O10 0.516655 0.327692 0.733152
O O11 0.744183 0.500000 0.505842
O O12 0.783462 0.340376 0.431922
O O13 0.717406 0.342953 0.596401
O O14 0.824619 0.829849 0.131134
O O15 0.870065 0.732000 0.312241
O O16 0.802832 0.000000 0.069178
#
# Coordination Sequence:
#
# PCOD8084454 Si02
#       7
#     8   8   8   8   8   8   8
#     4  11  20  36  55  78 112 148 186 225 267 336
#     4  10  18  36  55  78 111 147 187 223 282 339
#     4  10  20  33  54  85 114 143 181 233 290 341
#     4   9  21  38  59  87 112 141 192 245 289 341
#     4  11  20  35  55  83 115 152 184 218 284 349
#     4  11  22  34  53  82 113 147 192 235 270 331
#     4  10  19  37  60  80 113 153 187 233 289 338
#
# _framework density 19.207605000000001
#
# number of rings (size 3 to 8) (size 9 to 14) (size 15 to 20)
#    0.000    1.714    4.286    1.714    0.000    2.571 
#    0.000    3.571    0.000    0.000    0.000   13.000 
#    0.000    0.000    0.000    0.000    0.000    0.000 
#
# Total GULP energy -347131.071689 kJ/mol
# GULP energy per Si atom -12397.538275 kJ/mol
# Density = 1.916389 g / cm^3
# Si number density = 19.207605 Si / 1000 Ang^3
#
#
#
# Elastic Constant Matrix: (Units=GPa)
#
#
# Indices 1 2 3 4 5 6 
#
# 1 117.7393 20.2425 31.8063 0.0000 -12.7335 0.0000
# 2 20.2425 79.8503 26.2550 0.0000 -6.9895 0.0000
# 3 31.8063 26.2550 63.8815 0.0000 -18.5648 0.0000
# 4 0.0000 0.0000 0.0000 18.6319 0.0000 1.3292
# 5 -12.7335 -6.9895 -18.5648 0.0000 29.2087 0.0000
# 6 0.0000 0.0000 0.0000 1.3292 0.0000 21.1675
#
#
#
# Elastic Compliance Matrix: (Units=1/GPa)
#
#
# Indices 1 2 3 4 5 6 
#
# 1 0.009938 -0.001046 -0.004087 0.000000 0.001485 0.000000
# 2 -0.001046 0.014594 -0.005636 0.000000 -0.000546 0.000000
# 3 -0.004087 -0.005636 0.023422 0.000000 0.011756 0.000000
# 4 0.000000 0.000000 0.000000 0.053913 0.000000 -0.003385
# 5 0.001485 -0.000546 0.011756 0.000000 0.042225 0.000000
# 6 0.000000 0.000000 0.000000 -0.003385 0.000000 0.047455
#
#
# Mechanical properties :
#
#
# Convention : Reuss Voigt Hill
#
# Bulk Modulus (GPa) = 37.85513 46.45318 42.15415
# Shear Modulus (GPa) = 22.53385 26.01277 24.27331
#
# Velocity S-wave (km/s) = 3.42888 3.68407 3.55876
# Velocity P-wave (km/s) = 5.95210 6.50644 6.23543
#
# Compressibility (1/GPa) = 0.02641650
#
# Stress axis : x y z
#
# Youngs Moduli (GPa) = 100.62727 68.52193 42.69543
#
# Poissons Ratio (x) = 0.07164 0.17449
# Poissons Ratio (y) = 0.10521 0.24063
# Poissons Ratio (z) = 0.41124 0.38619
#
# Static dielectric constant tensor:
#      x y z
#    x 3.673750 0.000000 -0.228940 
#    y 0.000000 3.370500 0.000000 
#    z -0.228940 0.000000 3.525090 
# 
# 
# High freq. dielectric constant tensor:
#      x y z
#    x 1.749610 0.000000 -0.012660 
#    y 0.000000 1.727020 0.000000 
#    z -0.012660 0.000000 1.741440 
# 
# From -- ./inp_files/143764.got.cif
#   From: 2010.06.25/outbox.cif.g09.slc.cpg/sg12_72_cif.got.tgz:143764.got - 2010.06.28 00:19:55.
