data_PCOD8084837
_publ_section_title
;
Structure prediction by ZEFSAII (Michael W. Deem and Ramdas Pophale) SiO2 
 PCOD8084837
Probable space group: C 2/M
;
_chemical_formula_sum "Si O2"
_cell_formula_units_Z 64
_cell_length_a 31.251174
_cell_length_b 14.134819
_cell_length_c 9.332876
_cell_angle_alpha 90.000000
_cell_angle_beta 90.418255
_cell_angle_gamma 90.000000
_cell_volume 4122.498560
_symmetry_space_group_name_H-M "C 2/M"
_symmetry_group_IT_number 12
_symmetry_cell_setting 'monoclinic'
loop_
_space_group_symop_operation_xyz
x,y,z
-x,y,-z
-x,-y,-z
x,-y,z
1/2+x,1/2+y,z
1/2-x,1/2+y,-z
1/2-x,1/2-y,-z
1/2+x,1/2-y,z
loop_
_atom_site_type_symbol
_atom_site_label
_atom_site_fract_x
_atom_site_fract_y
_atom_site_fract_z
Si Si1 0.182099 0.196560 0.239849
Si Si2 0.009310 0.111677 0.341782
Si Si3 0.720376 0.338932 0.524116
Si Si4 0.718785 0.604907 0.980548
Si Si5 0.091033 0.888307 0.167024
Si Si6 0.214570 0.397051 0.260530
Si Si7 0.654344 0.607574 0.733278
Si Si8 0.066521 0.887808 0.852608
O O1 0.200939 0.132072 0.369958
O O2 0.134046 0.167324 0.204655
O O3 0.182294 0.308943 0.281770
O O4 0.214443 0.179637 0.108763
O O5 0.057133 0.136282 0.291285
O O6 0.000000 0.154495 0.500000
O O7 0.975963 0.153890 0.223865
O O8 0.002392 0.000000 0.347290
O O9 0.750000 0.250000 0.500000
O O10 0.751542 0.411780 0.607579
O O11 0.679005 0.322116 0.625413
O O12 0.722950 0.500000 0.046908
O O13 0.759684 0.626938 0.883876
O O14 0.675088 0.610667 0.890231
O O15 0.100906 0.000000 0.160906
O O16 0.072000 0.850480 0.015375
O O17 0.191043 0.500000 0.246878
O O18 0.656037 0.500000 0.671523
O O19 0.605942 0.643305 0.752052
O O20 0.064167 0.000000 0.862257
#
# Coordination Sequence:
#
# PCOD8084837 Si02
#       8
#     8   8   8   8   8   8   8   8
#     4  11  19  28  45  69  88 110 154 196 218 255
#     4   9  18  29  41  60  89 123 148 170 208 260
#     4   9  19  30  41  60  84 112 145 188 225 261
#     4   9  16  28  44  64  88 114 146 180 219 261
#     4  10  19  29  42  65  92 116 146 182 217 256
#     4   9  19  34  46  58  86 124 152 182 227 271
#     4   9  16  27  43  61  84 118 150 172 212 265
#     4   9  16  28  43  59  85 122 151 171 206 259
#
# _framework density 15.524564
#
# number of rings (size 3 to 8) (size 9 to 14) (size 15 to 20)
#    0.000    2.625    1.250    2.250    1.750    3.500 
#    0.000    0.000    0.000    0.000    0.000    0.000 
#    0.000    2.500    0.000    0.000    0.000    0.125 
#
# Total GULP energy -396424.280289 kJ/mol
# GULP energy per Si atom -12388.258759 kJ/mol
# Density = 1.548923 g / cm^3
# Si number density = 15.524564 Si / 1000 Ang^3
#
#
#
# Elastic Constant Matrix: (Units=GPa)
#
#
# Indices 1 2 3 4 5 6 
#
# 1 76.8358 26.2714 43.9732 0.0000 1.7643 0.0000
# 2 26.2714 50.6088 27.1575 0.0000 -1.3180 0.0000
# 3 43.9732 27.1575 108.2419 0.0000 2.0153 0.0000
# 4 0.0000 0.0000 0.0000 14.7273 0.0000 -1.5501
# 5 1.7643 -1.3180 2.0153 0.0000 24.3713 0.0000
# 6 0.0000 0.0000 0.0000 -1.5501 0.0000 16.1819
#
#
#
# Elastic Compliance Matrix: (Units=1/GPa)
#
#
# Indices 1 2 3 4 5 6 
#
# 1 0.018668 -0.006546 -0.005919 0.000000 -0.001216 0.000000
# 2 -0.006546 0.025201 -0.003703 0.000000 0.002143 0.000000
# 3 -0.005919 -0.003703 0.012587 0.000000 -0.000813 0.000000
# 4 0.000000 0.000000 0.000000 0.068593 0.000000 0.006571
# 5 -0.001216 0.002143 -0.000813 0.000000 0.041303 0.000000
# 6 0.000000 0.000000 0.000000 0.006571 0.000000 0.062427
#
#
# Mechanical properties :
#
#
# Convention : Reuss Voigt Hill
#
# Bulk Modulus (GPa) = 41.46031 47.83230 44.64631
# Shear Modulus (GPa) = 18.57659 20.27506 19.42582
#
# Velocity S-wave (km/s) = 3.46293 3.61778 3.54120
# Velocity P-wave (km/s) = 6.53861 6.95189 6.74841
#
# Compressibility (1/GPa) = 0.02411945
#
# Stress axis : x y z
#
# Youngs Moduli (GPa) = 53.56639 39.68144 79.44469
#
# Poissons Ratio (x) = 0.25977 0.47023
# Poissons Ratio (y) = 0.35067 0.29420
# Poissons Ratio (z) = 0.31706 0.14695
#
# Static dielectric constant tensor:
#      x y z
#    x 2.943280 0.000000 0.079110 
#    y 0.000000 2.591500 0.000000 
#    z 0.079110 0.000000 3.326330 
# 
# 
# High freq. dielectric constant tensor:
#      x y z
#    x 1.586650 0.000000 -0.001790 
#    y 0.000000 1.534530 0.000000 
#    z -0.001790 0.000000 1.610990 
# 
# From -- ./inp_files/111232.got.cif
#   From: 2010.06.25/outbox.cif.g09.slc.cpg/sg12_56_cif.got.tgz:111232.got - 2010.06.28 00:19:55.
