data_PCOD8084149
_publ_section_title
;
Structure prediction by ZEFSAII (Michael W. Deem and Ramdas Pophale) SiO2 
 PCOD8084149
Probable space group: C 2/M
;
_chemical_formula_sum "Si O2"
_cell_formula_units_Z 64
_cell_length_a 20.042789
_cell_length_b 9.218600
_cell_length_c 25.331128
_cell_angle_alpha 90.000000
_cell_angle_beta 129.429900
_cell_angle_gamma 90.000000
_cell_volume 3615.107158
_symmetry_space_group_name_H-M "C 2/M"
_symmetry_group_IT_number 12
_symmetry_cell_setting 'monoclinic'
loop_
_space_group_symop_operation_xyz
x,y,z
-x,y,-z
-x,-y,-z
x,-y,z
1/2+x,1/2+y,z
1/2-x,1/2+y,-z
1/2-x,1/2-y,-z
1/2+x,1/2-y,z
loop_
_atom_site_type_symbol
_atom_site_label
_atom_site_fract_x
_atom_site_fract_y
_atom_site_fract_z
Si Si1 0.798424 0.672025 0.681999
Si Si2 0.425935 0.333451 0.919868
Si Si3 0.040664 0.669642 0.169584
Si Si4 0.400018 0.166790 0.183198
Si Si5 0.186392 0.328291 0.428603
Si Si6 0.753375 0.330807 0.850259
Si Si7 0.509293 0.167963 0.663472
Si Si8 0.159790 0.167486 0.693897
O O1 0.806384 0.500000 0.684555
O O2 0.882354 0.730648 0.754941
O O3 0.794859 0.731893 0.620776
O O4 0.711866 0.722376 0.668775
O O5 0.401285 0.500000 0.895629
O O6 0.461443 0.259288 0.884977
O O7 0.343565 0.250528 0.902032
O O8 0.500000 0.322039 0.000000
O O9 0.055186 0.500000 0.163737
O O10 0.949970 0.695000 0.153748
O O11 0.315072 0.266909 0.142122
O O12 0.464258 0.207467 0.263437
O O13 0.370748 0.000000 0.173223
O O14 0.200564 0.500000 0.438800
O O15 0.250000 0.250000 0.500000
O O16 0.089101 0.284857 0.395314
O O17 0.766390 0.500000 0.868554
O O18 0.719648 0.301408 0.774396
O O19 0.569277 0.249574 0.651504
O O20 0.521893 0.000000 0.658880
O O21 0.136675 0.000000 0.677794
#
# Coordination Sequence:
#
# PCOD8084149 Si02
#       8
#     8   8   8   8   8   8   8   8
#     4   9  16  32  55  78 104 135 175 220 262 308
#     4  11  24  39  54  77 112 147 178 219 270 321
#     4  10  18  34  59  83 106 138 182 224 267 319
#     4   9  17  31  55  83 109 137 173 220 273 321
#     4  10  20  35  54  75 105 143 177 214 261 314
#     4  10  19  33  55  81 109 140 178 221 265 318
#     4   9  17  31  51  75 105 139 171 209 263 317
#     4   9  17  30  52  79 104 130 169 221 263 306
#
# _framework density 17.703486000000002
#
# number of rings (size 3 to 8) (size 9 to 14) (size 15 to 20)
#    0.000    2.375    2.500    0.750    0.000    2.500 
#    0.000    2.500    0.000    3.750    0.000    0.000 
#    0.000    0.000    0.000    0.000    0.000    0.000 
#
# Total GULP energy -396821.908194 kJ/mol
# GULP energy per Si atom -12400.684631 kJ/mol
# Density = 1.766319 g / cm^3
# Si number density = 17.703486 Si / 1000 Ang^3
#
#
#
# Elastic Constant Matrix: (Units=GPa)
#
#
# Indices 1 2 3 4 5 6 
#
# 1 148.0768 65.9298 61.0023 0.0000 7.7668 0.0000
# 2 65.9298 78.0730 46.3992 0.0000 8.3348 0.0000
# 3 61.0023 46.3992 82.3517 0.0000 0.3613 0.0000
# 4 0.0000 0.0000 0.0000 26.6632 0.0000 2.4827
# 5 7.7668 8.3348 0.3613 0.0000 27.2344 0.0000
# 6 0.0000 0.0000 0.0000 2.4827 0.0000 33.3540
#
#
#
# Elastic Compliance Matrix: (Units=1/GPa)
#
#
# Indices 1 2 3 4 5 6 
#
# 1 0.011982 -0.007097 -0.004872 0.000000 -0.001181 0.000000
# 2 -0.007097 0.024405 -0.008470 0.000000 -0.005332 0.000000
# 3 -0.004872 -0.008470 0.020508 0.000000 0.003709 0.000000
# 4 0.000000 0.000000 0.000000 0.037767 0.000000 -0.002811
# 5 -0.001181 -0.005332 0.003709 0.000000 0.038638 0.000000
# 6 0.000000 0.000000 0.000000 -0.002811 0.000000 0.030191
#
#
# Mechanical properties :
#
#
# Convention : Reuss Voigt Hill
#
# Bulk Modulus (GPa) = 62.43317 72.79601 67.61459
# Shear Modulus (GPa) = 23.84292 26.46164 25.15228
#
# Velocity S-wave (km/s) = 3.67385 3.87035 3.77338
# Velocity P-wave (km/s) = 7.30334 7.82187 7.56705
#
# Compressibility (1/GPa) = 0.01601713
#
# Stress axis : x y z
#
# Youngs Moduli (GPa) = 83.45756 40.97600 48.76205
#
# Poissons Ratio (x) = 0.29081 0.23757
# Poissons Ratio (y) = 0.59230 0.41300
# Poissons Ratio (z) = 0.40660 0.34705
#
# Static dielectric constant tensor:
#      x y z
#    x 3.508130 0.000000 -0.006070 
#    y 0.000000 3.181230 0.000000 
#    z -0.006070 0.000000 3.048040 
# 
# 
# High freq. dielectric constant tensor:
#      x y z
#    x 1.701350 0.000000 0.004390 
#    y 0.000000 1.671110 0.000000 
#    z 0.004390 0.000000 1.657540 
# 
# From -- ./inp_files/281396.got.cif
#   From: 2010.06.25/outbox.cif.g09.slc.cpg/sg12_141_cif.got.tgz:281396.got - 2010.06.28 00:19:55.
