data_PCOD8084983
_publ_section_title
;
Structure prediction by ZEFSAII (Michael W. Deem and Ramdas Pophale) SiO2 
 PCOD8084983
Probable space group: C 2/M
;
_chemical_formula_sum "Si O2"
_cell_formula_units_Z 48
_cell_length_a 29.073944
_cell_length_b 9.206449
_cell_length_c 11.617458
_cell_angle_alpha 90.000000
_cell_angle_beta 125.174672
_cell_angle_gamma 90.000000
_cell_volume 2541.801616
_symmetry_space_group_name_H-M "C 2/M"
_symmetry_group_IT_number 12
_symmetry_cell_setting 'monoclinic'
loop_
_space_group_symop_operation_xyz
x,y,z
-x,y,-z
-x,-y,-z
x,-y,z
1/2+x,1/2+y,z
1/2-x,1/2+y,-z
1/2-x,1/2-y,-z
1/2+x,1/2-y,z
loop_
_atom_site_type_symbol
_atom_site_label
_atom_site_fract_x
_atom_site_fract_y
_atom_site_fract_z
Si Si1 0.164844 0.328674 0.091569
Si Si2 0.063660 0.671444 0.101878
Si Si3 0.729054 0.171980 0.702813
Si Si4 0.164278 0.671923 0.833484
Si Si5 0.119922 0.672377 0.413332
Si Si6 0.558914 0.826819 0.548278
O O1 0.174881 0.500000 0.114102
O O2 0.101840 0.290362 0.045544
O O3 0.212062 0.251754 0.239157
O O4 0.173370 0.265893 0.974718
O O5 0.057871 0.500000 0.109935
O O6 0.097767 0.737097 0.260607
O O7 0.000000 0.737024 0.000000
O O8 0.710801 0.219219 0.806676
O O9 0.682407 0.225484 0.542213
O O10 0.737263 0.000000 0.707101
O O11 0.162226 0.500000 0.837817
O O12 0.104418 0.731797 0.704324
O O13 0.122405 0.500000 0.411398
O O14 0.074873 0.724450 0.443262
O O15 0.500000 0.756583 0.500000
O O16 0.556655 0.000000 0.548749
#
# Coordination Sequence:
#
# PCOD8084983 Si02
#       6
#     8   8   8   8   8   8
#     4  10  19  29  45  69  94 118 148 184 222 266
#     4   9  18  29  42  63  93 122 144 179 231 272
#     4   9  17  31  48  65  90 121 151 183 221 262
#     4   8  15  26  40  64  93 116 143 183 224 262
#     4   8  15  27  41  60  87 118 150 182 217 263
#     4   8  13  20  36  59  85 117 147 177 217 263
#
# _framework density 18.884243000000001
#
# number of rings (size 3 to 8) (size 9 to 14) (size 15 to 20)
#    0.000    3.333    0.000    2.500    2.333    0.667 
#    0.000    0.000    0.000    0.500    0.000    0.000 
#    0.000    4.000    0.000    0.000    0.000    0.000 
#
# Total GULP energy -297325.783164 kJ/mol
# GULP energy per Si atom -12388.574299 kJ/mol
# Density = 1.884126 g / cm^3
# Si number density = 18.884243 Si / 1000 Ang^3
#
#
#
# Elastic Constant Matrix: (Units=GPa)
#
#
# Indices 1 2 3 4 5 6 
#
# 1 89.8094 18.0322 59.2247 0.0000 23.1362 0.0000
# 2 18.0322 11.5062 15.8577 0.0000 5.5705 0.0000
# 3 59.2247 15.8577 125.2746 0.0000 4.7897 0.0000
# 4 0.0000 0.0000 0.0000 13.9785 0.0000 5.9335
# 5 23.1362 5.5705 4.7897 0.0000 35.0304 0.0000
# 6 0.0000 0.0000 0.0000 5.9335 0.0000 10.8741
#
#
#
# Elastic Compliance Matrix: (Units=1/GPa)
#
#
# Indices 1 2 3 4 5 6 
#
# 1 0.023362 -0.020094 -0.008075 0.000000 -0.011130 0.000000
# 2 -0.020094 0.131028 -0.006833 0.000000 -0.006630 0.000000
# 3 -0.008075 -0.006833 0.012485 0.000000 0.004713 0.000000
# 4 0.000000 0.000000 0.000000 0.093102 0.000000 -0.050802
# 5 -0.011130 -0.006630 0.004713 0.000000 0.036308 0.000000
# 6 0.000000 0.000000 0.000000 -0.050802 0.000000 0.119682
#
#
# Mechanical properties :
#
#
# Convention : Reuss Voigt Hill
#
# Bulk Modulus (GPa) = 10.32314 45.86881 28.09597
# Shear Modulus (GPa) = 9.64765 20.87497 15.26131
#
# Velocity S-wave (km/s) = 2.26273 3.32839 2.84588
# Velocity P-wave (km/s) = 3.50784 6.25405 5.07041
#
# Compressibility (1/GPa) = 0.09686978
#
# Stress axis : x y z
#
# Youngs Moduli (GPa) = 42.80484 7.63197 80.09681
#
# Poissons Ratio (x) = 0.15336 0.64681
# Poissons Ratio (y) = 0.86013 0.54728
# Poissons Ratio (z) = 0.34566 0.05215
#
# Static dielectric constant tensor:
#      x y z
#    x 3.630920 0.000000 -0.008770 
#    y 0.000000 2.635860 0.000000 
#    z -0.008770 0.000000 3.870150 
# 
# 
# High freq. dielectric constant tensor:
#      x y z
#    x 1.739660 0.000000 0.005900 
#    y 0.000000 1.645720 0.000000 
#    z 0.005900 0.000000 1.745330 
# 
# From -- ./inp_files/164088.got.cif
#   From: 2010.06.25/outbox.cif.g09.slc.cpg/sg12_83_cif.got.tgz:164088.got - 2010.06.28 00:19:55.
