data_PCOD8084352
_publ_section_title
;
Structure prediction by ZEFSAII (Michael W. Deem and Ramdas Pophale) SiO2 
 PCOD8084352
Probable space group: C 2/M
;
_chemical_formula_sum "Si O2"
_cell_formula_units_Z 36
_cell_length_a 11.545397
_cell_length_b 25.047875
_cell_length_c 15.394580
_cell_angle_alpha 90.000000
_cell_angle_beta 153.302971
_cell_angle_gamma 90.000000
_cell_volume 2000.127159
_symmetry_space_group_name_H-M "C 2/M"
_symmetry_group_IT_number 12
_symmetry_cell_setting 'monoclinic'
loop_
_space_group_symop_operation_xyz
x,y,z
-x,y,-z
-x,-y,-z
x,-y,z
1/2+x,1/2+y,z
1/2-x,1/2+y,-z
1/2-x,1/2-y,-z
1/2+x,1/2-y,z
loop_
_atom_site_type_symbol
_atom_site_label
_atom_site_fract_x
_atom_site_fract_y
_atom_site_fract_z
Si Si1 0.754678 0.786895 0.278069
Si Si2 0.873338 0.641421 0.121491
Si Si3 0.500000 0.303547 0.000000
Si Si4 0.180259 0.937907 0.541192
Si Si5 0.717253 0.616479 0.833650
O O1 0.541870 0.809160 0.201216
O O2 0.655722 0.731742 0.172890
O O3 0.815263 0.827701 0.239973
O O4 0.000000 0.773698 0.500000
O O5 0.699403 0.658340 0.085018
O O6 0.052675 0.593408 0.275354
O O7 0.693122 0.623400 0.920686
O O8 0.000000 0.919445 0.500000
O O9 0.013560 0.923787 0.344376
O O10 0.246965 0.000000 0.588162
O O11 0.000000 0.592025 0.000000
#
# Coordination Sequence:
#
# PCOD8084352 Si02
#       5
#     8   8   4   8   8
#     4  11  20  36  59  85 114 154 188 243 287 333
#     4  11  22  40  56  85 124 152 196 238 279 353
#     4  12  26  36  57  84 119 170 196 218 286 350
#     4  11  21  37  64  92 114 145 190 250 304 333
#     4  10  18  35  59  84 120 142 181 242 291 339
#
# _framework density 17.998854999999999
#
# number of rings (size 3 to 8) (size 9 to 14) (size 15 to 20)
#    0.000    1.111   10.000    0.667    0.000    4.000 
#    0.000    0.556    0.000    1.333    0.000    0.000 
#    0.000    0.000    0.000    0.000    0.000    0.000 
#
# Total GULP energy -223238.611913 kJ/mol
# GULP energy per Si atom -12402.145106 kJ/mol
# Density = 1.795789 g / cm^3
# Si number density = 17.998855 Si / 1000 Ang^3
#
#
#
# Elastic Constant Matrix: (Units=GPa)
#
#
# Indices 1 2 3 4 5 6 
#
# 1 88.0837 57.8553 70.6086 -0.0114 9.8646 0.0123
# 2 57.8553 85.9367 59.7333 0.0042 -0.4561 -0.0050
# 3 70.6086 59.7333 131.4785 0.0968 -28.0411 0.0044
# 4 -0.0114 0.0042 0.0968 94.2763 0.0013 -26.0019
# 5 9.8646 -0.4561 -28.0411 0.0013 25.5072 0.0064
# 6 0.0123 -0.0050 0.0044 -26.0019 0.0064 8.7451
#
#
#
# Elastic Compliance Matrix: (Units=1/GPa)
#
#
# Indices 1 2 3 4 5 6 
#
# 1 0.061142 -0.012089 -0.042366 0.000260 -0.070437 0.000752
# 2 -0.012089 0.021971 -0.003147 0.000050 0.001609 0.000180
# 3 -0.042366 -0.003147 0.046072 -0.000317 0.066977 -0.000958
# 4 0.000260 0.000050 -0.000317 0.058949 -0.000495 0.175272
# 5 -0.070437 0.001609 0.066977 -0.000495 0.140105 -0.001509
# 6 0.000752 0.000180 -0.000958 0.175272 -0.001509 0.635488
#
#
# Mechanical properties :
#
#
# Convention : Reuss Voigt Hill
#
# Bulk Modulus (GPa) = 71.51764 75.76592 73.64178
# Shear Modulus (GPa) = 4.61430 33.52583 19.07006
#
# Velocity S-wave (km/s) = 1.60288 4.32054 3.25855
# Velocity P-wave (km/s) = 6.57620 8.18997 7.42705
#
# Compressibility (1/GPa) = 0.01398256
#
# Stress axis : x y z
#
# Youngs Moduli (GPa) = 16.35544 45.51536 21.70507
#
# Poissons Ratio (x) = 0.55021 0.91955
# Poissons Ratio (y) = 0.19771 0.06830
# Poissons Ratio (z) = 0.69291 0.14322
#
# Static dielectric constant tensor:
#      x y z
#    x 3.267240 0.000000 -0.400070 
#    y 0.000000 3.107770 0.000000 
#    z -0.400070 0.000000 3.624310 
# 
# 
# High freq. dielectric constant tensor:
#      x y z
#    x 1.676250 0.000000 -0.027790 
#    y 0.000000 1.679580 0.000000 
#    z -0.027790 0.000000 1.706340 
# 
# From -- ./inp_files/47854.got.cif
#   From: 2010.06.25/outbox.cif.g09.slc.cpg/sg12_24_cif.got.tgz:47854.got - 2010.06.28 00:19:55.
