data_PCOD8084082
_publ_section_title
;
Structure prediction by ZEFSAII (Michael W. Deem and Ramdas Pophale) SiO2 
 PCOD8084082
Probable space group: C 2/M
;
_chemical_formula_sum "Si O2"
_cell_formula_units_Z 48
_cell_length_a 9.078421
_cell_length_b 27.455046
_cell_length_c 15.939818
_cell_angle_alpha 90.000000
_cell_angle_beta 144.288610
_cell_angle_gamma 90.000000
_cell_volume 2319.036091
_symmetry_space_group_name_H-M "C 2/M"
_symmetry_group_IT_number 12
_symmetry_cell_setting 'monoclinic'
loop_
_space_group_symop_operation_xyz
x,y,z
-x,y,-z
-x,-y,-z
x,-y,z
1/2+x,1/2+y,z
1/2-x,1/2+y,-z
1/2-x,1/2-y,-z
1/2+x,1/2-y,z
loop_
_atom_site_type_symbol
_atom_site_label
_atom_site_fract_x
_atom_site_fract_y
_atom_site_fract_z
Si Si1 0.383483 0.903712 0.679539
Si Si2 0.147979 0.295585 0.653544
Si Si3 0.901003 0.118464 0.866803
Si Si4 0.775531 0.056541 0.101447
Si Si5 0.797738 0.295543 0.644634
Si Si6 0.495152 0.555162 0.377986
O O1 0.663300 0.917422 0.777353
O O2 0.399340 0.848049 0.721408
O O3 0.281432 0.938003 0.706737
O O4 0.194835 0.907817 0.511882
O O5 0.320987 0.339739 0.765130
O O6 0.337816 0.249365 0.728044
O O7 0.000000 0.310093 0.500000
O O8 0.933834 0.281437 0.621209
O O9 0.125418 0.086507 0.931906
O O10 0.000000 0.141464 0.000000
O O11 0.970643 0.065220 0.268221
O O12 0.760590 0.000000 0.069904
O O13 0.500000 0.075911 0.000000
O O14 0.500000 0.299867 0.500000
O O15 0.585226 0.500000 0.436481
#
# Coordination Sequence:
#
# PCOD8084082 Si02
#       6
#     8   8   8   8   8   8
#     4  10  20  35  61  88 124 158 204 244 306 361
#     4  10  22  36  61  88 118 155 206 251 301 359
#     4  11  25  41  59  88 124 162 203 253 308 364
#     4  10  23  41  63  88 120 163 207 246 304 371
#     4  10  18  34  57  89 116 156 202 249 296 354
#     4  10  20  36  61  93 124 157 200 254 302 361
#
# _framework density 20.698256000000001
#
# number of rings (size 3 to 8) (size 9 to 14) (size 15 to 20)
#    0.000    1.833    1.667    4.000    4.667    3.000 
#    0.000    5.000    0.000    2.000    0.000    0.000 
#    0.000    0.000    0.000    0.000    0.000    0.000 
#
# Total GULP energy -297468.162702 kJ/mol
# GULP energy per Si atom -12394.506779 kJ/mol
# Density = 2.065115 g / cm^3
# Si number density = 20.698256 Si / 1000 Ang^3
#
#
#
# Elastic Constant Matrix: (Units=GPa)
#
#
# Indices 1 2 3 4 5 6 
#
# 1 135.7770 42.4375 29.3605 0.0000 11.4311 0.0000
# 2 42.4375 86.4104 37.9767 0.0000 -5.0773 0.0000
# 3 29.3605 37.9767 64.5467 0.0000 -3.2272 0.0000
# 4 0.0000 0.0000 0.0000 13.5032 0.0000 4.0500
# 5 11.4311 -5.0773 -3.2272 0.0000 38.3466 0.0000
# 6 0.0000 0.0000 0.0000 4.0500 0.0000 28.6194
#
#
#
# Elastic Compliance Matrix: (Units=1/GPa)
#
#
# Indices 1 2 3 4 5 6 
#
# 1 0.009322 -0.003833 -0.002158 0.000000 -0.003468 0.000000
# 2 -0.003833 0.017250 -0.008269 0.000000 0.002731 0.000000
# 3 -0.002158 -0.008269 0.021407 0.000000 0.001350 0.000000
# 4 0.000000 0.000000 0.000000 0.077339 0.000000 -0.010944
# 5 -0.003468 0.002731 0.001350 0.000000 0.027587 0.000000
# 6 0.000000 0.000000 0.000000 -0.010944 0.000000 0.036490
#
#
# Mechanical properties :
#
#
# Convention : Reuss Voigt Hill
#
# Bulk Modulus (GPa) = 51.39361 56.25372 53.82367
# Shear Modulus (GPa) = 22.28149 27.89112 25.08631
#
# Velocity S-wave (km/s) = 3.28455 3.67483 3.48516
# Velocity P-wave (km/s) = 6.26643 6.72628 6.50042
#
# Compressibility (1/GPa) = 0.01945767
#
# Stress axis : x y z
#
# Youngs Moduli (GPa) = 107.27530 57.97146 46.71377
#
# Poissons Ratio (x) = 0.22222 0.10082
# Poissons Ratio (y) = 0.41122 0.38627
# Poissons Ratio (z) = 0.23153 0.47936
#
# Static dielectric constant tensor:
#      x y z
#    x 3.946860 0.000000 0.058060 
#    y 0.000000 3.884270 0.000000 
#    z 0.058060 0.000000 3.530330 
# 
# 
# High freq. dielectric constant tensor:
#      x y z
#    x 1.820700 0.000000 0.001540 
#    y 0.000000 1.802430 0.000000 
#    z 0.001540 0.000000 1.789740 
# 
# From -- ./inp_files/200237.got.cif
#   From: 2010.06.25/outbox.cif.g09.slc.cpg/sg12_101_cif.got.tgz:200237.got - 2010.06.28 00:19:55.
