data_PCOD8084892
_publ_section_title
;
Structure prediction by ZEFSAII (Michael W. Deem and Ramdas Pophale) SiO2 
 PCOD8084892
Probable space group: C 2/M
;
_chemical_formula_sum "Si O2"
_cell_formula_units_Z 64
_cell_length_a 28.065543
_cell_length_b 9.491049
_cell_length_c 27.394686
_cell_angle_alpha 90.000000
_cell_angle_beta 150.159776
_cell_angle_gamma 90.000000
_cell_volume 3630.944124
_symmetry_space_group_name_H-M "C 2/M"
_symmetry_group_IT_number 12
_symmetry_cell_setting 'monoclinic'
loop_
_space_group_symop_operation_xyz
x,y,z
-x,y,-z
-x,-y,-z
x,-y,z
1/2+x,1/2+y,z
1/2-x,1/2+y,-z
1/2-x,1/2-y,-z
1/2+x,1/2-y,z
loop_
_atom_site_type_symbol
_atom_site_label
_atom_site_fract_x
_atom_site_fract_y
_atom_site_fract_z
Si Si1 0.106438 0.335391 0.613186
Si Si2 0.118561 0.336689 0.911433
Si Si3 0.837889 0.657671 0.592758
Si Si4 0.254800 0.660872 0.661066
Si Si5 0.912606 0.833370 0.310936
Si Si6 0.911125 0.657434 0.555788
Si Si7 0.327423 0.663587 0.131407
Si Si8 0.417129 0.836216 0.766102
O O1 0.111620 0.500000 0.630869
O O2 0.184600 0.293397 0.642243
O O3 0.136834 0.243808 0.687307
O O4 0.000000 0.295348 0.500000
O O5 0.111483 0.500000 0.889778
O O6 0.113752 0.249237 0.856925
O O7 0.030249 0.298482 0.869253
O O8 0.214743 0.302769 0.026648
O O9 0.799394 0.500000 0.566108
O O10 0.750000 0.750000 0.500000
O O11 0.915125 0.664307 0.617785
O O12 0.888227 0.712059 0.686091
O O13 0.286861 0.500000 0.695257
O O14 0.196757 0.686624 0.559074
O O15 0.352768 0.751458 0.747878
O O16 0.857811 0.790512 0.212703
O O17 0.020644 0.776163 0.405208
O O18 0.913442 0.000000 0.320140
O O19 0.942389 0.500000 0.565105
O O20 0.349800 0.500000 0.142373
O O21 0.398937 0.000000 0.759982
#
# Coordination Sequence:
#
# PCOD8084892 Si02
#       8
#     8   8   8   8   8   8   8   8
#     4  10  20  37  55  72  98 135 178 215 255 309
#     4   9  18  35  57  78 105 140 173 207 252 307
#     4  10  19  29  43  66  97 131 165 197 234 288
#     4  10  20  34  52  71  96 134 173 209 249 299
#     4  11  22  33  51  79 105 130 165 216 267 304
#     4  10  19  33  49  68  99 139 174 202 244 304
#     4   9  19  35  54  80 109 134 168 214 259 304
#     4  10  20  32  49  74 102 134 171 208 249 302
#
# _framework density 17.626268
#
# number of rings (size 3 to 8) (size 9 to 14) (size 15 to 20)
#    0.000    2.125    2.500    1.125    0.000    4.250 
#    0.000    0.000    0.000    0.750    0.000    5.250 
#    0.000    0.000    0.000    0.000    0.000    0.000 
#
# Total GULP energy -396744.469331 kJ/mol
# GULP energy per Si atom -12398.264667 kJ/mol
# Density = 1.758615 g / cm^3
# Si number density = 17.626268 Si / 1000 Ang^3
#
#
#
# Elastic Constant Matrix: (Units=GPa)
#
#
# Indices 1 2 3 4 5 6 
#
# 1 110.9221 50.7119 43.7576 0.0000 15.9083 0.0000
# 2 50.7119 66.1808 38.5062 0.0000 6.1028 0.0000
# 3 43.7576 38.5062 65.9354 -0.0001 11.0669 0.0000
# 4 0.0000 0.0000 -0.0001 22.9508 0.0000 2.1849
# 5 15.9083 6.1028 11.0669 0.0000 31.4286 0.0000
# 6 0.0000 0.0000 0.0000 2.1849 0.0000 34.0996
#
#
#
# Elastic Compliance Matrix: (Units=1/GPa)
#
#
# Indices 1 2 3 4 5 6 
#
# 1 0.015433 -0.008924 -0.004262 0.000000 -0.004578 0.000000
# 2 -0.008924 0.028049 -0.010950 0.000000 0.002926 0.000000
# 3 -0.004262 -0.010950 0.025157 0.000000 -0.004575 0.000000
# 4 0.000000 0.000000 0.000000 0.043839 0.000000 -0.002809
# 5 -0.004578 0.002926 -0.004575 0.000000 0.035178 0.000000
# 6 0.000000 0.000000 0.000000 -0.002809 0.000000 0.029506
#
#
# Mechanical properties :
#
#
# Convention : Reuss Voigt Hill
#
# Bulk Modulus (GPa) = 49.09539 56.55443 52.82491
# Shear Modulus (GPa) = 21.53102 25.03331 23.28216
#
# Velocity S-wave (km/s) = 3.49883 3.77268 3.63833
# Velocity P-wave (km/s) = 6.65105 7.15069 6.90539
#
# Compressibility (1/GPa) = 0.02036851
#
# Stress axis : x y z
#
# Youngs Moduli (GPa) = 64.79559 35.65179 39.74980
#
# Poissons Ratio (x) = 0.31815 0.16942
# Poissons Ratio (y) = 0.57822 0.43524
# Poissons Ratio (z) = 0.27617 0.39037
#
# Static dielectric constant tensor:
#      x y z
#    x 3.336100 0.000000 0.012610 
#    y 0.000000 3.232840 0.000000 
#    z 0.012610 0.000000 3.250020 
# 
# 
# High freq. dielectric constant tensor:
#      x y z
#    x 1.677570 0.000000 0.006800 
#    y 0.000000 1.679870 0.000000 
#    z 0.006800 0.000000 1.660090 
# 
# From -- ./inp_files/384626.got.cif
#   From: 2010.06.25/outbox.cif.g09.slc.cpg/sg12_193_cif.got.tgz:384626.got - 2010.06.28 00:19:55.
