data_PCOD8084061
_publ_section_title
;
Structure prediction by ZEFSAII (Michael W. Deem and Ramdas Pophale) SiO2 
 PCOD8084061
Probable space group: C 2/M
;
_chemical_formula_sum "Si O2"
_cell_formula_units_Z 56
_cell_length_a 25.060278
_cell_length_b 8.815618
_cell_length_c 14.949064
_cell_angle_alpha 90.000000
_cell_angle_beta 106.247970
_cell_angle_gamma 90.000000
_cell_volume 3170.669094
_symmetry_space_group_name_H-M "C 2/M"
_symmetry_group_IT_number 12
_symmetry_cell_setting 'monoclinic'
loop_
_space_group_symop_operation_xyz
x,y,z
-x,y,-z
-x,-y,-z
x,-y,z
1/2+x,1/2+y,z
1/2-x,1/2+y,-z
1/2-x,1/2-y,-z
1/2+x,1/2-y,z
loop_
_atom_site_type_symbol
_atom_site_label
_atom_site_fract_x
_atom_site_fract_y
_atom_site_fract_z
Si Si1 0.403121 0.324239 0.786702
Si Si2 0.989245 0.322540 0.097202
Si Si3 0.315418 0.320264 0.892072
Si Si4 0.874963 0.179444 0.097293
Si Si5 0.318913 0.326653 0.599566
Si Si6 0.709594 0.674973 0.609159
Si Si7 0.805755 0.679079 0.216651
O O1 0.417819 0.500000 0.812211
O O2 0.457967 0.223198 0.818479
O O3 0.358523 0.262242 0.837689
O O4 0.377871 0.301241 0.675676
O O5 0.977418 0.500000 0.100952
O O6 0.937458 0.230524 0.110019
O O7 0.000000 0.274720 0.000000
O O8 0.313152 0.500000 0.886966
O O9 0.254114 0.255090 0.843117
O O10 0.335603 0.261698 0.998187
O O11 0.853974 0.250066 0.179455
O O12 0.873344 0.000000 0.103432
O O13 0.298457 0.500000 0.604457
O O14 0.325748 0.291360 0.497485
O O15 0.273572 0.218306 0.622997
O O16 0.706693 0.500000 0.635303
O O17 0.683041 0.773554 0.675873
O O18 0.808327 0.500000 0.208986
#
# Coordination Sequence:
#
# PCOD8084061 Si02
#       7
#     8   8   8   8   8   8   8
#     4  10  18  34  57  79 105 141 180 218 263 313
#     4  11  23  37  53  78 108 140 178 223 268 310
#     4   9  18  32  53  78 107 142 178 213 260 314
#     4  11  22  37  55  77 104 143 187 222 259 314
#     4   9  18  33  53  78 109 141 175 218 268 313
#     4  10  19  31  51  80 110 141 177 216 261 319
#     4  11  21  36  54  77 111 147 177 218 268 316
#
# _framework density 17.661887
#
# number of rings (size 3 to 8) (size 9 to 14) (size 15 to 20)
#    0.000    1.857    2.857    2.143    0.000    1.714 
#    0.000    2.143    0.000    0.857    0.000    6.000 
#    0.000    0.000    0.000    0.000    0.000    0.000 
#
# Total GULP energy -347284.468183 kJ/mol
# GULP energy per Si atom -12403.016721 kJ/mol
# Density = 1.762169 g / cm^3
# Si number density = 17.661887 Si / 1000 Ang^3
#
#
#
# Elastic Constant Matrix: (Units=GPa)
#
#
# Indices 1 2 3 4 5 6 
#
# 1 94.1449 35.2795 55.0848 0.0000 -10.6922 0.0000
# 2 35.2795 59.4149 37.8216 0.0000 -2.6451 0.0000
# 3 55.0848 37.8216 124.6942 0.0000 -5.2058 0.0000
# 4 0.0000 0.0000 0.0000 26.3329 0.0000 -0.9771
# 5 -10.6922 -2.6451 -5.2058 0.0000 24.5711 0.0000
# 6 0.0000 0.0000 0.0000 -0.9771 0.0000 25.7853
#
#
#
# Elastic Compliance Matrix: (Units=1/GPa)
#
#
# Indices 1 2 3 4 5 6 
#
# 1 0.016667 -0.006335 -0.005213 0.000000 0.005466 0.000000
# 2 -0.006335 0.023286 -0.004313 0.000000 -0.001164 0.000000
# 3 -0.005213 -0.004313 0.011620 0.000000 -0.000271 0.000000
# 4 0.000000 0.000000 0.000000 0.038029 0.000000 0.001441
# 5 0.005466 -0.001164 -0.000271 0.000000 0.042894 0.000000
# 6 0.000000 0.000000 0.000000 0.001441 0.000000 0.038836
#
#
# Mechanical properties :
#
#
# Convention : Reuss Voigt Hill
#
# Bulk Modulus (GPa) = 50.37663 59.40284 54.88974
# Shear Modulus (GPa) = 23.84698 25.34240 24.59469
#
# Velocity S-wave (km/s) = 3.67849 3.79207 3.73571
# Velocity P-wave (km/s) = 6.82835 7.27182 7.05357
#
# Compressibility (1/GPa) = 0.01985047
#
# Stress axis : x y z
#
# Youngs Moduli (GPa) = 59.99976 42.94426 86.06212
#
# Poissons Ratio (x) = 0.27203 0.44865
# Poissons Ratio (y) = 0.38007 0.37121
# Poissons Ratio (z) = 0.31279 0.18523
#
# Static dielectric constant tensor:
#      x y z
#    x 3.088200 0.000000 0.024110 
#    y 0.000000 3.176910 0.000000 
#    z 0.024110 0.000000 3.457730 
# 
# 
# High freq. dielectric constant tensor:
#      x y z
#    x 1.660340 0.000000 -0.000360 
#    y 0.000000 1.678910 0.000000 
#    z -0.000360 0.000000 1.687730 
# 
# From -- ./inp_files/237459.got.cif
#   From: 2010.06.25/outbox.cif.g09.slc.cpg/sg12_119_cif.got.tgz:237459.got - 2010.06.28 00:19:55.
