data_PCOD8084121
_publ_section_title
;
Structure prediction by ZEFSAII (Michael W. Deem and Ramdas Pophale) SiO2 
 PCOD8084121
Probable space group: C 2/M
;
_chemical_formula_sum "Si O2"
_cell_formula_units_Z 64
_cell_length_a 18.500480
_cell_length_b 22.405375
_cell_length_c 15.938519
_cell_angle_alpha 90.000000
_cell_angle_beta 151.752412
_cell_angle_gamma 90.000000
_cell_volume 3126.825904
_symmetry_space_group_name_H-M "C 2/M"
_symmetry_group_IT_number 12
_symmetry_cell_setting 'monoclinic'
loop_
_space_group_symop_operation_xyz
x,y,z
-x,y,-z
-x,-y,-z
x,-y,z
1/2+x,1/2+y,z
1/2-x,1/2+y,-z
1/2-x,1/2-y,-z
1/2+x,1/2-y,z
loop_
_atom_site_type_symbol
_atom_site_label
_atom_site_fract_x
_atom_site_fract_y
_atom_site_fract_z
Si Si1 0.679965 0.433282 0.196768
Si Si2 0.275224 0.568780 0.940175
Si Si3 0.100086 0.116970 0.276386
Si Si4 0.139216 0.347027 0.943108
Si Si5 0.928456 0.762972 0.676243
Si Si6 0.045222 0.432987 0.134661
Si Si7 0.552660 0.328866 0.648941
Si Si8 0.870845 0.933546 0.525669
O O1 0.730322 0.500000 0.272913
O O2 0.769080 0.414552 0.202418
O O3 0.712044 0.390274 0.309802
O O4 0.500000 0.428998 0.000000
O O5 0.225466 0.500000 0.909911
O O6 0.208104 0.618526 0.933308
O O7 0.458195 0.571319 0.130494
O O8 0.038676 0.184579 0.222603
O O9 0.192142 0.097613 0.453586
O O10 0.019963 0.392319 0.859716
O O11 0.042923 0.290263 0.814695
O O12 0.267007 0.325878 0.142017
O O13 0.750000 0.750000 0.500000
O O14 0.961302 0.783313 0.614770
O O15 0.979794 0.500000 0.079110
O O16 0.227529 0.433757 0.317899
O O17 0.000000 0.404766 0.000000
O O18 0.500000 0.312889 0.500000
O O19 0.507313 0.397013 0.622581
O O20 0.933716 0.000000 0.605762
#
# Coordination Sequence:
#
# PCOD8084121 Si02
#       8
#     8   8   8   8   8   8   8   8
#     4   8  15  29  52  86 125 152 189 245 299 370
#     4  10  19  33  58  95 128 156 197 253 317 376
#     4  10  18  34  58  85 121 161 207 249 306 364
#     4  12  22  39  68  87 127 162 207 256 319 368
#     4  11  25  45  62  84 121 169 218 260 299 377
#     4  10  22  39  59  88 122 161 206 249 303 375
#     4  11  24  41  61  91 125 156 202 263 318 362
#     4  10  19  34  59  87 123 163 203 248 310 378
#
# _framework density 20.468039999999998
#
# number of rings (size 3 to 8) (size 9 to 14) (size 15 to 20)
#    0.000    1.750    2.500    4.875    0.000    0.750 
#    2.250    3.125    0.000    0.000    0.000    5.250 
#    0.000    0.000    0.000    0.000    0.000    0.000 
#
# Total GULP energy -396491.627914 kJ/mol
# GULP energy per Si atom -12390.363372 kJ/mol
# Density = 2.042145 g / cm^3
# Si number density = 20.468040 Si / 1000 Ang^3
#
#
#
# Elastic Constant Matrix: (Units=GPa)
#
#
# Indices 1 2 3 4 5 6 
#
# 1 100.8453 56.2558 42.7067 0.0000 -23.6930 0.0000
# 2 56.2558 114.9149 44.8056 0.0000 -11.5314 0.0000
# 3 42.7067 44.8056 91.8006 0.0000 -6.7736 0.0000
# 4 0.0000 0.0000 0.0000 24.3324 0.0000 5.0838
# 5 -23.6930 -11.5314 -6.7736 0.0000 35.9563 0.0000
# 6 0.0000 0.0000 0.0000 5.0838 0.0000 28.3423
#
#
#
# Elastic Compliance Matrix: (Units=1/GPa)
#
#
# Indices 1 2 3 4 5 6 
#
# 1 0.017015 -0.005722 -0.004494 0.000000 0.008530 0.000000
# 2 -0.005722 0.012896 -0.003656 0.000000 -0.000323 0.000000
# 3 -0.004494 -0.003656 0.014667 0.000000 -0.001371 0.000000
# 4 0.000000 0.000000 0.000000 0.042698 0.000000 -0.007659
# 5 0.008530 -0.000323 -0.001371 0.000000 0.033071 0.000000
# 6 0.000000 0.000000 0.000000 -0.007659 0.000000 0.036657
#
#
# Mechanical properties :
#
#
# Convention : Reuss Voigt Hill
#
# Bulk Modulus (GPa) = 59.39927 66.12190 62.76058
# Shear Modulus (GPa) = 26.26624 28.64573 27.45598
#
# Velocity S-wave (km/s) = 3.58618 3.74509 3.66650
# Velocity P-wave (km/s) = 6.79934 7.14675 6.97521
#
# Compressibility (1/GPa) = 0.01683522
#
# Stress axis : x y z
#
# Youngs Moduli (GPa) = 58.77150 77.54178 68.17942
#
# Poissons Ratio (x) = 0.44366 0.30637
# Poissons Ratio (y) = 0.33626 0.24930
# Poissons Ratio (z) = 0.26410 0.28353
#
# Static dielectric constant tensor:
#      x y z
#    x 4.011880 0.000000 -0.378370 
#    y 0.000000 3.776860 0.000000 
#    z -0.378370 0.000000 3.707650 
# 
# 
# High freq. dielectric constant tensor:
#      x y z
#    x 1.798090 0.000000 -0.016140 
#    y 0.000000 1.797770 0.000000 
#    z -0.016140 0.000000 1.785670 
# 
# From -- ./inp_files/228166.got.cif
#   From: 2010.06.25/outbox.cif.g09.slc.cpg/sg12_115_cif.got.tgz:228166.got - 2010.06.28 00:19:55.
