data_PCOD8084445
_publ_section_title
;
Structure prediction by ZEFSAII (Michael W. Deem and Ramdas Pophale) SiO2 
 PCOD8084445
Probable space group: C 2/M
;
_chemical_formula_sum "Si O2"
_cell_formula_units_Z 36
_cell_length_a 12.265852
_cell_length_b 23.187037
_cell_length_c 12.112311
_cell_angle_alpha 90.000000
_cell_angle_beta 142.379077
_cell_angle_gamma 90.000000
_cell_volume 2102.853522
_symmetry_space_group_name_H-M "C 2/M"
_symmetry_group_IT_number 12
_symmetry_cell_setting 'monoclinic'
loop_
_space_group_symop_operation_xyz
x,y,z
-x,y,-z
-x,-y,-z
x,-y,z
1/2+x,1/2+y,z
1/2-x,1/2+y,-z
1/2-x,1/2-y,-z
1/2+x,1/2-y,z
loop_
_atom_site_type_symbol
_atom_site_label
_atom_site_fract_x
_atom_site_fract_y
_atom_site_fract_z
Si Si1 0.758384 0.290109 0.400795
Si Si2 0.301724 0.565475 0.887605
Si Si3 0.000000 0.378187 0.500000
Si Si4 0.701085 0.232243 0.136602
Si Si5 0.634354 0.668027 0.918280
O O1 0.750000 0.250000 0.500000
O O2 0.794941 0.247664 0.326846
O O3 0.577812 0.326368 0.241874
O O4 0.915436 0.337614 0.528835
O O5 0.264040 0.500000 0.893305
O O6 0.153391 0.583085 0.678279
O O7 0.500000 0.573120 0.000000
O O8 0.294789 0.604824 0.991650
O O9 0.802031 0.179966 0.156070
O O10 0.500000 0.212874 0.000000
O O11 0.720615 0.287875 0.074393
#
# Coordination Sequence:
#
# PCOD8084445 Si02
#       5
#     8   8   4   8   8
#     4  11  21  31  52  86 114 145 175 222 275 341
#     4  11  22  38  57  80 109 148 191 233 275 319
#     4  12  21  36  54  84 114 142 187 224 278 334
#     4   9  18  31  53  78 110 145 175 217 282 333
#     4  10  18  36  52  77 114 144 174 227 276 328
#
# _framework density 17.119593999999999
#
# number of rings (size 3 to 8) (size 9 to 14) (size 15 to 20)
#    0.000    1.556    4.444    2.333    6.222    0.000 
#    0.000    0.000    0.000    0.667    0.000    1.556 
#    0.000    0.000    0.000    0.000    0.000    0.000 
#
# Total GULP energy -223141.709234 kJ/mol
# GULP energy per Si atom -12396.761624 kJ/mol
# Density = 1.708063 g / cm^3
# Si number density = 17.119594 Si / 1000 Ang^3
#
#
#
# Elastic Constant Matrix: (Units=GPa)
#
#
# Indices 1 2 3 4 5 6 
#
# 1 94.0874 53.6336 31.4567 0.0000 -10.8590 0.0000
# 2 53.6336 120.1780 50.6574 0.0000 -1.8155 0.0000
# 3 31.4567 50.6574 96.2482 0.0000 -1.5816 0.0000
# 4 0.0000 0.0000 0.0000 22.0469 0.0000 -1.7737
# 5 -10.8590 -1.8155 -1.5816 0.0000 27.0855 0.0000
# 6 0.0000 0.0000 0.0000 -1.7737 0.0000 19.9642
#
#
#
# Elastic Compliance Matrix: (Units=1/GPa)
#
#
# Indices 1 2 3 4 5 6 
#
# 1 0.015280 -0.005999 -0.001744 0.000000 0.005622 0.000000
# 2 -0.005999 0.013053 -0.004939 0.000000 -0.001819 0.000000
# 3 -0.001744 -0.004939 0.013555 0.000000 -0.000239 0.000000
# 4 0.000000 0.000000 0.000000 0.045684 0.000000 0.004059
# 5 0.005622 -0.001819 -0.000239 0.000000 0.039038 0.000000
# 6 0.000000 0.000000 0.000000 0.004059 0.000000 0.050450
#
#
# Mechanical properties :
#
#
# Convention : Reuss Voigt Hill
#
# Bulk Modulus (GPa) = 60.51964 64.66767 62.59366
# Shear Modulus (GPa) = 24.04606 25.47037 24.75821
#
# Velocity S-wave (km/s) = 3.75186 3.86137 3.80701
# Velocity P-wave (km/s) = 7.36182 7.59844 7.48107
#
# Compressibility (1/GPa) = 0.01652356
#
# Stress axis : x y z
#
# Youngs Moduli (GPa) = 65.44417 76.61191 73.77094
#
# Poissons Ratio (x) = 0.45961 0.12867
# Poissons Ratio (y) = 0.39261 0.36436
# Poissons Ratio (z) = 0.11414 0.37840
#
# Static dielectric constant tensor:
#      x y z
#    x 3.361170 0.000000 0.114820 
#    y 0.000000 3.115550 0.000000 
#    z 0.114820 0.000000 3.309440 
# 
# 
# High freq. dielectric constant tensor:
#      x y z
#    x 1.655450 0.000000 0.017040 
#    y 0.000000 1.632220 0.000000 
#    z 0.017040 0.000000 1.669660 
# 
# From -- ./inp_files/49853.got.cif
#   From: 2010.06.25/outbox.cif.g09.slc.cpg/sg12_25_cif.got.tgz:49853.got - 2010.06.28 00:19:55.
