data_PCOD8084494
_publ_section_title
;
Structure prediction by ZEFSAII (Michael W. Deem and Ramdas Pophale) SiO2 
 PCOD8084494
Probable space group: C 2/M
;
_chemical_formula_sum "Si O2"
_cell_formula_units_Z 48
_cell_length_a 16.689129
_cell_length_b 15.700933
_cell_length_c 17.585915
_cell_angle_alpha 90.000000
_cell_angle_beta 31.776173
_cell_angle_gamma 90.000000
_cell_volume 2426.648452
_symmetry_space_group_name_H-M "C 2/M"
_symmetry_group_IT_number 12
_symmetry_cell_setting 'monoclinic'
loop_
_space_group_symop_operation_xyz
x,y,z
-x,y,-z
-x,-y,-z
x,-y,z
1/2+x,1/2+y,z
1/2-x,1/2+y,-z
1/2-x,1/2-y,-z
1/2+x,1/2-y,z
loop_
_atom_site_type_symbol
_atom_site_label
_atom_site_fract_x
_atom_site_fract_y
_atom_site_fract_z
Si Si1 0.992387 0.595222 0.651201
Si Si2 0.145090 0.092302 0.208878
Si Si3 0.124124 0.758029 0.343877
Si Si4 0.329152 0.638839 0.426917
Si Si5 0.911143 0.403935 0.883750
Si Si6 0.331147 0.222768 0.309416
O O1 0.956364 0.500000 0.648275
O O2 0.939297 0.667945 0.636101
O O3 0.898370 0.612675 0.803886
O O4 0.173477 0.597310 0.522304
O O5 0.166757 0.171614 0.247425
O O6 0.970435 0.076041 0.324541
O O7 0.196629 0.000000 0.202353
O O8 0.247725 0.113755 0.052648
O O9 0.271140 0.739890 0.277900
O O10 0.000000 0.798995 0.500000
O O11 0.397712 0.703727 0.309340
O O12 0.304005 0.682183 0.529825
O O13 0.967472 0.500000 0.853007
O O14 0.038013 0.343594 0.818254
#
# Coordination Sequence:
#
# PCOD8084494 Si02
#       6
#     8   8   8   8   8   8
#     4  10  21  39  63  86 115 153 192 240 292 341
#     4  11  23  38  59  87 118 154 196 240 286 340
#     4  12  22  38  56  88 123 149 190 237 292 346
#     4  10  18  36  60  83 112 150 196 237 280 337
#     4   9  21  40  60  84 114 153 200 240 283 343
#     4  10  20  36  57  82 116 153 190 238 285 344
#
# _framework density 19.780367999999999
#
# number of rings (size 3 to 8) (size 9 to 14) (size 15 to 20)
#    0.000    1.667    3.333    2.500    0.000    5.333 
#    0.000    1.667    0.000    0.000    0.000    5.833 
#    0.000    0.000    0.000    0.000    0.000    0.000 
#
# Total GULP energy -297381.640365 kJ/mol
# GULP energy per Si atom -12390.901682 kJ/mol
# Density = 1.973535 g / cm^3
# Si number density = 19.780368 Si / 1000 Ang^3
#
#
#
# Elastic Constant Matrix: (Units=GPa)
#
#
# Indices 1 2 3 4 5 6 
#
# 1 102.0721 46.7548 41.0417 -0.0002 -2.5852 -0.0011
# 2 46.7548 109.6208 36.1351 0.0036 8.4937 -0.0033
# 3 41.0417 36.1351 85.8476 0.0048 13.2628 -0.0045
# 4 -0.0002 0.0036 0.0048 26.9449 -0.0037 -1.5293
# 5 -2.5852 8.4937 13.2628 -0.0037 13.4007 0.0029
# 6 -0.0011 -0.0033 -0.0045 -1.5293 0.0029 17.3441
#
#
#
# Elastic Compliance Matrix: (Units=1/GPa)
#
#
# Indices 1 2 3 4 5 6 
#
# 1 0.015466 -0.005246 -0.007273 0.000004 0.013506 -0.000004
# 2 -0.005246 0.012456 -0.001604 -0.000002 -0.007319 0.000003
# 3 -0.007273 -0.001604 0.018723 -0.000005 -0.018917 0.000007
# 4 0.000004 -0.000002 -0.000005 0.037299 0.000017 0.003289
# 5 0.013506 -0.007319 -0.018917 0.000017 0.100590 -0.000021
# 6 -0.000004 0.000003 0.000007 0.003289 -0.000021 0.057946
#
#
# Mechanical properties :
#
#
# Convention : Reuss Voigt Hill
#
# Bulk Modulus (GPa) = 54.34842 60.60041 57.47441
# Shear Modulus (GPa) = 18.05975 23.11186 20.58581
#
# Velocity S-wave (km/s) = 3.02489 3.42193 3.22952
# Velocity P-wave (km/s) = 6.30361 6.80558 6.55940
#
# Compressibility (1/GPa) = 0.01839980
#
# Stress axis : x y z
#
# Youngs Moduli (GPa) = 64.65767 80.28490 53.40986
#
# Poissons Ratio (x) = 0.42115 0.38843
# Poissons Ratio (y) = 0.33917 0.08568
# Poissons Ratio (z) = 0.47023 0.12880
#
# Static dielectric constant tensor:
#      x y z
#    x 3.454570 0.000000 0.093650 
#    y 0.000000 3.646980 0.000000 
#    z 0.093650 0.000000 3.598520 
# 
# 
# High freq. dielectric constant tensor:
#      x y z
#    x 1.752920 0.000000 0.003440 
#    y 0.000000 1.776680 0.000000 
#    z 0.003440 0.000000 1.766350 
# 
# From -- ./inp_files/278034.got.cif
#   From: 2010.06.25/outbox.cif.g09.slc.cpg/sg12_140_cif.got.tgz:278034.got - 2010.06.28 00:19:55.
