data_PCOD8084152
_publ_section_title
;
Structure prediction by ZEFSAII (Michael W. Deem and Ramdas Pophale) SiO2 
 PCOD8084152
Probable space group: C 2/M
;
_chemical_formula_sum "Si O2"
_cell_formula_units_Z 56
_cell_length_a 25.170307
_cell_length_b 12.841157
_cell_length_c 14.155654
_cell_angle_alpha 90.000000
_cell_angle_beta 141.974804
_cell_angle_gamma 90.000000
_cell_volume 2818.440829
_symmetry_space_group_name_H-M "C 2/M"
_symmetry_group_IT_number 12
_symmetry_cell_setting 'monoclinic'
loop_
_space_group_symop_operation_xyz
x,y,z
-x,y,-z
-x,-y,-z
x,-y,z
1/2+x,1/2+y,z
1/2-x,1/2+y,-z
1/2-x,1/2-y,-z
1/2+x,1/2-y,z
loop_
_atom_site_type_symbol
_atom_site_label
_atom_site_fract_x
_atom_site_fract_y
_atom_site_fract_z
Si Si1 0.347580 0.202230 0.527493
Si Si2 0.775775 0.379069 0.615751
Si Si3 0.676224 0.884604 0.708913
Si Si4 0.027888 0.384612 0.802656
Si Si5 0.870176 0.113751 0.033867
Si Si6 0.850623 0.730395 0.153075
Si Si7 0.080489 0.720022 0.051464
O O1 0.316742 0.321336 0.502534
O O2 0.308643 0.127798 0.554249
O O3 0.312682 0.161802 0.378988
O O4 0.451413 0.197253 0.672169
O O5 0.766650 0.500000 0.631955
O O6 0.840704 0.316069 0.773744
O O7 0.767852 0.898349 0.886327
O O8 0.624915 0.801074 0.704462
O O9 0.631711 0.000000 0.643215
O O10 0.993207 0.500000 0.733202
O O11 0.113636 0.364349 0.861106
O O12 0.053096 0.377337 0.948006
O O13 0.898327 0.182115 0.984511
O O14 0.914304 0.000000 0.090727
O O15 0.896132 0.166606 0.171495
O O16 0.750000 0.750000 0.000000
O O17 0.000000 0.756779 0.000000
#
# Coordination Sequence:
#
# PCOD8084152 Si02
#       7
#     8   8   8   8   8   8   8
#     4  11  23  38  58  91 126 160 205 254 307 370
#     4  11  23  41  61  86 126 172 206 246 307 368
#     4  10  18  34  59  83 115 156 198 248 303 356
#     4  11  22  37  62  93 123 158 203 263 314 355
#     4   9  19  36  57  84 119 158 198 247 303 358
#     4   9  20  37  57  84 121 154 198 249 302 372
#     4  11  21  37  60  91 124 154 209 258 299 363
#
# _framework density 19.869142
#
# number of rings (size 3 to 8) (size 9 to 14) (size 15 to 20)
#    0.000    1.714    2.857    2.143    0.000    2.000 
#    0.000    5.000    0.000    0.000    0.000    5.000 
#    0.000    0.000    0.000    0.000    0.000    0.000 
#
# Total GULP energy -346925.813977 kJ/mol
# GULP energy per Si atom -12390.207642 kJ/mol
# Density = 1.982392 g / cm^3
# Si number density = 19.869142 Si / 1000 Ang^3
#
#
#
# Elastic Constant Matrix: (Units=GPa)
#
#
# Indices 1 2 3 4 5 6 
#
# 1 126.0164 68.2868 41.5107 0.0000 -13.0176 0.0000
# 2 68.2868 157.3163 37.4884 0.0000 -10.4545 0.0000
# 3 41.5107 37.4884 63.0699 0.0000 -8.8305 0.0000
# 4 0.0000 0.0000 0.0000 18.0825 0.0000 -3.0040
# 5 -13.0176 -10.4545 -8.8305 0.0000 37.6137 0.0000
# 6 0.0000 0.0000 0.0000 -3.0040 0.0000 20.9410
#
#
#
# Elastic Compliance Matrix: (Units=1/GPa)
#
#
# Indices 1 2 3 4 5 6 
#
# 1 0.011938 -0.003785 -0.005352 0.000000 0.001823 0.000000
# 2 -0.003785 0.008647 -0.002580 0.000000 0.000488 0.000000
# 3 -0.005352 -0.002580 0.021250 0.000000 0.002420 0.000000
# 4 0.000000 0.000000 0.000000 0.056652 0.000000 0.008127
# 5 0.001823 0.000488 0.002420 0.000000 0.027921 0.000000
# 6 0.000000 0.000000 0.000000 0.008127 0.000000 0.048919
#
#
# Mechanical properties :
#
#
# Convention : Reuss Voigt Hill
#
# Bulk Modulus (GPa) = 54.34651 71.21936 62.78294
# Shear Modulus (GPa) = 24.40269 28.60188 26.50229
#
# Velocity S-wave (km/s) = 3.50833 3.79821 3.65614
# Velocity P-wave (km/s) = 6.61988 7.42679 7.03491
#
# Compressibility (1/GPa) = 0.01840045
#
# Stress axis : x y z
#
# Youngs Moduli (GPa) = 83.76561 115.64699 47.05831
#
# Poissons Ratio (x) = 0.43778 0.25186
# Poissons Ratio (y) = 0.31709 0.12141
# Poissons Ratio (z) = 0.44831 0.29837
#
# Static dielectric constant tensor:
#      x y z
#    x 3.798840 0.000000 -0.161550 
#    y 0.000000 3.855100 0.000000 
#    z -0.161550 0.000000 3.524770 
# 
# 
# High freq. dielectric constant tensor:
#      x y z
#    x 1.785920 0.000000 -0.011850 
#    y 0.000000 1.767980 0.000000 
#    z -0.011850 0.000000 1.755010 
# 
# From -- ./inp_files/245685.got.cif
#   From: 2010.06.25/outbox.cif.g09.slc.cpg/sg12_123_cif.got.tgz:245685.got - 2010.06.28 00:19:55.
