data_PCOD8084654
_publ_section_title
;
Structure prediction by ZEFSAII (Michael W. Deem and Ramdas Pophale) SiO2 
 PCOD8084654
Probable space group: C 2/M
;
_chemical_formula_sum "Si O2"
_cell_formula_units_Z 56
_cell_length_a 31.046798
_cell_length_b 9.304746
_cell_length_c 14.860527
_cell_angle_alpha 90.000000
_cell_angle_beta 52.811730
_cell_angle_gamma 90.000000
_cell_volume 3419.992200
_symmetry_space_group_name_H-M "C 2/M"
_symmetry_group_IT_number 12
_symmetry_cell_setting 'monoclinic'
loop_
_space_group_symop_operation_xyz
x,y,z
-x,y,-z
-x,-y,-z
x,-y,z
1/2+x,1/2+y,z
1/2-x,1/2+y,-z
1/2-x,1/2-y,-z
1/2+x,1/2-y,z
loop_
_atom_site_type_symbol
_atom_site_label
_atom_site_fract_x
_atom_site_fract_y
_atom_site_fract_z
Si Si1 0.287110 0.667249 0.383884
Si Si2 0.588047 0.338716 0.757121
Si Si3 0.799535 0.656849 0.198801
Si Si4 0.704537 0.829950 0.001603
Si Si5 0.901239 0.159770 0.874707
Si Si6 0.004799 0.338578 0.196911
Si Si7 0.915745 0.254042 0.042811
O O1 0.272658 0.500000 0.402960
O O2 0.250000 0.750000 0.500000
O O3 0.348918 0.696340 0.333792
O O4 0.275970 0.725619 0.297355
O O5 0.575028 0.500000 0.741855
O O6 0.554494 0.231216 0.736204
O O7 0.568753 0.326312 0.885079
O O8 0.776072 0.500000 0.254208
O O9 0.864576 0.642803 0.124524
O O10 0.781870 0.697235 0.120163
O O11 0.647745 0.756537 0.100800
O O12 0.701859 0.000000 0.026985
O O13 0.750000 0.750000 0.000000
O O14 0.957515 0.245102 0.782341
O O15 0.900728 0.000000 0.831679
O O16 0.897132 0.140849 0.988705
O O17 0.998271 0.500000 0.242117
O O18 0.033222 0.342659 0.061766
#
# Coordination Sequence:
#
# PCOD8084654 Si02
#       7
#     8   8   8   8   8   8   8
#     4  10  21  35  50  67  88 119 158 201 241 279
#     4  10  19  29  41  60  83 112 152 188 226 272
#     4   9  17  31  48  66  91 123 156 193 232 273
#     4  10  19  30  46  68  95 125 157 190 228 276
#     4   9  17  28  41  56  82 118 150 182 220 259
#     4  10  19  27  38  59  87 117 151 184 222 268
#     4   8  17  25  42  57  85 117 153 179 221 262
#
# _framework density 16.374306000000001
#
# number of rings (size 3 to 8) (size 9 to 14) (size 15 to 20)
#    0.857    1.714    0.000    3.000    0.000    8.571 
#    0.000    0.000    0.000    0.000    0.000    0.000 
#    0.000    1.143    0.000   12.000    0.000    5.714 
#
# Total GULP energy -346899.629055 kJ/mol
# GULP energy per Si atom -12389.272466 kJ/mol
# Density = 1.633704 g / cm^3
# Si number density = 16.374306 Si / 1000 Ang^3
#
#
#
# Elastic Constant Matrix: (Units=GPa)
#
#
# Indices 1 2 3 4 5 6 
#
# 1 96.4189 60.0884 16.9779 0.0000 -4.3473 0.0000
# 2 60.0884 141.7338 29.2827 0.0000 -3.8937 0.0001
# 3 16.9779 29.2827 41.1118 0.0000 -4.1935 0.0000
# 4 0.0000 0.0000 0.0000 18.5147 0.0000 -3.0502
# 5 -4.3473 -3.8937 -4.1935 0.0000 11.1451 0.0000
# 6 0.0000 0.0001 0.0000 -3.0502 0.0000 27.0801
#
#
#
# Elastic Compliance Matrix: (Units=1/GPa)
#
#
# Indices 1 2 3 4 5 6 
#
# 1 0.014311 -0.005660 -0.001571 0.000000 0.003014 0.000000
# 2 -0.005660 0.010517 -0.005203 0.000000 -0.000491 0.000000
# 3 -0.001571 -0.005203 0.029566 0.000000 0.008694 0.000000
# 4 0.000000 0.000000 0.000000 0.055032 0.000000 0.006199
# 5 0.003014 -0.000491 0.008694 0.000000 0.094001 0.000000
# 6 0.000000 0.000000 0.000000 0.006199 0.000000 0.037626
#
#
# Mechanical properties :
#
#
# Convention : Reuss Voigt Hill
#
# Bulk Modulus (GPa) = 33.87034 54.66250 44.26642
# Shear Modulus (GPa) = 18.13153 22.87568 20.50360
#
# Velocity S-wave (km/s) = 3.33125 3.74176 3.54246
# Velocity P-wave (km/s) = 5.96039 7.21965 6.62003
#
# Compressibility (1/GPa) = 0.02952436
#
# Stress axis : x y z
#
# Youngs Moduli (GPa) = 69.87540 95.08863 33.82288
#
# Poissons Ratio (x) = 0.53818 0.05315
# Poissons Ratio (y) = 0.39548 0.17599
# Poissons Ratio (z) = 0.10980 0.49478
#
# Static dielectric constant tensor:
#      x y z
#    x 2.974190 0.000000 -0.131450 
#    y 0.000000 3.107240 0.000000 
#    z -0.131450 0.000000 2.628200 
# 
# 
# High freq. dielectric constant tensor:
#      x y z
#    x 1.619240 0.000000 -0.018930 
#    y 0.000000 1.642480 0.000000 
#    z -0.018930 0.000000 1.566710 
# 
# From -- ./inp_files/248133.got.cif
#   From: 2010.06.25/outbox.cif.g09.slc.cpg/sg12_125_cif.got.tgz:248133.got - 2010.06.28 00:19:55.
