data_PCOD8084866
_publ_section_title
;
Structure prediction by ZEFSAII (Michael W. Deem and Ramdas Pophale) SiO2 
 PCOD8084866
Probable space group: C 2/M
;
_chemical_formula_sum "Si O2"
_cell_formula_units_Z 56
_cell_length_a 26.970646
_cell_length_b 9.151312
_cell_length_c 15.897002
_cell_angle_alpha 90.000000
_cell_angle_beta 65.917195
_cell_angle_gamma 90.000000
_cell_volume 3582.119835
_symmetry_space_group_name_H-M "C 2/M"
_symmetry_group_IT_number 12
_symmetry_cell_setting 'monoclinic'
loop_
_space_group_symop_operation_xyz
x,y,z
-x,y,-z
-x,-y,-z
x,-y,z
1/2+x,1/2+y,z
1/2-x,1/2+y,-z
1/2-x,1/2-y,-z
1/2+x,1/2-y,z
loop_
_atom_site_type_symbol
_atom_site_label
_atom_site_fract_x
_atom_site_fract_y
_atom_site_fract_z
Si Si1 0.912862 0.668127 0.542684
Si Si2 0.996215 0.826984 0.809798
Si Si3 0.599039 0.170464 0.812871
Si Si4 0.305661 0.831124 0.372283
Si Si5 0.817227 0.170926 0.532946
Si Si6 0.011666 0.331005 0.355816
Si Si7 0.055630 0.661432 0.012403
O O1 0.896460 0.500000 0.544363
O O2 0.858951 0.764640 0.571714
O O3 0.955742 0.711100 0.440745
O O4 0.938247 0.697684 0.616374
O O5 0.054743 0.763099 0.793007
O O6 0.979542 0.773150 0.729351
O O7 0.949327 0.774160 0.907237
O O8 0.998883 0.000000 0.810130
O O9 0.658371 0.204665 0.734531
O O10 0.583345 0.000000 0.813037
O O11 0.600357 0.211465 0.911696
O O12 0.243580 0.789246 0.394363
O O13 0.328743 0.738667 0.433704
O O14 0.310271 0.000000 0.395232
O O15 0.826658 0.000000 0.519740
O O16 0.010110 0.500000 0.328531
O O17 0.069491 0.500000 0.038719
O O18 0.000000 0.656054 0.000000
#
# Coordination Sequence:
#
# PCOD8084866 Si02
#       7
#     8   8   8   8   8   8   8
#     4   9  18  32  48  63  82 112 147 180 210 244
#     4  11  20  27  40  65  93 115 136 171 219 258
#     4   9  17  30  46  61  82 116 152 178 202 243
#     4   9  18  31  45  62  86 117 149 175 204 248
#     4  10  19  29  43  65  91 115 140 175 216 252
#     4   9  18  32  47  62  82 113 150 177 203 248
#     4   8  15  28  44  60  80 111 147 176 205 248
#
# _framework density 15.633201
#
# number of rings (size 3 to 8) (size 9 to 14) (size 15 to 20)
#    0.000    2.714    0.000    4.286    0.000    8.286 
#    0.000    1.429    0.000    0.000    0.000    1.000 
#    0.000    0.000    0.000    0.000    0.000    0.000 
#
# Total GULP energy -347139.350381 kJ/mol
# GULP energy per Si atom -12397.833942 kJ/mol
# Density = 1.559762 g / cm^3
# Si number density = 15.633201 Si / 1000 Ang^3
#
#
#
# Elastic Constant Matrix: (Units=GPa)
#
#
# Indices 1 2 3 4 5 6 
#
# 1 73.5489 39.7703 41.3226 0.0000 -1.6989 0.0000
# 2 39.7703 82.2214 53.2982 0.0000 3.1535 0.0000
# 3 41.3226 53.2982 122.8959 0.0000 -6.5311 0.0000
# 4 0.0000 0.0000 0.0000 16.9433 0.0000 1.8041
# 5 -1.6989 3.1535 -6.5311 0.0000 20.1561 0.0000
# 6 0.0000 0.0000 0.0000 1.8041 0.0000 24.0835
#
#
#
# Elastic Compliance Matrix: (Units=1/GPa)
#
#
# Indices 1 2 3 4 5 6 
#
# 1 0.019446 -0.007364 -0.003252 0.000000 0.001737 0.000000
# 2 -0.007364 0.020242 -0.006618 0.000000 -0.005932 0.000000
# 3 -0.003252 -0.006618 0.012354 0.000000 0.004764 0.000000
# 4 0.000000 0.000000 0.000000 0.059495 0.000000 -0.004457
# 5 0.001737 -0.005932 0.004764 0.000000 0.052231 0.000000
# 6 0.000000 0.000000 0.000000 -0.004457 0.000000 0.041856
#
#
# Mechanical properties :
#
#
# Convention : Reuss Voigt Hill
#
# Bulk Modulus (GPa) = 56.90640 60.82758 58.86699
# Shear Modulus (GPa) = 20.32940 21.85492 21.09216
#
# Velocity S-wave (km/s) = 3.61002 3.74302 3.67712
# Velocity P-wave (km/s) = 7.33869 7.59433 7.46760
#
# Compressibility (1/GPa) = 0.01757272
#
# Stress axis : x y z
#
# Youngs Moduli (GPa) = 51.42448 49.40330 80.94766
#
# Poissons Ratio (x) = 0.36382 0.26327
# Poissons Ratio (y) = 0.37871 0.53567
# Poissons Ratio (z) = 0.16725 0.32693
#
# Static dielectric constant tensor:
#      x y z
#    x 2.779030 0.000000 -0.140850 
#    y 0.000000 2.945040 0.000000 
#    z -0.140850 0.000000 3.249130 
# 
# 
# High freq. dielectric constant tensor:
#      x y z
#    x 1.567330 0.000000 -0.005120 
#    y 0.000000 1.599410 0.000000 
#    z -0.005120 0.000000 1.599250 
# 
# From -- ./inp_files/242986.got.cif
#   From: 2010.06.25/outbox.cif.g09.slc.cpg/sg12_122_cif.got.tgz:242986.got - 2010.06.28 00:19:55.
