data_PCOD8084451
_publ_section_title
;
Structure prediction by ZEFSAII (Michael W. Deem and Ramdas Pophale) SiO2 
 PCOD8084451
Probable space group: C 2/M
;
_chemical_formula_sum "Si O2"
_cell_formula_units_Z 64
_cell_length_a 16.144158
_cell_length_b 21.213549
_cell_length_c 23.816709
_cell_angle_alpha 90.000000
_cell_angle_beta 154.642139
_cell_angle_gamma 90.000000
_cell_volume 3493.242942
_symmetry_space_group_name_H-M "C 2/M"
_symmetry_group_IT_number 12
_symmetry_cell_setting 'monoclinic'
loop_
_space_group_symop_operation_xyz
x,y,z
-x,y,-z
-x,-y,-z
x,-y,z
1/2+x,1/2+y,z
1/2-x,1/2+y,-z
1/2-x,1/2-y,-z
1/2+x,1/2-y,z
loop_
_atom_site_type_symbol
_atom_site_label
_atom_site_fract_x
_atom_site_fract_y
_atom_site_fract_z
Si Si1 0.277138 0.714702 0.869869
Si Si2 0.419359 0.244355 0.368856
Si Si3 0.075289 0.426868 0.917132
Si Si4 0.173206 0.157715 0.857644
Si Si5 0.963924 0.352083 0.742055
Si Si6 0.297906 0.280873 0.657056
Si Si7 0.454732 0.617232 0.534329
Si Si8 0.776001 0.068989 0.215351
O O1 0.173129 0.733352 0.748163
O O2 0.273593 0.774128 0.910341
O O3 0.152862 0.656023 0.818133
O O4 0.500000 0.693182 0.000000
O O5 0.299246 0.205827 0.342219
O O6 0.642284 0.221450 0.510766
O O7 0.420908 0.318388 0.384079
O O8 0.139900 0.500000 0.953339
O O9 0.004875 0.404865 0.813373
O O10 0.911365 0.416187 0.862807
O O11 0.248099 0.380435 0.040777
O O12 0.208559 0.119928 0.822928
O O13 0.945311 0.164338 0.730150
O O14 0.914661 0.284034 0.737430
O O15 0.772855 0.375249 0.591762
O O16 0.500000 0.590545 0.500000
O O17 0.535731 0.568853 0.629637
O O18 0.759313 0.000000 0.177139
#
# Coordination Sequence:
#
# PCOD8084451 Si02
#       8
#     8   8   8   8   8   8   8   8
#     4  11  24  33  57  87 118 142 177 230 279 335
#     4  10  18  36  54  83 115 145 176 218 288 328
#     4  11  23  39  56  76 113 153 185 223 270 329
#     4  11  23  34  56  83 112 148 184 224 275 327
#     4  10  22  36  55  84 109 148 185 225 275 334
#     4   9  20  34  58  83 111 147 179 226 273 338
#     4  11  18  34  57  78 114 147 183 224 269 327
#     4  11  22  35  54  80 112 148 186 224 269 324
#
# _framework density 18.321085
#
# number of rings (size 3 to 8) (size 9 to 14) (size 15 to 20)
#    0.000    1.500    5.000    1.500    5.250    4.250 
#    0.000    0.000    0.000    0.375    0.000    7.000 
#    0.000    0.000    0.000    0.000    0.000    0.000 
#
# Total GULP energy -396712.243489 kJ/mol
# GULP energy per Si atom -12397.257609 kJ/mol
# Density = 1.827939 g / cm^3
# Si number density = 18.321085 Si / 1000 Ang^3
#
#
#
# Elastic Constant Matrix: (Units=GPa)
#
#
# Indices 1 2 3 4 5 6 
#
# 1 51.9394 17.4461 24.3770 -0.0200 11.9938 -0.0062
# 2 17.4461 48.3750 29.4442 0.0155 8.6956 -0.0046
# 3 24.3770 29.4442 102.4514 0.0773 13.6409 -0.0431
# 4 -0.0200 0.0155 0.0773 28.6122 0.0110 -2.6553
# 5 11.9938 8.6956 13.6409 0.0110 35.8344 -0.0128
# 6 -0.0062 -0.0046 -0.0431 -2.6553 -0.0128 23.8092
#
#
#
# Elastic Compliance Matrix: (Units=1/GPa)
#
#
# Indices 1 2 3 4 5 6 
#
# 1 0.023965 -0.005626 -0.003370 0.000031 -0.005373 0.000000
# 2 -0.005626 0.026803 -0.006056 -0.000002 -0.002316 -0.000009
# 3 -0.003370 -0.006056 0.012596 -0.000031 -0.002197 0.000016
# 4 0.000031 -0.000002 -0.000031 0.035316 -0.000008 0.003938
# 5 -0.005373 -0.002316 -0.002197 -0.000008 0.031103 0.000010
# 6 0.000000 -0.000009 0.000016 0.003938 0.000010 0.042440
#
#
# Mechanical properties :
#
#
# Convention : Reuss Voigt Hill
#
# Bulk Modulus (GPa) = 30.06608 38.36672 34.21640
# Shear Modulus (GPa) = 23.42866 26.41771 24.92319
#
# Velocity S-wave (km/s) = 3.57988 3.80139 3.69230
# Velocity P-wave (km/s) = 5.79083 6.34462 6.07404
#
# Compressibility (1/GPa) = 0.03326008
#
# Stress axis : x y z
#
# Youngs Moduli (GPa) = 41.72695 37.30886 79.39222
#
# Poissons Ratio (x) = 0.20989 0.26755
# Poissons Ratio (y) = 0.23475 0.48082
# Poissons Ratio (z) = 0.14062 0.22595
#
# Static dielectric constant tensor:
#      x y z
#    x 3.335240 0.000000 0.022490 
#    y 0.000000 3.176890 -0.000030 
#    z 0.022490 -0.000030 3.668830 
# 
# 
# High freq. dielectric constant tensor:
#      x y z
#    x 1.697820 0.000000 -0.005210 
#    y 0.000000 1.676590 0.000000 
#    z -0.005210 0.000000 1.724800 
# 
# From -- ./inp_files/218512.got.cif
#   From: 2010.06.25/outbox.cif.g09.slc.cpg/sg12_110_cif.got.tgz:218512.got - 2010.06.28 00:19:55.
