data_PCOD8084418
_publ_section_title
;
Structure prediction by ZEFSAII (Michael W. Deem and Ramdas Pophale) SiO2 
 PCOD8084418
Probable space group: C 2/M
;
_chemical_formula_sum "Si O2"
_cell_formula_units_Z 48
_cell_length_a 20.531212
_cell_length_b 8.771905
_cell_length_c 15.154232
_cell_angle_alpha 90.000000
_cell_angle_beta 111.435988
_cell_angle_gamma 90.000000
_cell_volume 2540.452939
_symmetry_space_group_name_H-M "C 2/M"
_symmetry_group_IT_number 12
_symmetry_cell_setting 'monoclinic'
loop_
_space_group_symop_operation_xyz
x,y,z
-x,y,-z
-x,-y,-z
x,-y,z
1/2+x,1/2+y,z
1/2-x,1/2+y,-z
1/2-x,1/2-y,-z
1/2+x,1/2-y,z
loop_
_atom_site_type_symbol
_atom_site_label
_atom_site_fract_x
_atom_site_fract_y
_atom_site_fract_z
Si Si1 0.074647 0.320258 0.758221
Si Si2 0.921523 0.680809 0.732814
Si Si3 0.326084 0.181109 0.038876
Si Si4 0.173782 0.179695 0.460289
Si Si5 0.079489 0.678549 0.560988
Si Si6 0.074670 0.680398 0.065581
O O1 0.070028 0.500000 0.767001
O O2 0.132200 0.256026 0.854793
O O3 0.096327 0.274845 0.669970
O O4 0.997845 0.255934 0.743168
O O5 0.916237 0.500000 0.715418
O O6 0.863805 0.762696 0.646057
O O7 0.906241 0.728979 0.825853
O O8 0.320877 0.000000 0.038474
O O9 0.250000 0.250000 0.000000
O O10 0.365734 0.240359 0.971036
O O11 0.250000 0.250000 0.500000
O O12 0.131469 0.227032 0.526163
O O13 0.180368 0.000000 0.460676
O O14 0.091526 0.500000 0.549333
O O15 0.000000 0.723443 0.500000
O O16 0.069122 0.500000 0.055533
O O17 0.000000 0.751152 0.000000
#
# Coordination Sequence:
#
# PCOD8084418 Si02
#       6
#     8   8   8   8   8   8
#     4   9  17  32  59  87 113 149 190 229 280 345
#     4  10  18  35  62  89 113 147 195 241 286 342
#     4  10  20  35  54  83 118 151 186 231 282 334
#     4  12  26  42  59  84 119 155 193 244 297 347
#     4  10  19  36  63  90 115 150 192 235 287 351
#     4   9  16  30  59  89 111 143 195 240 273 329
#
# _framework density 18.894268
#
# number of rings (size 3 to 8) (size 9 to 14) (size 15 to 20)
#    0.000    2.000    3.333    1.500    0.000    1.667 
#    0.000    5.833    0.000    1.000    0.000    0.000 
#    0.000    0.000    0.000    0.000    0.000    0.000 
#
# Total GULP energy -297611.151128 kJ/mol
# GULP energy per Si atom -12400.464630 kJ/mol
# Density = 1.885126 g / cm^3
# Si number density = 18.894268 Si / 1000 Ang^3
#
#
#
# Elastic Constant Matrix: (Units=GPa)
#
#
# Indices 1 2 3 4 5 6 
#
# 1 170.2567 49.2053 107.2942 0.0000 6.9541 0.0000
# 2 49.2053 59.3645 49.2313 0.0000 1.9884 0.0000
# 3 107.2942 49.2313 187.8605 0.0000 0.6855 0.0000
# 4 0.0000 0.0000 0.0000 19.5338 0.0000 3.9397
# 5 6.9541 1.9884 0.6855 0.0000 37.2257 0.0000
# 6 0.0000 0.0000 0.0000 3.9397 0.0000 29.6076
#
#
#
# Elastic Compliance Matrix: (Units=1/GPa)
#
#
# Indices 1 2 3 4 5 6 
#
# 1 0.010150 -0.004546 -0.004600 0.000000 -0.001569 0.000000
# 2 -0.004546 0.023599 -0.003587 0.000000 -0.000345 0.000000
# 3 -0.004600 -0.003587 0.008887 0.000000 0.000887 0.000000
# 4 0.000000 0.000000 0.000000 0.052605 0.000000 -0.007000
# 5 -0.001569 -0.000345 0.000887 0.000000 0.027158 0.000000
# 6 0.000000 0.000000 0.000000 -0.007000 0.000000 0.034707
#
#
# Mechanical properties :
#
#
# Convention : Reuss Voigt Hill
#
# Bulk Modulus (GPa) = 58.23827 92.10482 75.17155
# Shear Modulus (GPa) = 26.55392 31.39015 28.97203
#
# Velocity S-wave (km/s) = 3.75293 4.08040 3.92008
# Velocity P-wave (km/s) = 7.04766 8.42929 7.76924
#
# Compressibility (1/GPa) = 0.01717084
#
# Stress axis : x y z
#
# Youngs Moduli (GPa) = 98.51898 42.37440 112.52086
#
# Poissons Ratio (x) = 0.19262 0.51762
# Poissons Ratio (y) = 0.44784 0.40361
# Poissons Ratio (z) = 0.45321 0.15200
#
# Static dielectric constant tensor:
#      x y z
#    x 3.432060 0.000000 -0.105650 
#    y 0.000000 3.039630 0.000000 
#    z -0.105650 0.000000 3.656020 
# 
# 
# High freq. dielectric constant tensor:
#      x y z
#    x 1.739620 0.000000 -0.005080 
#    y 0.000000 1.690420 0.000000 
#    z -0.005080 0.000000 1.754300 
# 
# From -- ./inp_files/230379.got.cif
#   From: 2010.06.25/outbox.cif.g09.slc.cpg/sg12_116_cif.got.tgz:230379.got - 2010.06.28 00:19:55.
