data_PCOD8084624
_publ_section_title
;
Structure prediction by ZEFSAII (Michael W. Deem and Ramdas Pophale) SiO2 
 PCOD8084624
Probable space group: C 2/M
;
_chemical_formula_sum "Si O2"
_cell_formula_units_Z 28
_cell_length_a 8.617296
_cell_length_b 12.074971
_cell_length_c 18.821059
_cell_angle_alpha 90.000000
_cell_angle_beta 41.634105
_cell_angle_gamma 90.000000
_cell_volume 1301.103883
_symmetry_space_group_name_H-M "C 2/M"
_symmetry_group_IT_number 12
_symmetry_cell_setting 'monoclinic'
loop_
_space_group_symop_operation_xyz
x,y,z
-x,y,-z
-x,-y,-z
x,-y,z
1/2+x,1/2+y,z
1/2-x,1/2+y,-z
1/2-x,1/2-y,-z
1/2+x,1/2-y,z
loop_
_atom_site_type_symbol
_atom_site_label
_atom_site_fract_x
_atom_site_fract_y
_atom_site_fract_z
Si Si1 0.119041 0.121700 0.701732
Si Si2 0.182610 0.500000 0.874821
Si Si3 0.859334 0.000000 0.475757
Si Si4 0.356729 0.000000 0.266595
Si Si5 0.957072 0.331377 0.352140
O O1 0.125140 0.205460 0.632888
O O2 0.276608 0.166367 0.712428
O O3 0.853085 0.108073 0.821935
O O4 0.217901 0.000000 0.641088
O O5 0.039287 0.500000 0.848725
O O6 0.000000 0.500000 0.000000
O O7 0.701719 0.111454 0.532284
O O8 0.000000 0.000000 0.500000
O O9 0.072278 0.000000 0.345668
O O10 0.437857 0.107204 0.282685
#
# Coordination Sequence:
#
# PCOD8084624 Si02
#       5
#     8   4   4   4   8
#     4  10  21  38  63  91 125 160 210 248 301 365
#     4  10  22  42  62  90 123 156 212 260 306 362
#     4   8  17  35  61  91 127 163 205 238 305 370
#     4  10  19  39  65  89 125 171 200 258 303 358
#     4  10  18  39  63  91 129 163 198 251 304 371
#
# _framework density 21.520188000000001
#
# number of rings (size 3 to 8) (size 9 to 14) (size 15 to 20)
#    0.857    1.714    2.857    1.714    0.000    0.000 
#    0.000   34.286    0.000    0.000    0.000    0.000 
#    0.000    0.000    0.000    0.000    0.000    0.000 
#
# Total GULP energy -173442.498764 kJ/mol
# GULP energy per Si atom -12388.749912 kJ/mol
# Density = 2.147121 g / cm^3
# Si number density = 21.520188 Si / 1000 Ang^3
#
#
#
# Elastic Constant Matrix: (Units=GPa)
#
#
# Indices 1 2 3 4 5 6 
#
# 1 136.0425 53.9282 33.5133 0.0002 4.3128 -0.0005
# 2 53.9282 151.9239 43.3348 0.0006 4.4726 -0.0012
# 3 33.5133 43.3348 115.5482 0.0000 7.3921 -0.0001
# 4 0.0002 0.0006 0.0000 4.6191 -0.0002 -3.1665
# 5 4.3128 4.4726 7.3921 -0.0002 25.1441 0.0006
# 6 -0.0005 -0.0012 -0.0001 -3.1665 0.0006 37.9990
#
#
#
# Elastic Compliance Matrix: (Units=1/GPa)
#
#
# Indices 1 2 3 4 5 6 
#
# 1 0.008803 -0.002676 -0.001512 0.000000 -0.000589 0.000000
# 2 -0.002676 0.008191 -0.002275 -0.000001 -0.000329 0.000000
# 3 -0.001512 -0.002275 0.010093 0.000000 -0.002303 0.000000
# 4 0.000000 -0.000001 0.000000 0.229606 0.000002 0.019133
# 5 -0.000589 -0.000329 -0.002303 0.000002 0.040608 -0.000001
# 6 0.000000 0.000000 0.000000 0.019133 -0.000001 0.027911
#
#
# Mechanical properties :
#
#
# Convention : Reuss Voigt Hill
#
# Bulk Modulus (GPa) = 70.61291 73.89634 72.25462
# Shear Modulus (GPa) = 14.58335 31.73500 23.15917
#
# Velocity S-wave (km/s) = 2.60601 3.84430 3.28405
# Velocity P-wave (km/s) = 6.47601 7.35646 6.93023
#
# Compressibility (1/GPa) = 0.01416172
#
# Stress axis : x y z
#
# Youngs Moduli (GPa) = 113.60348 122.09036 99.07592
#
# Poissons Ratio (x) = 0.32672 0.14978
# Poissons Ratio (y) = 0.30401 0.22536
# Poissons Ratio (z) = 0.17174 0.27770
#
# Static dielectric constant tensor:
#      x y z
#    x 4.155850 0.000000 -0.077420 
#    y 0.000000 4.008240 0.000000 
#    z -0.077420 0.000000 4.245900 
# 
# 
# High freq. dielectric constant tensor:
#      x y z
#    x 1.877510 0.000000 0.015380 
#    y 0.000000 1.850070 0.000000 
#    z 0.015380 0.000000 1.777650 
# 
# From -- ./inp_files/254861.got.cif
#   From: 2010.06.25/outbox.cif.g09.slc.cpg/sg12_128_cif.got.tgz:254861.got - 2010.06.28 00:19:55.
