data_PCOD8084679
_publ_section_title
;
Structure prediction by ZEFSAII (Michael W. Deem and Ramdas Pophale) SiO2 
 PCOD8084679
Probable space group: C 2/M
;
_chemical_formula_sum "Si O2"
_cell_formula_units_Z 48
_cell_length_a 27.355988
_cell_length_b 9.060176
_cell_length_c 23.688160
_cell_angle_alpha 90.000000
_cell_angle_beta 149.139949
_cell_angle_gamma 90.000000
_cell_volume 3011.544924
_symmetry_space_group_name_H-M "C 2/M"
_symmetry_group_IT_number 12
_symmetry_cell_setting 'monoclinic'
loop_
_space_group_symop_operation_xyz
x,y,z
-x,y,-z
-x,-y,-z
x,-y,z
1/2+x,1/2+y,z
1/2-x,1/2+y,-z
1/2-x,1/2-y,-z
1/2+x,1/2-y,z
loop_
_atom_site_type_symbol
_atom_site_label
_atom_site_fract_x
_atom_site_fract_y
_atom_site_fract_z
Si Si1 0.856401 0.674980 0.334356
Si Si2 0.844649 0.827147 0.657761
Si Si3 0.461392 0.825424 0.550110
Si Si4 0.645970 0.675808 0.121559
Si Si5 0.965587 0.825144 0.880502
Si Si6 0.148296 0.172886 0.463783
O O1 0.853920 0.500000 0.332720
O O2 0.889880 0.726772 0.429598
O O3 0.751930 0.741918 0.216905
O O4 0.931688 0.724968 0.361214
O O5 0.929031 0.771835 0.783014
O O6 0.876510 0.790065 0.625825
O O7 0.749176 0.742604 0.580511
O O8 0.823514 0.000000 0.644669
O O9 0.435187 0.742835 0.581663
O O10 0.455299 0.000000 0.554013
O O11 0.651667 0.500000 0.127208
O O12 0.606344 0.732720 0.142455
O O13 0.573443 0.731463 0.000366
O O14 0.966861 0.000000 0.884424
O O15 0.153611 0.000000 0.480055
#
# Coordination Sequence:
#
# PCOD8084679 Si02
#       6
#     8   8   8   8   8   8
#     4   8  14  24  40  62  84 106 133 165 200 238
#     4   9  17  29  43  59  81 108 135 163 199 241
#     4   9  16  27  43  61  82 108 135 164 200 238
#     4   8  12  19  35  62  87 100 122 164 205 236
#     4   8  13  21  37  61  84 103 124 160 206 239
#     4  10  19  28  40  60  83 107 135 166 200 238
#
# _framework density 15.938663999999999
#
# number of rings (size 3 to 8) (size 9 to 14) (size 15 to 20)
#    0.000    3.333    0.000    3.500    0.000    3.333 
#    0.000    1.667    0.000    1.000    0.000   10.500 
#    0.000    0.000    0.000    0.000    0.000    0.500 
#
# Total GULP energy -297409.717382 kJ/mol
# GULP energy per Si atom -12392.071558 kJ/mol
# Density = 1.590239 g / cm^3
# Si number density = 15.938664 Si / 1000 Ang^3
#
#
#
# Elastic Constant Matrix: (Units=GPa)
#
#
# Indices 1 2 3 4 5 6 
#
# 1 113.8241 25.9927 75.3854 0.0000 8.2069 0.0000
# 2 25.9927 23.7789 19.6006 0.0000 0.5553 0.0000
# 3 75.3854 19.6006 155.0509 0.0000 7.5433 0.0000
# 4 0.0000 0.0000 0.0000 9.6840 0.0000 -0.5007
# 5 8.2069 0.5553 7.5433 0.0000 27.0764 0.0000
# 6 0.0000 0.0000 0.0000 -0.5007 0.0000 21.8447
#
#
#
# Elastic Compliance Matrix: (Units=1/GPa)
#
#
# Indices 1 2 3 4 5 6 
#
# 1 0.015731 -0.012211 -0.005966 0.000000 -0.002856 0.000000
# 2 -0.012211 0.056438 -0.001339 0.000000 0.002917 0.000000
# 3 -0.005966 -0.001339 0.009560 0.000000 -0.000828 0.000000
# 4 0.000000 0.000000 0.000000 0.103385 0.000000 0.002370
# 5 -0.002856 0.002917 -0.000828 0.000000 0.037969 0.000000
# 6 0.000000 0.000000 0.000000 0.002370 0.000000 0.045832
#
#
# Mechanical properties :
#
#
# Convention : Reuss Voigt Hill
#
# Bulk Modulus (GPa) = 23.42142 59.40126 41.41134
# Shear Modulus (GPa) = 15.51924 23.16602 19.34263
#
# Velocity S-wave (km/s) = 3.12378 3.81655 3.48741
# Velocity P-wave (km/s) = 5.26662 7.53465 6.50032
#
# Compressibility (1/GPa) = 0.04269596
#
# Stress axis : x y z
#
# Youngs Moduli (GPa) = 63.56827 17.71842 104.60668
#
# Poissons Ratio (x) = 0.21637 0.62406
# Poissons Ratio (y) = 0.77626 0.14010
# Poissons Ratio (z) = 0.37924 0.02373
#
# Static dielectric constant tensor:
#      x y z
#    x 3.055210 0.000000 0.067050 
#    y 0.000000 2.579650 0.000000 
#    z 0.067050 0.000000 3.462830 
# 
# 
# High freq. dielectric constant tensor:
#      x y z
#    x 1.603840 0.000000 0.001630 
#    y 0.000000 1.565110 0.000000 
#    z 0.001630 0.000000 1.611180 
# 
# From -- ./inp_files/323500.got.cif
#   From: 2010.06.25/outbox.cif.g09.slc.cpg/sg12_162_cif.got.tgz:323500.got - 2010.06.28 00:19:55.
