data_PCOD8084032
_publ_section_title
;
Structure prediction by ZEFSAII (Michael W. Deem and Ramdas Pophale) SiO2 
 PCOD8084032
Probable space group: C 2/M
;
_chemical_formula_sum "Si O2"
_cell_formula_units_Z 56
_cell_length_a 21.924589
_cell_length_b 21.825764
_cell_length_c 9.757856
_cell_angle_alpha 90.000000
_cell_angle_beta 40.899589
_cell_angle_gamma 90.000000
_cell_volume 3057.180902
_symmetry_space_group_name_H-M "C 2/M"
_symmetry_group_IT_number 12
_symmetry_cell_setting 'monoclinic'
loop_
_space_group_symop_operation_xyz
x,y,z
-x,y,-z
-x,-y,-z
x,-y,z
1/2+x,1/2+y,z
1/2-x,1/2+y,-z
1/2-x,1/2-y,-z
1/2+x,1/2-y,z
loop_
_atom_site_type_symbol
_atom_site_label
_atom_site_fract_x
_atom_site_fract_y
_atom_site_fract_z
Si Si1 0.931491 0.151643 0.240840
Si Si2 0.721192 0.891489 0.837369
Si Si3 0.350353 0.000000 0.210553
Si Si4 0.265775 0.819648 0.436650
Si Si5 0.575364 0.572372 0.486515
Si Si6 0.037619 0.500000 0.724847
Si Si7 0.049587 0.291833 0.771484
Si Si8 0.530749 0.117373 0.296271
O O1 0.825524 0.140948 0.365912
O O2 0.956160 0.104558 0.319278
O O3 0.935044 0.220887 0.294965
O O4 0.000000 0.139009 0.000000
O O5 0.718628 0.827854 0.755435
O O6 0.822055 0.903605 0.734816
O O7 0.706186 0.940516 0.740261
O O8 0.641786 0.896345 0.089758
O O9 0.367323 0.000000 0.346312
O O10 0.450491 0.000000 0.972074
O O11 0.250000 0.750000 0.500000
O O12 0.358095 0.834775 0.368248
O O13 0.500000 0.590554 0.500000
O O14 0.577854 0.500000 0.506276
O O15 0.032890 0.559945 0.638104
O O16 0.986898 0.322557 0.763220
O O17 0.000000 0.293826 0.000000
O O18 0.500000 0.134856 0.500000
#
# Coordination Sequence:
#
# PCOD8084032 Si02
#       8
#     8   8   4   8   8   4   8   8
#     4   9  20  36  58  85 112 139 186 248 286 320
#     4  10  18  34  56  81 111 142 190 228 273 339
#     4   9  16  28  55  80  98 141 182 228 260 322
#     4   9  17  31  56  81 106 142 185 230 275 320
#     4  10  21  39  62  80 106 151 194 234 285 338
#     4   9  19  30  48  78 113 146 184 215 268 325
#     4  10  18  34  58  83 113 151 187 225 276 344
#     4  11  22  34  52  81 123 155 178 221 279 343
#
# _framework density 18.317527999999999
#
# number of rings (size 3 to 8) (size 9 to 14) (size 15 to 20)
#    0.000    2.286    2.143    1.071    2.000    0.857 
#    2.571    0.000    0.000    3.429    0.000    0.000 
#    0.000    0.000    0.000    0.000    0.000    0.000 
#
# Total GULP energy -346959.752148 kJ/mol
# GULP energy per Si atom -12391.419720 kJ/mol
# Density = 1.827584 g / cm^3
# Si number density = 18.317528 Si / 1000 Ang^3
#
#
#
# Elastic Constant Matrix: (Units=GPa)
#
#
# Indices 1 2 3 4 5 6 
#
# 1 115.8318 38.4899 46.7696 0.0000 -11.0796 0.0000
# 2 38.4899 75.1680 31.6643 0.0000 7.5949 0.0000
# 3 46.7696 31.6643 105.6262 0.0000 -3.3028 0.0000
# 4 0.0000 0.0000 0.0000 -9.0291 0.0000 -21.8888
# 5 -11.0796 7.5949 -3.3028 0.0000 27.8511 0.0000
# 6 0.0000 0.0000 0.0000 -21.8888 0.0000 13.9733
#
#
#
# Elastic Compliance Matrix: (Units=1/GPa)
#
#
# Indices 1 2 3 4 5 6 
#
# 1 0.012525 -0.005455 -0.003722 0.000000 0.006029 0.000000
# 2 -0.005455 0.018244 -0.003289 0.000000 -0.007535 0.000000
# 3 -0.003722 -0.003289 0.012128 0.000000 0.000854 0.000000
# 4 0.000000 0.000000 0.000000 -0.023085 0.000000 -0.036163
# 5 0.006029 -0.007535 0.000854 0.000000 0.040460 0.000000
# 6 0.000000 0.000000 0.000000 -0.036163 0.000000 0.014917
#
#
# Mechanical properties :
#
#
# Convention : Reuss Voigt Hill
#
# Bulk Modulus (GPa) = 55.66543 58.94151 57.30347
# Shear Modulus (GPa) = 47.12091 18.53919 32.83005
#
# Velocity S-wave (km/s) = 5.07743 3.18481 4.23812
# Velocity P-wave (km/s) = 8.05164 6.76546 7.43641
#
# Compressibility (1/GPa) = 0.01796447
#
# Stress axis : x y z
#
# Youngs Moduli (GPa) = 79.83748 54.81356 82.45172
#
# Poissons Ratio (x) = 0.29900 0.30691
# Poissons Ratio (y) = 0.43550 0.27121
# Poissons Ratio (z) = 0.29718 0.18030
#
# Static dielectric constant tensor:
#      x y z
#    x 3.807600 0.000000 -0.393290 
#    y 0.000000 3.561140 0.000000 
#    z -0.393290 0.000000 3.301910 
# 
# 
# High freq. dielectric constant tensor:
#      x y z
#    x 1.704080 0.000000 -0.023190 
#    y 0.000000 1.709470 0.000000 
#    z -0.023190 0.000000 1.693470 
# 
# From -- ./inp_files/90360.got.cif
#   From: 2010.06.25/outbox.cif.g09.slc.cpg/sg12_46_cif.got.tgz:90360.got - 2010.06.28 00:19:55.
