data_PCOD8084351
_publ_section_title
;
Structure prediction by ZEFSAII (Michael W. Deem and Ramdas Pophale) SiO2 
 PCOD8084351
Probable space group: C 2/M
;
_chemical_formula_sum "Si O2"
_cell_formula_units_Z 56
_cell_length_a 11.702088
_cell_length_b 28.686132
_cell_length_c 9.109871
_cell_angle_alpha 90.000000
_cell_angle_beta 113.822048
_cell_angle_gamma 90.000000
_cell_volume 2797.536634
_symmetry_space_group_name_H-M "C 2/M"
_symmetry_group_IT_number 12
_symmetry_cell_setting 'monoclinic'
loop_
_space_group_symop_operation_xyz
x,y,z
-x,y,-z
-x,-y,-z
x,-y,z
1/2+x,1/2+y,z
1/2-x,1/2+y,-z
1/2-x,1/2-y,-z
1/2+x,1/2-y,z
loop_
_atom_site_type_symbol
_atom_site_label
_atom_site_fract_x
_atom_site_fract_y
_atom_site_fract_z
Si Si1 0.907491 0.158192 0.704928
Si Si2 0.234171 0.664871 0.352236
Si Si3 0.759754 0.897700 0.864764
Si Si4 0.463083 0.833048 0.314001
Si Si5 0.422007 0.730027 0.310506
Si Si6 0.551364 0.500000 0.782941
Si Si7 0.370558 0.403525 0.244460
Si Si8 0.682404 0.500000 0.162874
O O1 0.786455 0.170815 0.544363
O O2 0.860495 0.132975 0.826896
O O3 0.992186 0.205199 0.771669
O O4 0.999786 0.123801 0.665184
O O5 0.290807 0.703379 0.268972
O O6 0.270078 0.613580 0.311477
O O7 0.085879 0.669326 0.277030
O O8 0.624281 0.874135 0.790141
O O9 0.741135 0.950941 0.795109
O O10 0.813888 0.896508 0.054481
O O11 0.500000 0.843486 0.500000
O O12 0.392392 0.783556 0.256706
O O13 0.500000 0.727045 0.500000
O O14 0.598295 0.457087 0.710531
O O15 0.402773 0.500000 0.734643
O O16 0.605928 0.500000 0.973862
#
# Coordination Sequence:
#
# PCOD8084351 Si02
#       8
#     8   8   8   8   8   4   8   4
#     4  10  18  35  59  84 113 144 182 236 280 326
#     4  10  21  38  55  81 121 144 186 231 278 340
#     4  11  21  35  61  84 113 150 190 231 280 336
#     4  11  22  36  59  83 111 155 193 224 278 341
#     4   8  19  33  57  85 107 149 190 235 270 328
#     4   9  16  32  59  84 108 144 187 236 282 325
#     4  10  20  36  58  85 112 143 186 236 287 326
#     4   9  18  34  55  87 114 141 193 235 268 344
#
# _framework density 20.017610999999999
#
# number of rings (size 3 to 8) (size 9 to 14) (size 15 to 20)
#    0.000    2.143    2.857    1.714    2.000    2.286 
#    0.000    6.071    6.286    2.571    0.000    0.000 
#    0.000    0.000    0.000    0.000    0.000    0.000 
#
# Total GULP energy -347046.109762 kJ/mol
# GULP energy per Si atom -12394.503920 kJ/mol
# Density = 1.997205 g / cm^3
# Si number density = 20.017611 Si / 1000 Ang^3
#
#
#
# Elastic Constant Matrix: (Units=GPa)
#
#
# Indices 1 2 3 4 5 6 
#
# 1 120.7477 48.7610 10.3093 0.0000 12.9087 0.0000
# 2 48.7610 142.0040 14.5554 0.0000 15.9604 0.0000
# 3 10.3093 14.5554 21.0352 0.0000 5.0720 0.0000
# 4 0.0000 0.0000 0.0000 22.8460 0.0000 4.1355
# 5 12.9087 15.9604 5.0720 0.0000 22.4965 0.0000
# 6 0.0000 0.0000 0.0000 4.1355 0.0000 21.4706
#
#
#
# Elastic Compliance Matrix: (Units=1/GPa)
#
#
# Indices 1 2 3 4 5 6 
#
# 1 0.009954 -0.002837 -0.002140 0.000000 -0.003216 0.000000
# 2 -0.002837 0.008831 -0.003809 0.000000 -0.003779 0.000000
# 3 -0.002140 -0.003809 0.053166 0.000000 -0.008056 0.000000
# 4 0.000000 0.000000 0.000000 0.045353 0.000000 -0.008735
# 5 -0.003216 -0.003779 -0.008056 0.000000 0.050794 0.000000
# 6 0.000000 0.000000 0.000000 -0.008735 0.000000 0.048258
#
#
# Mechanical properties :
#
#
# Convention : Reuss Voigt Hill
#
# Bulk Modulus (GPa) = 18.38932 47.89316 33.14124
# Shear Modulus (GPa) = 19.83691 27.37336 23.60513
#
# Velocity S-wave (km/s) = 3.15139 3.70194 3.43770
# Velocity P-wave (km/s) = 4.73795 6.49999 5.68762
#
# Compressibility (1/GPa) = 0.05437939
#
# Stress axis : x y z
#
# Youngs Moduli (GPa) = 100.46220 113.23190 18.80887
#
# Poissons Ratio (x) = 0.32126 0.04025
# Poissons Ratio (y) = 0.28503 0.07165
# Poissons Ratio (z) = 0.21496 0.43134
#
# Static dielectric constant tensor:
#      x y z
#    x 3.615390 0.000000 -0.043460 
#    y 0.000000 4.029030 0.000000 
#    z -0.043460 0.000000 3.239900 
# 
# 
# High freq. dielectric constant tensor:
#      x y z
#    x 1.773710 0.000000 -0.005830 
#    y 0.000000 1.788800 0.000000 
#    z -0.005830 0.000000 1.745440 
# 
# From -- ./inp_files/54657.got.cif
#   From: 2010.06.25/outbox.cif.g09.slc.cpg/sg12_28_cif.got.tgz:54657.got - 2010.06.28 00:19:55.
