data_PCOD8084119
_publ_section_title
;
Structure prediction by ZEFSAII (Michael W. Deem and Ramdas Pophale) SiO2 
 PCOD8084119
Probable space group: C 2/M
;
_chemical_formula_sum "Si O2"
_cell_formula_units_Z 44
_cell_length_a 8.347300
_cell_length_b 27.183384
_cell_length_c 12.060220
_cell_angle_alpha 90.000000
_cell_angle_beta 130.335704
_cell_angle_gamma 90.000000
_cell_volume 2085.983302
_symmetry_space_group_name_H-M "C 2/M"
_symmetry_group_IT_number 12
_symmetry_cell_setting 'monoclinic'
loop_
_space_group_symop_operation_xyz
x,y,z
-x,y,-z
-x,-y,-z
x,-y,z
1/2+x,1/2+y,z
1/2-x,1/2+y,-z
1/2-x,1/2-y,-z
1/2+x,1/2-y,z
loop_
_atom_site_type_symbol
_atom_site_label
_atom_site_fract_x
_atom_site_fract_y
_atom_site_fract_z
Si Si1 0.107083 0.125220 0.847720
Si Si2 0.652231 0.109322 0.661444
Si Si3 0.928781 0.713834 0.280407
Si Si4 0.344319 0.312481 0.340288
Si Si5 0.755615 0.944629 0.922247
Si Si6 0.000000 0.196532 0.000000
O O1 0.202281 0.150409 0.781576
O O2 0.884671 0.100256 0.716698
O O3 0.268849 0.085068 0.972243
O O4 0.053127 0.163824 0.918540
O O5 0.500000 0.086764 0.500000
O O6 0.602547 0.167287 0.653586
O O7 0.620691 0.081599 0.764913
O O8 0.979846 0.764007 0.368077
O O9 0.710627 0.727579 0.118332
O O10 0.115983 0.702754 0.280300
O O11 0.500000 0.338338 0.500000
O O12 0.672218 0.000000 0.900855
O O13 0.000000 0.943605 0.000000
#
# Coordination Sequence:
#
# PCOD8084119 Si02
#       6
#     8   8   8   8   8   4
#     4  10  19  38  58  81 120 151 197 242 284 352
#     4  10  18  34  58  85 120 154 192 242 289 342
#     4  11  22  38  58  83 120 155 198 242 286 348
#     4  12  25  38  58  86 118 160 200 239 295 346
#     4   9  17  34  59  86 113 149 194 241 297 348
#     4  10  20  40  57  90 112 156 197 242 288 336
#
# _framework density 21.093169
#
# number of rings (size 3 to 8) (size 9 to 14) (size 15 to 20)
#    0.000    1.636    4.545    4.364    0.000    4.000 
#    0.000    0.000    0.000    2.727    0.000    0.000 
#    0.000    0.000    0.000    0.000    0.000    0.000 
#
# Total GULP energy -272692.953393 kJ/mol
# GULP energy per Si atom -12395.134245 kJ/mol
# Density = 2.104516 g / cm^3
# Si number density = 21.093169 Si / 1000 Ang^3
#
#
#
# Elastic Constant Matrix: (Units=GPa)
#
#
# Indices 1 2 3 4 5 6 
#
# 1 84.0463 12.2402 37.8916 0.0000 -4.0628 0.0000
# 2 12.2402 103.5799 47.7415 0.0000 -17.6501 0.0000
# 3 37.8916 47.7415 155.7662 0.0000 -13.2446 0.0000
# 4 0.0000 0.0000 0.0000 16.0385 0.0000 -2.0371
# 5 -4.0628 -17.6501 -13.2446 0.0000 22.5361 0.0000
# 6 0.0000 0.0000 0.0000 -2.0371 0.0000 18.0862
#
#
#
# Elastic Compliance Matrix: (Units=1/GPa)
#
#
# Indices 1 2 3 4 5 6 
#
# 1 0.013370 -0.000015 -0.003204 0.000000 0.000515 0.000000
# 2 -0.000015 0.012450 -0.003140 0.000000 0.007903 0.000000
# 3 -0.003204 -0.003140 0.008319 0.000000 0.001852 0.000000
# 4 0.000000 0.000000 0.000000 0.063255 0.000000 0.007125
# 5 0.000515 0.007903 0.001852 0.000000 0.051744 0.000000
# 6 0.000000 0.000000 0.000000 0.007125 0.000000 0.056093
#
#
# Mechanical properties :
#
#
# Convention : Reuss Voigt Hill
#
# Bulk Modulus (GPa) = 46.68474 59.90433 53.29454
# Shear Modulus (GPa) = 22.21334 27.70011 24.95673
#
# Velocity S-wave (km/s) = 3.24868 3.62778 3.44345
# Velocity P-wave (km/s) = 6.02101 6.78301 6.41334
#
# Compressibility (1/GPa) = 0.02142028
#
# Stress axis : x y z
#
# Youngs Moduli (GPa) = 74.79573 80.32003 120.20418
#
# Poissons Ratio (x) = 0.00124 0.38511
# Poissons Ratio (y) = 0.00116 0.37747
# Poissons Ratio (z) = 0.23963 0.25222
#
# Static dielectric constant tensor:
#      x y z
#    x 3.286080 0.000000 -0.011240 
#    y 0.000000 3.794070 0.000000 
#    z -0.011240 0.000000 4.133470 
# 
# 
# High freq. dielectric constant tensor:
#      x y z
#    x 1.799000 0.000000 -0.001710 
#    y 0.000000 1.793690 0.000000 
#    z -0.001710 0.000000 1.842750 
# 
# From -- ./inp_files/41634.got.cif
#   From: 2010.06.25/outbox.cif.g09.slc.cpg/sg12_21_cif.got.tgz:41634.got - 2010.06.28 00:19:55.
