data_PCOD8084868
_publ_section_title
;
Structure prediction by ZEFSAII (Michael W. Deem and Ramdas Pophale) SiO2 
 PCOD8084868
Probable space group: C 2/M
;
_chemical_formula_sum "Si O2"
_cell_formula_units_Z 56
_cell_length_a 27.658386
_cell_length_b 9.159617
_cell_length_c 14.514323
_cell_angle_alpha 90.000000
_cell_angle_beta 105.452042
_cell_angle_gamma 90.000000
_cell_volume 3544.150011
_symmetry_space_group_name_H-M "C 2/M"
_symmetry_group_IT_number 12
_symmetry_cell_setting 'monoclinic'
loop_
_space_group_symop_operation_xyz
x,y,z
-x,y,-z
-x,-y,-z
x,-y,z
1/2+x,1/2+y,z
1/2-x,1/2+y,-z
1/2-x,1/2-y,-z
1/2+x,1/2-y,z
loop_
_atom_site_type_symbol
_atom_site_label
_atom_site_fract_x
_atom_site_fract_y
_atom_site_fract_z
Si Si1 0.882879 0.829750 0.211354
Si Si2 0.070484 0.672145 0.609299
Si Si3 0.545764 0.834637 0.882596
Si Si4 0.197314 0.828237 0.979332
Si Si5 0.374688 0.167168 0.924003
Si Si6 0.064560 0.672183 0.211461
Si Si7 0.541067 0.173219 0.397924
O O1 0.884569 0.750247 0.311628
O O2 0.929889 0.775409 0.176892
O O3 0.832113 0.791104 0.130060
O O4 0.887714 0.000000 0.230633
O O5 0.078372 0.500000 0.620517
O O6 0.072452 0.725073 0.503448
O O7 0.016917 0.722074 0.624126
O O8 0.488054 0.787504 0.864079
O O9 0.549728 0.000000 0.844569
O O10 0.573226 0.824411 0.994025
O O11 0.204616 0.000000 0.996155
O O12 0.250000 0.750000 0.000000
O O13 0.167746 0.768346 0.053282
O O14 0.389263 0.228073 0.829161
O O15 0.354865 0.000000 0.911758
O O16 0.070229 0.500000 0.219344
O O17 0.065881 0.737314 0.316490
O O18 0.541323 0.000000 0.395773
#
# Coordination Sequence:
#
# PCOD8084868 Si02
#       7
#     8   8   8   8   8   8   8
#     4  10  19  29  43  65  91 116 144 183 229 268
#     4   9  15  26  43  62  86 121 160 190 215 248
#     4   9  15  25  41  61  87 121 156 182 205 247
#     4  10  21  36  51  67  88 112 142 183 229 275
#     4   9  17  27  44  68  90 115 148 182 219 262
#     4   9  14  23  41  65  91 120 154 186 210 243
#     4   8  14  23  40  64  89 120 159 193 212 236
#
# _framework density 15.800686000000001
#
# number of rings (size 3 to 8) (size 9 to 14) (size 15 to 20)
#    0.000    2.857    1.429    2.143    0.000    3.429 
#    0.000    2.143    0.000    3.429    0.000    1.000 
#    0.000    0.000    0.000    0.000    0.000    0.000 
#
# Total GULP energy -346948.678055 kJ/mol
# GULP energy per Si atom -12391.024216 kJ/mol
# Density = 1.576472 g / cm^3
# Si number density = 15.800686 Si / 1000 Ang^3
#
#
#
# Elastic Constant Matrix: (Units=GPa)
#
#
# Indices 1 2 3 4 5 6 
#
# 1 93.6778 39.5536 61.8440 0.0000 -7.4613 0.0000
# 2 39.5536 51.0268 41.7078 0.0000 1.1758 0.0000
# 3 61.8440 41.7078 116.3693 0.0000 -14.4523 0.0000
# 4 0.0000 0.0000 0.0000 18.1417 0.0000 2.6451
# 5 -7.4613 1.1758 -14.4523 0.0000 17.9876 0.0000
# 6 0.0000 0.0000 0.0000 2.6451 0.0000 16.1833
#
#
#
# Elastic Compliance Matrix: (Units=1/GPa)
#
#
# Indices 1 2 3 4 5 6 
#
# 1 0.019270 -0.009928 -0.006231 0.000000 0.003636 0.000000
# 2 -0.009928 0.034891 -0.008913 0.000000 -0.013560 0.000000
# 3 -0.006231 -0.008913 0.016497 0.000000 0.011253 0.000000
# 4 0.000000 0.000000 0.000000 0.056467 0.000000 -0.009229
# 5 0.003636 -0.013560 0.011253 0.000000 0.067029 0.000000
# 6 0.000000 0.000000 0.000000 -0.009229 0.000000 0.063301
#
#
# Mechanical properties :
#
#
# Convention : Reuss Voigt Hill
#
# Bulk Modulus (GPa) = 48.74849 60.80941 54.77895
# Shear Modulus (GPa) = 15.90142 18.32709 17.11425
#
# Velocity S-wave (km/s) = 3.17578 3.40941 3.29467
# Velocity P-wave (km/s) = 6.66082 7.35307 7.01549
#
# Compressibility (1/GPa) = 0.02051346
#
# Stress axis : x y z
#
# Youngs Moduli (GPa) = 51.89423 28.66069 60.61716
#
# Poissons Ratio (x) = 0.28454 0.37772
# Poissons Ratio (y) = 0.51519 0.54030
# Poissons Ratio (z) = 0.32336 0.25546
#
# Static dielectric constant tensor:
#      x y z
#    x 2.784690 0.000000 -0.199640 
#    y 0.000000 2.788520 0.000000 
#    z -0.199640 0.000000 3.472330 
# 
# 
# High freq. dielectric constant tensor:
#      x y z
#    x 1.567170 0.000000 -0.011010 
#    y 0.000000 1.580040 0.000000 
#    z -0.011010 0.000000 1.612440 
# 
# From -- ./inp_files/247928.got.cif
#   From: 2010.06.25/outbox.cif.g09.slc.cpg/sg12_124_cif.got.tgz:247928.got - 2010.06.28 00:19:55.
