data_PCOD8084816
_publ_section_title
;
Structure prediction by ZEFSAII (Michael W. Deem and Ramdas Pophale) SiO2 
 PCOD8084816
Probable space group: C 2/M
;
_chemical_formula_sum "Si O2"
_cell_formula_units_Z 56
_cell_length_a 27.674541
_cell_length_b 9.310116
_cell_length_c 18.249382
_cell_angle_alpha 90.000000
_cell_angle_beta 131.973675
_cell_angle_gamma 90.000000
_cell_volume 3495.720670
_symmetry_space_group_name_H-M "C 2/M"
_symmetry_group_IT_number 12
_symmetry_cell_setting 'monoclinic'
loop_
_space_group_symop_operation_xyz
x,y,z
-x,y,-z
-x,-y,-z
x,-y,z
1/2+x,1/2+y,z
1/2-x,1/2+y,-z
1/2-x,1/2-y,-z
1/2+x,1/2-y,z
loop_
_atom_site_type_symbol
_atom_site_label
_atom_site_fract_x
_atom_site_fract_y
_atom_site_fract_z
Si Si1 0.069082 0.162296 0.609214
Si Si2 0.751795 0.666614 0.426495
Si Si3 0.383445 0.667374 0.787381
Si Si4 0.011100 0.333908 0.674337
Si Si5 0.571217 0.158157 0.038353
Si Si6 0.001950 0.331498 0.172887
Si Si7 0.375812 0.833120 0.461271
O O1 0.120868 0.244454 0.610931
O O2 0.000000 0.167183 0.500000
O O3 0.062908 0.241060 0.681107
O O4 0.093075 0.000000 0.646282
O O5 0.759352 0.500000 0.453289
O O6 0.750000 0.750000 0.500000
O O7 0.687734 0.698277 0.315087
O O8 0.812851 0.720727 0.441117
O O9 0.400288 0.500000 0.807481
O O10 0.385520 0.729095 0.872548
O O11 0.434479 0.743914 0.785914
O O12 0.028438 0.500000 0.679616
O O13 0.018078 0.287520 0.765704
O O14 0.937703 0.301597 0.575028
O O15 0.603841 0.000000 0.075924
O O16 0.500000 0.151576 0.000000
O O17 0.560045 0.204943 0.942224
O O18 0.019898 0.500000 0.185914
O O19 0.370990 0.000000 0.435350
#
# Coordination Sequence:
#
# PCOD8084816 Si02
#       7
#     8   8   8   8   8   8   8
#     4   9  17  28  42  62  87 111 137 173 215 256
#     4  10  21  33  45  64  89 118 151 183 212 248
#     4  10  19  29  42  63  90 117 146 180 218 255
#     4   9  16  27  45  65  84 110 142 175 212 254
#     4   8  15  28  44  61  83 113 147 179 212 256
#     4   9  17  29  45  65  88 115 147 179 213 257
#     4   9  17  30  45  60  83 116 149 175 204 249
#
# _framework density 16.019587000000001
#
# number of rings (size 3 to 8) (size 9 to 14) (size 15 to 20)
#    0.000    2.857    0.000    2.571    0.000    7.714 
#    0.000    2.857    0.000    0.000    0.000    1.000 
#    0.000    0.000    0.000    0.000    0.000    0.000 
#
# Total GULP energy -347147.031303 kJ/mol
# GULP energy per Si atom -12398.108261 kJ/mol
# Density = 1.598313 g / cm^3
# Si number density = 16.019587 Si / 1000 Ang^3
#
#
#
# Elastic Constant Matrix: (Units=GPa)
#
#
# Indices 1 2 3 4 5 6 
#
# 1 122.1987 63.8439 60.1341 0.0000 -23.9180 0.0000
# 2 63.8439 86.7724 52.5168 0.0000 -13.8098 0.0000
# 3 60.1341 52.5168 89.3659 0.0000 -24.4264 0.0000
# 4 0.0000 0.0000 0.0000 23.2138 0.0000 -4.6894
# 5 -23.9180 -13.8098 -24.4264 0.0000 26.5483 0.0000
# 6 0.0000 0.0000 0.0000 -4.6894 0.0000 22.8270
#
#
#
# Elastic Compliance Matrix: (Units=1/GPa)
#
#
# Indices 1 2 3 4 5 6 
#
# 1 0.015583 -0.008004 -0.004119 0.000000 0.006086 0.000000
# 2 -0.008004 0.022002 -0.008532 0.000000 -0.003617 0.000000
# 3 -0.004119 -0.008532 0.022375 0.000000 0.012438 0.000000
# 4 0.000000 0.000000 0.000000 0.044943 0.000000 0.009233
# 5 0.006086 -0.003617 0.012438 0.000000 0.052713 0.000000
# 6 0.000000 0.000000 0.000000 0.009233 0.000000 0.045704
#
#
# Mechanical properties :
#
#
# Convention : Reuss Voigt Hill
#
# Bulk Modulus (GPa) = 53.61865 72.36964 62.99415
# Shear Modulus (GPa) = 19.93240 22.64064 21.28652
#
# Velocity S-wave (km/s) = 3.53122 3.76348 3.64920
# Velocity P-wave (km/s) = 7.08304 8.00992 7.56069
#
# Compressibility (1/GPa) = 0.01865023
#
# Stress axis : x y z
#
# Youngs Moduli (GPa) = 64.17085 45.45045 44.69275
#
# Poissons Ratio (x) = 0.36380 0.18407
# Poissons Ratio (y) = 0.51365 0.38132
# Poissons Ratio (z) = 0.26429 0.38779
#
# Static dielectric constant tensor:
#      x y z
#    x 2.983480 0.000000 -0.298510 
#    y 0.000000 3.112310 0.000000 
#    z -0.298510 0.000000 3.202030 
# 
# 
# High freq. dielectric constant tensor:
#      x y z
#    x 1.595570 0.000000 -0.024100 
#    y 0.000000 1.619260 0.000000 
#    z -0.024100 0.000000 1.598440 
# 
# From -- ./inp_files/291807.got.cif
#   From: 2010.06.25/outbox.cif.g09.slc.cpg/sg12_146_cif.got.tgz:291807.got - 2010.06.28 00:19:55.
