data_PCOD8084076
_publ_section_title
;
Structure prediction by ZEFSAII (Michael W. Deem and Ramdas Pophale) SiO2 
 PCOD8084076
Probable space group: C 2/M
;
_chemical_formula_sum "Si O2"
_cell_formula_units_Z 48
_cell_length_a 12.835720
_cell_length_b 14.309435
_cell_length_c 14.391856
_cell_angle_alpha 90.000000
_cell_angle_beta 111.422732
_cell_angle_gamma 90.000000
_cell_volume 2460.751044
_symmetry_space_group_name_H-M "C 2/M"
_symmetry_group_IT_number 12
_symmetry_cell_setting 'monoclinic'
loop_
_space_group_symop_operation_xyz
x,y,z
-x,y,-z
-x,-y,-z
x,-y,z
1/2+x,1/2+y,z
1/2-x,1/2+y,-z
1/2-x,1/2-y,-z
1/2+x,1/2-y,z
loop_
_atom_site_type_symbol
_atom_site_label
_atom_site_fract_x
_atom_site_fract_y
_atom_site_fract_z
Si Si1 0.201658 0.896425 0.268603
Si Si2 0.409980 0.158265 0.906638
Si Si3 0.983132 0.752987 0.746931
Si Si4 0.327715 0.601935 0.147092
Si Si5 0.373108 0.358415 0.957600
Si Si6 0.043277 0.607082 0.617257
O O1 0.120978 0.823428 0.293266
O O2 0.190686 0.896860 0.153366
O O3 0.326433 0.868282 0.336540
O O4 0.173721 0.000000 0.296839
O O5 0.473190 0.189363 0.834352
O O6 0.296286 0.102723 0.847624
O O7 0.372435 0.246896 0.955778
O O8 0.500000 0.101568 0.000000
O O9 0.096156 0.814939 0.787648
O O10 0.979301 0.682524 0.659504
O O11 0.379892 0.500000 0.188788
O O12 0.312085 0.608206 0.030796
O O13 0.500000 0.397351 0.000000
O O14 0.021184 0.500000 0.643709
O O15 0.000000 0.621642 0.500000
#
# Coordination Sequence:
#
# PCOD8084076 Si02
#       6
#     8   8   8   8   8   8
#     4  10  20  35  59  91 120 154 199 239 287 346
#     4  10  21  35  52  79 122 165 201 233 283 343
#     4  11  21  38  63  85 117 155 193 243 297 351
#     4  12  23  34  55  87 127 164 197 237 283 347
#     4  10  18  34  57  84 120 165 205 237 271 334
#     4  10  24  45  66  87 110 146 202 257 300 348
#
# _framework density 19.506239000000001
#
# number of rings (size 3 to 8) (size 9 to 14) (size 15 to 20)
#    0.000    1.500    5.000    3.500    2.333    2.333 
#    0.000    0.000    0.000    2.000    0.000    0.000 
#    0.000    0.000    0.000    0.000    0.000    0.000 
#
# Total GULP energy -297509.417130 kJ/mol
# GULP energy per Si atom -12396.225714 kJ/mol
# Density = 1.946184 g / cm^3
# Si number density = 19.506239 Si / 1000 Ang^3
#
#
#
# Elastic Constant Matrix: (Units=GPa)
#
#
# Indices 1 2 3 4 5 6 
#
# 1 69.3702 35.4742 39.9175 0.0000 7.4248 0.0000
# 2 35.4742 103.4005 43.0168 0.0000 -13.7944 0.0000
# 3 39.9175 43.0168 96.0827 0.0000 12.8416 0.0000
# 4 0.0000 0.0000 0.0000 27.8193 0.0000 3.3641
# 5 7.4248 -13.7944 12.8416 0.0000 26.9722 0.0000
# 6 0.0000 0.0000 0.0000 3.3641 0.0000 19.2057
#
#
#
# Elastic Compliance Matrix: (Units=1/GPa)
#
#
# Indices 1 2 3 4 5 6 
#
# 1 0.021159 -0.005892 -0.005309 0.000000 -0.006310 0.000000
# 2 -0.005892 0.016130 -0.006507 0.000000 0.012969 0.000000
# 3 -0.005309 -0.006507 0.016848 0.000000 -0.009888 0.000000
# 4 0.000000 0.000000 0.000000 0.036724 0.000000 -0.006433
# 5 -0.006310 0.012969 -0.009888 0.000000 0.050153 0.000000
# 6 0.000000 0.000000 0.000000 -0.006433 0.000000 0.053195
#
#
# Mechanical properties :
#
#
# Convention : Reuss Voigt Hill
#
# Bulk Modulus (GPa) = 53.41760 56.18558 54.80159
# Shear Modulus (GPa) = 21.19859 24.82910 23.01384
#
# Velocity S-wave (km/s) = 3.30018 3.57161 3.43858
# Velocity P-wave (km/s) = 6.47811 6.77311 6.62725
#
# Compressibility (1/GPa) = 0.01872042
#
# Stress axis : x y z
#
# Youngs Moduli (GPa) = 47.26123 61.99708 59.35421
#
# Poissons Ratio (x) = 0.36530 0.31512
# Poissons Ratio (y) = 0.27848 0.38621
# Poissons Ratio (z) = 0.25091 0.40340
#
# Static dielectric constant tensor:
#      x y z
#    x 3.560060 0.000000 0.175900 
#    y 0.000000 3.667180 0.000000 
#    z 0.175900 0.000000 3.332660 
# 
# 
# High freq. dielectric constant tensor:
#      x y z
#    x 1.758500 0.000000 0.015660 
#    y 0.000000 1.766210 0.000000 
#    z 0.015660 0.000000 1.725220 
# 
# From -- ./inp_files/204579.got.cif
#   From: 2010.06.25/outbox.cif.g09.slc.cpg/sg12_103_cif.got.tgz:204579.got - 2010.06.28 00:19:55.
