data_PCOD8084622
_publ_section_title
;
Structure prediction by ZEFSAII (Michael W. Deem and Ramdas Pophale) SiO2 
 PCOD8084622
Probable space group: C 2/M
;
_chemical_formula_sum "Si O2"
_cell_formula_units_Z 40
_cell_length_a 13.642188
_cell_length_b 27.442700
_cell_length_c 11.127844
_cell_angle_alpha 90.000000
_cell_angle_beta 148.969426
_cell_angle_gamma 90.000000
_cell_volume 2147.566850
_symmetry_space_group_name_H-M "C 2/M"
_symmetry_group_IT_number 12
_symmetry_cell_setting 'monoclinic'
loop_
_space_group_symop_operation_xyz
x,y,z
-x,y,-z
-x,-y,-z
x,-y,z
1/2+x,1/2+y,z
1/2-x,1/2+y,-z
1/2-x,1/2-y,-z
1/2+x,1/2-y,z
loop_
_atom_site_type_symbol
_atom_site_label
_atom_site_fract_x
_atom_site_fract_y
_atom_site_fract_z
Si Si1 0.219637 0.942585 0.428651
Si Si2 0.731941 0.692784 0.472517
Si Si3 0.096899 0.127238 0.846623
Si Si4 0.988363 0.619035 0.128104
Si Si5 0.719368 0.130897 0.703531
O O1 0.410000 0.926207 0.698994
O O2 0.229398 0.920637 0.304658
O O3 0.032551 0.921422 0.298496
O O4 0.207304 0.000000 0.409075
O O5 0.750000 0.750000 0.500000
O O6 0.535671 0.673710 0.327508
O O7 0.730742 0.675532 0.332730
O O8 0.911244 0.669578 0.730208
O O9 0.268186 0.121909 0.934048
O O10 0.163340 0.135922 0.052348
O O11 0.000000 0.609837 0.000000
O O12 0.500000 0.132750 0.500000
#
# Coordination Sequence:
#
# PCOD8084622 Si02
#       5
#     8   8   8   8   8
#     4  10  22  36  59  91 113 146 200 238 287 353
#     4  10  22  37  58  91 113 147 198 234 286 351
#     4  10  20  40  60  80 119 155 183 241 300 336
#     4  10  22  41  57  79 119 157 194 239 288 340
#     4  10  18  39  61  83 120 152 179 240 299 340
#
# _framework density 18.625730000000001
#
# number of rings (size 3 to 8) (size 9 to 14) (size 15 to 20)
#    0.000    2.400    4.000    2.400    0.000    8.800 
#    3.600    1.000    0.000    0.000    0.000    0.000 
#    0.000    0.000    0.000    0.000    0.000    0.000 
#
# Total GULP energy -247937.761432 kJ/mol
# GULP energy per Si atom -12396.888072 kJ/mol
# Density = 1.858334 g / cm^3
# Si number density = 18.625730 Si / 1000 Ang^3
#
#
#
# Elastic Constant Matrix: (Units=GPa)
#
#
# Indices 1 2 3 4 5 6 
#
# 1 124.4107 35.6510 46.2322 0.0000 24.9146 0.0000
# 2 35.6510 173.0002 36.1838 0.0000 15.3058 0.0000
# 3 46.2322 36.1838 70.8441 0.0000 33.4465 0.0000
# 4 0.0000 0.0000 0.0000 15.6659 0.0000 2.1210
# 5 24.9146 15.3058 33.4465 0.0000 43.4278 0.0000
# 6 0.0000 0.0000 0.0000 2.1210 0.0000 7.0108
#
#
#
# Elastic Compliance Matrix: (Units=1/GPa)
#
#
# Indices 1 2 3 4 5 6 
#
# 1 0.010761 -0.000853 -0.005994 0.000000 -0.001257 0.000000
# 2 -0.000853 0.006544 -0.003029 0.000000 0.000516 0.000000
# 3 -0.005994 -0.003029 0.027415 0.000000 -0.016608 0.000000
# 4 0.000000 0.000000 0.000000 0.066559 0.000000 -0.020137
# 5 -0.001257 0.000516 -0.016608 0.000000 0.036357 0.000000
# 6 0.000000 0.000000 0.000000 -0.020137 0.000000 0.148730
#
#
# Mechanical properties :
#
#
# Convention : Reuss Voigt Hill
#
# Bulk Modulus (GPa) = 40.05058 67.15434 53.60246
# Shear Modulus (GPa) = 15.41115 29.90011 22.65563
#
# Velocity S-wave (km/s) = 2.87960 4.01098 3.49142
# Velocity P-wave (km/s) = 5.71013 7.58838 6.71525
#
# Compressibility (1/GPa) = 0.02496843
#
# Stress axis : x y z
#
# Youngs Moduli (GPa) = 92.92531 152.81036 36.47641
#
# Poissons Ratio (x) = 0.13032 0.21863
# Poissons Ratio (y) = 0.07925 0.11050
# Poissons Ratio (z) = 0.55696 0.46294
#
# Static dielectric constant tensor:
#      x y z
#    x 3.497050 0.000000 0.229830 
#    y 0.000000 3.164970 0.000000 
#    z 0.229830 0.000000 4.543820 
# 
# 
# High freq. dielectric constant tensor:
#      x y z
#    x 1.722820 0.000000 0.013810 
#    y 0.000000 1.698710 0.000000 
#    z 0.013810 0.000000 1.742620 
# 
# From -- ./inp_files/150044.got.cif
#   From: 2010.06.25/outbox.cif.g09.slc.cpg/sg12_76_cif.got.tgz:150044.got - 2010.06.28 00:19:55.
