data_PCOD8084946
_publ_section_title
;
Structure prediction by ZEFSAII (Michael W. Deem and Ramdas Pophale) SiO2 
 PCOD8084946
Probable space group: C 2/M
;
_chemical_formula_sum "Si O2"
_cell_formula_units_Z 56
_cell_length_a 31.203214
_cell_length_b 9.257873
_cell_length_c 15.857957
_cell_angle_alpha 90.000000
_cell_angle_beta 133.972231
_cell_angle_gamma 90.000000
_cell_volume 3296.818505
_symmetry_space_group_name_H-M "C 2/M"
_symmetry_group_IT_number 12
_symmetry_cell_setting 'monoclinic'
loop_
_space_group_symop_operation_xyz
x,y,z
-x,y,-z
-x,-y,-z
x,-y,z
1/2+x,1/2+y,z
1/2-x,1/2+y,-z
1/2-x,1/2-y,-z
1/2+x,1/2-y,z
loop_
_atom_site_type_symbol
_atom_site_label
_atom_site_fract_x
_atom_site_fract_y
_atom_site_fract_z
Si Si1 0.823078 0.341484 0.154918
Si Si2 0.019427 0.841866 0.382543
Si Si3 0.938035 0.732381 0.399932
Si Si4 0.112004 0.331190 0.043232
Si Si5 0.192706 0.167591 0.027767
Si Si6 0.484156 0.832245 0.788549
Si Si7 0.935453 0.163421 0.870934
O O1 0.816504 0.500000 0.103646
O O2 0.878092 0.351257 0.295347
O O3 0.763659 0.305879 0.126412
O O4 0.833834 0.224379 0.097043
O O5 0.071508 0.819081 0.524777
O O6 0.955410 0.834398 0.343637
O O7 0.024305 0.720296 0.318109
O O8 0.026041 0.000000 0.349906
O O9 0.000000 0.636848 0.500000
O O10 0.124488 0.500000 0.074302
O O11 0.166399 0.258743 0.068436
O O12 0.108511 0.253789 0.129135
O O13 0.052141 0.305509 0.908272
O O14 0.175323 0.000000 0.014015
O O15 0.438942 0.743517 0.785957
O O16 0.467346 0.000000 0.771725
O O17 0.911447 0.000000 0.826227
O O18 0.000000 0.161322 0.000000
#
# Coordination Sequence:
#
# PCOD8084946 Si02
#       7
#     8   8   8   8   8   8   8
#     4  10  20  35  50  70  98 128 167 206 242 287
#     4   9  18  31  46  68  95 125 160 195 238 289
#     4   8  19  32  49  72  95 127 160 206 244 285
#     4  10  19  31  46  68  97 127 162 200 240 288
#     4  10  21  33  49  71  97 132 167 201 241 286
#     4  10  19  29  44  68  98 129 159 198 242 288
#     4   9  17  29  46  67  92 125 160 197 242 290
#
# _framework density 16.986073000000001
#
# number of rings (size 3 to 8) (size 9 to 14) (size 15 to 20)
#    0.857    1.571    0.000    3.429    0.000    8.857 
#    0.000    0.000    0.000    0.000    0.000    1.000 
#    0.000    0.000    0.000    0.000    0.000    0.000 
#
# Total GULP energy -346874.476846 kJ/mol
# GULP energy per Si atom -12388.374173 kJ/mol
# Density = 1.694741 g / cm^3
# Si number density = 16.986073 Si / 1000 Ang^3
#
#
#
# Elastic Constant Matrix: (Units=GPa)
#
#
# Indices 1 2 3 4 5 6 
#
# 1 100.2729 57.8418 44.7347 0.0000 -16.9481 0.0000
# 2 57.8418 124.6731 33.7613 0.0000 -15.2732 0.0000
# 3 44.7347 33.7613 73.2277 0.0000 -4.6615 0.0000
# 4 0.0000 0.0000 0.0000 16.4510 0.0000 -4.5926
# 5 -16.9481 -15.2732 -4.6615 0.0000 31.6495 0.0000
# 6 0.0000 0.0000 0.0000 -4.5926 0.0000 25.9998
#
#
#
# Elastic Compliance Matrix: (Units=1/GPa)
#
#
# Indices 1 2 3 4 5 6 
#
# 1 0.017501 -0.005289 -0.007893 0.000000 0.005657 0.000000
# 2 -0.005289 0.011250 -0.001807 0.000000 0.002330 0.000000
# 3 -0.007893 -0.001807 0.019166 0.000000 -0.002276 0.000000
# 4 0.000000 0.000000 0.000000 0.063940 0.000000 0.011294
# 5 0.005657 0.002330 -0.002276 0.000000 0.035415 0.000000
# 6 0.000000 0.000000 0.000000 0.011294 0.000000 0.040457
#
#
# Mechanical properties :
#
#
# Convention : Reuss Voigt Hill
#
# Bulk Modulus (GPa) = 55.74550 63.42771 59.58660
# Shear Modulus (GPa) = 22.35276 25.60912 23.98094
#
# Velocity S-wave (km/s) = 3.63153 3.88706 3.76147
# Velocity P-wave (km/s) = 7.10448 7.58734 7.34988
#
# Compressibility (1/GPa) = 0.01793867
#
# Stress axis : x y z
#
# Youngs Moduli (GPa) = 57.13894 88.89070 52.17577
#
# Poissons Ratio (x) = 0.47017 0.41181
# Poissons Ratio (y) = 0.30223 0.09429
# Poissons Ratio (z) = 0.45098 0.16063
#
# Static dielectric constant tensor:
#      x y z
#    x 3.088510 0.000000 -0.131900 
#    y 0.000000 3.211750 0.000000 
#    z -0.131900 0.000000 2.880480 
# 
# 
# High freq. dielectric constant tensor:
#      x y z
#    x 1.639900 0.000000 -0.020170 
#    y 0.000000 1.664500 0.000000 
#    z -0.020170 0.000000 1.618740 
# 
# From -- ./inp_files/244330.got.cif
#   From: 2010.06.25/outbox.cif.g09.slc.cpg/sg12_123_cif.got.tgz:244330.got - 2010.06.28 00:19:55.
