data_PCOD8084621
_publ_section_title
;
Structure prediction by ZEFSAII (Michael W. Deem and Ramdas Pophale) SiO2 
 PCOD8084621
Probable space group: C 2/M
;
_chemical_formula_sum "Si O2"
_cell_formula_units_Z 36
_cell_length_a 20.463207
_cell_length_b 13.260760
_cell_length_c 19.156656
_cell_angle_alpha 90.000000
_cell_angle_beta 20.073284
_cell_angle_gamma 90.000000
_cell_volume 1784.171695
_symmetry_space_group_name_H-M "C 2/M"
_symmetry_group_IT_number 12
_symmetry_cell_setting 'monoclinic'
loop_
_space_group_symop_operation_xyz
x,y,z
-x,y,-z
-x,-y,-z
x,-y,z
1/2+x,1/2+y,z
1/2-x,1/2+y,-z
1/2-x,1/2-y,-z
1/2+x,1/2-y,z
loop_
_atom_site_type_symbol
_atom_site_label
_atom_site_fract_x
_atom_site_fract_y
_atom_site_fract_z
Si Si1 0.577833 0.500000 0.023242
Si Si2 0.000000 0.834714 0.000000
Si Si3 0.616529 0.500000 0.137012
Si Si4 0.321312 0.664434 0.480312
Si Si5 0.864435 0.500000 0.511504
Si Si6 0.534177 0.000000 0.751237
Si Si7 0.124649 0.285249 0.439478
O O1 0.623346 0.402737 0.930297
O O2 0.695622 0.500000 0.977208
O O3 0.361207 0.500000 0.264993
O O4 0.846750 0.770233 0.196188
O O5 0.491250 0.599496 0.275795
O O6 0.806872 0.500000 0.994115
O O7 0.250000 0.750000 0.500000
O O8 0.135415 0.597220 0.683965
O O9 0.410597 0.712337 0.460050
O O10 0.932944 0.500000 0.364164
O O11 0.933937 0.400086 0.482332
O O12 0.000000 0.246827 0.500000
#
# Coordination Sequence:
#
# PCOD8084621 Si02
#       7
#     4   4   4   8   4   4   8
#     4   9  16  34  56  84 126 152 191 248 313 374
#     4   9  20  32  54  89 120 156 190 245 316 375
#     4  11  24  38  65  94 120 169 217 256 310 372
#     4  11  22  43  62  90 133 166 207 264 314 367
#     4  10  18  39  59  92 132 155 194 261 320 369
#     4  11  23  39  63  91 122 168 211 258 307 370
#     4  11  23  37  62  92 128 163 204 254 317 381
#
# _framework density 20.177430000000001
#
# number of rings (size 3 to 8) (size 9 to 14) (size 15 to 20)
#    0.000    1.556    4.444    2.333    3.111    2.667 
#    0.000    2.222    0.000    4.000    0.000    0.000 
#    0.000    0.000    0.000    0.000    0.000    0.000 
#
# Total GULP energy -223168.135434 kJ/mol
# GULP energy per Si atom -12398.229746 kJ/mol
# Density = 2.013151 g / cm^3
# Si number density = 20.177430 Si / 1000 Ang^3
#
#
#
# Elastic Constant Matrix: (Units=GPa)
#
#
# Indices 1 2 3 4 5 6 
#
# 1 138.5757 53.8612 10.4617 0.0055 -5.8356 -0.0046
# 2 53.8612 113.6981 27.7868 -0.0270 -7.1771 0.0059
# 3 10.4617 27.7868 42.7064 -0.0047 -10.4612 -0.0080
# 4 0.0055 -0.0270 -0.0047 12.8359 -0.0059 4.7956
# 5 -5.8356 -7.1771 -10.4612 -0.0059 35.6986 0.0087
# 6 -0.0046 0.0059 -0.0080 4.7956 0.0087 24.0103
#
#
#
# Elastic Compliance Matrix: (Units=1/GPa)
#
#
# Indices 1 2 3 4 5 6 
#
# 1 0.008883 -0.004368 0.000869 -0.000014 0.000829 0.000006
# 2 -0.004368 0.012607 -0.007204 0.000030 -0.000290 -0.000012
# 3 0.000869 -0.007204 0.029702 -0.000005 0.007398 0.000010
# 4 -0.000014 0.000030 -0.000005 0.084189 0.000020 -0.016815
# 5 0.000829 -0.000290 0.007398 0.000020 0.030257 -0.000012
# 6 0.000006 -0.000012 0.000010 -0.016815 -0.000012 0.045007
#
#
# Mechanical properties :
#
#
# Convention : Reuss Voigt Hill
#
# Bulk Modulus (GPa) = 33.57245 53.24441 43.40843
# Shear Modulus (GPa) = 20.66286 28.03367 24.34827
#
# Velocity S-wave (km/s) = 3.20356 3.73145 3.47754
# Velocity P-wave (km/s) = 5.50985 6.70898 6.13876
#
# Compressibility (1/GPa) = 0.02978633
#
# Stress axis : x y z
#
# Youngs Moduli (GPa) = 112.56904 79.32234 33.66781
#
# Poissons Ratio (x) = 0.34651 -0.02926
# Poissons Ratio (y) = 0.49174 0.24253
# Poissons Ratio (z) = -0.09783 0.57141
#
# Static dielectric constant tensor:
#      x y z
#    x 3.681880 -0.000330 0.023100 
#    y -0.000330 3.774030 0.000030 
#    z 0.023100 0.000030 3.669480 
# 
# 
# High freq. dielectric constant tensor:
#      x y z
#    x 1.787130 0.000000 -0.002870 
#    y 0.000000 1.763850 0.000010 
#    z -0.002870 0.000010 1.787680 
# 
# From -- ./inp_files/321488.got.cif
#   From: 2010.06.25/outbox.cif.g09.slc.cpg/sg12_161_cif.got.tgz:321488.got - 2010.06.28 00:19:55.
