data_PCOD8084062
_publ_section_title
;
Structure prediction by ZEFSAII (Michael W. Deem and Ramdas Pophale) SiO2 
 PCOD8084062
Probable space group: C 2/M
;
_chemical_formula_sum "Si O2"
_cell_formula_units_Z 56
_cell_length_a 23.071523
_cell_length_b 15.044810
_cell_length_c 9.937088
_cell_angle_alpha 90.000000
_cell_angle_beta 120.395292
_cell_angle_gamma 90.000000
_cell_volume 2975.151111
_symmetry_space_group_name_H-M "C 2/M"
_symmetry_group_IT_number 12
_symmetry_cell_setting 'monoclinic'
loop_
_space_group_symop_operation_xyz
x,y,z
-x,y,-z
-x,-y,-z
x,-y,z
1/2+x,1/2+y,z
1/2-x,1/2+y,-z
1/2-x,1/2-y,-z
1/2+x,1/2-y,z
loop_
_atom_site_type_symbol
_atom_site_label
_atom_site_fract_x
_atom_site_fract_y
_atom_site_fract_z
Si Si1 0.593245 0.210332 0.699788
Si Si2 0.655285 0.310824 0.008970
Si Si3 0.211027 0.597247 0.773379
Si Si4 0.977057 0.899442 0.117626
Si Si5 0.543172 0.251154 0.359452
Si Si6 0.755403 0.896701 0.529000
Si Si7 0.655802 0.235177 0.289386
O O1 0.640958 0.269771 0.847937
O O2 0.635031 0.120838 0.724898
O O3 0.583686 0.262270 0.546654
O O4 0.521887 0.188037 0.687561
O O5 0.603869 0.392849 0.969379
O O6 0.732630 0.339189 0.097985
O O7 0.640977 0.240652 0.113051
O O8 0.226291 0.500000 0.847618
O O9 0.212935 0.600420 0.615017
O O10 0.013463 0.845858 0.279351
O O11 0.000527 0.000000 0.162401
O O12 0.000000 0.861372 0.000000
O O13 0.589353 0.209613 0.296375
O O14 0.709949 0.844441 0.367026
O O15 0.820621 0.833680 0.629841
O O16 0.773460 0.000000 0.506915
#
# Coordination Sequence:
#
# PCOD8084062 Si02
#       7
#     8   8   8   8   8   8   8
#     4  10  21  36  54  76 111 146 183 216 269 329
#     4  10  20  34  57  81 107 144 180 225 278 332
#     4  10  19  35  56  80 107 140 187 232 268 320
#     4  10  19  32  53  83 110 138 180 226 272 325
#     4  10  20  36  54  79 108 147 183 219 264 338
#     4   9  19  33  55  84 110 141 186 233 275 324
#     4  10  18  34  57  79 111 143 185 228 280 325
#
# _framework density 18.822572999999998
#
# number of rings (size 3 to 8) (size 9 to 14) (size 15 to 20)
#    0.000    2.143    2.857    0.857    0.000    1.143 
#    0.000    9.286    0.000    0.000    0.000    3.000 
#    0.000    0.000    0.000    0.000    0.000    0.000 
#
# Total GULP energy -346991.018525 kJ/mol
# GULP energy per Si atom -12392.536376 kJ/mol
# Density = 1.877973 g / cm^3
# Si number density = 18.822573 Si / 1000 Ang^3
#
#
#
# Elastic Constant Matrix: (Units=GPa)
#
#
# Indices 1 2 3 4 5 6 
#
# 1 103.5241 21.5706 26.9258 0.0000 0.8630 0.0000
# 2 21.5706 63.6195 26.0467 0.0000 2.0170 0.0000
# 3 26.9258 26.0467 112.8629 0.0000 3.0906 0.0000
# 4 0.0000 0.0000 0.0000 16.3296 0.0000 1.9410
# 5 0.8630 2.0170 3.0906 0.0000 19.6888 0.0000
# 6 0.0000 0.0000 0.0000 1.9410 0.0000 23.2233
#
#
#
# Elastic Compliance Matrix: (Units=1/GPa)
#
#
# Indices 1 2 3 4 5 6 
#
# 1 0.010752 -0.002869 -0.001906 0.000000 0.000122 0.000000
# 2 -0.002869 0.018150 -0.003472 0.000000 -0.001189 0.000000
# 3 -0.001906 -0.003472 0.010148 0.000000 -0.001154 0.000000
# 4 0.000000 0.000000 0.000000 0.061853 0.000000 -0.005170
# 5 0.000122 -0.001189 -0.001154 0.000000 0.051088 0.000000
# 6 0.000000 0.000000 0.000000 -0.005170 0.000000 0.043492
#
#
# Mechanical properties :
#
#
# Convention : Reuss Voigt Hill
#
# Bulk Modulus (GPa) = 44.33375 47.67697 46.00536
# Shear Modulus (GPa) = 22.77941 25.54590 24.16265
#
# Velocity S-wave (km/s) = 3.48259 3.68801 3.58677
# Velocity P-wave (km/s) = 6.30681 6.59696 6.45352
#
# Compressibility (1/GPa) = 0.02255618
#
# Stress axis : x y z
#
# Youngs Moduli (GPa) = 93.00430 55.09561 98.54229
#
# Poissons Ratio (x) = 0.15807 0.18786
# Poissons Ratio (y) = 0.26683 0.34211
# Poissons Ratio (z) = 0.17730 0.19128
#
# Static dielectric constant tensor:
#      x y z
#    x 3.585150 0.000000 0.034570 
#    y 0.000000 3.250560 0.000000 
#    z 0.034570 0.000000 3.504570 
# 
# 
# High freq. dielectric constant tensor:
#      x y z
#    x 1.738110 0.000000 0.007870 
#    y 0.000000 1.693740 0.000000 
#    z 0.007870 0.000000 1.732580 
# 
# From -- ./inp_files/97002.got.cif
#   From: 2010.06.25/outbox.cif.g09.slc.cpg/sg12_49_cif.got.tgz:97002.got - 2010.06.28 00:19:55.
