data_PCOD8084405
_publ_section_title
;
Structure prediction by ZEFSAII (Michael W. Deem and Ramdas Pophale) SiO2 
 PCOD8084405
Probable space group: C 2/M
;
_chemical_formula_sum "Si O2"
_cell_formula_units_Z 56
_cell_length_a 24.912192
_cell_length_b 8.747109
_cell_length_c 18.194262
_cell_angle_alpha 90.000000
_cell_angle_beta 135.928528
_cell_angle_gamma 90.000000
_cell_volume 2757.671276
_symmetry_space_group_name_H-M "C 2/M"
_symmetry_group_IT_number 12
_symmetry_cell_setting 'monoclinic'
loop_
_space_group_symop_operation_xyz
x,y,z
-x,y,-z
-x,-y,-z
x,-y,z
1/2+x,1/2+y,z
1/2-x,1/2+y,-z
1/2-x,1/2-y,-z
1/2+x,1/2-y,z
loop_
_atom_site_type_symbol
_atom_site_label
_atom_site_fract_x
_atom_site_fract_y
_atom_site_fract_z
Si Si1 0.232950 0.179604 0.905355
Si Si2 0.898690 0.680258 0.312894
Si Si3 0.151665 0.178683 0.221421
Si Si4 0.476971 0.681737 0.797916
Si Si5 0.325585 0.181413 0.395779
Si Si6 0.543774 0.680988 0.389255
Si Si7 0.874258 0.178754 0.968010
O O1 0.149955 0.238727 0.798485
O O2 0.297484 0.229362 0.911253
O O3 0.229309 0.000000 0.909287
O O4 0.250000 0.250000 0.000000
O O5 0.894249 0.500000 0.298136
O O6 0.866013 0.730007 0.359538
O O7 0.986257 0.737085 0.389869
O O8 0.097041 0.249621 0.231098
O O9 0.238185 0.246826 0.310202
O O10 0.110162 0.210058 0.102564
O O11 0.160394 0.000000 0.242870
O O12 0.475475 0.500000 0.802106
O O13 0.474276 0.737310 0.711333
O O14 0.554860 0.741722 0.913672
O O15 0.370117 0.265120 0.505810
O O16 0.328899 0.000000 0.410188
O O17 0.535932 0.500000 0.388428
O O18 0.858926 0.000000 0.967925
#
# Coordination Sequence:
#
# PCOD8084405 Si02
#       7
#     8   8   8   8   8   8   8
#     4  12  24  37  57  86 122 159 193 235 290 349
#     4  11  22  40  62  86 114 150 198 247 296 351
#     4   9  17  34  60  88 114 148 197 247 293 347
#     4   9  19  34  57  87 118 150 194 245 291 347
#     4  10  21  38  60  85 113 151 200 247 293 351
#     4  11  23  37  55  86 122 158 196 241 296 352
#     4  10  18  35  61  88 115 149 195 243 294 349
#
# _framework density 20.306989000000002
#
# number of rings (size 3 to 8) (size 9 to 14) (size 15 to 20)
#    0.000    1.714    1.429    3.857    0.000    6.286 
#    0.000    0.714    0.000    5.143    0.000    0.000 
#    0.000    0.000    0.000    0.000    0.000    0.000 
#
# Total GULP energy -347275.332637 kJ/mol
# GULP energy per Si atom -12402.690451 kJ/mol
# Density = 2.026077 g / cm^3
# Si number density = 20.306989 Si / 1000 Ang^3
#
#
#
# Elastic Constant Matrix: (Units=GPa)
#
#
# Indices 1 2 3 4 5 6 
#
# 1 88.3971 14.9650 26.6743 0.0000 9.0663 0.0000
# 2 14.9650 57.9223 24.3862 0.0000 -0.6006 0.0000
# 3 26.6743 24.3862 130.0444 0.0000 10.1861 0.0000
# 4 0.0000 0.0000 0.0000 32.5213 0.0000 1.7486
# 5 9.0663 -0.6006 10.1861 0.0000 28.7973 0.0000
# 6 0.0000 0.0000 0.0000 1.7486 0.0000 17.8245
#
#
#
# Elastic Compliance Matrix: (Units=1/GPa)
#
#
# Indices 1 2 3 4 5 6 
#
# 1 0.012646 -0.002521 -0.001857 0.000000 -0.003377 0.000000
# 2 -0.002521 0.019326 -0.003292 0.000000 0.002361 0.000000
# 3 -0.001857 -0.003292 0.008894 0.000000 -0.002630 0.000000
# 4 0.000000 0.000000 0.000000 0.030912 0.000000 -0.003032
# 5 -0.003377 0.002361 -0.002630 0.000000 0.036768 0.000000
# 6 0.000000 0.000000 0.000000 -0.003032 0.000000 0.056400
#
#
# Mechanical properties :
#
#
# Convention : Reuss Voigt Hill
#
# Bulk Modulus (GPa) = 39.17355 45.37942 42.27649
# Shear Modulus (GPa) = 26.48387 29.85117 28.16752
#
# Velocity S-wave (km/s) = 3.61525 3.83821 3.72840
# Velocity P-wave (km/s) = 6.06295 6.48365 6.27682
#
# Compressibility (1/GPa) = 0.02552743
#
# Stress axis : x y z
#
# Youngs Moduli (GPa) = 79.07675 51.74324 112.43719
#
# Poissons Ratio (x) = 0.13042 0.20876
# Poissons Ratio (y) = 0.19932 0.37014
# Poissons Ratio (z) = 0.14682 0.17034
#
# Static dielectric constant tensor:
#      x y z
#    x 3.977490 0.000000 0.123820 
#    y 0.000000 3.420870 0.000000 
#    z 0.123820 0.000000 3.876290 
# 
# 
# High freq. dielectric constant tensor:
#      x y z
#    x 1.799680 0.000000 0.003570 
#    y 0.000000 1.757430 0.000000 
#    z 0.003570 0.000000 1.809020 
# 
# From -- ./inp_files/288401.got.cif
#   From: 2010.06.25/outbox.cif.g09.slc.cpg/sg12_145_cif.got.tgz:288401.got - 2010.06.28 00:19:55.
