data_PCOD8084589
_publ_section_title
;
Structure prediction by ZEFSAII (Michael W. Deem and Ramdas Pophale) SiO2 
 PCOD8084589
Probable space group: C 2/M
;
_chemical_formula_sum "Si O2"
_cell_formula_units_Z 48
_cell_length_a 21.958489
_cell_length_b 16.118675
_cell_length_c 16.674431
_cell_angle_alpha 90.000000
_cell_angle_beta 23.281601
_cell_angle_gamma 90.000000
_cell_volume 2332.680691
_symmetry_space_group_name_H-M "C 2/M"
_symmetry_group_IT_number 12
_symmetry_cell_setting 'monoclinic'
loop_
_space_group_symop_operation_xyz
x,y,z
-x,y,-z
-x,-y,-z
x,-y,z
1/2+x,1/2+y,z
1/2-x,1/2+y,-z
1/2-x,1/2-y,-z
1/2+x,1/2-y,z
loop_
_atom_site_type_symbol
_atom_site_label
_atom_site_fract_x
_atom_site_fract_y
_atom_site_fract_z
Si Si1 0.903206 0.177409 0.758808
Si Si2 0.090057 0.721338 0.090525
Si Si3 0.268594 0.500000 0.730961
Si Si4 0.109786 0.000000 0.246482
Si Si5 0.313666 0.902037 0.427676
Si Si6 0.911597 0.818745 0.179326
Si Si7 0.760557 0.843399 0.653353
O O1 0.909944 0.243843 0.820231
O O2 0.865594 0.083184 0.835863
O O3 0.070576 0.177564 0.514463
O O4 0.768933 0.198391 0.855961
O O5 0.980363 0.640986 0.222601
O O6 0.034745 0.791575 0.096818
O O7 0.437765 0.500000 0.488625
O O8 0.269394 0.500000 0.825675
O O9 0.183236 0.416528 0.800855
O O10 0.220272 0.874056 0.620073
O O11 0.218463 0.873857 0.464433
O O12 0.338212 0.000000 0.400164
O O13 0.842791 0.737968 0.218168
O O14 0.000000 0.867635 0.000000
#
# Coordination Sequence:
#
# PCOD8084589 Si02
#       7
#     8   8   4   4   8   8   8
#     4  10  19  35  61  83 119 151 190 234 285 359
#     4  10  21  38  58  89 112 152 201 238 290 351
#     4   9  18  32  52  87 118 146 180 222 293 359
#     4   9  20  30  51  90 123 142 177 227 294 359
#     4  11  21  39  62  83 113 155 202 247 284 340
#     4  11  23  38  57  86 118 155 199 243 290 343
#     4  10  18  38  59  83 117 158 189 231 294 352
#
# _framework density 20.577183000000002
#
# number of rings (size 3 to 8) (size 9 to 14) (size 15 to 20)
#    0.000    1.833    4.167    1.000    3.500    0.333 
#    0.000    0.417    0.000    0.000    0.000    4.667 
#    0.000    0.000    0.000    0.000    0.000    0.000 
#
# Total GULP energy -297418.825187 kJ/mol
# GULP energy per Si atom -12392.451049 kJ/mol
# Density = 2.053035 g / cm^3
# Si number density = 20.577183 Si / 1000 Ang^3
#
#
#
# Elastic Constant Matrix: (Units=GPa)
#
#
# Indices 1 2 3 4 5 6 
#
# 1 56.6443 13.0211 40.0444 0.0048 -16.0989 -0.0032
# 2 13.0211 68.1724 9.5365 0.0060 -4.8857 -0.0047
# 3 40.0444 9.5365 71.8619 0.0016 -11.8532 -0.0018
# 4 0.0048 0.0060 0.0016 10.3293 -0.0047 -5.3275
# 5 -16.0989 -4.8857 -11.8532 -0.0047 37.9306 0.0038
# 6 -0.0032 -0.0047 -0.0018 -5.3275 0.0038 27.1733
#
#
#
# Elastic Compliance Matrix: (Units=1/GPa)
#
#
# Indices 1 2 3 4 5 6 
#
# 1 0.032130 -0.003296 -0.016118 -0.000007 0.008175 0.000000
# 2 -0.003296 0.015353 -0.000111 -0.000007 0.000544 0.000001
# 3 -0.016118 -0.000111 0.022965 0.000004 0.000321 0.000000
# 4 -0.000007 -0.000007 0.000004 0.107703 0.000009 0.021116
# 5 0.008175 0.000544 0.000321 0.000009 0.030004 -0.000001
# 6 0.000000 0.000001 0.000000 0.021116 -0.000001 0.040941
#
#
# Mechanical properties :
#
#
# Convention : Reuss Voigt Hill
#
# Bulk Modulus (GPa) = 31.85013 35.76472 33.80743
# Shear Modulus (GPa) = 16.74412 24.02508 20.38460
#
# Velocity S-wave (km/s) = 2.85568 3.42066 3.15086
# Velocity P-wave (km/s) = 5.13665 5.74628 5.45000
#
# Compressibility (1/GPa) = 0.03139704
#
# Stress axis : x y z
#
# Youngs Moduli (GPa) = 31.12355 65.13475 43.54455
#
# Poissons Ratio (x) = 0.21470 0.70186
# Poissons Ratio (y) = 0.10259 0.00483
# Poissons Ratio (z) = 0.50166 0.00722
#
# Static dielectric constant tensor:
#      x y z
#    x 3.888250 0.000000 -0.334480 
#    y 0.000000 3.870250 0.000000 
#    z -0.334480 0.000000 3.742270 
# 
# 
# High freq. dielectric constant tensor:
#      x y z
#    x 1.800040 0.000000 -0.022750 
#    y 0.000000 1.796400 0.000000 
#    z -0.022750 0.000000 1.791910 
# 
# From -- ./inp_files/290534.got.cif
#   From: 2010.06.25/outbox.cif.g09.slc.cpg/sg12_146_cif.got.tgz:290534.got - 2010.06.28 00:19:55.
