data_PCOD8084010
_publ_section_title
;
Structure prediction by ZEFSAII (Michael W. Deem and Ramdas Pophale) SiO2 
 PCOD8084010
Probable space group: C 2/M
;
_chemical_formula_sum "Si O2"
_cell_formula_units_Z 64
_cell_length_a 8.978467
_cell_length_b 18.862852
_cell_length_c 25.049960
_cell_angle_alpha 90.000000
_cell_angle_beta 125.529168
_cell_angle_gamma 90.000000
_cell_volume 3452.588592
_symmetry_space_group_name_H-M "C 2/M"
_symmetry_group_IT_number 12
_symmetry_cell_setting 'monoclinic'
loop_
_space_group_symop_operation_xyz
x,y,z
-x,y,-z
-x,-y,-z
x,-y,z
1/2+x,1/2+y,z
1/2-x,1/2+y,-z
1/2-x,1/2-y,-z
1/2+x,1/2-y,z
loop_
_atom_site_type_symbol
_atom_site_label
_atom_site_fract_x
_atom_site_fract_y
_atom_site_fract_z
Si Si1 0.672856 0.332812 0.805791
Si Si2 0.740529 0.420845 0.722464
Si Si3 0.095704 0.801229 0.628990
Si Si4 0.188887 0.582851 0.068888
Si Si5 0.014956 0.916447 0.061898
Si Si6 0.155755 0.580134 0.796253
Si Si7 0.770875 0.206593 0.754756
Si Si8 0.306486 0.220965 0.454602
O O1 0.633876 0.389177 0.750700
O O2 0.803387 0.369627 0.876462
O O3 0.769546 0.263146 0.802528
O O4 0.480366 0.310741 0.789382
O O5 0.671724 0.500000 0.696867
O O6 0.700973 0.374302 0.661723
O O7 0.955687 0.417963 0.780200
O O8 0.171615 0.737255 0.681594
O O9 0.136751 0.782320 0.575981
O O10 0.882082 0.817589 0.601383
O O11 0.211563 0.500000 0.089084
O O12 0.349033 0.610344 0.063689
O O13 0.000000 0.596930 0.000000
O O14 0.205890 0.894377 0.128752
O O15 0.000736 0.000000 0.052851
O O16 0.000000 0.881266 0.000000
O O17 0.203689 0.500000 0.786511
O O18 0.167211 0.634069 0.749005
O O19 0.500000 0.175629 0.500000
O O20 0.250000 0.250000 0.500000
#
# Coordination Sequence:
#
# PCOD8084010 Si02
#       8
#     8   8   8   8   8   8   8   8
#     4  11  22  37  54  79 110 144 187 233 286 337
#     4  10  21  34  55  84 114 149 185 229 281 333
#     4  10  18  34  55  83 113 143 182 221 269 321
#     4  10  21  37  57  79 104 139 187 235 283 338
#     4   9  18  33  53  76 101 136 179 228 279 329
#     4  10  20  35  55  81 110 141 184 231 283 338
#     4  11  21  36  57  81 113 147 177 227 283 334
#     4   9  18  32  56  84 110 141 181 225 258 305
#
# _framework density 18.536816000000002
#
# number of rings (size 3 to 8) (size 9 to 14) (size 15 to 20)
#    0.000    2.000    1.250    4.125    1.750    0.500 
#    0.000    1.250    0.000    3.750    0.000    3.500 
#    0.000    0.000    0.000    0.000    0.000    0.000 
#
# Total GULP energy -396573.311629 kJ/mol
# GULP energy per Si atom -12392.915988 kJ/mol
# Density = 1.849462 g / cm^3
# Si number density = 18.536816 Si / 1000 Ang^3
#
#
#
# Elastic Constant Matrix: (Units=GPa)
#
#
# Indices 1 2 3 4 5 6 
#
# 1 102.1130 36.5189 35.3615 0.0000 4.7657 0.0000
# 2 36.5189 96.4099 42.7425 0.0000 -5.9939 0.0000
# 3 35.3615 42.7425 91.7976 0.0000 0.0093 0.0000
# 4 0.0000 0.0000 0.0000 12.1239 0.0000 1.6123
# 5 4.7657 -5.9939 0.0093 0.0000 39.7768 0.0000
# 6 0.0000 0.0000 0.0000 1.6123 0.0000 22.2327
#
#
#
# Elastic Compliance Matrix: (Units=1/GPa)
#
#
# Indices 1 2 3 4 5 6 
#
# 1 0.012163 -0.003342 -0.003129 0.000000 -0.001960 0.000000
# 2 -0.003342 0.014145 -0.005299 0.000000 0.002533 0.000000
# 3 -0.003129 -0.005299 0.014566 0.000000 -0.000427 0.000000
# 4 0.000000 0.000000 0.000000 0.083285 0.000000 -0.006040
# 5 -0.001960 0.002533 -0.000427 0.000000 0.025757 0.000000
# 6 0.000000 0.000000 0.000000 -0.006040 0.000000 0.045417
#
#
# Mechanical properties :
#
#
# Convention : Reuss Voigt Hill
#
# Bulk Modulus (GPa) = 57.68901 57.72959 57.70930
# Shear Modulus (GPa) = 22.25669 26.53988 24.39828
#
# Velocity S-wave (km/s) = 3.46883 3.78794 3.63189
# Velocity P-wave (km/s) = 6.87260 7.09522 6.98480
#
# Compressibility (1/GPa) = 0.01733432
#
# Stress axis : x y z
#
# Youngs Moduli (GPa) = 82.21412 70.69618 68.65151
#
# Poissons Ratio (x) = 0.23626 0.21483
# Poissons Ratio (y) = 0.27475 0.36379
# Poissons Ratio (z) = 0.25727 0.37462
#
# Static dielectric constant tensor:
#      x y z
#    x 3.757760 0.000000 0.159800 
#    y 0.000000 3.337150 0.000000 
#    z 0.159800 0.000000 3.652980 
# 
# 
# High freq. dielectric constant tensor:
#      x y z
#    x 1.736330 0.000000 0.004450 
#    y 0.000000 1.687660 0.000000 
#    z 0.004450 0.000000 1.720270 
# 
# From -- ./inp_files/333609.got.cif
#   From: 2010.06.25/outbox.cif.g09.slc.cpg/sg12_167_cif.got.tgz:333609.got - 2010.06.28 00:19:55.
