data_PCOD8084111
_publ_section_title
;
Structure prediction by ZEFSAII (Michael W. Deem and Ramdas Pophale) SiO2 
 PCOD8084111
Probable space group: C 2/M
;
_chemical_formula_sum "Si O2"
_cell_formula_units_Z 56
_cell_length_a 29.563292
_cell_length_b 9.036985
_cell_length_c 10.986327
_cell_angle_alpha 90.000000
_cell_angle_beta 108.767867
_cell_angle_gamma 90.000000
_cell_volume 2779.078506
_symmetry_space_group_name_H-M "C 2/M"
_symmetry_group_IT_number 12
_symmetry_cell_setting 'monoclinic'
loop_
_space_group_symop_operation_xyz
x,y,z
-x,y,-z
-x,-y,-z
x,-y,z
1/2+x,1/2+y,z
1/2-x,1/2+y,-z
1/2-x,1/2-y,-z
1/2+x,1/2-y,z
loop_
_atom_site_type_symbol
_atom_site_label
_atom_site_fract_x
_atom_site_fract_y
_atom_site_fract_z
Si Si1 0.123583 0.169876 0.561795
Si Si2 0.226427 0.675292 0.098123
Si Si3 0.427086 0.670162 0.245869
Si Si4 0.046678 0.834403 0.103014
Si Si5 0.382474 0.826047 0.983605
Si Si6 0.228121 0.823202 0.602351
Si Si7 0.969612 0.835281 0.628997
O O1 0.117841 0.183032 0.702366
O O2 0.173772 0.239257 0.563409
O O3 0.076623 0.252001 0.464624
O O4 0.124960 0.000000 0.520052
O O5 0.232137 0.500000 0.087633
O O6 0.247529 0.725301 0.248214
O O7 0.250000 0.750000 0.000000
O O8 0.171665 0.728764 0.050814
O O9 0.435138 0.500000 0.211381
O O10 0.415556 0.769747 0.121247
O O11 0.476934 0.727820 0.353164
O O12 0.036539 0.836433 0.234310
O O13 0.055235 0.000000 0.059584
O O14 0.094174 0.738572 0.118839
O O15 0.000000 0.762688 0.000000
O O16 0.384282 0.000000 0.979683
O O17 0.250000 0.750000 0.500000
O O18 0.231220 0.000000 0.591429
O O19 0.967130 0.000000 0.570008
#
# Coordination Sequence:
#
# PCOD8084111 Si02
#       7
#     8   8   8   8   8   8   8
#     4   9  18  32  56  84 108 138 179 229 282 330
#     4  10  23  42  62  87 118 151 196 247 294 346
#     4  10  18  34  58  83 111 143 180 227 277 328
#     4  10  19  34  54  80 111 144 187 232 269 322
#     4  11  23  36  54  81 115 150 184 225 280 338
#     4  10  22  40  59  84 116 150 192 240 290 347
#     4   9  17  30  52  84 113 136 176 228 275 324
#
# _framework density 20.150563999999999
#
# number of rings (size 3 to 8) (size 9 to 14) (size 15 to 20)
#    0.000    2.143    1.429    1.714    2.000    4.857 
#    0.000    0.714    0.000    3.429    0.000    0.000 
#    0.000    0.000    0.000    0.000    0.000    0.000 
#
# Total GULP energy -346931.714520 kJ/mol
# GULP energy per Si atom -12390.418376 kJ/mol
# Density = 2.010470 g / cm^3
# Si number density = 20.150564 Si / 1000 Ang^3
#
#
#
# Elastic Constant Matrix: (Units=GPa)
#
#
# Indices 1 2 3 4 5 6 
#
# 1 174.7796 36.9841 41.3265 0.0000 4.1265 0.0000
# 2 36.9841 34.3684 16.2750 0.0000 -1.0564 0.0000
# 3 41.3265 16.2750 80.1529 0.0000 5.0799 0.0000
# 4 0.0000 0.0000 0.0000 16.8451 0.0000 -2.1195
# 5 4.1265 -1.0564 5.0799 0.0000 36.7077 0.0000
# 6 0.0000 0.0000 0.0000 -2.1195 0.0000 27.6580
#
#
#
# Elastic Compliance Matrix: (Units=1/GPa)
#
#
# Indices 1 2 3 4 5 6 
#
# 1 0.007885 -0.007308 -0.002534 0.000000 -0.000746 0.000000
# 2 -0.007308 0.039089 -0.004331 0.000000 0.002546 0.000000
# 3 -0.002534 -0.004331 0.014782 0.000000 -0.001885 0.000000
# 4 0.000000 0.000000 0.000000 0.059942 0.000000 0.004594
# 5 -0.000746 0.002546 -0.001885 0.000000 0.027660 0.000000
# 6 0.000000 0.000000 0.000000 0.004594 0.000000 0.036508
#
#
# Mechanical properties :
#
#
# Convention : Reuss Voigt Hill
#
# Bulk Modulus (GPa) = 29.93058 53.16357 41.54708
# Shear Modulus (GPa) = 22.18792 29.22317 25.70555
#
# Velocity S-wave (km/s) = 3.32189 3.81233 3.57553
# Velocity P-wave (km/s) = 5.44050 6.76897 6.14076
#
# Compressibility (1/GPa) = 0.03341065
#
# Stress axis : x y z
#
# Youngs Moduli (GPa) = 126.82896 25.58248 67.65165
#
# Poissons Ratio (x) = 0.18695 0.17144
# Poissons Ratio (y) = 0.92681 0.29297
# Poissons Ratio (z) = 0.32141 0.11079
#
# Static dielectric constant tensor:
#      x y z
#    x 4.126460 0.000000 0.168280 
#    y 0.000000 3.256850 0.000000 
#    z 0.168280 0.000000 3.746180 
# 
# 
# High freq. dielectric constant tensor:
#      x y z
#    x 1.813040 0.000000 -0.001690 
#    y 0.000000 1.727130 0.000000 
#    z -0.001690 0.000000 1.796810 
# 
# From -- ./inp_files/186802.got.cif
#   From: 2010.06.25/outbox.cif.g09.slc.cpg/sg12_94_cif.got.tgz:186802.got - 2010.06.28 00:19:55.
