data_PCOD8084709
_publ_section_title
;
Structure prediction by ZEFSAII (Michael W. Deem and Ramdas Pophale) SiO2 
 PCOD8084709
Probable space group: C 2/M
;
_chemical_formula_sum "Si O2"
_cell_formula_units_Z 56
_cell_length_a 27.532195
_cell_length_b 8.899236
_cell_length_c 16.065262
_cell_angle_alpha 90.000000
_cell_angle_beta 115.381370
_cell_angle_gamma 90.000000
_cell_volume 3556.291702
_symmetry_space_group_name_H-M "C 2/M"
_symmetry_group_IT_number 12
_symmetry_cell_setting 'monoclinic'
loop_
_space_group_symop_operation_xyz
x,y,z
-x,y,-z
-x,-y,-z
x,-y,z
1/2+x,1/2+y,z
1/2-x,1/2+y,-z
1/2-x,1/2-y,-z
1/2+x,1/2-y,z
loop_
_atom_site_type_symbol
_atom_site_label
_atom_site_fract_x
_atom_site_fract_y
_atom_site_fract_z
Si Si1 0.555233 0.665217 0.991633
Si Si2 0.186367 0.175125 0.529156
Si Si3 0.484879 0.321725 0.355019
Si Si4 0.897943 0.822248 0.806832
Si Si5 0.192402 0.674659 0.359794
Si Si6 0.919041 0.176717 0.460540
Si Si7 0.997181 0.676648 0.190646
O O1 0.571213 0.500000 0.968601
O O2 0.548732 0.780030 0.910578
O O3 0.500000 0.651208 0.000000
O O4 0.598304 0.722034 0.092256
O O5 0.176114 0.270996 0.439279
O O6 0.244741 0.208034 0.610813
O O7 0.141927 0.226502 0.564097
O O8 0.180266 0.000000 0.500953
O O9 0.483888 0.500000 0.337305
O O10 0.541010 0.267149 0.437360
O O11 0.437126 0.267699 0.382405
O O12 0.476068 0.234031 0.263324
O O13 0.840551 0.764665 0.733528
O O14 0.945451 0.749728 0.787645
O O15 0.902728 0.000000 0.798733
O O16 0.178734 0.500000 0.342230
O O17 0.925184 0.000000 0.463594
O O18 0.004538 0.500000 0.196703
#
# Coordination Sequence:
#
# PCOD8084709 Si02
#       7
#     8   8   8   8   8   8   8
#     4   8  16  30  45  61  82 112 146 175 209 256
#     4   9  17  30  45  62  89 121 150 179 212 254
#     4   9  16  28  46  65  85 113 150 181 208 249
#     4  10  19  31  46  62  85 117 149 179 212 254
#     4  10  19  28  42  66  91 116 147 180 217 257
#     4   8  15  28  46  64  82 113 153 184 207 241
#     4  11  20  28  42  66  93 116 139 172 217 261
#
# _framework density 15.746739
#
# number of rings (size 3 to 8) (size 9 to 14) (size 15 to 20)
#    0.000    2.714    0.000    4.714    0.000    4.857 
#    0.000    2.143    0.000    0.000    0.000    1.000 
#    0.000    0.000    0.000    0.000    0.000    0.000 
#
# Total GULP energy -347076.482550 kJ/mol
# GULP energy per Si atom -12395.588663 kJ/mol
# Density = 1.571090 g / cm^3
# Si number density = 15.746739 Si / 1000 Ang^3
#
#
#
# Elastic Constant Matrix: (Units=GPa)
#
#
# Indices 1 2 3 4 5 6 
#
# 1 97.4222 34.7723 56.9785 0.0000 -2.7312 0.0000
# 2 34.7723 75.2831 53.7021 0.0000 -0.0569 0.0000
# 3 56.9785 53.7021 128.8105 0.0000 2.3442 0.0000
# 4 0.0000 0.0000 0.0000 17.6621 0.0000 4.0295
# 5 -2.7312 -0.0569 2.3442 0.0000 22.0838 0.0000
# 6 0.0000 0.0000 0.0000 4.0295 0.0000 16.6073
#
#
#
# Elastic Compliance Matrix: (Units=1/GPa)
#
#
# Indices 1 2 3 4 5 6 
#
# 1 0.014420 -0.002958 -0.005188 0.000000 0.002326 0.000000
# 2 -0.002958 0.019530 -0.006841 0.000000 0.000411 0.000000
# 3 -0.005188 -0.006841 0.012947 0.000000 -0.002034 0.000000
# 4 0.000000 0.000000 0.000000 0.059936 0.000000 -0.014543
# 5 0.002326 0.000411 -0.002034 0.000000 0.045787 0.000000
# 6 0.000000 0.000000 0.000000 -0.014543 0.000000 0.063743
#
#
# Mechanical properties :
#
#
# Convention : Reuss Voigt Hill
#
# Bulk Modulus (GPa) = 59.09059 65.82462 62.45761
# Shear Modulus (GPa) = 19.84309 21.67483 20.75896
#
# Velocity S-wave (km/s) = 3.55370 3.71410 3.63478
# Velocity P-wave (km/s) = 7.37871 7.76438 7.57400
#
# Compressibility (1/GPa) = 0.01692317
#
# Stress axis : x y z
#
# Youngs Moduli (GPa) = 69.35003 51.20381 77.23703
#
# Poissons Ratio (x) = 0.15146 0.40067
# Poissons Ratio (y) = 0.20514 0.52839
# Poissons Ratio (z) = 0.35976 0.35029
#
# Static dielectric constant tensor:
#      x y z
#    x 2.987240 0.000000 0.063380 
#    y 0.000000 2.906850 0.000000 
#    z 0.063380 0.000000 3.233520 
# 
# 
# High freq. dielectric constant tensor:
#      x y z
#    x 1.575600 0.000000 0.003450 
#    y 0.000000 1.597930 0.000000 
#    z 0.003450 0.000000 1.602350 
# 
# From -- ./inp_files/247937.got.cif
#   From: 2010.06.25/outbox.cif.g09.slc.cpg/sg12_124_cif.got.tgz:247937.got - 2010.06.28 00:19:55.
