data_PCOD8084863
_publ_section_title
;
Structure prediction by ZEFSAII (Michael W. Deem and Ramdas Pophale) SiO2 
 PCOD8084863
Probable space group: C 2/M
;
_chemical_formula_sum "Si O2"
_cell_formula_units_Z 64
_cell_length_a 22.658497
_cell_length_b 9.096760
_cell_length_c 23.082047
_cell_angle_alpha 90.000000
_cell_angle_beta 126.053957
_cell_angle_gamma 90.000000
_cell_volume 3846.381527
_symmetry_space_group_name_H-M "C 2/M"
_symmetry_group_IT_number 12
_symmetry_cell_setting 'monoclinic'
loop_
_space_group_symop_operation_xyz
x,y,z
-x,y,-z
-x,-y,-z
x,-y,z
1/2+x,1/2+y,z
1/2-x,1/2+y,-z
1/2-x,1/2-y,-z
1/2+x,1/2-y,z
loop_
_atom_site_type_symbol
_atom_site_label
_atom_site_fract_x
_atom_site_fract_y
_atom_site_fract_z
Si Si1 0.304042 0.170097 0.457132
Si Si2 0.421835 0.169657 0.428319
Si Si3 0.840494 0.327914 0.607683
Si Si4 0.211649 0.666272 0.845893
Si Si5 0.916808 0.336946 0.135296
Si Si6 0.300262 0.172372 0.982443
Si Si7 0.107377 0.172385 0.706550
Si Si8 0.015229 0.171119 0.271594
O O1 0.361670 0.208686 0.441165
O O2 0.232246 0.266019 0.404146
O O3 0.340372 0.211723 0.539557
O O4 0.281196 0.000000 0.443424
O O5 0.500000 0.205863 0.500000
O O6 0.409872 0.274901 0.367503
O O7 0.417094 0.000000 0.405798
O O8 0.844384 0.500000 0.621075
O O9 0.909564 0.254971 0.677450
O O10 0.233604 0.500000 0.842350
O O11 0.150841 0.670987 0.860113
O O12 0.283946 0.752336 0.910721
O O13 0.180300 0.746352 0.770882
O O14 0.951432 0.500000 0.157240
O O15 0.978494 0.220876 0.189589
O O16 0.884543 0.304116 0.052107
O O17 0.280845 0.000000 0.968226
O O18 0.250000 0.250000 0.000000
O O19 0.038202 0.212807 0.706520
O O20 0.122806 0.000000 0.716136
O O21 0.031651 0.000000 0.277845
#
# Coordination Sequence:
#
# PCOD8084863 Si02
#       8
#     8   8   8   8   8   8   8   8
#     4   9  19  34  50  69  91 116 148 185 225 270
#     4  10  20  34  51  69  92 122 152 184 225 272
#     4  10  19  32  51  69  88 116 149 187 228 271
#     4   9  16  26  40  57  81 116 153 187 224 268
#     4   8  15  25  37  56  83 115 149 183 220 265
#     4   9  15  23  36  55  81 114 150 186 223 265
#     4  10  20  31  44  65  92 121 154 192 229 269
#     4  10  19  29  43  64  91 121 152 188 228 268
#
# _framework density 16.639016000000002
#
# number of rings (size 3 to 8) (size 9 to 14) (size 15 to 20)
#    0.000    2.625    0.000    3.375    0.000    7.250 
#    0.000    0.000    0.000    0.000    0.000    0.000 
#    0.000    1.000    0.000   10.500    0.000    7.125 
#
# Total GULP energy -396720.361669 kJ/mol
# GULP energy per Si atom -12397.511302 kJ/mol
# Density = 1.660114 g / cm^3
# Si number density = 16.639016 Si / 1000 Ang^3
#
#
#
# Elastic Constant Matrix: (Units=GPa)
#
#
# Indices 1 2 3 4 5 6 
#
# 1 53.1466 39.1568 43.4176 0.0000 10.2022 0.0000
# 2 39.1568 99.2519 64.9638 0.0000 13.0162 0.0000
# 3 43.4176 64.9638 126.5482 0.0000 18.0336 0.0000
# 4 0.0000 0.0000 0.0000 35.6499 0.0000 2.1611
# 5 10.2022 13.0162 18.0336 0.0000 16.1918 0.0000
# 6 0.0000 0.0000 0.0000 2.1611 0.0000 18.4952
#
#
#
# Elastic Compliance Matrix: (Units=1/GPa)
#
#
# Indices 1 2 3 4 5 6 
#
# 1 0.030086 -0.007310 -0.005593 0.000000 -0.006851 0.000000
# 2 -0.007310 0.017193 -0.005949 0.000000 -0.002589 0.000000
# 3 -0.005593 -0.005949 0.013897 0.000000 -0.007171 0.000000
# 4 0.000000 0.000000 0.000000 0.028251 0.000000 -0.003301
# 5 -0.006851 -0.002589 -0.007171 0.000000 0.076145 0.000000
# 6 0.000000 0.000000 0.000000 -0.003301 0.000000 0.054454
#
#
# Mechanical properties :
#
#
# Convention : Reuss Voigt Hill
#
# Bulk Modulus (GPa) = 42.60552 63.78035 53.19294
# Shear Modulus (GPa) = 18.82858 22.82795 20.82827
#
# Velocity S-wave (km/s) = 3.36756 3.70801 3.54188
# Velocity P-wave (km/s) = 6.38608 7.53309 6.98318
#
# Compressibility (1/GPa) = 0.02347114
#
# Stress axis : x y z
#
# Youngs Moduli (GPa) = 33.23768 58.16437 71.95798
#
# Poissons Ratio (x) = 0.42519 0.40249
# Poissons Ratio (y) = 0.24297 0.42807
# Poissons Ratio (z) = 0.18591 0.34601
#
# Static dielectric constant tensor:
#      x y z
#    x 2.679920 0.000000 0.111410 
#    y 0.000000 3.250010 0.000000 
#    z 0.111410 0.000000 3.532340 
# 
# 
# High freq. dielectric constant tensor:
#      x y z
#    x 1.577470 0.000000 0.013590 
#    y 0.000000 1.654320 0.000000 
#    z 0.013590 0.000000 1.655100 
# 
# From -- ./inp_files/348605.got.cif
#   From: 2010.06.25/outbox.cif.g09.slc.cpg/sg12_175_cif.got.tgz:348605.got - 2010.06.28 00:19:55.
