data_PCOD8084620
_publ_section_title
;
Structure prediction by ZEFSAII (Michael W. Deem and Ramdas Pophale) SiO2 
 PCOD8084620
Probable space group: C 2/M
;
_chemical_formula_sum "Si O2"
_cell_formula_units_Z 56
_cell_length_a 14.993869
_cell_length_b 17.245252
_cell_length_c 12.656601
_cell_angle_alpha 90.000000
_cell_angle_beta 63.414798
_cell_angle_gamma 90.000000
_cell_volume 2926.637519
_symmetry_space_group_name_H-M "C 2/M"
_symmetry_group_IT_number 12
_symmetry_cell_setting 'monoclinic'
loop_
_space_group_symop_operation_xyz
x,y,z
-x,y,-z
-x,-y,-z
x,-y,z
1/2+x,1/2+y,z
1/2-x,1/2+y,-z
1/2-x,1/2-y,-z
1/2+x,1/2-y,z
loop_
_atom_site_type_symbol
_atom_site_label
_atom_site_fract_x
_atom_site_fract_y
_atom_site_fract_z
Si Si1 0.111576 0.583631 0.903399
Si Si2 0.613049 0.243296 0.981754
Si Si3 0.473847 0.411472 0.393741
Si Si4 0.251273 0.410589 0.438498
Si Si5 0.747311 0.791761 0.265105
Si Si6 0.132491 0.667191 0.679908
Si Si7 0.435642 0.267200 0.759485
O O1 0.166652 0.500000 0.893079
O O2 0.159360 0.655862 0.942850
O O3 0.114177 0.601483 0.777209
O O4 0.000000 0.573458 0.000000
O O5 0.678096 0.300265 0.874358
O O6 0.500000 0.243344 0.000000
O O7 0.620534 0.270251 0.098030
O O8 0.500000 0.391405 0.500000
O O9 0.503579 0.500000 0.350188
O O10 0.356915 0.397374 0.439199
O O11 0.537022 0.355266 0.284693
O O12 0.226449 0.500000 0.436551
O O13 0.248611 0.373784 0.323488
O O14 0.165145 0.372287 0.554313
O O15 0.782027 0.725785 0.327870
O O16 0.636258 0.770707 0.288412
O O17 0.032076 0.714128 0.713584
#
# Coordination Sequence:
#
# PCOD8084620 Si02
#       7
#     8   8   8   8   8   8   8
#     4   9  16  31  55  82 112 151 191 243 297 341
#     4  10  18  39  59  87 116 154 200 253 295 359
#     4  10  22  40  63  90 120 155 202 260 305 344
#     4  11  23  41  59  88 127 161 198 248 302 361
#     4  11  23  38  62  87 121 158 204 244 302 361
#     4  11  21  37  59  87 118 157 205 241 302 355
#     4  12  22  37  63  89 118 156 204 249 299 362
#
# _framework density 19.134585999999999
#
# number of rings (size 3 to 8) (size 9 to 14) (size 15 to 20)
#    0.000    1.429    5.714    2.143    2.000    0.000 
#    0.000    6.429    0.000    2.571    0.000    0.000 
#    0.000    0.000    0.000    0.000    0.000    0.000 
#
# Total GULP energy -347190.679660 kJ/mol
# GULP energy per Si atom -12399.667131 kJ/mol
# Density = 1.909104 g / cm^3
# Si number density = 19.134586 Si / 1000 Ang^3
#
#
#
# Elastic Constant Matrix: (Units=GPa)
#
#
# Indices 1 2 3 4 5 6 
#
# 1 66.4714 29.5664 32.9141 0.0000 8.9698 0.0000
# 2 29.5664 114.8031 91.4448 0.0000 2.6260 0.0000
# 3 32.9141 91.4448 144.7801 0.0000 -3.1372 0.0000
# 4 0.0000 0.0000 0.0000 44.7021 0.0000 -2.2809
# 5 8.9698 2.6260 -3.1372 0.0000 11.2237 0.0000
# 6 0.0000 0.0000 0.0000 -2.2809 0.0000 25.0633
#
#
#
# Elastic Compliance Matrix: (Units=1/GPa)
#
#
# Indices 1 2 3 4 5 6 
#
# 1 0.019932 -0.001727 -0.003800 0.000000 -0.016587 0.000000
# 2 -0.001727 0.018285 -0.011287 0.000000 -0.006053 0.000000
# 3 -0.003800 -0.011287 0.015115 0.000000 0.009902 0.000000
# 4 0.000000 0.000000 0.000000 0.022475 0.000000 0.002045
# 5 -0.016587 -0.006053 0.009902 0.000000 0.106537 0.000000
# 6 0.000000 0.000000 0.000000 0.002045 0.000000 0.040085
#
#
# Mechanical properties :
#
#
# Convention : Reuss Voigt Hill
#
# Bulk Modulus (GPa) = 50.75425 70.43390 60.59408
# Shear Modulus (GPa) = 19.03858 27.67311 23.35584
#
# Velocity S-wave (km/s) = 3.15776 3.80707 3.49751
# Velocity P-wave (km/s) = 6.31488 7.49764 6.93153
#
# Compressibility (1/GPa) = 0.01970278
#
# Stress axis : x y z
#
# Youngs Moduli (GPa) = 50.17003 54.69111 66.16124
#
# Poissons Ratio (x) = 0.09446 0.25140
# Poissons Ratio (y) = 0.08665 0.74678
# Poissons Ratio (z) = 0.19064 0.61731
#
# Static dielectric constant tensor:
#      x y z
#    x 3.432370 0.000000 0.088500 
#    y 0.000000 3.819850 0.000000 
#    z 0.088500 0.000000 3.877830 
# 
# 
# High freq. dielectric constant tensor:
#      x y z
#    x 1.731660 0.000000 -0.005580 
#    y 0.000000 1.741890 0.000000 
#    z -0.005580 0.000000 1.752610 
# 
# From -- ./inp_files/145506.got.cif
#   From: 2010.06.25/outbox.cif.g09.slc.cpg/sg12_73_cif.got.tgz:145506.got - 2010.06.28 00:19:55.
