data_PCOD8084903
_publ_section_title
;
Structure prediction by ZEFSAII (Michael W. Deem and Ramdas Pophale) SiO2 
 PCOD8084903
Probable space group: C 2/M
;
_chemical_formula_sum "Si O2"
_cell_formula_units_Z 56
_cell_length_a 29.408328
_cell_length_b 9.394406
_cell_length_c 16.335798
_cell_angle_alpha 90.000000
_cell_angle_beta 137.490724
_cell_angle_gamma 90.000000
_cell_volume 3049.580330
_symmetry_space_group_name_H-M "C 2/M"
_symmetry_group_IT_number 12
_symmetry_cell_setting 'monoclinic'
loop_
_space_group_symop_operation_xyz
x,y,z
-x,y,-z
-x,-y,-z
x,-y,z
1/2+x,1/2+y,z
1/2-x,1/2+y,-z
1/2-x,1/2-y,-z
1/2+x,1/2-y,z
loop_
_atom_site_type_symbol
_atom_site_label
_atom_site_fract_x
_atom_site_fract_y
_atom_site_fract_z
Si Si1 0.544403 0.334900 0.794054
Si Si2 0.166591 0.830085 0.062945
Si Si3 0.684642 0.168649 0.735621
Si Si4 0.050483 0.667764 0.639796
Si Si5 0.163239 0.166940 0.239518
Si Si6 0.815394 0.333340 0.448967
Si Si7 0.093143 0.164932 0.305729
O O1 0.551615 0.500000 0.779496
O O2 0.526856 0.247063 0.689850
O O3 0.485665 0.312600 0.782609
O O4 0.612658 0.273609 0.925649
O O5 0.241691 0.777625 0.136610
O O6 0.149378 0.767599 0.130787
O O7 0.163900 0.000000 0.062173
O O8 0.625425 0.223755 0.716245
O O9 0.670241 0.219845 0.624247
O O10 0.684455 0.000000 0.734339
O O11 0.049025 0.500000 0.654761
O O12 0.000000 0.708414 0.500000
O O13 0.238472 0.203537 0.369725
O O14 0.110651 0.223893 0.237826
O O15 0.155245 0.000000 0.218773
O O16 0.830423 0.500000 0.478670
O O17 0.864555 0.248652 0.571976
O O18 0.113723 0.000000 0.339713
#
# Coordination Sequence:
#
# PCOD8084903 Si02
#       7
#     8   8   8   8   8   8   8
#     4  10  21  33  47  70  98 125 153 190 232 273
#     4   8  15  30  49  69  93 121 156 193 229 271
#     4   8  15  29  50  71  90 118 157 197 230 268
#     4  10  20  34  52  72  93 120 155 192 231 277
#     4   8  15  28  48  71  93 121 157 193 226 270
#     4   9  16  29  50  72  92 119 157 194 230 274
#     4  10  19  29  43  69 101 126 151 188 233 274
#
# _framework density 18.363181999999998
#
# number of rings (size 3 to 8) (size 9 to 14) (size 15 to 20)
#    0.000    3.000    0.000    3.000    0.000    3.143 
#    0.000    3.571    0.000    4.286    0.000    2.000 
#    0.000    0.000    0.000    0.000    0.000    0.000 
#
# Total GULP energy -347041.208570 kJ/mol
# GULP energy per Si atom -12394.328878 kJ/mol
# Density = 1.832139 g / cm^3
# Si number density = 18.363182 Si / 1000 Ang^3
#
#
#
# Elastic Constant Matrix: (Units=GPa)
#
#
# Indices 1 2 3 4 5 6 
#
# 1 99.1263 19.6671 30.8085 0.0000 9.4252 0.0000
# 2 19.6671 25.4629 25.4465 0.0000 0.8171 0.0000
# 3 30.8085 25.4465 101.2652 0.0000 4.5471 0.0000
# 4 0.0000 0.0000 0.0000 19.2686 0.0000 -1.5342
# 5 9.4252 0.8171 4.5471 0.0000 20.5384 0.0000
# 6 0.0000 0.0000 0.0000 -1.5342 0.0000 18.9952
#
#
#
# Elastic Compliance Matrix: (Units=1/GPa)
#
#
# Indices 1 2 3 4 5 6 
#
# 1 0.012666 -0.008009 -0.001610 0.000000 -0.005137 0.000000
# 2 -0.008009 0.057521 -0.012201 0.000000 0.004088 0.000000
# 3 -0.001610 -0.012201 0.013510 0.000000 -0.001767 0.000000
# 4 0.000000 0.000000 0.000000 0.052234 0.000000 0.004219
# 5 -0.005137 0.004088 -0.001767 0.000000 0.051275 0.000000
# 6 0.000000 0.000000 0.000000 0.004219 0.000000 0.052986
#
#
# Mechanical properties :
#
#
# Convention : Reuss Voigt Hill
#
# Bulk Modulus (GPa) = 24.96469 41.96650 33.46559
# Shear Modulus (GPa) = 16.82452 21.75593 19.29023
#
# Velocity S-wave (km/s) = 3.03018 3.44577 3.24463
# Velocity P-wave (km/s) = 5.08597 6.22369 5.68337
#
# Compressibility (1/GPa) = 0.04005658
#
# Stress axis : x y z
#
# Youngs Moduli (GPa) = 78.95086 17.38496 74.01784
#
# Poissons Ratio (x) = 0.13924 0.11919
# Poissons Ratio (y) = 0.63232 0.90310
# Poissons Ratio (z) = 0.12713 0.21212
#
# Static dielectric constant tensor:
#      x y z
#    x 4.042510 0.000000 0.126160 
#    y 0.000000 2.874730 0.000000 
#    z 0.126160 0.000000 3.468360 
# 
# 
# High freq. dielectric constant tensor:
#      x y z
#    x 1.725900 0.000000 0.005340 
#    y 0.000000 1.655890 0.000000 
#    z 0.005340 0.000000 1.712190 
# 
# From -- ./inp_files/231958.got.cif
#   From: 2010.06.25/outbox.cif.g09.slc.cpg/sg12_116_cif.got.tgz:231958.got - 2010.06.28 00:19:55.
