data_PCOD8084420
_publ_section_title
;
Structure prediction by ZEFSAII (Michael W. Deem and Ramdas Pophale) SiO2 
 PCOD8084420
Probable space group: C 2/M
;
_chemical_formula_sum "Si O2"
_cell_formula_units_Z 56
_cell_length_a 16.787507
_cell_length_b 25.665672
_cell_length_c 12.733713
_cell_angle_alpha 90.000000
_cell_angle_beta 29.499860
_cell_angle_gamma 90.000000
_cell_volume 2701.660989
_symmetry_space_group_name_H-M "C 2/M"
_symmetry_group_IT_number 12
_symmetry_cell_setting 'monoclinic'
loop_
_space_group_symop_operation_xyz
x,y,z
-x,y,-z
-x,-y,-z
x,-y,z
1/2+x,1/2+y,z
1/2-x,1/2+y,-z
1/2-x,1/2-y,-z
1/2+x,1/2-y,z
loop_
_atom_site_type_symbol
_atom_site_label
_atom_site_fract_x
_atom_site_fract_y
_atom_site_fract_z
Si Si1 0.822600 0.154606 0.172777
Si Si2 0.120524 0.350974 0.772050
Si Si3 0.972162 0.558617 0.808475
Si Si4 0.919708 0.292794 0.386462
Si Si5 0.956957 0.817561 0.433626
Si Si6 0.148969 0.556947 0.397446
Si Si7 0.741995 0.145010 0.028606
O O1 0.683974 0.183155 0.398973
O O2 0.806682 0.092697 0.209107
O O3 0.801235 0.161823 0.074625
O O4 0.000000 0.174847 0.000000
O O5 0.045678 0.406027 0.818057
O O6 0.152186 0.308397 0.644121
O O7 0.300364 0.356049 0.615321
O O8 0.000000 0.328837 0.000000
O O9 0.924439 0.500000 0.903288
O O10 0.111519 0.553209 0.562912
O O11 0.821315 0.586178 0.921400
O O12 0.926674 0.231274 0.392082
O O13 0.099432 0.314945 0.170321
O O14 0.000000 0.796773 0.500000
O O15 0.109317 0.850130 0.220415
O O16 0.189117 0.500000 0.304386
O O17 0.000000 0.581428 0.500000
#
# Coordination Sequence:
#
# PCOD8084420 Si02
#       7
#     8   8   8   8   8   8   8
#     4  12  22  35  59  94 133 166 204 257 306 369
#     4  11  24  43  66  91 124 160 209 256 308 367
#     4  10  21  40  67  89 119 165 210 253 313 373
#     4  11  23  43  63  89 126 168 209 250 309 367
#     4  12  25  42  65  93 125 162 207 258 306 365
#     4  10  18  35  62  89 122 166 205 250 312 375
#     4  11  22  38  63  92 125 164 210 254 309 363
#
# _framework density 20.727988
#
# number of rings (size 3 to 8) (size 9 to 14) (size 15 to 20)
#    0.000    1.000    4.286    4.714    0.000    2.286 
#    0.000    0.714    0.000    1.714    0.000    0.000 
#    0.000    0.000    0.000    0.000    0.000    0.000 
#
# Total GULP energy -347015.896779 kJ/mol
# GULP energy per Si atom -12393.424885 kJ/mol
# Density = 2.068081 g / cm^3
# Si number density = 20.727988 Si / 1000 Ang^3
#
#
#
# Elastic Constant Matrix: (Units=GPa)
#
#
# Indices 1 2 3 4 5 6 
#
# 1 95.4981 21.8486 29.1219 -0.0583 -0.7730 0.0393
# 2 21.8486 73.4809 14.1212 -0.0068 0.7940 0.0086
# 3 29.1219 14.1212 122.4290 0.0109 -6.0926 0.0222
# 4 -0.0583 -0.0068 0.0109 13.7658 0.0130 5.5419
# 5 -0.7730 0.7940 -6.0926 0.0130 39.0016 -0.0205
# 6 0.0393 0.0086 0.0222 5.5419 -0.0205 16.7159
#
#
#
# Elastic Compliance Matrix: (Units=1/GPa)
#
#
# Indices 1 2 3 4 5 6 
#
# 1 0.011932 -0.003068 -0.002489 0.000070 -0.000090 -0.000046
# 2 -0.003068 0.014718 -0.000993 -0.000005 -0.000516 0.000002
# 3 -0.002489 -0.000993 0.008943 -0.000021 0.001368 0.000003
# 4 0.000070 -0.000005 -0.000021 0.083833 -0.000044 -0.027794
# 5 -0.000090 -0.000516 0.001368 -0.000044 0.025862 0.000045
# 6 -0.000046 0.000002 0.000003 -0.027794 0.000045 0.069038
#
#
# Mechanical properties :
#
#
# Convention : Reuss Voigt Hill
#
# Bulk Modulus (GPa) = 44.46210 46.84348 45.65279
# Shear Modulus (GPa) = 21.28346 28.98441 25.13393
#
# Velocity S-wave (km/s) = 3.20785 3.74347 3.48596
# Velocity P-wave (km/s) = 5.93441 6.42907 6.18669
#
# Compressibility (1/GPa) = 0.02249107
#
# Stress axis : x y z
#
# Youngs Moduli (GPa) = 83.81035 67.94480 111.82390
#
# Poissons Ratio (x) = 0.20849 0.27830
# Poissons Ratio (y) = 0.25717 0.11108
# Poissons Ratio (z) = 0.20858 0.06749
#
# Static dielectric constant tensor:
#      x y z
#    x 4.066140 0.000000 -0.024160 
#    y 0.000000 3.808210 0.000080 
#    z -0.024160 0.000080 3.698420 
# 
# 
# High freq. dielectric constant tensor:
#      x y z
#    x 1.820020 -0.000010 0.004270 
#    y -0.000010 1.797500 0.000010 
#    z 0.004270 0.000010 1.805630 
# 
# From -- ./inp_files/150393.got.cif
#   From: 2010.06.25/outbox.cif.g09.slc.cpg/sg12_76_cif.got.tgz:150393.got - 2010.06.28 00:19:55.
