data_PCOD8084897
_publ_section_title
;
Structure prediction by ZEFSAII (Michael W. Deem and Ramdas Pophale) SiO2 
 PCOD8084897
Probable space group: C 2/M
;
_chemical_formula_sum "Si O2"
_cell_formula_units_Z 56
_cell_length_a 17.367696
_cell_length_b 16.556141
_cell_length_c 11.301807
_cell_angle_alpha 90.000000
_cell_angle_beta 90.406735
_cell_angle_gamma 90.000000
_cell_volume 3249.662574
_symmetry_space_group_name_H-M "C 2/M"
_symmetry_group_IT_number 12
_symmetry_cell_setting 'monoclinic'
loop_
_space_group_symop_operation_xyz
x,y,z
-x,y,-z
-x,-y,-z
x,-y,z
1/2+x,1/2+y,z
1/2-x,1/2+y,-z
1/2-x,1/2-y,-z
1/2+x,1/2-y,z
loop_
_atom_site_type_symbol
_atom_site_label
_atom_site_fract_x
_atom_site_fract_y
_atom_site_fract_z
Si Si1 0.677555 0.720875 0.848543
Si Si2 0.169104 0.804364 0.114523
Si Si3 0.960023 0.227979 0.311198
Si Si4 0.750601 0.094928 0.328181
Si Si5 0.860306 0.163121 0.519169
Si Si6 0.384264 0.800600 0.690664
Si Si7 0.071170 0.089661 0.265229
O O1 0.739413 0.792671 0.863742
O O2 0.605981 0.759985 0.777243
O O3 0.710256 0.642890 0.779271
O O4 0.649269 0.691132 0.976059
O O5 0.126043 0.727347 0.173188
O O6 0.139748 0.886827 0.175147
O O7 0.924457 0.199819 0.433825
O O8 0.023960 0.298703 0.336228
O O9 0.000272 0.151128 0.248793
O O10 0.787455 0.125475 0.451492
O O11 0.658256 0.113757 0.330776
O O12 0.763521 0.000000 0.310801
O O13 0.837225 0.235498 0.608831
O O14 0.898495 0.093000 0.599111
O O15 0.042208 0.000000 0.236132
#
# Coordination Sequence:
#
# PCOD8084897 Si02
#       7
#     8   8   8   8   8   8   8
#     4   9  17  32  49  66  87 115 156 188 217 262
#     4   8  17  32  48  65  86 118 154 187 216 257
#     4   9  18  29  47  68  87 117 148 183 223 261
#     4  10  19  29  46  70  94 119 146 185 231 267
#     4   9  17  31  47  65  89 121 157 183 211 261
#     4   9  17  30  47  68  91 118 152 186 221 262
#     4  10  19  29  43  67  96 120 142 176 226 274
#
# _framework density 17.232558000000001
#
# number of rings (size 3 to 8) (size 9 to 14) (size 15 to 20)
#    0.000    3.143    0.000    2.571    0.000    7.429 
#    0.000    0.714    0.000    2.571    0.000    9.000 
#    0.000    0.000    0.000    0.000    0.000    0.000 
#
# Total GULP energy -346930.370053 kJ/mol
# GULP energy per Si atom -12390.370359 kJ/mol
# Density = 1.719334 g / cm^3
# Si number density = 17.232558 Si / 1000 Ang^3
#
#
#
# Elastic Constant Matrix: (Units=GPa)
#
#
# Indices 1 2 3 4 5 6 
#
# 1 77.6576 10.1935 18.9811 0.0000 1.2294 0.0000
# 2 10.1935 34.3386 7.2191 0.0000 1.2102 0.0000
# 3 18.9811 7.2191 86.1470 0.0000 -5.7814 0.0000
# 4 0.0000 0.0000 0.0000 12.7989 0.0000 -1.4230
# 5 1.2294 1.2102 -5.7814 0.0000 21.1643 0.0000
# 6 0.0000 0.0000 0.0000 -1.4230 0.0000 18.2365
#
#
#
# Elastic Compliance Matrix: (Units=1/GPa)
#
#
# Indices 1 2 3 4 5 6 
#
# 1 0.014070 -0.003517 -0.002900 0.000000 -0.001408 0.000000
# 2 -0.003517 0.030645 -0.001932 0.000000 -0.002076 0.000000
# 3 -0.002900 -0.001932 0.012660 0.000000 0.003737 0.000000
# 4 0.000000 0.000000 0.000000 0.078815 0.000000 0.006150
# 5 -0.001408 -0.002076 0.003737 0.000000 0.048471 0.000000
# 6 0.000000 0.000000 0.000000 0.006150 0.000000 0.055315
#
#
# Mechanical properties :
#
#
# Convention : Reuss Voigt Hill
#
# Bulk Modulus (GPa) = 24.58471 30.10341 27.34406
# Shear Modulus (GPa) = 18.50250 21.22324 19.86287
#
# Velocity S-wave (km/s) = 3.28028 3.51319 3.39873
# Velocity P-wave (km/s) = 5.35205 5.82782 5.59499
#
# Compressibility (1/GPa) = 0.04067568
#
# Stress axis : x y z
#
# Youngs Moduli (GPa) = 71.07420 32.63141 78.99060
#
# Poissons Ratio (x) = 0.11478 0.22906
# Poissons Ratio (y) = 0.25000 0.15264
# Poissons Ratio (z) = 0.20610 0.06306
#
# Static dielectric constant tensor:
#      x y z
#    x 3.314700 0.000000 -0.049760 
#    y 0.000000 2.827800 0.000000 
#    z -0.049760 0.000000 3.358560 
# 
# 
# High freq. dielectric constant tensor:
#      x y z
#    x 1.665250 0.000000 -0.002540 
#    y 0.000000 1.615590 0.000000 
#    z -0.002540 0.000000 1.675310 
# 
# From -- ./inp_files/157314.got.cif
#   From: 2010.06.25/outbox.cif.g09.slc.cpg/sg12_79_cif.got.tgz:157314.got - 2010.06.28 00:19:55.
