data_PCOD8084544
_publ_section_title
;
Structure prediction by ZEFSAII (Michael W. Deem and Ramdas Pophale) SiO2 
 PCOD8084544
Probable space group: C 2/M
;
_chemical_formula_sum "Si O2"
_cell_formula_units_Z 56
_cell_length_a 24.533061
_cell_length_b 17.464083
_cell_length_c 20.313267
_cell_angle_alpha 90.000000
_cell_angle_beta 21.293613
_cell_angle_gamma 90.000000
_cell_volume 3160.532089
_symmetry_space_group_name_H-M "C 2/M"
_symmetry_group_IT_number 12
_symmetry_cell_setting 'monoclinic'
loop_
_space_group_symop_operation_xyz
x,y,z
-x,y,-z
-x,-y,-z
x,-y,z
1/2+x,1/2+y,z
1/2-x,1/2+y,-z
1/2-x,1/2-y,-z
1/2+x,1/2-y,z
loop_
_atom_site_type_symbol
_atom_site_label
_atom_site_fract_x
_atom_site_fract_y
_atom_site_fract_z
Si Si1 0.563755 0.083685 0.768379
Si Si2 0.706839 0.168038 0.967464
Si Si3 0.694208 0.771728 0.489698
Si Si4 0.323220 0.588427 0.705656
Si Si5 0.332974 0.586713 0.377291
Si Si6 0.863002 0.671708 0.193916
Si Si7 0.917219 0.186547 0.843216
O O1 0.738629 0.086116 0.551327
O O2 0.552573 0.108414 0.856649
O O3 0.494420 0.000000 0.840067
O O4 0.462701 0.135839 0.833971
O O5 0.775336 0.137365 0.822886
O O6 0.811352 0.141304 0.910773
O O7 0.686780 0.260738 0.992057
O O8 0.750000 0.750000 0.500000
O O9 0.733678 0.862628 0.437365
O O10 0.785825 0.732901 0.327973
O O11 0.522338 0.743544 0.680514
O O12 0.500000 0.591683 0.500000
O O13 0.268924 0.500000 0.772534
O O14 0.257709 0.629428 0.715203
O O15 0.355289 0.500000 0.325062
O O16 0.493589 0.625020 0.212900
O O17 0.000000 0.711764 0.000000
#
# Coordination Sequence:
#
# PCOD8084544 Si02
#       7
#     8   8   8   8   8   8   8
#     4  11  20  33  52  80 114 147 180 220 269 325
#     4  11  21  35  53  79 110 153 188 227 260 316
#     4  10  18  37  56  78 108 142 183 229 270 328
#     4  11  25  38  50  79 122 154 179 215 273 342
#     4  10  20  34  59  83 106 140 182 232 283 327
#     4  12  22  34  56  82 108 152 187 219 269 330
#     4  10  20  35  57  78 108 146 193 230 272 317
#
# _framework density 17.718536
#
# number of rings (size 3 to 8) (size 9 to 14) (size 15 to 20)
#    0.000    1.286    5.714    2.571    0.000    1.714 
#    0.000    0.000    0.000    0.429    0.000    0.000 
#    0.000    2.286    0.000    0.000    0.000    0.000 
#
# Total GULP energy -346949.742475 kJ/mol
# GULP energy per Si atom -12391.062231 kJ/mol
# Density = 1.767821 g / cm^3
# Si number density = 17.718536 Si / 1000 Ang^3
#
#
#
# Elastic Constant Matrix: (Units=GPa)
#
#
# Indices 1 2 3 4 5 6 
#
# 1 88.4681 50.7380 28.3950 0.0000 -3.9101 0.0005
# 2 50.7380 114.2547 28.4025 0.0028 3.7576 -0.0054
# 3 28.3950 28.4025 66.7330 -0.0057 2.3371 -0.0019
# 4 0.0000 0.0028 -0.0057 28.9819 -0.0004 -0.2605
# 5 -3.9101 3.7576 2.3371 -0.0004 35.3669 0.0009
# 6 0.0005 -0.0054 -0.0019 -0.2605 0.0009 17.4961
#
#
#
# Elastic Compliance Matrix: (Units=1/GPa)
#
#
# Indices 1 2 3 4 5 6 
#
# 1 0.016459 -0.006302 -0.004418 0.000000 0.002781 -0.000003
# 2 -0.006302 0.012222 -0.002456 -0.000002 -0.001833 0.000004
# 3 -0.004418 -0.002456 0.017960 0.000004 -0.001414 0.000001
# 4 0.000000 -0.000002 0.000004 0.034509 0.000000 0.000514
# 5 0.002781 -0.001833 -0.001414 0.000000 0.028871 -0.000002
# 6 -0.000003 0.000004 0.000001 0.000514 -0.000002 0.057163
#
#
# Mechanical properties :
#
#
# Convention : Reuss Voigt Hill
#
# Bulk Modulus (GPa) = 49.29122 53.83632 51.56377
# Shear Modulus (GPa) = 24.96261 27.16366 26.06314
#
# Velocity S-wave (km/s) = 3.75753 3.91968 3.83946
# Velocity P-wave (km/s) = 6.83409 7.13690 6.98714
#
# Compressibility (1/GPa) = 0.02028759
#
# Stress axis : x y z
#
# Youngs Moduli (GPa) = 60.75711 81.82060 55.67930
#
# Poissons Ratio (x) = 0.51565 0.24601
# Poissons Ratio (y) = 0.38290 0.13675
# Poissons Ratio (z) = 0.26845 0.20095
#
# Static dielectric constant tensor:
#      x y z
#    x 3.260310 0.000010 -0.115660 
#    y 0.000010 3.606960 0.000040 
#    z -0.115660 0.000040 3.511680 
# 
# 
# High freq. dielectric constant tensor:
#      x y z
#    x 1.659470 0.000000 -0.016620 
#    y 0.000000 1.678220 0.000000 
#    z -0.016620 0.000000 1.696760 
# 
# From -- ./inp_files/325972.got.cif
#   From: 2010.06.25/outbox.cif.g09.slc.cpg/sg12_163_cif.got.tgz:325972.got - 2010.06.28 00:19:55.
