data_PCOD8084154
_publ_section_title
;
Structure prediction by ZEFSAII (Michael W. Deem and Ramdas Pophale) SiO2 
 PCOD8084154
Probable space group: C 2/M
;
_chemical_formula_sum "Si O2"
_cell_formula_units_Z 64
_cell_length_a 20.366772
_cell_length_b 8.894686
_cell_length_c 20.008689
_cell_angle_alpha 90.000000
_cell_angle_beta 112.499420
_cell_angle_gamma 90.000000
_cell_volume 3348.795471
_symmetry_space_group_name_H-M "C 2/M"
_symmetry_group_IT_number 12
_symmetry_cell_setting 'monoclinic'
loop_
_space_group_symop_operation_xyz
x,y,z
-x,y,-z
-x,-y,-z
x,-y,z
1/2+x,1/2+y,z
1/2-x,1/2+y,-z
1/2-x,1/2-y,-z
1/2+x,1/2-y,z
loop_
_atom_site_type_symbol
_atom_site_label
_atom_site_fract_x
_atom_site_fract_y
_atom_site_fract_z
Si Si1 0.543342 0.676292 0.955778
Si Si2 0.300059 0.673993 0.339890
Si Si3 0.780917 0.829455 0.575537
Si Si4 0.930465 0.822137 0.804683
Si Si5 0.205260 0.675253 0.179231
Si Si6 0.201109 0.179212 0.036659
Si Si7 0.038854 0.820356 0.582170
Si Si8 0.942507 0.171433 0.661768
O O1 0.548180 0.500000 0.970180
O O2 0.503568 0.713490 0.871464
O O3 0.500000 0.750931 0.000000
O O4 0.622767 0.740088 0.987240
O O5 0.298400 0.500000 0.359071
O O6 0.244994 0.757341 0.366030
O O7 0.273419 0.699580 0.253873
O O8 0.379911 0.737163 0.381530
O O9 0.750000 0.750000 0.500000
O O10 0.864923 0.815507 0.600275
O O11 0.755267 0.000000 0.565801
O O12 0.865388 0.740277 0.814706
O O13 0.942685 0.753687 0.735376
O O14 0.912772 0.000000 0.796665
O O15 0.193318 0.500000 0.159727
O O16 0.223214 0.761724 0.118145
O O17 0.207133 0.000000 0.038047
O O18 0.250000 0.250000 0.000000
O O19 0.000000 0.759785 0.500000
O O20 0.997366 0.753400 0.630755
O O21 0.035455 0.000000 0.581772
O O22 0.965839 0.000000 0.681135
#
# Coordination Sequence:
#
# PCOD8084154 Si02
#       8
#     8   8   8   8   8   8   8   8
#     4   9  17  32  58  85 107 143 192 239 281 326
#     4  10  21  36  57  84 113 147 188 234 285 338
#     4  11  21  34  55  83 112 144 185 232 282 338
#     4  10  18  34  59  84 109 143 193 244 285 330
#     4  11  22  36  56  85 120 154 186 231 294 348
#     4  11  23  40  61  87 120 153 193 238 285 340
#     4   9  17  32  54  79 109 143 187 239 281 324
#     4   9  18  31  53  82 105 137 186 234 276 324
#
# _framework density 19.111350000000002
#
# number of rings (size 3 to 8) (size 9 to 14) (size 15 to 20)
#    0.000    2.000    2.500    1.875    0.000    3.500 
#    0.000    5.625    0.000    4.875    0.000    0.000 
#    0.000    0.000    0.000    0.000    0.000    0.000 
#
# Total GULP energy -396755.775892 kJ/mol
# GULP energy per Si atom -12398.617997 kJ/mol
# Density = 1.906785 g / cm^3
# Si number density = 19.111350 Si / 1000 Ang^3
#
#
#
# Elastic Constant Matrix: (Units=GPa)
#
#
# Indices 1 2 3 4 5 6 
#
# 1 126.8517 32.4814 49.0191 0.0000 -9.6794 0.0000
# 2 32.4814 58.6917 37.1999 0.0000 -1.2462 0.0000
# 3 49.0191 37.1999 124.5968 0.0000 -6.7375 0.0000
# 4 0.0000 0.0000 0.0000 24.3558 0.0000 -1.3528
# 5 -9.6794 -1.2462 -6.7375 0.0000 40.4469 0.0000
# 6 0.0000 0.0000 0.0000 -1.3528 0.0000 22.0648
#
#
#
# Elastic Compliance Matrix: (Units=1/GPa)
#
#
# Indices 1 2 3 4 5 6 
#
# 1 0.010046 -0.003797 -0.002720 0.000000 0.001834 0.000000
# 2 -0.003797 0.022457 -0.005270 0.000000 -0.001095 0.000000
# 3 -0.002720 -0.005270 0.010722 0.000000 0.000973 0.000000
# 4 0.000000 0.000000 0.000000 0.041198 0.000000 0.002526
# 5 0.001834 -0.001095 0.000973 0.000000 0.025291 0.000000
# 6 0.000000 0.000000 0.000000 0.002526 0.000000 0.045476
#
#
# Mechanical properties :
#
#
# Convention : Reuss Voigt Hill
#
# Bulk Modulus (GPa) = 50.88727 60.83789 55.86258
# Shear Modulus (GPa) = 26.98120 30.13614 28.55867
#
# Velocity S-wave (km/s) = 3.76145 3.97529 3.86985
# Velocity P-wave (km/s) = 6.74902 7.27826 7.01863
#
# Compressibility (1/GPa) = 0.01965128
#
# Stress axis : x y z
#
# Youngs Moduli (GPa) = 99.53790 44.53029 93.26741
#
# Poissons Ratio (x) = 0.16909 0.25365
# Poissons Ratio (y) = 0.37797 0.49152
# Poissons Ratio (z) = 0.27070 0.23467
#
# Static dielectric constant tensor:
#      x y z
#    x -1.736550 0.000000 -12.413000 
#    y 0.000000 3.148380 0.000000 
#    z -12.413000 0.000000 -23.041150 
# 
# 
# High freq. dielectric constant tensor:
#      x y z
#    x 1.747340 0.000000 -0.001340 
#    y 0.000000 1.704460 0.000000 
#    z -0.001340 0.000000 1.762030 
# 
# From -- ./inp_files/319990.got.cif
#   From: 2010.06.25/outbox.cif.g09.slc.cpg/sg12_160_cif.got.tgz:319990.got - 2010.06.28 00:19:55.
