data_PCOD8084045
_publ_section_title
;
Structure prediction by ZEFSAII (Michael W. Deem and Ramdas Pophale) SiO2 
 PCOD8084045
Probable space group: C 2/M
;
_chemical_formula_sum "Si O2"
_cell_formula_units_Z 56
_cell_length_a 8.955928
_cell_length_b 18.994426
_cell_length_c 25.805645
_cell_angle_alpha 90.000000
_cell_angle_beta 141.798732
_cell_angle_gamma 90.000000
_cell_volume 2714.807725
_symmetry_space_group_name_H-M "C 2/M"
_symmetry_group_IT_number 12
_symmetry_cell_setting 'monoclinic'
loop_
_space_group_symop_operation_xyz
x,y,z
-x,y,-z
-x,-y,-z
x,-y,z
1/2+x,1/2+y,z
1/2-x,1/2+y,-z
1/2-x,1/2-y,-z
1/2+x,1/2-y,z
loop_
_atom_site_type_symbol
_atom_site_label
_atom_site_fract_x
_atom_site_fract_y
_atom_site_fract_z
Si Si1 0.657852 0.203354 0.812104
Si Si2 0.000607 0.921458 0.305079
Si Si3 0.116665 0.823853 0.424564
Si Si4 0.094866 0.342397 0.151245
Si Si5 0.962606 0.581845 0.578539
Si Si6 0.127271 0.821856 0.981289
Si Si7 0.184791 0.315865 0.379161
O O1 0.751580 0.283798 0.838022
O O2 0.491184 0.189198 0.816576
O O3 0.509820 0.191088 0.719448
O O4 0.908963 0.155484 0.882417
O O5 0.772781 0.908903 0.205536
O O6 0.962892 0.866815 0.341070
O O7 0.250165 0.907170 0.343347
O O8 0.993066 0.000000 0.325375
O O9 0.353443 0.870300 0.502459
O O10 0.170390 0.746169 0.417877
O O11 0.956663 0.815382 0.432374
O O12 0.861514 0.372274 0.054803
O O13 0.890068 0.500000 0.551064
O O14 0.865844 0.609519 0.607160
O O15 0.250000 0.750000 0.000000
O O16 0.000000 0.806702 0.000000
#
# Coordination Sequence:
#
# PCOD8084045 Si02
#       7
#     8   8   8   8   8   8   8
#     4  10  18  34  56  90 119 147 184 240 293 344
#     4  11  23  40  61  82 114 160 202 245 295 350
#     4  12  24  42  62  89 118 152 200 250 296 351
#     4  10  19  35  56  88 119 151 191 235 287 352
#     4  11  27  45  60  82 117 160 202 246 298 353
#     4   8  16  29  53  81 120 147 181 228 286 347
#     4  12  23  39  64  92 119 151 195 248 298 347
#
# _framework density 20.627611000000002
#
# number of rings (size 3 to 8) (size 9 to 14) (size 15 to 20)
#    0.000    1.429    2.857    2.571    2.000    4.000 
#    0.000    0.000    0.000    4.714    0.000    2.000 
#    0.000    0.000    0.000    0.000    0.000    0.000 
#
# Total GULP energy -346884.269110 kJ/mol
# GULP energy per Si atom -12388.723897 kJ/mol
# Density = 2.058066 g / cm^3
# Si number density = 20.627611 Si / 1000 Ang^3
#
#
#
# Elastic Constant Matrix: (Units=GPa)
#
#
# Indices 1 2 3 4 5 6 
#
# 1 89.0389 40.8481 23.9822 0.0000 14.8439 -0.0003
# 2 40.8481 91.4094 37.0183 0.0004 11.4071 -0.0001
# 3 23.9822 37.0183 120.8373 0.0010 28.8948 -0.0001
# 4 0.0000 0.0004 0.0010 20.4519 0.0003 9.1300
# 5 14.8439 11.4071 28.8948 0.0003 27.2143 -0.0006
# 6 -0.0003 -0.0001 -0.0001 9.1300 -0.0006 16.5874
#
#
#
# Elastic Compliance Matrix: (Units=1/GPa)
#
#
# Indices 1 2 3 4 5 6 
#
# 1 0.014911 -0.006050 0.000311 0.000000 -0.005928 0.000000
# 2 -0.006050 0.014994 -0.003591 0.000000 0.000827 0.000000
# 3 0.000311 -0.003591 0.012055 0.000000 -0.011464 0.000000
# 4 0.000000 0.000000 0.000000 0.064823 -0.000002 -0.035680
# 5 -0.005928 0.000827 -0.011464 -0.000002 0.051805 0.000003
# 6 0.000000 0.000000 0.000000 -0.035680 0.000003 0.079926
#
#
# Mechanical properties :
#
#
# Convention : Reuss Voigt Hill
#
# Bulk Modulus (GPa) = 42.91347 56.10921 49.51134
# Shear Modulus (GPa) = 18.87236 26.14650 22.50943
#
# Velocity S-wave (km/s) = 3.02803 3.56413 3.30696
# Velocity P-wave (km/s) = 5.75103 6.64811 6.21578
#
# Compressibility (1/GPa) = 0.02330271
#
# Stress axis : x y z
#
# Youngs Moduli (GPa) = 67.06573 66.69337 82.95234
#
# Poissons Ratio (x) = 0.40346 -0.02584
# Poissons Ratio (y) = 0.40572 0.29784
# Poissons Ratio (z) = -0.02089 0.23946
#
# Static dielectric constant tensor:
#      x y z
#    x 3.779570 0.000000 0.185370 
#    y 0.000000 3.430920 -0.000020 
#    z 0.185370 -0.000020 4.707360 
# 
# 
# High freq. dielectric constant tensor:
#      x y z
#    x 1.810640 0.000000 0.016310 
#    y 0.000000 1.760230 0.000000 
#    z 0.016310 0.000000 1.838450 
# 
# From -- ./inp_files/356767.got.cif
#   From: 2010.06.25/outbox.cif.g09.slc.cpg/sg12_179_cif.got.tgz:356767.got - 2010.06.28 00:19:55.
