data_PCOD8084642
_publ_section_title
;
Structure prediction by ZEFSAII (Michael W. Deem and Ramdas Pophale) SiO2 
 PCOD8084642
Probable space group: C 2/M
;
_chemical_formula_sum "Si O2"
_cell_formula_units_Z 32
_cell_length_a 11.995275
_cell_length_b 18.149475
_cell_length_c 15.194095
_cell_angle_alpha 90.000000
_cell_angle_beta 153.635735
_cell_angle_gamma 90.000000
_cell_volume 1468.949444
_symmetry_space_group_name_H-M "C 2/M"
_symmetry_group_IT_number 12
_symmetry_cell_setting 'monoclinic'
loop_
_space_group_symop_operation_xyz
x,y,z
-x,y,-z
-x,-y,-z
x,-y,z
1/2+x,1/2+y,z
1/2-x,1/2+y,-z
1/2-x,1/2-y,-z
1/2+x,1/2-y,z
loop_
_atom_site_type_symbol
_atom_site_label
_atom_site_fract_x
_atom_site_fract_y
_atom_site_fract_z
Si Si1 0.534029 0.000000 0.919217
Si Si2 0.891177 0.881071 0.209853
Si Si3 0.282870 0.649013 0.721915
Si Si4 0.355975 0.000000 0.307149
Si Si5 0.201961 0.000000 0.522613
Si Si6 0.500000 0.766560 0.000000
O O1 0.282740 0.000000 0.682558
O O2 0.500000 0.000000 0.000000
O O3 0.693838 0.072742 0.010911
O O4 0.745945 0.814172 0.152337
O O5 0.105126 0.857389 0.295448
O O6 0.027944 0.929026 0.382242
O O7 0.307484 0.575573 0.802170
O O8 0.000000 0.670816 0.500000
O O9 0.430339 0.716199 0.868786
O O10 0.500000 0.000000 0.500000
O O11 0.544733 0.000000 0.357954
#
# Coordination Sequence:
#
# PCOD8084642 Si02
#       6
#     4   8   8   4   4   4
#     4  11  25  46  73 108 134 181 242 301 343 413
#     4  11  24  47  65 107 144 177 242 282 349 430
#     4  11  24  44  70 100 143 184 234 294 346 409
#     4  10  18  44  70 108 128 174 245 290 344 401
#     4  11  23  43  84  97 137 191 225 307 353 393
#     4  12  28  42  66 102 150 196 224 282 344 430
#
# _framework density 21.784276999999999
#
# number of rings (size 3 to 8) (size 9 to 14) (size 15 to 20)
#    0.000    1.000    6.250    1.500    3.500    5.500 
#    0.000    0.000    0.000    0.000    0.000    0.000 
#    0.000    0.000    0.000    0.000    0.000    0.000 
#
# Total GULP energy -198324.462051 kJ/mol
# GULP energy per Si atom -12395.278878 kJ/mol
# Density = 2.173469 g / cm^3
# Si number density = 21.784277 Si / 1000 Ang^3
#
#
#
# Elastic Constant Matrix: (Units=GPa)
#
#
# Indices 1 2 3 4 5 6 
#
# 1 92.1664 55.8692 59.1122 0.0140 9.7147 -0.0307
# 2 55.8692 125.9610 56.3498 -0.0245 -5.2790 0.0946
# 3 59.1122 56.3498 149.9215 -0.0785 -14.9174 0.1779
# 4 0.0140 -0.0245 -0.0785 54.3176 -0.0056 46.1796
# 5 9.7147 -5.2790 -14.9174 -0.0056 37.8596 0.0916
# 6 -0.0307 0.0946 0.1779 46.1796 0.0916 78.0609
#
#
#
# Elastic Compliance Matrix: (Units=1/GPa)
#
#
# Indices 1 2 3 4 5 6 
#
# 1 0.019435 -0.006216 -0.006150 -0.000102 -0.008277 0.000099
# 2 -0.006216 0.011532 -0.001629 0.000036 0.002561 -0.000037
# 3 -0.006150 -0.001629 0.010244 0.000084 0.005387 -0.000080
# 4 -0.000102 0.000036 0.000084 0.037040 0.000123 -0.021913
# 5 -0.008277 0.002561 0.005387 0.000123 0.031018 -0.000128
# 6 0.000099 -0.000037 -0.000080 -0.021913 -0.000128 0.025774
#
#
# Mechanical properties :
#
#
# Convention : Reuss Voigt Hill
#
# Bulk Modulus (GPa) = 75.63960 78.96792 77.30376
# Shear Modulus (GPa) = 29.86158 47.16215 38.51186
#
# Velocity S-wave (km/s) = 3.70643 4.65796 4.20917
# Velocity P-wave (km/s) = 7.28796 8.07821 7.69324
#
# Compressibility (1/GPa) = 0.01322059
#
# Stress axis : x y z
#
# Youngs Moduli (GPa) = 51.45348 86.71568 97.62216
#
# Poissons Ratio (x) = 0.53901 0.60042
# Poissons Ratio (y) = 0.31983 0.15900
# Poissons Ratio (z) = 0.31646 0.14123
#
# Static dielectric constant tensor:
#      x y z
#    x 4.035860 0.000020 0.256000 
#    y 0.000020 4.507070 0.000000 
#    z 0.256000 0.000000 4.016020 
# 
# 
# High freq. dielectric constant tensor:
#      x y z
#    x 1.863370 0.000000 0.014950 
#    y 0.000000 1.855640 0.000000 
#    z 0.014950 0.000000 1.858440 
# 
# From -- ./inp_files/132846.got.cif
#   From: 2010.06.25/outbox.cif.g09.slc.cpg/sg12_67_cif.got.tgz:132846.got - 2010.06.28 00:19:55.
