data_PCOD8084826
_publ_section_title
;
Structure prediction by ZEFSAII (Michael W. Deem and Ramdas Pophale) SiO2 
 PCOD8084826
Probable space group: C 2/M
;
_chemical_formula_sum "Si O2"
_cell_formula_units_Z 56
_cell_length_a 31.876888
_cell_length_b 8.970538
_cell_length_c 15.999899
_cell_angle_alpha 90.000000
_cell_angle_beta 50.882257
_cell_angle_gamma 90.000000
_cell_volume 3549.686584
_symmetry_space_group_name_H-M "C 2/M"
_symmetry_group_IT_number 12
_symmetry_cell_setting 'monoclinic'
loop_
_space_group_symop_operation_xyz
x,y,z
-x,y,-z
-x,-y,-z
x,-y,z
1/2+x,1/2+y,z
1/2-x,1/2+y,-z
1/2-x,1/2-y,-z
1/2+x,1/2-y,z
loop_
_atom_site_type_symbol
_atom_site_label
_atom_site_fract_x
_atom_site_fract_y
_atom_site_fract_z
Si Si1 0.100013 0.324575 0.489477
Si Si2 0.016456 0.176021 0.112384
Si Si3 0.917267 0.175471 0.128803
Si Si4 0.804845 0.827066 0.336786
Si Si5 0.058951 0.831919 0.386458
Si Si6 0.804652 0.171945 0.532549
Si Si7 0.014394 0.324632 0.290184
O O1 0.103818 0.500000 0.472644
O O2 0.099688 0.251006 0.398095
O O3 0.151561 0.267147 0.473834
O O4 0.046633 0.279054 0.608512
O O5 0.960723 0.236293 0.141433
O O6 0.028055 0.263772 0.181980
O O7 0.013886 0.000000 0.133891
O O8 0.065169 0.215671 0.987431
O O9 0.857520 0.237788 0.222870
O O10 0.916903 0.000000 0.141564
O O11 0.814926 0.803801 0.421987
O O12 0.754486 0.730948 0.367934
O O13 0.793855 0.000000 0.329961
O O14 0.000000 0.828723 0.500000
O O15 0.057380 0.747394 0.299991
O O16 0.079472 0.000000 0.346450
O O17 0.809694 0.000000 0.551975
O O18 0.022660 0.500000 0.282244
#
# Coordination Sequence:
#
# PCOD8084826 Si02
#       7
#     8   8   8   8   8   8   8
#     4  10  19  30  44  63  90 120 146 177 218 262
#     4   9  16  28  46  66  87 115 152 185 215 255
#     4   8  15  28  46  65  86 116 152 186 217 254
#     4   9  17  30  45  62  88 119 149 183 221 257
#     4   9  17  29  45  64  86 114 147 180 214 255
#     4  10  19  29  44  66  88 114 150 185 218 260
#     4  10  19  29  42  64  93 120 145 176 218 263
#
# _framework density 15.776040999999999
#
# number of rings (size 3 to 8) (size 9 to 14) (size 15 to 20)
#    0.000    2.714    0.000    3.429    0.000    5.143 
#    0.000    2.857    0.000    0.000    0.000    1.000 
#    0.000    0.000    0.000    0.000    0.000    0.000 
#
# Total GULP energy -347179.047554 kJ/mol
# GULP energy per Si atom -12399.251698 kJ/mol
# Density = 1.574013 g / cm^3
# Si number density = 15.776041 Si / 1000 Ang^3
#
#
#
# Elastic Constant Matrix: (Units=GPa)
#
#
# Indices 1 2 3 4 5 6 
#
# 1 76.6841 36.5002 42.7831 0.0000 4.8935 0.0000
# 2 36.5002 65.5270 34.5646 0.0000 6.7310 -0.0004
# 3 42.7831 34.5646 91.2737 0.0000 0.8943 0.0000
# 4 0.0000 0.0000 0.0000 19.2038 0.0000 2.8823
# 5 4.8935 6.7310 0.8943 0.0000 28.3897 0.0000
# 6 0.0000 -0.0004 0.0000 2.8823 0.0000 26.1301
#
#
#
# Elastic Compliance Matrix: (Units=1/GPa)
#
#
# Indices 1 2 3 4 5 6 
#
# 1 0.020564 -0.007779 -0.006679 0.000000 -0.001490 0.000000
# 2 -0.007779 0.022551 -0.004856 0.000000 -0.003853 0.000000
# 3 -0.006679 -0.004856 0.015908 0.000000 0.001801 0.000000
# 4 0.000000 0.000000 0.000000 0.052950 0.000000 -0.005841
# 5 -0.001490 -0.003853 0.001801 0.000000 0.036338 0.000000
# 6 0.000000 0.000000 0.000000 -0.005841 0.000000 0.038914
#
#
# Mechanical properties :
#
#
# Convention : Reuss Voigt Hill
#
# Bulk Modulus (GPa) = 49.02891 51.24230 50.13560
# Shear Modulus (GPa) = 21.49140 22.72051 22.10596
#
# Velocity S-wave (km/s) = 3.69491 3.79910 3.74737
# Velocity P-wave (km/s) = 7.02487 7.19693 7.11142
#
# Compressibility (1/GPa) = 0.02039613
#
# Stress axis : x y z
#
# Youngs Moduli (GPa) = 48.62771 44.34366 62.86182
#
# Poissons Ratio (x) = 0.34494 0.41984
# Poissons Ratio (y) = 0.37827 0.30525
# Poissons Ratio (z) = 0.32478 0.21533
#
# Static dielectric constant tensor:
#      x y z
#    x 3.002630 0.000000 -0.034950 
#    y 0.000000 2.962750 0.000000 
#    z -0.034950 0.000000 3.021310 
# 
# 
# High freq. dielectric constant tensor:
#      x y z
#    x 1.595950 0.000000 0.010660 
#    y 0.000000 1.604590 0.000000 
#    z 0.010660 0.000000 1.583690 
# 
# From -- ./inp_files/243059.got.cif
#   From: 2010.06.25/outbox.cif.g09.slc.cpg/sg12_122_cif.got.tgz:243059.got - 2010.06.28 00:19:55.
