data_PCOD8084950
_publ_section_title
;
Structure prediction by ZEFSAII (Michael W. Deem and Ramdas Pophale) SiO2 
 PCOD8084950
Probable space group: C 2/M
;
_chemical_formula_sum "Si O2"
_cell_formula_units_Z 40
_cell_length_a 20.582070
_cell_length_b 17.399935
_cell_length_c 10.198421
_cell_angle_alpha 90.000000
_cell_angle_beta 38.003088
_cell_angle_gamma 90.000000
_cell_volume 2248.751930
_symmetry_space_group_name_H-M "C 2/M"
_symmetry_group_IT_number 12
_symmetry_cell_setting 'monoclinic'
loop_
_space_group_symop_operation_xyz
x,y,z
-x,y,-z
-x,-y,-z
x,-y,z
1/2+x,1/2+y,z
1/2-x,1/2+y,-z
1/2-x,1/2-y,-z
1/2+x,1/2-y,z
loop_
_atom_site_type_symbol
_atom_site_label
_atom_site_fract_x
_atom_site_fract_y
_atom_site_fract_z
Si Si1 0.017236 0.171950 0.319446
Si Si2 0.569316 0.155475 0.264849
Si Si3 0.816776 0.085646 0.605103
Si Si4 0.785196 0.085277 0.959877
Si Si5 0.415681 0.910307 0.034090
O O1 0.911860 0.142900 0.410167
O O2 0.000000 0.162205 0.500000
O O3 0.044250 0.260270 0.248245
O O4 0.116352 0.120136 0.115415
O O5 0.500000 0.132085 0.500000
O O6 0.548564 0.100772 0.173423
O O7 0.688713 0.145052 0.126291
O O8 0.819319 0.076895 0.756369
O O9 0.833864 0.000000 0.516857
O O10 0.702513 0.122161 0.747720
O O11 0.756511 0.000000 0.060551
O O12 0.408983 0.000000 0.071092
O O13 0.500000 0.872077 0.000000
#
# Coordination Sequence:
#
# PCOD8084950 Si02
#       5
#     8   8   8   8   8
#     4   9  16  26  42  66  93 119 148 185 229 267
#     4  10  19  29  44  69  97 121 143 181 229 273
#     4   8  14  26  45  66  87 115 154 193 222 256
#     4   9  16  26  42  64  91 121 152 186 222 263
#     4   9  18  33  51  68  88 118 154 188 220 260
#
# _framework density 17.787645000000001
#
# number of rings (size 3 to 8) (size 9 to 14) (size 15 to 20)
#    0.000    3.000    0.000    3.000    0.000    5.600 
#    0.000    1.000    0.000    0.000    0.000    0.000 
#    0.000    8.000    0.000    0.000    0.000    0.000 
#
# Total GULP energy -247762.509934 kJ/mol
# GULP energy per Si atom -12388.125497 kJ/mol
# Density = 1.774716 g / cm^3
# Si number density = 17.787645 Si / 1000 Ang^3
#
#
#
# Elastic Constant Matrix: (Units=GPa)
#
#
# Indices 1 2 3 4 5 6 
#
# 1 72.9698 9.8318 45.1207 0.0000 -30.7014 0.0000
# 2 9.8318 63.2130 43.4828 0.0000 -21.7574 0.0000
# 3 45.1207 43.4828 82.5700 0.0000 -34.1095 0.0000
# 4 0.0000 0.0000 0.0000 31.7284 0.0000 -7.5000
# 5 -30.7014 -21.7574 -34.1095 0.0000 33.1033 0.0000
# 6 0.0000 0.0000 0.0000 -7.5000 0.0000 10.8715
#
#
#
# Elastic Compliance Matrix: (Units=1/GPa)
#
#
# Indices 1 2 3 4 5 6 
#
# 1 0.029487 0.012178 -0.013794 0.000000 0.021138 0.000000
# 2 0.012178 0.030310 -0.016926 0.000000 0.013775 0.000000
# 3 -0.013794 -0.016926 0.032527 0.000000 0.009598 0.000000
# 4 0.000000 0.000000 0.000000 0.037659 0.000000 0.025980
# 5 0.021138 0.013775 0.009598 0.000000 0.068756 0.000000
# 6 0.000000 0.000000 0.000000 0.025980 0.000000 0.109906
#
#
# Mechanical properties :
#
#
# Convention : Reuss Voigt Hill
#
# Bulk Modulus (GPa) = 18.10307 46.18036 32.14172
# Shear Modulus (GPa) = 13.73097 23.16183 18.44640
#
# Velocity S-wave (km/s) = 2.78139 3.61242 3.22380
# Velocity P-wave (km/s) = 4.52927 6.58922 5.65385
#
# Compressibility (1/GPa) = 0.05523926
#
# Stress axis : x y z
#
# Youngs Moduli (GPa) = 33.91381 32.99294 30.74371
#
# Poissons Ratio (x) = -0.40178 0.42408
# Poissons Ratio (y) = -0.41300 0.52035
# Poissons Ratio (z) = 0.46781 0.55842
#
# Static dielectric constant tensor:
#      x y z
#    x 3.177930 0.000000 -0.588440 
#    y 0.000000 3.443550 0.000000 
#    z -0.588440 0.000000 3.458160 
# 
# 
# High freq. dielectric constant tensor:
#      x y z
#    x 1.638470 0.000000 -0.044280 
#    y 0.000000 1.682740 0.000000 
#    z -0.044280 0.000000 1.680360 
# 
# From -- ./inp_files/46926.got.cif
#   From: 2010.06.25/outbox.cif.g09.slc.cpg/sg12_24_cif.got.tgz:46926.got - 2010.06.28 00:19:55.
