data_PCOD8084615
_publ_section_title
;
Structure prediction by ZEFSAII (Michael W. Deem and Ramdas Pophale) SiO2 
 PCOD8084615
Probable space group: C 2/M
;
_chemical_formula_sum "Si O2"
_cell_formula_units_Z 52
_cell_length_a 19.112898
_cell_length_b 11.332379
_cell_length_c 14.979154
_cell_angle_alpha 90.000000
_cell_angle_beta 131.261207
_cell_angle_gamma 90.000000
_cell_volume 2438.853555
_symmetry_space_group_name_H-M "C 2/M"
_symmetry_group_IT_number 12
_symmetry_cell_setting 'monoclinic'
loop_
_space_group_symop_operation_xyz
x,y,z
-x,y,-z
-x,-y,-z
x,-y,z
1/2+x,1/2+y,z
1/2-x,1/2+y,-z
1/2-x,1/2-y,-z
1/2+x,1/2-y,z
loop_
_atom_site_type_symbol
_atom_site_label
_atom_site_fract_x
_atom_site_fract_y
_atom_site_fract_z
Si Si1 0.740148 0.136885 0.755096
Si Si2 0.509508 0.637338 0.246654
Si Si3 0.294587 0.000000 0.694909
Si Si4 0.608415 0.500000 0.616306
Si Si5 0.901206 0.500000 0.961888
Si Si6 0.436098 0.738257 0.359276
Si Si7 0.802901 0.749313 0.636104
Si Si8 0.916383 0.241867 0.001816
O O1 0.639160 0.157234 0.716053
O O2 0.734708 0.205396 0.656209
O O3 0.823713 0.186602 0.883872
O O4 0.756335 0.000000 0.752438
O O5 0.499510 0.500000 0.265137
O O6 0.498120 0.722927 0.322767
O O7 0.610878 0.662041 0.292424
O O8 0.436408 0.668679 0.107939
O O9 0.180746 0.000000 0.593238
O O10 0.319513 0.000000 0.820081
O O11 0.337240 0.884453 0.683979
O O12 0.500000 0.500000 0.500000
O O13 0.626045 0.618956 0.686337
O O14 0.895419 0.378181 0.012987
O O15 0.000000 0.500000 0.000000
O O16 0.500000 0.760837 0.500000
O O17 0.750000 0.750000 0.500000
O O18 0.000000 0.233018 0.000000
#
# Coordination Sequence:
#
# PCOD8084615 Si02
#       8
#     8   8   4   4   4   8   8   8
#     4  12  25  45  68  97 140 185 224 282 348 407
#     4  12  26  43  69 103 138 179 229 284 343 411
#     4  12  22  44  68 100 131 179 232 281 340 410
#     4  10  20  38  70  90 122 171 229 280 318 396
#     4  10  18  38  68  92 132 169 220 282 336 401
#     4  11  24  45  69  97 134 182 231 277 340 408
#     4  12  26  40  67 104 137 175 230 281 344 404
#     4  11  22  43  69 103 133 176 227 282 351 404
#
# _framework density 21.321491999999999
#
# number of rings (size 3 to 8) (size 9 to 14) (size 15 to 20)
#    0.000    0.615    5.385    2.769    4.308    1.538 
#    2.769    0.000    0.000    0.000    0.000    0.000 
#    0.000    0.000    0.000    0.000    0.000    0.000 
#
# Total GULP energy -322378.895341 kJ/mol
# GULP energy per Si atom -12399.188282 kJ/mol
# Density = 2.127296 g / cm^3
# Si number density = 21.321492 Si / 1000 Ang^3
#
#
#
# Elastic Constant Matrix: (Units=GPa)
#
#
# Indices 1 2 3 4 5 6 
#
# 1 76.7079 22.6917 35.5166 0.0000 3.1579 0.0000
# 2 22.6917 126.9897 27.4171 0.0000 6.8669 0.0000
# 3 35.5166 27.4171 112.3572 0.0000 8.5961 0.0000
# 4 0.0000 0.0000 0.0000 24.5918 0.0000 1.2323
# 5 3.1579 6.8669 8.5961 0.0000 32.6200 0.0000
# 6 0.0000 0.0000 0.0000 1.2323 0.0000 33.3131
#
#
#
# Elastic Compliance Matrix: (Units=1/GPa)
#
#
# Indices 1 2 3 4 5 6 
#
# 1 0.015663 -0.001828 -0.004509 0.000000 0.000057 0.000000
# 2 -0.001828 0.008575 -0.001419 0.000000 -0.001254 0.000000
# 3 -0.004509 -0.001419 0.010834 0.000000 -0.002120 0.000000
# 4 0.000000 0.000000 0.000000 0.040740 0.000000 -0.001507
# 5 0.000057 -0.001254 -0.002120 0.000000 0.031473 0.000000
# 6 0.000000 0.000000 0.000000 -0.001507 0.000000 0.030074
#
#
# Mechanical properties :
#
#
# Convention : Reuss Voigt Hill
#
# Bulk Modulus (GPa) = 51.12543 54.14505 52.63524
# Shear Modulus (GPa) = 31.36932 33.46694 32.41813
#
# Velocity S-wave (km/s) = 3.83985 3.96616 3.90352
# Velocity P-wave (km/s) = 6.60982 6.81349 6.71243
#
# Compressibility (1/GPa) = 0.01955974
#
# Stress axis : x y z
#
# Youngs Moduli (GPa) = 63.84539 116.61164 92.30239
#
# Poissons Ratio (x) = 0.21320 0.41622
# Poissons Ratio (y) = 0.11673 0.13095
# Poissons Ratio (z) = 0.28790 0.16543
#
# Static dielectric constant tensor:
#      x y z
#    x 3.814150 0.000000 0.126080 
#    y 0.000000 4.264570 0.000000 
#    z 0.126080 0.000000 3.801190 
# 
# 
# High freq. dielectric constant tensor:
#      x y z
#    x 1.821880 0.000000 0.013650 
#    y 0.000000 1.846500 0.000000 
#    z 0.013650 0.000000 1.835710 
# 
# From -- ./inp_files/232641.got.cif
#   From: 2010.06.25/outbox.cif.g09.slc.cpg/sg12_117_cif.got.tgz:232641.got - 2010.06.28 00:19:55.
