data_PCOD8084923
_publ_section_title
;
Structure prediction by ZEFSAII (Michael W. Deem and Ramdas Pophale) SiO2 
 PCOD8084923
Probable space group: C 2/M
;
_chemical_formula_sum "Si O2"
_cell_formula_units_Z 64
_cell_length_a 27.548617
_cell_length_b 9.149757
_cell_length_c 25.982643
_cell_angle_alpha 90.000000
_cell_angle_beta 146.343455
_cell_angle_gamma 90.000000
_cell_volume 3629.690718
_symmetry_space_group_name_H-M "C 2/M"
_symmetry_group_IT_number 12
_symmetry_cell_setting 'monoclinic'
loop_
_space_group_symop_operation_xyz
x,y,z
-x,y,-z
-x,-y,-z
x,-y,z
1/2+x,1/2+y,z
1/2-x,1/2+y,-z
1/2-x,1/2-y,-z
1/2+x,1/2-y,z
loop_
_atom_site_type_symbol
_atom_site_label
_atom_site_fract_x
_atom_site_fract_y
_atom_site_fract_z
Si Si1 0.229556 0.665881 0.359869
Si Si2 0.332865 0.671492 0.786171
Si Si3 0.436703 0.171374 0.715895
Si Si4 0.111137 0.830859 0.878611
Si Si5 0.169131 0.829704 0.454187
Si Si6 0.994187 0.337596 0.055664
Si Si7 0.325255 0.331837 0.895930
Si Si8 0.225858 0.665942 0.905505
O O1 0.223003 0.500000 0.334612
O O2 0.238199 0.768747 0.317314
O O3 0.142731 0.706242 0.315707
O O4 0.316995 0.687504 0.471899
O O5 0.342855 0.500000 0.788959
O O6 0.424900 0.744619 0.851624
O O7 0.303215 0.715455 0.817894
O O8 0.525048 0.239024 0.817586
O O9 0.418224 0.250712 0.644294
O O10 0.448235 0.000000 0.716290
O O11 0.150885 0.774005 0.859451
O O12 0.086356 0.000000 0.850691
O O13 0.181605 0.802906 0.985272
O O14 0.250000 0.750000 0.500000
O O15 0.168640 0.000000 0.438245
O O16 0.997210 0.500000 0.082949
O O17 0.903490 0.260807 0.990129
O O18 0.000000 0.346670 0.000000
O O19 0.356032 0.500000 0.923868
O O20 0.240219 0.308086 0.856976
O O21 0.195793 0.500000 0.890097
#
# Coordination Sequence:
#
# PCOD8084923 Si02
#       8
#     8   8   8   8   8   8   8   8
#     4   9  19  32  46  69 100 129 157 191 230 276
#     4  10  19  29  44  66  93 124 160 196 228 274
#     4  10  20  33  50  71  97 128 159 194 236 284
#     4  10  20  33  50  73  95 120 159 200 239 286
#     4   9  17  31  49  70  96 125 157 194 234 282
#     4   9  17  28  41  59  86 119 155 194 231 268
#     4   9  18  32  47  65  89 122 161 197 235 276
#     4   9  19  35  51  67  93 125 158 200 244 279
#
# _framework density 17.632356999999999
#
# number of rings (size 3 to 8) (size 9 to 14) (size 15 to 20)
#    0.000    2.625    0.000    2.625    1.750    6.000 
#    0.000    0.000    0.000    0.000    0.000    0.875 
#    0.000    7.000    0.000    0.000    0.000    0.000 
#
# Total GULP energy -396685.146755 kJ/mol
# GULP energy per Si atom -12396.410836 kJ/mol
# Density = 1.759223 g / cm^3
# Si number density = 17.632357 Si / 1000 Ang^3
#
#
#
# Elastic Constant Matrix: (Units=GPa)
#
#
# Indices 1 2 3 4 5 6 
#
# 1 58.8788 26.3642 10.2640 0.0000 -11.5565 0.0000
# 2 26.3642 91.4438 24.8855 -0.0001 -9.9550 0.0000
# 3 10.2640 24.8855 44.2790 0.0000 -13.2163 0.0000
# 4 0.0000 -0.0001 0.0000 31.7739 0.0000 -1.2780
# 5 -11.5565 -9.9550 -13.2163 0.0000 22.0934 0.0000
# 6 0.0000 0.0000 0.0000 -1.2780 0.0000 24.1887
#
#
#
# Elastic Compliance Matrix: (Units=1/GPa)
#
#
# Indices 1 2 3 4 5 6 
#
# 1 0.020992 -0.005285 0.000817 0.000000 0.009087 0.000000
# 2 -0.005285 0.014300 -0.006955 0.000000 -0.000482 0.000000
# 3 0.000817 -0.006955 0.031038 0.000000 0.015860 0.000000
# 4 0.000000 0.000000 0.000000 0.031539 0.000000 0.001666
# 5 0.009087 -0.000482 0.015860 0.000000 0.059286 0.000000
# 6 0.000000 0.000000 0.000000 0.001666 0.000000 0.041430
#
#
# Mechanical properties :
#
#
# Convention : Reuss Voigt Hill
#
# Bulk Modulus (GPa) = 22.99822 35.29213 29.14517
# Shear Modulus (GPa) = 21.19307 24.48372 22.83840
#
# Velocity S-wave (km/s) = 3.47066 3.73039 3.60287
# Velocity P-wave (km/s) = 5.39742 6.21397 5.82004
#
# Compressibility (1/GPa) = 0.04348163
#
# Stress axis : x y z
#
# Youngs Moduli (GPa) = 47.63758 69.93091 32.21891
#
# Poissons Ratio (x) = 0.36959 -0.02631
# Poissons Ratio (y) = 0.25177 0.22410
# Poissons Ratio (z) = -0.03891 0.48640
#
# Static dielectric constant tensor:
#      x y z
#    x 3.134530 0.000000 -0.297060 
#    y 0.000000 3.443560 0.000000 
#    z -0.297060 0.000000 3.608180 
# 
# 
# High freq. dielectric constant tensor:
#      x y z
#    x 1.654300 0.000000 -0.024220 
#    y 0.000000 1.694560 0.000000 
#    z -0.024220 0.000000 1.657250 
# 
# From -- ./inp_files/384572.got.cif
#   From: 2010.06.25/outbox.cif.g09.slc.cpg/sg12_193_cif.got.tgz:384572.got - 2010.06.28 00:19:55.
