data_PCOD8084579
_publ_section_title
;
Structure prediction by ZEFSAII (Michael W. Deem and Ramdas Pophale) SiO2 
 PCOD8084579
Probable space group: C 2/M
;
_chemical_formula_sum "Si O2"
_cell_formula_units_Z 44
_cell_length_a 10.022094
_cell_length_b 26.776725
_cell_length_c 16.216347
_cell_angle_alpha 90.000000
_cell_angle_beta 27.689391
_cell_angle_gamma 90.000000
_cell_volume 2022.186286
_symmetry_space_group_name_H-M "C 2/M"
_symmetry_group_IT_number 12
_symmetry_cell_setting 'monoclinic'
loop_
_space_group_symop_operation_xyz
x,y,z
-x,y,-z
-x,-y,-z
x,-y,z
1/2+x,1/2+y,z
1/2-x,1/2+y,-z
1/2-x,1/2-y,-z
1/2+x,1/2-y,z
loop_
_atom_site_type_symbol
_atom_site_label
_atom_site_fract_x
_atom_site_fract_y
_atom_site_fract_z
Si Si1 0.619789 0.354347 0.346603
Si Si2 0.783369 0.691337 0.980607
Si Si3 0.690305 0.357526 0.646819
Si Si4 0.450376 0.944671 0.118621
Si Si5 0.000000 0.128363 0.000000
Si Si6 0.591294 0.556583 0.811765
O O1 0.500000 0.337167 0.500000
O O2 0.363568 0.349870 0.420555
O O3 0.724403 0.411704 0.292448
O O4 0.889421 0.320098 0.173045
O O5 0.563316 0.669567 0.166666
O O6 0.720204 0.664900 0.927311
O O7 0.750000 0.750000 0.000000
O O8 0.692101 0.416594 0.671734
O O9 0.000000 0.333779 0.500000
O O10 0.318768 0.000000 0.181819
O O11 0.500000 0.921706 0.000000
O O12 0.747013 0.945418 0.005659
O O13 0.815683 0.092291 0.162608
O O14 0.717165 0.500000 0.748577
#
# Coordination Sequence:
#
# PCOD8084579 Si02
#       6
#     8   8   8   8   4   8
#     4  12  25  43  67 101 140 181 230 288 345 408
#     4  11  26  47  74  96 131 181 232 290 357 412
#     4  11  25  44  69  99 141 181 232 287 344 416
#     4  10  18  37  66  93 126 181 233 273 330 405
#     4  10  21  38  68 102 134 162 231 276 344 400
#     4  10  20  37  67  97 136 181 224 272 341 408
#
# _framework density 21.758628000000002
#
# number of rings (size 3 to 8) (size 9 to 14) (size 15 to 20)
#    0.000    1.273    5.455    0.818    7.636    1.455 
#    0.000    1.818    0.000    0.000    0.000    0.000 
#    0.000    0.000    0.000    0.000    0.000    0.000 
#
# Total GULP energy -272756.161995 kJ/mol
# GULP energy per Si atom -12398.007363 kJ/mol
# Density = 2.170910 g / cm^3
# Si number density = 21.758628 Si / 1000 Ang^3
#
#
#
# Elastic Constant Matrix: (Units=GPa)
#
#
# Indices 1 2 3 4 5 6 
#
# 1 144.4170 47.0061 46.0223 0.0000 5.2697 0.0001
# 2 47.0061 150.9553 31.7415 0.0004 4.9112 0.0000
# 3 46.0223 31.7415 108.1061 -0.0001 -3.8868 0.0008
# 4 0.0000 0.0004 -0.0001 4.5045 -0.0001 -0.0925
# 5 5.2697 4.9112 -3.8868 -0.0001 31.5050 -0.0002
# 6 0.0001 0.0000 0.0008 -0.0925 -0.0002 24.9447
#
#
#
# Elastic Compliance Matrix: (Units=1/GPa)
#
#
# Indices 1 2 3 4 5 6 
#
# 1 0.008626 -0.001975 -0.003147 0.000000 -0.001523 0.000000
# 2 -0.001975 0.007571 -0.001419 -0.000001 -0.001025 0.000000
# 3 -0.003147 -0.001419 0.011083 0.000001 0.002115 0.000000
# 4 0.000000 -0.000001 0.000001 0.222018 0.000001 0.000823
# 5 -0.001523 -0.001025 0.002115 0.000001 0.032416 0.000000
# 6 0.000000 0.000000 0.000000 0.000823 0.000000 0.040092
#
#
# Mechanical properties :
#
#
# Convention : Reuss Voigt Hill
#
# Bulk Modulus (GPa) = 70.43440 72.55759 71.49599
# Shear Modulus (GPa) = 14.72232 30.77138 22.74685
#
# Velocity S-wave (km/s) = 2.60401 3.76469 3.23680
# Velocity P-wave (km/s) = 6.44067 7.23299 6.84830
#
# Compressibility (1/GPa) = 0.01419761
#
# Stress axis : x y z
#
# Youngs Moduli (GPa) = 115.93424 132.08066 90.23121
#
# Poissons Ratio (x) = 0.26081 0.28396
# Poissons Ratio (y) = 0.22893 0.12806
# Poissons Ratio (z) = 0.36485 0.18745
#
# Static dielectric constant tensor:
#      x y z
#    x 4.195850 0.000000 -0.016030 
#    y 0.000000 4.196820 0.000000 
#    z -0.016030 0.000000 3.677390 
# 
# 
# High freq. dielectric constant tensor:
#      x y z
#    x 1.861010 0.000000 -0.001770 
#    y 0.000000 1.849130 0.000000 
#    z -0.001770 0.000000 1.829230 
# 
# From -- ./inp_files/266241.got.cif
#   From: 2010.06.25/outbox.cif.g09.slc.cpg/sg12_134_cif.got.tgz:266241.got - 2010.06.28 00:19:55.
