data_PCOD8084210
_publ_section_title
;
Structure prediction by ZEFSAII (Michael W. Deem and Ramdas Pophale) SiO2 
 PCOD8084210
Probable space group: C 2/M
;
_chemical_formula_sum "Si O2"
_cell_formula_units_Z 56
_cell_length_a 28.365182
_cell_length_b 17.902252
_cell_length_c 17.372306
_cell_angle_alpha 90.000000
_cell_angle_beta 19.411346
_cell_angle_gamma 90.000000
_cell_volume 2931.862910
_symmetry_space_group_name_H-M "C 2/M"
_symmetry_group_IT_number 12
_symmetry_cell_setting 'monoclinic'
loop_
_space_group_symop_operation_xyz
x,y,z
-x,y,-z
-x,-y,-z
x,-y,z
1/2+x,1/2+y,z
1/2-x,1/2+y,-z
1/2-x,1/2-y,-z
1/2+x,1/2-y,z
loop_
_atom_site_type_symbol
_atom_site_label
_atom_site_fract_x
_atom_site_fract_y
_atom_site_fract_z
Si Si1 0.478547 0.325774 0.230575
Si Si2 0.793257 0.293645 0.717631
Si Si3 0.846256 0.213942 0.788449
Si Si4 0.409466 0.841620 0.386758
Si Si5 0.613031 0.648172 0.467416
Si Si6 0.302782 0.082216 0.063588
Si Si7 0.133031 0.087261 0.739930
O O1 0.433886 0.240117 0.312357
O O2 0.452620 0.372302 0.349456
O O3 0.385733 0.365376 0.308831
O O4 0.643509 0.334999 0.956134
O O5 0.860095 0.276306 0.699051
O O6 0.898601 0.339470 0.497784
O O7 0.768871 0.214587 0.710297
O O8 0.759369 0.140974 0.899590
O O9 0.996881 0.184578 0.587509
O O10 0.750000 0.250000 0.000000
O O11 0.267991 0.878918 0.573838
O O12 0.537086 0.894451 0.163177
O O13 0.697991 0.578847 0.299903
O O14 0.303572 0.000000 0.025490
O O15 0.154824 0.000000 0.686624
O O16 0.000000 0.099148 0.000000
#
# Coordination Sequence:
#
# PCOD8084210 Si02
#       7
#     8   8   8   8   8   8   8
#     4  11  20  39  63  90 115 152 209 256 296 359
#     4  10  18  34  60  91 116 148 205 250 292 348
#     4  11  19  37  63  92 122 157 203 251 296 357
#     4  11  21  40  63  88 119 157 204 254 303 358
#     4  10  21  35  59  89 122 158 196 247 303 354
#     4  11  23  38  58  88 125 161 197 241 309 376
#     4  11  24  40  60  86 119 160 203 255 315 365
#
# _framework density 19.100484000000002
#
# number of rings (size 3 to 8) (size 9 to 14) (size 15 to 20)
#    0.000    1.286    5.714    3.429    0.000    1.714 
#    0.000    0.714    0.000    4.286    0.000    0.000 
#    0.000    0.000    0.000    0.000    0.000    0.000 
#
# Total GULP energy -346881.345504 kJ/mol
# GULP energy per Si atom -12388.619482 kJ/mol
# Density = 1.905701 g / cm^3
# Si number density = 19.100484 Si / 1000 Ang^3
#
#
#
# Elastic Constant Matrix: (Units=GPa)
#
#
# Indices 1 2 3 4 5 6 
#
# 1 110.8910 36.3311 46.5855 -0.0003 5.5521 -0.0001
# 2 36.3311 91.5969 42.6531 -0.0010 -1.6786 0.0002
# 3 46.5855 42.6531 125.7151 -0.0018 -2.8814 0.0010
# 4 -0.0003 -0.0010 -0.0018 7.5960 0.0009 5.2939
# 5 5.5521 -1.6786 -2.8814 0.0009 29.3067 -0.0006
# 6 -0.0001 0.0002 0.0010 5.2939 -0.0006 15.0238
#
#
#
# Elastic Compliance Matrix: (Units=1/GPa)
#
#
# Indices 1 2 3 4 5 6 
#
# 1 0.011550 -0.003098 -0.003290 -0.000001 -0.002689 0.000000
# 2 -0.003098 0.013800 -0.003510 0.000001 0.001032 0.000000
# 3 -0.003290 -0.003510 0.010398 0.000003 0.001445 -0.000002
# 4 -0.000001 0.000001 0.000003 0.174503 -0.000006 -0.061490
# 5 -0.002689 0.001032 0.001445 -0.000006 0.034832 0.000004
# 6 0.000000 0.000000 -0.000002 -0.061490 0.000004 0.088228
#
#
# Mechanical properties :
#
#
# Convention : Reuss Voigt Hill
#
# Bulk Modulus (GPa) = 62.69711 64.37138 63.53424
# Shear Modulus (GPa) = 13.94991 23.89420 18.92206
#
# Velocity S-wave (km/s) = 2.70542 3.54075 3.15089
# Velocity P-wave (km/s) = 6.53109 7.10566 6.82443
#
# Compressibility (1/GPa) = 0.01594970
#
# Stress axis : x y z
#
# Youngs Moduli (GPa) = 86.58104 72.46482 96.17316
#
# Poissons Ratio (x) = 0.22451 0.31645
# Poissons Ratio (y) = 0.26825 0.33760
# Poissons Ratio (z) = 0.28489 0.25437
#
# Static dielectric constant tensor:
#      x y z
#    x 3.498400 0.000000 0.158020 
#    y 0.000000 3.317060 0.000000 
#    z 0.158020 0.000000 3.907930 
# 
# 
# High freq. dielectric constant tensor:
#      x y z
#    x 1.731040 0.000000 0.010900 
#    y 0.000000 1.718800 0.000000 
#    z 0.010900 0.000000 1.769970 
# 
# From -- ./inp_files/296899.got.cif
#   From: 2010.06.25/outbox.cif.g09.slc.cpg/sg12_149_cif.got.tgz:296899.got - 2010.06.28 00:19:55.
