data_PCOD8084165
_publ_section_title
;
Structure prediction by ZEFSAII (Michael W. Deem and Ramdas Pophale) SiO2 
 PCOD8084165
Probable space group: C 2/M
;
_chemical_formula_sum "Si O2"
_cell_formula_units_Z 48
_cell_length_a 11.181322
_cell_length_b 24.171609
_cell_length_c 12.165087
_cell_angle_alpha 90.000000
_cell_angle_beta 47.307266
_cell_angle_gamma 90.000000
_cell_volume 2416.582478
_symmetry_space_group_name_H-M "C 2/M"
_symmetry_group_IT_number 12
_symmetry_cell_setting 'monoclinic'
loop_
_space_group_symop_operation_xyz
x,y,z
-x,y,-z
-x,-y,-z
x,-y,z
1/2+x,1/2+y,z
1/2-x,1/2+y,-z
1/2-x,1/2-y,-z
1/2+x,1/2-y,z
loop_
_atom_site_type_symbol
_atom_site_label
_atom_site_fract_x
_atom_site_fract_y
_atom_site_fract_z
Si Si1 0.181877 0.381163 0.841641
Si Si2 0.322780 0.308882 0.935580
Si Si3 0.693739 0.382737 0.860015
Si Si4 0.306604 0.000000 0.098491
Si Si5 0.180134 0.184728 0.424659
Si Si6 0.693429 0.305287 0.671005
Si Si7 0.310948 0.500000 0.081611
O O1 0.289251 0.335979 0.839023
O O2 0.257861 0.443160 0.804941
O O3 0.193859 0.358809 0.709427
O O4 0.000000 0.380217 0.000000
O O5 0.512816 0.297908 0.828536
O O6 0.250000 0.250000 0.000000
O O7 0.240546 0.348326 0.077561
O O8 0.761794 0.354357 0.706240
O O9 0.768161 0.444713 0.817268
O O10 0.500000 0.385978 0.000000
O O11 0.500000 0.000000 0.000000
O O12 0.234714 0.000000 0.019646
O O13 0.211787 0.248077 0.368913
O O14 0.204940 0.175980 0.538393
O O15 0.000000 0.168182 0.500000
O O16 0.500000 0.500000 0.000000
#
# Coordination Sequence:
#
# PCOD8084165 Si02
#       7
#     8   8   8   4   8   8   4
#     4  11  22  39  61  88 120 159 205 249 303 367
#     4  11  19  32  59  87 119 152 202 248 294 360
#     4   9  19  33  54  84 113 151 196 246 293 355
#     4  10  22  40  60  92 122 160 203 259 314 360
#     4  11  22  39  60  84 125 162 195 247 310 366
#     4  10  22  38  54  84 125 157 196 245 309 366
#     4  10  18  34  59  86 120 158 197 257 314 348
#
# _framework density 19.862762
#
# number of rings (size 3 to 8) (size 9 to 14) (size 15 to 20)
#    0.000    1.667    3.333    2.000    0.000    1.333 
#    0.000    1.250    0.000    0.000    0.000    2.917 
#    0.000    0.000    0.000    0.000    0.000    0.000 
#
# Total GULP energy -297399.242443 kJ/mol
# GULP energy per Si atom -12391.635102 kJ/mol
# Density = 1.981755 g / cm^3
# Si number density = 19.862762 Si / 1000 Ang^3
#
#
#
# Elastic Constant Matrix: (Units=GPa)
#
#
# Indices 1 2 3 4 5 6 
#
# 1 61.1954 23.4853 24.4599 0.0000 15.6860 0.0000
# 2 23.4853 175.8395 67.9536 0.0000 29.8151 0.0000
# 3 24.4599 67.9536 105.7236 0.0000 26.1282 0.0000
# 4 0.0000 0.0000 0.0000 25.9510 0.0000 5.3748
# 5 15.6860 29.8151 26.1282 0.0000 33.0852 0.0000
# 6 0.0000 0.0000 0.0000 5.3748 0.0000 22.2799
#
#
#
# Elastic Compliance Matrix: (Units=1/GPa)
#
#
# Indices 1 2 3 4 5 6 
#
# 1 0.019241 -0.000466 -0.002486 0.000000 -0.006739 0.000000
# 2 -0.000466 0.007961 -0.004089 0.000000 -0.003724 0.000000
# 3 -0.002486 -0.004089 0.014239 0.000000 -0.006382 0.000000
# 4 0.000000 0.000000 0.000000 0.040561 0.000000 -0.009785
# 5 -0.006739 -0.003724 -0.006382 0.000000 0.041815 0.000000
# 6 0.000000 0.000000 0.000000 -0.009785 0.000000 0.047244
#
#
# Mechanical properties :
#
#
# Convention : Reuss Voigt Hill
#
# Bulk Modulus (GPa) = 36.55226 63.83956 50.19591
# Shear Modulus (GPa) = 25.73826 31.38718 28.56272
#
# Velocity S-wave (km/s) = 3.60363 3.97949 3.79622
# Velocity P-wave (km/s) = 5.97974 7.30241 6.67392
#
# Compressibility (1/GPa) = 0.02735809
#
# Stress axis : x y z
#
# Youngs Moduli (GPa) = 51.97180 125.61636 70.23019
#
# Poissons Ratio (x) = 0.05859 0.17462
# Poissons Ratio (y) = 0.02424 0.28714
# Poissons Ratio (z) = 0.12923 0.51358
#
# Static dielectric constant tensor:
#      x y z
#    x 3.955220 0.000000 0.232090 
#    y 0.000000 4.117000 0.000000 
#    z 0.232090 0.000000 3.361760 
# 
# 
# High freq. dielectric constant tensor:
#      x y z
#    x 1.772800 0.000000 0.020290 
#    y 0.000000 1.788860 0.000000 
#    z 0.020290 0.000000 1.746550 
# 
# From -- ./inp_files/51516.got.cif
#   From: 2010.06.25/outbox.cif.g09.slc.cpg/sg12_26_cif.got.tgz:51516.got - 2010.06.28 00:19:55.
