data_PCOD8084086
_publ_section_title
;
Structure prediction by ZEFSAII (Michael W. Deem and Ramdas Pophale) SiO2 
 PCOD8084086
Probable space group: C 2/M
;
_chemical_formula_sum "Si O2"
_cell_formula_units_Z 64
_cell_length_a 14.441568
_cell_length_b 9.120967
_cell_length_c 26.606426
_cell_angle_alpha 90.000000
_cell_angle_beta 102.443540
_cell_angle_gamma 90.000000
_cell_volume 3422.298938
_symmetry_space_group_name_H-M "C 2/M"
_symmetry_group_IT_number 12
_symmetry_cell_setting 'monoclinic'
loop_
_space_group_symop_operation_xyz
x,y,z
-x,y,-z
-x,-y,-z
x,-y,z
1/2+x,1/2+y,z
1/2-x,1/2+y,-z
1/2-x,1/2-y,-z
1/2+x,1/2-y,z
loop_
_atom_site_type_symbol
_atom_site_label
_atom_site_fract_x
_atom_site_fract_y
_atom_site_fract_z
Si Si1 0.662178 0.170779 0.290720
Si Si2 0.045528 0.328487 0.375024
Si Si3 0.691300 0.168240 0.097812
Si Si4 0.897561 0.663246 0.011385
Si Si5 0.426806 0.174669 0.823216
Si Si6 0.096362 0.832070 0.885271
Si Si7 0.287019 0.327989 0.553595
Si Si8 0.171407 0.670565 0.639028
O O1 0.582285 0.204696 0.323149
O O2 0.622119 0.231008 0.233412
O O3 0.761975 0.248758 0.313061
O O4 0.684770 0.000000 0.290573
O O5 0.054238 0.500000 0.389433
O O6 0.110194 0.237903 0.421178
O O7 0.936974 0.274078 0.368102
O O8 0.670399 0.235129 0.039871
O O9 0.630524 0.239234 0.135642
O O10 0.799803 0.184261 0.126150
O O11 0.659211 0.000000 0.089447
O O12 0.862938 0.500000 0.024246
O O13 0.901780 0.771298 0.058394
O O14 0.000000 0.649695 0.000000
O O15 0.531417 0.240887 0.839585
O O16 0.433165 0.000000 0.823883
O O17 0.062919 0.000000 0.883393
O O18 0.298733 0.500000 0.545357
O O19 0.250000 0.250000 0.500000
O O20 0.209928 0.295026 0.587853
O O21 0.177042 0.500000 0.652260
#
# Coordination Sequence:
#
# PCOD8084086 Si02
#       8
#     8   8   8   8   8   8   8   8
#     4   9  19  34  56  79 100 131 175 220 254 294
#     4   9  18  35  55  78 106 139 176 217 259 306
#     4   9  19  35  53  73 101 135 167 200 250 310
#     4  10  18  34  58  74  94 137 172 196 246 315
#     4  10  20  38  56  73 102 139 172 203 251 317
#     4  11  22  34  51  78 105 128 163 215 257 293
#     4  10  20  34  52  78 109 145 179 216 259 305
#     4   9  19  35  55  76 106 142 174 210 264 315
#
# _framework density 18.700880999999999
#
# number of rings (size 3 to 8) (size 9 to 14) (size 15 to 20)
#    0.000    2.375    1.250    1.125    0.000    3.250 
#    0.000    4.375    0.000    0.000    0.000    0.000 
#    0.000    0.000    0.000    0.000    0.000    0.000 
#
# Total GULP energy -396777.835593 kJ/mol
# GULP energy per Si atom -12399.307362 kJ/mol
# Density = 1.865832 g / cm^3
# Si number density = 18.700881 Si / 1000 Ang^3
#
#
#
# Elastic Constant Matrix: (Units=GPa)
#
#
# Indices 1 2 3 4 5 6 
#
# 1 125.4941 39.0608 56.0273 0.0000 24.4215 0.0000
# 2 39.0608 53.0195 46.8394 0.0000 12.3429 0.0000
# 3 56.0273 46.8394 139.7737 0.0000 32.1798 0.0000
# 4 0.0000 0.0000 0.0000 12.4013 0.0000 15.3747
# 5 24.4215 12.3429 32.1798 0.0000 24.9588 0.0000
# 6 0.0000 0.0000 0.0000 15.3747 0.0000 25.7419
#
#
#
# Elastic Compliance Matrix: (Units=1/GPa)
#
#
# Indices 1 2 3 4 5 6 
#
# 1 0.011697 -0.006059 -0.001014 0.000000 -0.007141 0.000000
# 2 -0.006059 0.030031 -0.007937 0.000000 0.001310 0.000000
# 3 -0.001014 -0.007937 0.012925 0.000000 -0.011747 0.000000
# 4 0.000000 0.000000 0.000000 0.310691 0.000000 -0.185563
# 5 -0.007141 0.001310 -0.011747 0.000000 0.061552 0.000000
# 6 0.000000 0.000000 0.000000 -0.185563 0.000000 0.149677
#
#
# Mechanical properties :
#
#
# Convention : Reuss Voigt Hill
#
# Bulk Modulus (GPa) = 40.59452 66.90471 53.74961
# Shear Modulus (GPa) = 8.13268 24.37773 16.25521
#
# Velocity S-wave (km/s) = 2.08765 3.61440 2.95145
# Velocity P-wave (km/s) = 5.25028 7.29880 6.35759
#
# Compressibility (1/GPa) = 0.02463387
#
# Stress axis : x y z
#
# Youngs Moduli (GPa) = 85.49324 33.29848 77.36868
#
# Poissons Ratio (x) = 0.20176 0.07846
# Poissons Ratio (y) = 0.51801 0.61405
# Poissons Ratio (z) = 0.08670 0.26428
#
# Static dielectric constant tensor:
#      x y z
#    x 3.582840 0.000000 0.044060 
#    y 0.000000 3.338020 0.000000 
#    z 0.044060 0.000000 3.517630 
# 
# 
# High freq. dielectric constant tensor:
#      x y z
#    x 1.731830 0.000000 0.008310 
#    y 0.000000 1.710050 0.000000 
#    z 0.008310 0.000000 1.725730 
# 
# From -- ./inp_files/359766.got.cif
#   From: 2010.06.25/outbox.cif.g09.slc.cpg/sg12_180_cif.got.tgz:359766.got - 2010.06.28 00:19:55.
