data_PCOD8084280
_publ_section_title
;
Structure prediction by ZEFSAII (Michael W. Deem and Ramdas Pophale) SiO2 
 PCOD8084280
Probable space group: C 2/M
;
_chemical_formula_sum "Si O2"
_cell_formula_units_Z 56
_cell_length_a 26.693227
_cell_length_b 14.311603
_cell_length_c 9.404717
_cell_angle_alpha 90.000000
_cell_angle_beta 57.176690
_cell_angle_gamma 90.000000
_cell_volume 3019.209888
_symmetry_space_group_name_H-M "C 2/M"
_symmetry_group_IT_number 12
_symmetry_cell_setting 'monoclinic'
loop_
_space_group_symop_operation_xyz
x,y,z
-x,y,-z
-x,-y,-z
x,-y,z
1/2+x,1/2+y,z
1/2-x,1/2+y,-z
1/2-x,1/2-y,-z
1/2+x,1/2-y,z
loop_
_atom_site_type_symbol
_atom_site_label
_atom_site_fract_x
_atom_site_fract_y
_atom_site_fract_z
Si Si1 0.314845 0.288105 0.188545
Si Si2 0.716452 0.159549 0.997482
Si Si3 0.596757 0.607638 0.132572
Si Si4 0.360547 0.731989 0.425665
Si Si5 0.473577 0.607089 0.195282
Si Si6 0.689436 0.108319 0.335722
Si Si7 0.332782 0.398703 0.712014
O O1 0.318859 0.192163 0.089506
O O2 0.323489 0.261248 0.338512
O O3 0.254265 0.347141 0.266242
O O4 0.371055 0.349737 0.054252
O O5 0.767704 0.085111 0.880539
O O6 0.750000 0.250000 0.000000
O O7 0.675418 0.117946 0.187422
O O8 0.614789 0.500000 0.104432
O O9 0.525877 0.621632 0.230577
O O10 0.621970 0.649384 0.242793
O O11 0.425214 0.685880 0.305869
O O12 0.360998 0.835760 0.495619
O O13 0.323951 0.667164 0.590512
O O14 0.448668 0.500000 0.242240
O O15 0.500000 0.626068 0.000000
O O16 0.687659 0.000000 0.384281
O O17 0.357763 0.500000 0.626065
#
# Coordination Sequence:
#
# PCOD8084280 Si02
#       7
#     8   8   8   8   8   8   8
#     4  11  20  35  57  84 117 149 188 233 286 342
#     4  10  18  35  54  77 112 150 193 223 274 343
#     4  10  19  34  57  83 113 152 195 229 278 347
#     4  12  23  37  54  85 123 149 188 240 284 338
#     4  10  21  37  57  84 116 154 194 232 285 344
#     4  11  22  37  58  83 115 153 190 232 284 339
#     4  11  21  34  55  84 117 153 187 232 283 339
#
# _framework density 18.547899000000001
#
# number of rings (size 3 to 8) (size 9 to 14) (size 15 to 20)
#    0.000    1.286    7.143    1.714    0.000    2.286 
#    0.000    2.857    0.000    0.429    0.000    5.000 
#    0.000    0.000    0.000    0.000    0.000    0.000 
#
# Total GULP energy -346996.179153 kJ/mol
# GULP energy per Si atom -12392.720684 kJ/mol
# Density = 1.850568 g / cm^3
# Si number density = 18.547899 Si / 1000 Ang^3
#
#
#
# Elastic Constant Matrix: (Units=GPa)
#
#
# Indices 1 2 3 4 5 6 
#
# 1 84.8390 38.7365 48.7178 0.0000 14.1797 0.0000
# 2 38.7365 103.9009 53.7187 0.0000 1.3432 0.0000
# 3 48.7178 53.7187 109.4560 0.0000 15.5803 0.0000
# 4 0.0000 0.0000 0.0000 23.3621 0.0000 -6.0272
# 5 14.1797 1.3432 15.5803 0.0000 40.1481 0.0000
# 6 0.0000 0.0000 0.0000 -6.0272 0.0000 21.2649
#
#
#
# Elastic Compliance Matrix: (Units=1/GPa)
#
#
# Indices 1 2 3 4 5 6 
#
# 1 0.017120 -0.003588 -0.005309 0.000000 -0.003866 0.000000
# 2 -0.003588 0.013826 -0.005613 0.000000 0.002983 0.000000
# 3 -0.005309 -0.005613 0.014776 0.000000 -0.003672 0.000000
# 4 0.000000 0.000000 0.000000 0.046181 0.000000 0.013089
# 5 -0.003866 0.002983 -0.003672 0.000000 0.027598 0.000000
# 6 0.000000 0.000000 0.000000 0.013089 0.000000 0.050736
#
#
# Mechanical properties :
#
#
# Convention : Reuss Voigt Hill
#
# Bulk Modulus (GPa) = 59.87092 64.50468 62.18780
# Shear Modulus (GPa) = 24.41122 27.42323 25.91723
#
# Velocity S-wave (km/s) = 3.63177 3.84931 3.74212
# Velocity P-wave (km/s) = 7.06651 7.38980 7.22996
#
# Compressibility (1/GPa) = 0.01670260
#
# Stress axis : x y z
#
# Youngs Moduli (GPa) = 58.41154 72.32910 67.67618
#
# Poissons Ratio (x) = 0.25952 0.35927
# Poissons Ratio (y) = 0.20958 0.37986
# Poissons Ratio (z) = 0.31009 0.40598
#
# Static dielectric constant tensor:
#      x y z
#    x 3.620530 0.000000 0.239750 
#    y 0.000000 2.510170 0.000000 
#    z 0.239750 0.000000 3.682710 
# 
# 
# High freq. dielectric constant tensor:
#      x y z
#    x 1.697260 0.000000 0.020920 
#    y 0.000000 1.701230 0.000000 
#    z 0.020920 0.000000 1.725320 
# 
# From -- ./inp_files/104436.got.cif
#   From: 2010.06.25/outbox.cif.g09.slc.cpg/sg12_53_cif.got.tgz:104436.got - 2010.06.28 00:19:55.
