data_PCOD8084575
_publ_section_title
;
Structure prediction by ZEFSAII (Michael W. Deem and Ramdas Pophale) SiO2 
 PCOD8084575
Probable space group: C 2/M
;
_chemical_formula_sum "Si O2"
_cell_formula_units_Z 56
_cell_length_a 17.780133
_cell_length_b 28.406257
_cell_length_c 9.291539
_cell_angle_alpha 90.000000
_cell_angle_beta 144.219564
_cell_angle_gamma 90.000000
_cell_volume 2743.818805
_symmetry_space_group_name_H-M "C 2/M"
_symmetry_group_IT_number 12
_symmetry_cell_setting 'monoclinic'
loop_
_space_group_symop_operation_xyz
x,y,z
-x,y,-z
-x,-y,-z
x,-y,z
1/2+x,1/2+y,z
1/2-x,1/2+y,-z
1/2-x,1/2-y,-z
1/2+x,1/2-y,z
loop_
_atom_site_type_symbol
_atom_site_label
_atom_site_fract_x
_atom_site_fract_y
_atom_site_fract_z
Si Si1 0.704220 0.149983 0.539765
Si Si2 0.450628 0.000000 0.215610
Si Si3 0.300527 0.823005 0.781909
Si Si4 0.283880 0.000000 0.242536
Si Si5 0.988980 0.845008 0.651183
Si Si6 0.905208 0.918800 0.968382
Si Si7 0.886044 0.780110 0.941718
Si Si8 0.533765 0.901736 0.885560
O O1 0.651780 0.165786 0.303888
O O2 0.832503 0.118831 0.753962
O O3 0.745080 0.198739 0.679910
O O4 0.583145 0.117225 0.400769
O O5 0.412543 0.047454 0.074985
O O6 0.366454 0.000000 0.227230
O O7 0.606714 0.000000 0.465835
O O8 0.148923 0.822639 0.536990
O O9 0.363504 0.774747 0.933849
O O10 0.350362 0.864863 0.961912
O O11 0.192923 0.954701 0.111330
O O12 0.000000 0.855579 0.500000
O O13 0.016685 0.893164 0.781763
O O14 0.082256 0.804107 0.855625
O O15 0.000000 0.944181 0.000000
O O16 0.000000 0.789301 0.000000
O O17 0.500000 0.906641 0.000000
#
# Coordination Sequence:
#
# PCOD8084575 Si02
#       8
#     8   4   8   4   8   8   8   8
#     4  10  18  37  63  97 121 161 217 263 309 369
#     4  11  23  44  61  94 135 165 206 275 324 402
#     4  11  22  37  64  94 128 166 215 267 313 381
#     4  11  25  40  70  93 123 161 220 268 336 380
#     4  11  25  41  61  90 134 169 208 263 325 383
#     4  11  21  44  69  93 121 169 219 269 318 385
#     4  11  21  38  68  92 125 171 217 268 310 373
#     4  10  22  37  64  96 128 169 212 264 324 385
#
# _framework density 20.409510999999998
#
# number of rings (size 3 to 8) (size 9 to 14) (size 15 to 20)
#    0.000    1.286    4.286    3.000    4.000    0.571 
#    0.000    1.071    3.143    0.000    0.000    0.000 
#    0.000    0.000    0.000    0.000    0.000    0.000 
#
# Total GULP energy -346868.648161 kJ/mol
# GULP energy per Si atom -12388.166006 kJ/mol
# Density = 2.036306 g / cm^3
# Si number density = 20.409511 Si / 1000 Ang^3
#
#
#
# Elastic Constant Matrix: (Units=GPa)
#
#
# Indices 1 2 3 4 5 6 
#
# 1 60.1156 41.6218 34.3455 0.0000 -3.6565 0.0000
# 2 41.6218 145.8059 48.9907 0.0000 -1.5263 0.0000
# 3 34.3455 48.9907 105.2235 0.0000 -3.5356 0.0000
# 4 0.0000 0.0000 0.0000 31.1617 0.0000 0.5330
# 5 -3.6565 -1.5263 -3.5356 0.0000 25.7096 0.0000
# 6 0.0000 0.0000 0.0000 0.5330 0.0000 -2.1563
#
#
#
# Elastic Compliance Matrix: (Units=1/GPa)
#
#
# Indices 1 2 3 4 5 6 
#
# 1 0.023087 -0.004813 -0.005218 0.000000 0.002280 0.000000
# 2 -0.004813 0.009134 -0.002699 0.000000 -0.000513 0.000000
# 3 -0.005218 -0.002699 0.012491 0.000000 0.000815 0.000000
# 4 0.000000 0.000000 0.000000 0.031956 0.000000 0.007898
# 5 0.002280 -0.000513 0.000815 0.000000 0.039302 0.000000
# 6 0.000000 0.000000 0.000000 0.007898 0.000000 -0.461797
#
#
# Mechanical properties :
#
#
# Convention : Reuss Voigt Hill
#
# Bulk Modulus (GPa) = 51.94460 62.34011 57.14236
# Shear Modulus (GPa) = -15.92609 23.35544 3.71468
#
# Velocity S-wave (km/s) = -2.79646 3.38648 1.35056
# Velocity P-wave (km/s) = 3.88323 6.77510 5.52184
#
# Compressibility (1/GPa) = 0.01925128
#
# Stress axis : x y z
#
# Youngs Moduli (GPa) = 43.31418 109.48286 80.05943
#
# Poissons Ratio (x) = 0.52697 0.41776
# Poissons Ratio (y) = 0.20848 0.21606
# Poissons Ratio (z) = 0.22602 0.29547
#
# Static dielectric constant tensor:
#      x y z
#    x 3.632410 0.000000 0.112530 
#    y 0.000000 3.830940 0.000000 
#    z 0.112530 0.000000 3.938110 
# 
# 
# High freq. dielectric constant tensor:
#      x y z
#    x 1.760780 0.000000 0.015270 
#    y 0.000000 1.807670 0.000000 
#    z 0.015270 0.000000 1.810350 
# 
# From -- ./inp_files/80512.got.cif
#   From: 2010.06.25/outbox.cif.g09.slc.cpg/sg12_41_cif.got.tgz:80512.got - 2010.06.28 00:19:55.
