data_PCOD8084672
_publ_section_title
;
Structure prediction by ZEFSAII (Michael W. Deem and Ramdas Pophale) SiO2 
 PCOD8084672
Probable space group: C 2/M
;
_chemical_formula_sum "Si O2"
_cell_formula_units_Z 64
_cell_length_a 25.097656
_cell_length_b 8.862654
_cell_length_c 16.679834
_cell_angle_alpha 90.000000
_cell_angle_beta 108.359343
_cell_angle_gamma 90.000000
_cell_volume 3521.279865
_symmetry_space_group_name_H-M "C 2/M"
_symmetry_group_IT_number 12
_symmetry_cell_setting 'monoclinic'
loop_
_space_group_symop_operation_xyz
x,y,z
-x,y,-z
-x,-y,-z
x,-y,z
1/2+x,1/2+y,z
1/2-x,1/2+y,-z
1/2-x,1/2-y,-z
1/2+x,1/2-y,z
loop_
_atom_site_type_symbol
_atom_site_label
_atom_site_fract_x
_atom_site_fract_y
_atom_site_fract_z
Si Si1 0.244235 0.175118 0.263030
Si Si2 0.365278 0.179231 0.290180
Si Si3 0.488929 0.321755 0.906334
Si Si4 0.623112 0.679812 0.233031
Si Si5 0.769756 0.167182 0.432602
Si Si6 0.542347 0.174725 0.788318
Si Si7 0.570380 0.823497 0.357650
Si Si8 0.602596 0.333154 0.532057
O O1 0.300664 0.241663 0.246064
O O2 0.180823 0.236274 0.215082
O O3 0.252776 0.211913 0.358950
O O4 0.244028 0.000000 0.245391
O O5 0.399998 0.224587 0.227618
O O6 0.396589 0.248904 0.382085
O O7 0.364970 0.000000 0.303589
O O8 0.491796 0.500000 0.909451
O O9 0.427939 0.265605 0.847418
O O10 0.537158 0.264411 0.869092
O O11 0.500000 0.254724 0.000000
O O12 0.623981 0.500000 0.244479
O O13 0.616425 0.750551 0.319015
O O14 0.750000 0.250000 0.500000
O O15 0.835430 0.147255 0.470947
O O16 0.742427 0.000000 0.407090
O O17 0.491115 0.213318 0.705306
O O18 0.543155 0.000000 0.810725
O O19 0.569756 0.757879 0.447471
O O20 0.583191 0.000000 0.368621
O O21 0.575450 0.500000 0.530303
#
# Coordination Sequence:
#
# PCOD8084672 Si02
#       8
#     8   8   8   8   8   8   8   8
#     4   9  17  29  46  65  86 117 154 191 229 268
#     4   9  18  33  49  65  89 124 163 196 229 269
#     4   9  18  33  54  78 100 121 145 178 226 281
#     4   9  17  30  48  71  96 119 150 192 233 275
#     4  10  19  28  39  57  84 118 156 197 235 271
#     4   9  19  34  51  71  94 121 154 191 230 275
#     4  10  19  30  45  66  92 123 158 197 240 277
#     4  10  20  31  42  61  90 124 162 200 235 270
#
# _framework density 18.175208999999999
#
# number of rings (size 3 to 8) (size 9 to 14) (size 15 to 20)
#    0.000    2.625    0.000    1.875    0.000    6.750 
#    0.000    2.500    0.000    0.750    0.000    0.000 
#    0.000    0.000    0.000    0.000    0.000    0.000 
#
# Total GULP energy -396429.083595 kJ/mol
# GULP energy per Si atom -12388.408862 kJ/mol
# Density = 1.813384 g / cm^3
# Si number density = 18.175209 Si / 1000 Ang^3
#
#
#
# Elastic Constant Matrix: (Units=GPa)
#
#
# Indices 1 2 3 4 5 6 
#
# 1 122.4283 19.7820 53.1264 0.0000 -17.0757 0.0000
# 2 19.7820 30.7888 16.2164 0.0000 -6.3223 0.0000
# 3 53.1264 16.2164 89.1415 0.0000 -15.8707 0.0000
# 4 0.0000 0.0000 0.0000 20.4712 0.0000 -2.1152
# 5 -17.0757 -6.3223 -15.8707 0.0000 19.3472 0.0000
# 6 0.0000 0.0000 0.0000 -2.1152 0.0000 18.3178
#
#
#
# Elastic Compliance Matrix: (Units=1/GPa)
#
#
# Indices 1 2 3 4 5 6 
#
# 1 0.011825 -0.003720 -0.005538 0.000000 0.004678 0.000000
# 2 -0.003720 0.038037 -0.003600 0.000000 0.006194 0.000000
# 3 -0.005538 -0.003600 0.016504 0.000000 0.007475 0.000000
# 4 0.000000 0.000000 0.000000 0.049439 0.000000 0.005709
# 5 0.004678 0.006194 0.007475 0.000000 0.063971 0.000000
# 6 0.000000 0.000000 0.000000 0.005709 0.000000 0.055251
#
#
# Mechanical properties :
#
#
# Convention : Reuss Voigt Hill
#
# Bulk Modulus (GPa) = 24.59967 46.73426 35.66696
# Shear Modulus (GPa) = 18.22870 21.84283 20.03576
#
# Velocity S-wave (km/s) = 3.17036 3.47045 3.32379
# Velocity P-wave (km/s) = 5.19285 6.46743 5.86487
#
# Compressibility (1/GPa) = 0.04065096
#
# Stress axis : x y z
#
# Youngs Moduli (GPa) = 84.56959 26.28992 60.59131
#
# Poissons Ratio (x) = 0.09780 0.33553
# Poissons Ratio (y) = 0.31461 0.21812
# Poissons Ratio (z) = 0.46831 0.09464
#
# Static dielectric constant tensor:
#      x y z
#    x 3.764280 0.000000 0.037170 
#    y 0.000000 3.307670 0.000000 
#    z 0.037170 0.000000 3.117660 
# 
# 
# High freq. dielectric constant tensor:
#      x y z
#    x 1.711850 0.000000 -0.004440 
#    y 0.000000 1.699750 0.000000 
#    z -0.004440 0.000000 1.666950 
# 
# From -- ./inp_files/243844.got.cif
#   From: 2010.06.25/outbox.cif.g09.slc.cpg/sg12_122_cif.got.tgz:243844.got - 2010.06.28 00:19:55.
