data_PCOD8084226
_publ_section_title
;
Structure prediction by ZEFSAII (Michael W. Deem and Ramdas Pophale) SiO2 
 PCOD8084226
Probable space group: C 2/M
;
_chemical_formula_sum "Si O2"
_cell_formula_units_Z 56
_cell_length_a 10.293739
_cell_length_b 14.261656
_cell_length_c 17.176565
_cell_angle_alpha 90.000000
_cell_angle_beta 84.837975
_cell_angle_gamma 90.000000
_cell_volume 2511.391703
_symmetry_space_group_name_H-M "C 2/M"
_symmetry_group_IT_number 12
_symmetry_cell_setting 'monoclinic'
loop_
_space_group_symop_operation_xyz
x,y,z
-x,y,-z
-x,-y,-z
x,-y,z
1/2+x,1/2+y,z
1/2-x,1/2+y,-z
1/2-x,1/2-y,-z
1/2+x,1/2-y,z
loop_
_atom_site_type_symbol
_atom_site_label
_atom_site_fract_x
_atom_site_fract_y
_atom_site_fract_z
Si Si1 0.851524 0.603840 0.245093
Si Si2 0.857973 0.609109 0.980744
Si Si3 0.146054 0.609416 0.466664
Si Si4 0.913744 0.706363 0.831629
Si Si5 0.351132 0.601982 0.876653
Si Si6 0.117546 0.103640 0.434924
Si Si7 0.804238 0.748365 0.672151
O O1 0.886420 0.500000 0.278948
O O2 0.723832 0.592574 0.200400
O O3 0.826561 0.684973 0.311875
O O4 0.962560 0.639200 0.180920
O O5 0.866653 0.500000 0.962625
O O6 0.819991 0.661734 0.902426
O O7 0.746899 0.631110 0.049390
O O8 0.000000 0.646957 0.000000
O O9 0.145703 0.500000 0.444722
O O10 0.246230 0.630956 0.530820
O O11 0.203643 0.663281 0.388272
O O12 0.000000 0.642165 0.500000
O O13 0.952599 0.812581 0.857644
O O14 0.840588 0.705716 0.753092
O O15 0.418029 0.500000 0.890766
O O16 0.089523 0.177465 0.367493
O O17 0.000000 0.108823 0.500000
O O18 0.128499 0.000000 0.397599
#
# Coordination Sequence:
#
# PCOD8084226 Si02
#       7
#     8   8   8   8   8   8   8
#     4  10  21  38  59  88 122 158 204 249 307 372
#     4  10  18  34  61  87 115 158 211 261 305 363
#     4  10  23  42  64  92 126 167 214 267 324 384
#     4  11  22  34  58  92 120 158 200 256 310 374
#     4   9  19  37  58  84 115 154 205 255 301 361
#     4  10  22  41  66  90 118 165 220 264 312 388
#     4  11  24  37  59  91 124 159 197 258 320 375
#
# _framework density 22.298393000000001
#
# number of rings (size 3 to 8) (size 9 to 14) (size 15 to 20)
#    0.000    1.857    1.429    2.143    4.000    1.714 
#    0.000    0.714    0.000    2.143    0.000    0.000 
#    0.000    0.000    0.000    0.000    0.000    0.000 
#
# Total GULP energy -346888.671038 kJ/mol
# GULP energy per Si atom -12388.881108 kJ/mol
# Density = 2.224764 g / cm^3
# Si number density = 22.298393 Si / 1000 Ang^3
#
#
#
# Elastic Constant Matrix: (Units=GPa)
#
#
# Indices 1 2 3 4 5 6 
#
# 1 52.0749 21.3650 9.9806 0.0000 -6.8143 0.0000
# 2 21.3650 124.6728 51.3567 0.0000 -11.1732 0.0000
# 3 9.9806 51.3567 111.0243 0.0000 -1.8483 0.0000
# 4 0.0000 0.0000 0.0000 37.4865 0.0000 -6.6658
# 5 -6.8143 -11.1732 -1.8483 0.0000 22.6023 0.0000
# 6 0.0000 0.0000 0.0000 -6.6658 0.0000 20.2549
#
#
#
# Elastic Compliance Matrix: (Units=1/GPa)
#
#
# Indices 1 2 3 4 5 6 
#
# 1 0.021157 -0.003015 -0.000426 0.000000 0.004853 0.000000
# 2 -0.003015 0.010825 -0.004669 0.000000 0.004060 0.000000
# 3 -0.000426 -0.004669 0.011180 0.000000 -0.001522 0.000000
# 4 0.000000 0.000000 0.000000 0.028334 0.000000 0.009325
# 5 0.004853 0.004060 -0.001522 0.000000 0.047589 0.000000
# 6 0.000000 0.000000 0.000000 0.009325 0.000000 0.052440
#
#
# Mechanical properties :
#
#
# Convention : Reuss Voigt Hill
#
# Bulk Modulus (GPa) = 37.11805 50.35298 43.73552
# Shear Modulus (GPa) = 25.41624 29.74006 27.57815
#
# Velocity S-wave (km/s) = 3.37979 3.65599 3.52060
# Velocity P-wave (km/s) = 5.64915 6.36020 6.01519
#
# Compressibility (1/GPa) = 0.02694107
#
# Stress axis : x y z
#
# Youngs Moduli (GPa) = 47.26597 92.38139 89.44875
#
# Poissons Ratio (x) = 0.27853 0.03815
# Poissons Ratio (y) = 0.14251 0.41760
# Poissons Ratio (z) = 0.02016 0.43129
#
# Static dielectric constant tensor:
#      x y z
#    x 3.606460 0.000000 -0.182070 
#    y 0.000000 4.714200 0.000000 
#    z -0.182070 0.000000 4.189280 
# 
# 
# High freq. dielectric constant tensor:
#      x y z
#    x 1.821310 0.000000 -0.015870 
#    y 0.000000 1.902590 0.000000 
#    z -0.015870 0.000000 1.894490 
# 
# From -- ./inp_files/262840.got.cif
#   From: 2010.06.25/outbox.cif.g09.slc.cpg/sg12_132_cif.got.tgz:262840.got - 2010.06.28 00:19:55.
