data_PCOD8084218
_publ_section_title
;
Structure prediction by ZEFSAII (Michael W. Deem and Ramdas Pophale) SiO2 
 PCOD8084218
Probable space group: C 2/M
;
_chemical_formula_sum "Si O2"
_cell_formula_units_Z 48
_cell_length_a 20.172281
_cell_length_b 8.878735
_cell_length_c 16.650958
_cell_angle_alpha 90.000000
_cell_angle_beta 117.436566
_cell_angle_gamma 90.000000
_cell_volume 2646.818821
_symmetry_space_group_name_H-M "C 2/M"
_symmetry_group_IT_number 12
_symmetry_cell_setting 'monoclinic'
loop_
_space_group_symop_operation_xyz
x,y,z
-x,y,-z
-x,-y,-z
x,-y,z
1/2+x,1/2+y,z
1/2-x,1/2+y,-z
1/2-x,1/2-y,-z
1/2+x,1/2-y,z
loop_
_atom_site_type_symbol
_atom_site_label
_atom_site_fract_x
_atom_site_fract_y
_atom_site_fract_z
Si Si1 0.023666 0.321766 0.427571
Si Si2 0.904457 0.678119 0.770464
Si Si3 0.169619 0.822820 0.949460
Si Si4 0.588529 0.827767 0.048866
Si Si5 0.555421 0.177924 0.776020
Si Si6 0.173744 0.678384 0.429664
O O1 0.028294 0.500000 0.436926
O O2 0.105706 0.262847 0.447668
O O3 0.000000 0.250001 0.500000
O O4 0.961795 0.278746 0.326165
O O5 0.911019 0.500000 0.770709
O O6 0.881883 0.729550 0.847451
O O7 0.842823 0.731636 0.671274
O O8 0.986544 0.737614 0.791902
O O9 0.129508 0.763073 0.846430
O O10 0.178253 0.000000 0.948416
O O11 0.250000 0.750000 0.000000
O O12 0.122176 0.780602 0.001261
O O13 0.613399 0.000000 0.045521
O O14 0.500000 0.816130 0.000000
O O15 0.567845 0.000000 0.793200
O O16 0.180758 0.500000 0.438764
O O17 0.250000 0.750000 0.500000
#
# Coordination Sequence:
#
# PCOD8084218 Si02
#       6
#     8   8   8   8   8   8
#     4   8  15  30  55  81 103 134 178 220 257 308
#     4   8  15  30  54  79 102 139 178 209 256 320
#     4  12  25  39  54  77 111 144 179 222 272 320
#     4  10  18  34  61  83 104 137 178 218 264 322
#     4   9  16  33  58  79 103 140 182 218 262 318
#     4   9  17  31  51  75 107 140 171 210 259 308
#
# _framework density 18.134976999999999
#
# number of rings (size 3 to 8) (size 9 to 14) (size 15 to 20)
#    0.000    2.667    1.667    3.500    0.000    0.333 
#    3.000    4.167    0.000    1.000    0.000    0.000 
#    0.000    0.000    0.000    0.000    0.000    0.000 
#
# Total GULP energy -297475.028229 kJ/mol
# GULP energy per Si atom -12394.792843 kJ/mol
# Density = 1.809370 g / cm^3
# Si number density = 18.134977 Si / 1000 Ang^3
#
#
#
# Elastic Constant Matrix: (Units=GPa)
#
#
# Indices 1 2 3 4 5 6 
#
# 1 81.5155 32.1347 75.7039 0.0000 0.2858 0.0000
# 2 32.1347 64.1438 45.0303 0.0000 4.9994 0.0000
# 3 75.7039 45.0303 171.3315 0.0000 4.0145 0.0000
# 4 0.0000 0.0000 0.0000 26.0086 0.0000 7.2546
# 5 0.2858 4.9994 4.0145 0.0000 36.1325 0.0000
# 6 0.0000 0.0000 0.0000 7.2546 0.0000 21.1244
#
#
#
# Elastic Compliance Matrix: (Units=1/GPa)
#
#
# Indices 1 2 3 4 5 6 
#
# 1 0.022203 -0.005307 -0.008451 0.000000 0.001498 0.000000
# 2 -0.005307 0.020545 -0.002997 0.000000 -0.002468 0.000000
# 3 -0.008451 -0.002997 0.010374 0.000000 -0.000671 0.000000
# 4 0.000000 0.000000 0.000000 0.042522 0.000000 -0.014603
# 5 0.001498 -0.002468 -0.000671 0.000000 0.028080 0.000000
# 6 0.000000 0.000000 0.000000 -0.014603 0.000000 0.052354
#
#
# Mechanical properties :
#
#
# Convention : Reuss Voigt Hill
#
# Bulk Modulus (GPa) = 50.98886 69.19207 60.09047
# Shear Modulus (GPa) = 23.13482 27.59456 25.36469
#
# Velocity S-wave (km/s) = 3.57557 3.90503 3.74393
# Velocity P-wave (km/s) = 6.72485 7.65304 7.20391
#
# Compressibility (1/GPa) = 0.01961213
#
# Stress axis : x y z
#
# Youngs Moduli (GPa) = 45.03961 48.67360 96.39519
#
# Poissons Ratio (x) = 0.25833 0.81460
# Poissons Ratio (y) = 0.23904 0.28888
# Poissons Ratio (z) = 0.38061 0.14587
#
# Static dielectric constant tensor:
#      x y z
#    x 2.271440 0.000000 0.637780 
#    y 0.000000 2.961280 0.000000 
#    z 0.637780 0.000000 3.229420 
# 
# 
# High freq. dielectric constant tensor:
#      x y z
#    x 1.687100 0.000000 -0.004750 
#    y 0.000000 1.661100 0.000000 
#    z -0.004750 0.000000 1.721930 
# 
# From -- ./inp_files/274626.got.cif
#   From: 2010.06.25/outbox.cif.g09.slc.cpg/sg12_138_cif.got.tgz:274626.got - 2010.06.28 00:19:55.
