data_PCOD8084137
_publ_section_title
;
Structure prediction by ZEFSAII (Michael W. Deem and Ramdas Pophale) SiO2 
 PCOD8084137
Probable space group: C 2/M
;
_chemical_formula_sum "Si O2"
_cell_formula_units_Z 64
_cell_length_a 20.480611
_cell_length_b 9.054015
_cell_length_c 20.195493
_cell_angle_alpha 90.000000
_cell_angle_beta 72.161641
_cell_angle_gamma 90.000000
_cell_volume 3564.848610
_symmetry_space_group_name_H-M "C 2/M"
_symmetry_group_IT_number 12
_symmetry_cell_setting 'monoclinic'
loop_
_space_group_symop_operation_xyz
x,y,z
-x,y,-z
-x,-y,-z
x,-y,z
1/2+x,1/2+y,z
1/2-x,1/2+y,-z
1/2-x,1/2-y,-z
1/2+x,1/2-y,z
loop_
_atom_site_type_symbol
_atom_site_label
_atom_site_fract_x
_atom_site_fract_y
_atom_site_fract_z
Si Si1 0.317480 0.827013 0.283960
Si Si2 0.578710 0.827203 0.488890
Si Si3 0.419078 0.836817 0.014622
Si Si4 0.340471 0.327792 0.651089
Si Si5 0.397701 0.674580 0.149041
Si Si6 0.930582 0.672406 0.727074
Si Si7 0.538579 0.828028 0.136104
Si Si8 0.421226 0.825190 0.362664
O O1 0.239742 0.792770 0.326875
O O2 0.335975 0.739119 0.211737
O O3 0.364084 0.765495 0.329772
O O4 0.330459 0.000000 0.267546
O O5 0.500000 0.787664 0.500000
O O6 0.626588 0.738494 0.424769
O O7 0.597808 0.775353 0.557172
O O8 0.591937 0.000000 0.473732
O O9 0.384889 0.723757 0.076731
O O10 0.387505 0.000000 0.036114
O O11 0.500000 0.841253 0.000000
O O12 0.409731 0.786639 0.940585
O O13 0.355922 0.500000 0.648017
O O14 0.370606 0.257190 0.708260
O O15 0.397240 0.500000 0.152340
O O16 0.469276 0.733802 0.155405
O O17 0.924332 0.500000 0.711855
O O18 0.921774 0.703073 0.808009
O O19 0.003983 0.736018 0.680486
O O20 0.516503 0.000000 0.137929
O O21 0.424290 0.000000 0.357741
#
# Coordination Sequence:
#
# PCOD8084137 Si02
#       8
#     8   8   8   8   8   8   8   8
#     4  10  21  39  56  73 106 148 184 214 260 325
#     4  10  19  35  58  81 103 136 179 219 263 318
#     4   8  15  28  47  73 105 141 179 214 257 317
#     4  11  24  37  53  80 111 141 173 221 274 316
#     4  11  20  29  48  79 111 141 174 220 271 309
#     4  10  18  34  59  80 103 139 182 223 260 313
#     4   9  17  31  53  78 104 141 183 218 259 316
#     4   9  17  33  59  80  97 135 185 220 252 310
#
# _framework density 17.953074999999998
#
# number of rings (size 3 to 8) (size 9 to 14) (size 15 to 20)
#    0.000    2.250    2.500    2.250    0.000    4.500 
#    0.000    0.625    0.000    0.750    0.000    0.000 
#    0.000    0.000    0.000    0.000    0.000    0.000 
#
# Total GULP energy -396762.479465 kJ/mol
# GULP energy per Si atom -12398.827483 kJ/mol
# Density = 1.791221 g / cm^3
# Si number density = 17.953075 Si / 1000 Ang^3
#
#
#
# Elastic Constant Matrix: (Units=GPa)
#
#
# Indices 1 2 3 4 5 6 
#
# 1 83.1852 38.3950 52.6576 0.0000 7.5554 0.0000
# 2 38.3950 77.6662 57.0203 0.0000 -4.5587 -0.0001
# 3 52.6576 57.0203 148.1381 0.0000 17.5592 0.0000
# 4 0.0000 0.0000 0.0000 24.1692 0.0000 -0.9156
# 5 7.5554 -4.5587 17.5592 0.0000 22.7422 0.0000
# 6 0.0000 -0.0001 0.0000 -0.9156 0.0000 17.0233
#
#
#
# Elastic Compliance Matrix: (Units=1/GPa)
#
#
# Indices 1 2 3 4 5 6 
#
# 1 0.017479 -0.006652 -0.003089 0.000000 -0.004755 0.000000
# 2 -0.006652 0.022726 -0.007909 0.000000 0.012872 0.000000
# 3 -0.003089 -0.007909 0.012063 0.000000 -0.009873 0.000000
# 4 0.000000 0.000000 0.000000 0.041459 0.000000 0.002230
# 5 -0.004755 0.012872 -0.009873 0.000000 0.055754 0.000000
# 6 0.000000 0.000000 0.000000 0.002230 0.000000 0.058863
#
#
# Mechanical properties :
#
#
# Convention : Reuss Voigt Hill
#
# Bulk Modulus (GPa) = 58.93351 67.23725 63.08538
# Shear Modulus (GPa) = 20.05620 23.51473 21.78547
#
# Velocity S-wave (km/s) = 3.34600 3.62303 3.48726
# Velocity P-wave (km/s) = 6.91558 7.41854 7.17147
#
# Compressibility (1/GPa) = 0.01696828
#
# Stress axis : x y z
#
# Youngs Moduli (GPa) = 57.21134 44.00250 82.89921
#
# Poissons Ratio (x) = 0.29271 0.25607
# Poissons Ratio (y) = 0.38058 0.65562
# Poissons Ratio (z) = 0.17672 0.34800
#
# Static dielectric constant tensor:
#      x y z
#    x 3.156770 0.000000 0.276140 
#    y 0.000000 3.124170 0.000000 
#    z 0.276140 0.000000 3.735230 
# 
# 
# High freq. dielectric constant tensor:
#      x y z
#    x 1.664560 0.000000 0.017330 
#    y 0.000000 1.675340 0.000000 
#    z 0.017330 0.000000 1.713100 
# 
# From -- ./inp_files/319865.got.cif
#   From: 2010.06.25/outbox.cif.g09.slc.cpg/sg12_160_cif.got.tgz:319865.got - 2010.06.28 00:19:55.
