data_PCOD8084813
_publ_section_title
;
Structure prediction by ZEFSAII (Michael W. Deem and Ramdas Pophale) SiO2 
 PCOD8084813
Probable space group: C 2/M
;
_chemical_formula_sum "Si O2"
_cell_formula_units_Z 64
_cell_length_a 27.626323
_cell_length_b 9.035884
_cell_length_c 16.207253
_cell_angle_alpha 90.000000
_cell_angle_beta 86.752695
_cell_angle_gamma 90.000000
_cell_volume 4039.292027
_symmetry_space_group_name_H-M "C 2/M"
_symmetry_group_IT_number 12
_symmetry_cell_setting 'monoclinic'
loop_
_space_group_symop_operation_xyz
x,y,z
-x,y,-z
-x,-y,-z
x,-y,z
1/2+x,1/2+y,z
1/2-x,1/2+y,-z
1/2-x,1/2-y,-z
1/2+x,1/2-y,z
loop_
_atom_site_type_symbol
_atom_site_label
_atom_site_fract_x
_atom_site_fract_y
_atom_site_fract_z
Si Si1 0.919989 0.324587 0.150431
Si Si2 0.819625 0.836638 0.454950
Si Si3 0.977771 0.662665 0.911880
Si Si4 0.608184 0.326383 0.015275
Si Si5 0.249688 0.825549 0.240896
Si Si6 0.286263 0.328116 0.935182
Si Si7 0.711903 0.164354 0.395937
Si Si8 0.151324 0.176130 0.723715
O O1 0.910623 0.500000 0.152558
O O2 0.896283 0.260635 0.069765
O O3 0.896179 0.246081 0.231221
O O4 0.977555 0.287744 0.151067
O O5 0.764361 0.842314 0.431398
O O6 0.825840 0.729108 0.532837
O O7 0.851043 0.782317 0.373357
O O8 0.836375 0.000000 0.480951
O O9 0.958385 0.500000 0.887603
O O10 0.933650 0.778865 0.915437
O O11 0.000000 0.652188 0.000000
O O12 0.603659 0.500000 0.998094
O O13 0.658889 0.281199 0.050886
O O14 0.224957 0.783271 0.157289
O O15 0.213409 0.767766 0.315331
O O16 0.301310 0.744856 0.238387
O O17 0.257657 0.000000 0.251508
O O18 0.278597 0.500000 0.950078
O O19 0.250000 0.250000 0.000000
O O20 0.694491 0.000000 0.372726
O O21 0.153269 0.000000 0.736277
#
# Coordination Sequence:
#
# PCOD8084813 Si02
#       8
#     8   8   8   8   8   8   8   8
#     4  10  19  30  44  63  87 113 140 170 211 260
#     4   8  15  26  39  57  82 110 136 167 208 250
#     4   8  16  30  45  62  83 107 137 171 210 258
#     4  10  19  31  46  63  83 108 144 184 215 245
#     4  10  19  31  44  58  82 116 148 176 213 252
#     4  10  22  34  44  61  84 113 147 181 213 247
#     4   9  16  26  41  60  80 105 141 178 207 242
#     4  10  19  29  42  63  88 112 143 177 208 247
#
# _framework density 15.84436
#
# number of rings (size 3 to 8) (size 9 to 14) (size 15 to 20)
#    0.000    2.625    0.000    4.125    0.000   10.250 
#    0.000    0.000    0.000    0.000    0.000    0.000 
#    0.000    1.000    0.000   11.250    0.000    5.875 
#
# Total GULP energy -396679.583896 kJ/mol
# GULP energy per Si atom -12396.236997 kJ/mol
# Density = 1.580830 g / cm^3
# Si number density = 15.844360 Si / 1000 Ang^3
#
#
#
# Elastic Constant Matrix: (Units=GPa)
#
#
# Indices 1 2 3 4 5 6 
#
# 1 83.4433 45.2097 52.4197 0.0000 -20.9320 0.0000
# 2 45.2097 89.3135 52.0887 0.0000 -15.1937 0.0000
# 3 52.4197 52.0887 99.0662 0.0000 -27.0589 0.0000
# 4 0.0000 0.0000 0.0000 26.1463 0.0000 -7.2895
# 5 -20.9320 -15.1937 -27.0589 0.0000 24.0540 0.0000
# 6 0.0000 0.0000 0.0000 -7.2895 0.0000 23.0005
#
#
#
# Elastic Compliance Matrix: (Units=1/GPa)
#
#
# Indices 1 2 3 4 5 6 
#
# 1 0.020720 -0.005782 -0.005769 0.000000 0.007889 0.000000
# 2 -0.005782 0.017776 -0.006633 0.000000 -0.001264 0.000000
# 3 -0.005769 -0.006633 0.020381 0.000000 0.013717 0.000000
# 4 0.000000 0.000000 0.000000 0.041953 0.000000 0.013296
# 5 0.007889 -0.001264 0.013717 0.000000 0.063071 0.000000
# 6 0.000000 0.000000 0.000000 0.013296 0.000000 0.047691
#
#
# Mechanical properties :
#
#
# Convention : Reuss Voigt Hill
#
# Bulk Modulus (GPa) = 44.42346 63.47326 53.94836
# Shear Modulus (GPa) = 19.57239 22.78051 21.17645
#
# Velocity S-wave (km/s) = 3.51848 3.79590 3.65982
# Velocity P-wave (km/s) = 6.67866 7.70450 7.20985
#
# Compressibility (1/GPa) = 0.02251063
#
# Stress axis : x y z
#
# Youngs Moduli (GPa) = 48.26331 56.25445 49.06536
#
# Poissons Ratio (x) = 0.32524 0.28305
# Poissons Ratio (y) = 0.27904 0.32544
# Poissons Ratio (z) = 0.27842 0.37312
#
# Static dielectric constant tensor:
#      x y z
#    x 5.341160 0.000000 -2.607140 
#    y 0.000000 3.197350 0.000000 
#    z -2.607140 0.000000 5.267800 
# 
# 
# High freq. dielectric constant tensor:
#      x y z
#    x 1.572470 0.000000 -0.030540 
#    y 0.000000 1.623500 0.000000 
#    z -0.030540 0.000000 1.594370 
# 
# From -- ./inp_files/248346.got.cif
#   From: 2010.06.25/outbox.cif.g09.slc.cpg/sg12_125_cif.got.tgz:248346.got - 2010.06.28 00:19:55.
