data_PCOD8084699
_publ_section_title
;
Structure prediction by ZEFSAII (Michael W. Deem and Ramdas Pophale) SiO2 
 PCOD8084699
Probable space group: C 2/M
;
_chemical_formula_sum "Si O2"
_cell_formula_units_Z 56
_cell_length_a 27.771546
_cell_length_b 9.100049
_cell_length_c 14.484628
_cell_angle_alpha 90.000000
_cell_angle_beta 76.399964
_cell_angle_gamma 90.000000
_cell_volume 3557.950545
_symmetry_space_group_name_H-M "C 2/M"
_symmetry_group_IT_number 12
_symmetry_cell_setting 'monoclinic'
loop_
_space_group_symop_operation_xyz
x,y,z
-x,y,-z
-x,-y,-z
x,-y,z
1/2+x,1/2+y,z
1/2-x,1/2+y,-z
1/2-x,1/2-y,-z
1/2+x,1/2-y,z
loop_
_atom_site_type_symbol
_atom_site_label
_atom_site_fract_x
_atom_site_fract_y
_atom_site_fract_z
Si Si1 0.943283 0.675105 0.022803
Si Si2 0.190820 0.828153 0.210450
Si Si3 0.627923 0.836271 0.791723
Si Si4 0.183027 0.674131 0.594887
Si Si5 0.794606 0.827224 0.593331
Si Si6 0.207146 0.334179 0.909398
Si Si7 0.868602 0.171473 0.933034
O O1 0.937005 0.500000 0.019684
O O2 0.915684 0.739559 0.127234
O O3 0.917671 0.742245 0.943158
O O4 0.000000 0.725016 0.000000
O O5 0.185620 0.765591 0.316736
O O6 0.238865 0.764702 0.135151
O O7 0.141508 0.797899 0.171623
O O8 0.201878 0.000000 0.215617
O O9 0.641693 0.763405 0.686487
O O10 0.678615 0.838787 0.825586
O O11 0.609056 0.000000 0.779779
O O12 0.178268 0.500000 0.587222
O O13 0.173081 0.748538 0.500626
O O14 0.237253 0.717131 0.608170
O O15 0.802910 0.000000 0.579211
O O16 0.209239 0.500000 0.950007
O O17 0.180008 0.225627 0.991689
O O18 0.876348 0.000000 0.949004
#
# Coordination Sequence:
#
# PCOD8084699 Si02
#       7
#     8   8   8   8   8   8   8
#     4   9  18  33  51  67  82 107 143 177 213 263
#     4   9  16  27  42  59  84 121 153 171 203 253
#     4   8  13  24  44  63  81 108 140 172 209 251
#     4   9  15  25  40  59  82 111 143 175 210 243
#     4   9  16  26  40  57  82 117 149 175 200 240
#     4   9  15  27  43  58  82 119 153 174 197 244
#     4  10  19  28  41  64  89 112 140 176 216 255
#
# _framework density 15.739397
#
# number of rings (size 3 to 8) (size 9 to 14) (size 15 to 20)
#    0.000    3.000    1.429    1.714    0.000    0.286 
#    0.000    5.714    0.000    0.000    0.000    1.000 
#    0.000    8.000    0.000    0.000    0.000    0.000 
#
# Total GULP energy -346915.310939 kJ/mol
# GULP energy per Si atom -12389.832534 kJ/mol
# Density = 1.570357 g / cm^3
# Si number density = 15.739397 Si / 1000 Ang^3
#
#
#
# Elastic Constant Matrix: (Units=GPa)
#
#
# Indices 1 2 3 4 5 6 
#
# 1 88.2041 21.9927 58.7512 0.0000 1.0168 0.0000
# 2 21.9927 28.5452 28.7112 0.0000 3.6532 0.0000
# 3 58.7512 28.7112 116.5062 0.0000 10.8322 0.0000
# 4 0.0000 0.0000 0.0000 21.6787 0.0000 1.3858
# 5 1.0168 3.6532 10.8322 0.0000 17.7254 0.0000
# 6 0.0000 0.0000 0.0000 1.3858 0.0000 15.6078
#
#
#
# Elastic Compliance Matrix: (Units=1/GPa)
#
#
# Indices 1 2 3 4 5 6 
#
# 1 0.018325 -0.006655 -0.008090 0.000000 0.005264 0.000000
# 2 -0.006655 0.049120 -0.008316 0.000000 -0.004660 0.000000
# 3 -0.008090 -0.008316 0.015384 0.000000 -0.007223 0.000000
# 4 0.000000 0.000000 0.000000 0.046392 0.000000 -0.004119
# 5 0.005264 -0.004660 -0.007223 0.000000 0.061489 0.000000
# 6 0.000000 0.000000 0.000000 -0.004119 0.000000 0.064436
#
#
# Mechanical properties :
#
#
# Convention : Reuss Voigt Hill
#
# Bulk Modulus (GPa) = 27.24284 50.24064 38.74174
# Shear Modulus (GPa) = 15.94886 19.25573 17.60230
#
# Velocity S-wave (km/s) = 3.18670 3.50152 3.34782
# Velocity P-wave (km/s) = 5.55755 6.95249 6.29379
#
# Compressibility (1/GPa) = 0.03670690
#
# Stress axis : x y z
#
# Youngs Moduli (GPa) = 54.57128 20.35837 65.00356
#
# Poissons Ratio (x) = 0.13548 0.52589
# Poissons Ratio (y) = 0.36316 0.54055
# Poissons Ratio (z) = 0.44149 0.16929
#
# Static dielectric constant tensor:
#      x y z
#    x 2.763960 0.000000 0.031810 
#    y 0.000000 2.751940 0.000000 
#    z 0.031810 0.000000 3.222720 
# 
# 
# High freq. dielectric constant tensor:
#      x y z
#    x 1.564080 0.000000 0.006350 
#    y 0.000000 1.577710 0.000000 
#    z 0.006350 0.000000 1.607110 
# 
# From -- ./inp_files/247774.got.cif
#   From: 2010.06.25/outbox.cif.g09.slc.cpg/sg12_124_cif.got.tgz:247774.got - 2010.06.28 00:19:55.
