data_PCOD8084931
_publ_section_title
;
Structure prediction by ZEFSAII (Michael W. Deem and Ramdas Pophale) SiO2 
 PCOD8084931
Probable space group: C 2/M
;
_chemical_formula_sum "Si O2"
_cell_formula_units_Z 56
_cell_length_a 27.757872
_cell_length_b 9.465985
_cell_length_c 14.169533
_cell_angle_alpha 90.000000
_cell_angle_beta 119.848699
_cell_angle_gamma 90.000000
_cell_volume 3229.224671
_symmetry_space_group_name_H-M "C 2/M"
_symmetry_group_IT_number 12
_symmetry_cell_setting 'monoclinic'
loop_
_space_group_symop_operation_xyz
x,y,z
-x,y,-z
-x,-y,-z
x,-y,z
1/2+x,1/2+y,z
1/2-x,1/2+y,-z
1/2-x,1/2-y,-z
1/2+x,1/2-y,z
loop_
_atom_site_type_symbol
_atom_site_label
_atom_site_fract_x
_atom_site_fract_y
_atom_site_fract_z
Si Si1 0.170841 0.160912 0.901080
Si Si2 0.055781 0.163412 0.873310
Si Si3 0.752182 0.335074 0.146511
Si Si4 0.168882 0.337516 0.420746
Si Si5 0.761339 0.835301 0.654394
Si Si6 0.565285 0.846641 0.057040
Si Si7 0.447146 0.163172 0.749093
O O1 0.104557 0.181436 0.844348
O O2 0.192689 0.258526 0.838247
O O3 0.185679 0.000000 0.890357
O O4 0.199991 0.201685 0.028850
O O5 0.000677 0.240277 0.780505
O O6 0.041770 0.000000 0.878328
O O7 0.079710 0.228725 0.993909
O O8 0.765868 0.500000 0.162709
O O9 0.738946 0.278902 0.238536
O O10 0.177486 0.500000 0.399365
O O11 0.191365 0.244179 0.357002
O O12 0.201073 0.303614 0.549152
O O13 0.102914 0.307130 0.373644
O O14 0.775936 0.000000 0.665502
O O15 0.582679 0.800521 0.179460
O O16 0.591436 0.000000 0.054651
O O17 0.500000 0.864166 0.000000
O O18 0.467144 0.000000 0.766044
#
# Coordination Sequence:
#
# PCOD8084931 Si02
#       7
#     8   8   8   8   8   8   8
#     4   9  19  33  47  69  97 122 154 194 235 281
#     4  10  19  29  44  67  94 122 154 193 235 276
#     4   9  18  33  51  70  93 122 155 193 237 279
#     4   9  18  32  49  72  98 126 158 190 231 280
#     4   9  18  32  51  73  97 122 154 198 238 276
#     4   8  15  27  40  58  88 123 155 184 217 265
#     4   9  18  31  45  64  94 127 158 189 223 274
#
# _framework density 17.341623999999999
#
# number of rings (size 3 to 8) (size 9 to 14) (size 15 to 20)
#    0.000    3.000    0.000    1.286    2.000    4.857 
#    0.000    0.000    0.000    0.857    0.000    6.000 
#    0.000    0.000    0.000    0.000    0.000    0.000 
#
# Total GULP energy -347032.079384 kJ/mol
# GULP energy per Si atom -12394.002835 kJ/mol
# Density = 1.730215 g / cm^3
# Si number density = 17.341624 Si / 1000 Ang^3
#
#
#
# Elastic Constant Matrix: (Units=GPa)
#
#
# Indices 1 2 3 4 5 6 
#
# 1 77.5384 43.6318 32.8018 0.0000 5.4136 0.0000
# 2 43.6318 69.7879 27.1425 0.0000 0.8367 0.0000
# 3 32.8018 27.1425 65.3539 0.0000 -1.2256 0.0000
# 4 0.0000 0.0000 0.0000 20.1717 0.0000 -2.5166
# 5 5.4136 0.8367 -1.2256 0.0000 26.9859 0.0000
# 6 0.0000 0.0000 0.0000 -2.5166 0.0000 29.7145
#
#
#
# Elastic Compliance Matrix: (Units=1/GPa)
#
#
# Indices 1 2 3 4 5 6 
#
# 1 0.022408 -0.011389 -0.006600 0.000000 -0.004442 0.000000
# 2 -0.011389 0.022898 -0.003767 0.000000 0.001404 0.000000
# 3 -0.006600 -0.003767 0.020223 0.000000 0.002359 0.000000
# 4 0.000000 0.000000 0.000000 0.050104 0.000000 0.004243
# 5 -0.004442 0.001404 0.002359 0.000000 0.038011 0.000000
# 6 0.000000 0.000000 0.000000 0.004243 0.000000 0.034013
#
#
# Mechanical properties :
#
#
# Convention : Reuss Voigt Hill
#
# Bulk Modulus (GPa) = 45.42184 46.64804 46.03494
# Shear Modulus (GPa) = 20.96364 22.64803 21.80583
#
# Velocity S-wave (km/s) = 3.48064 3.61777 3.54987
# Velocity P-wave (km/s) = 6.51171 6.66400 6.58830
#
# Compressibility (1/GPa) = 0.02201584
#
# Stress axis : x y z
#
# Youngs Moduli (GPa) = 44.62707 43.67161 49.44944
#
# Poissons Ratio (x) = 0.49739 0.32636
# Poissons Ratio (y) = 0.50828 0.18628
# Poissons Ratio (z) = 0.29453 0.16452
#
# Static dielectric constant tensor:
#      x y z
#    x 3.025710 0.000000 0.064230 
#    y 0.000000 3.250740 0.000000 
#    z 0.064230 0.000000 3.687390 
# 
# 
# High freq. dielectric constant tensor:
#      x y z
#    x 1.650810 0.000000 0.016820 
#    y 0.000000 1.671100 0.000000 
#    z 0.016820 0.000000 1.651570 
# 
# From -- ./inp_files/243281.got.cif
#   From: 2010.06.25/outbox.cif.g09.slc.cpg/sg12_122_cif.got.tgz:243281.got - 2010.06.28 00:19:55.
