data_PCOD8084521
_publ_section_title
;
Structure prediction by ZEFSAII (Michael W. Deem and Ramdas Pophale) SiO2 
 PCOD8084521
Probable space group: C 2/M
;
_chemical_formula_sum "Si O2"
_cell_formula_units_Z 48
_cell_length_a 17.133140
_cell_length_b 17.565162
_cell_length_c 16.254881
_cell_angle_alpha 90.000000
_cell_angle_beta 147.210183
_cell_angle_gamma 90.000000
_cell_volume 2649.223161
_symmetry_space_group_name_H-M "C 2/M"
_symmetry_group_IT_number 12
_symmetry_cell_setting 'monoclinic'
loop_
_space_group_symop_operation_xyz
x,y,z
-x,y,-z
-x,-y,-z
x,-y,z
1/2+x,1/2+y,z
1/2-x,1/2+y,-z
1/2-x,1/2-y,-z
1/2+x,1/2-y,z
loop_
_atom_site_type_symbol
_atom_site_label
_atom_site_fract_x
_atom_site_fract_y
_atom_site_fract_z
Si Si1 0.612744 0.000000 0.747960
Si Si2 0.680233 0.834657 0.030009
Si Si3 0.447163 0.146307 0.540823
Si Si4 0.966762 0.756471 0.242243
Si Si5 0.309888 0.000000 0.007087
Si Si6 0.000000 0.752300 0.000000
Si Si7 0.578472 0.500000 0.927685
Si Si8 0.618452 0.645927 0.244820
O O1 0.547763 0.074942 0.650050
O O2 0.580963 0.000000 0.817853
O O3 0.787232 0.000000 0.888367
O O4 0.846882 0.812140 0.173392
O O5 0.663483 0.925444 0.023901
O O6 0.611882 0.799334 0.050289
O O7 0.603499 0.806942 0.878772
O O8 0.500000 0.178819 0.500000
O O9 0.456372 0.213887 0.614841
O O10 0.282461 0.118025 0.393155
O O11 0.081735 0.807299 0.294925
O O12 0.144951 0.000000 0.894560
O O13 0.903034 0.801982 0.853684
O O14 0.484770 0.574416 0.857716
#
# Coordination Sequence:
#
# PCOD8084521 Si02
#       8
#     4   8   8   8   4   4   4   8
#     4  10  22  38  57  84 115 155 195 233 297 345
#     4  10  19  36  62  85 117 151 198 239 286 347
#     4  12  24  37  55  86 122 155 188 244 301 343
#     4  10  19  37  59  82 116 156 196 240 283 347
#     4  10  18  36  64  86 105 158 195 235 281 340
#     4  10  24  36  58  94 116 152 192 246 294 342
#     4  10  21  38  63  88 110 159 199 235 281 359
#     4  11  23  38  60  88 118 152 201 236 292 348
#
# _framework density 18.118518000000002
#
# number of rings (size 3 to 8) (size 9 to 14) (size 15 to 20)
#    0.500    1.000    3.333    2.250    7.000    0.667 
#    0.000    0.000    0.000    0.000    0.000    2.333 
#    0.000    0.000    0.000    0.000    0.000    0.000 
#
# Total GULP energy -297617.787911 kJ/mol
# GULP energy per Si atom -12400.741163 kJ/mol
# Density = 1.807728 g / cm^3
# Si number density = 18.118518 Si / 1000 Ang^3
#
#
#
# Elastic Constant Matrix: (Units=GPa)
#
#
# Indices 1 2 3 4 5 6 
#
# 1 105.8229 49.3603 56.3567 0.0001 -3.9136 0.0000
# 2 49.3603 134.6066 50.9388 0.0004 -3.9884 -0.0004
# 3 56.3567 50.9388 105.7989 0.0019 12.4620 -0.0006
# 4 0.0001 0.0004 0.0019 20.5053 0.0007 4.2346
# 5 -3.9136 -3.9884 12.4620 0.0007 33.2951 -0.0002
# 6 0.0000 -0.0004 -0.0006 4.2346 -0.0002 5.8040
#
#
#
# Elastic Compliance Matrix: (Units=1/GPa)
#
#
# Indices 1 2 3 4 5 6 
#
# 1 0.014501 -0.002565 -0.006961 0.000001 0.004003 -0.000001
# 2 -0.002565 0.009804 -0.003616 0.000000 0.002227 0.000000
# 3 -0.006961 -0.003616 0.015743 -0.000002 -0.007144 0.000002
# 4 0.000001 0.000000 -0.000002 0.057419 -0.000001 -0.041893
# 5 0.004003 0.002227 -0.007144 -0.000001 0.033445 0.000001
# 6 -0.000001 0.000000 0.000002 -0.041893 0.000001 0.202860
#
#
# Mechanical properties :
#
#
# Convention : Reuss Voigt Hill
#
# Bulk Modulus (GPa) = 72.65696 73.28222 72.96959
# Shear Modulus (GPa) = 13.71196 24.55907 19.13552
#
# Velocity S-wave (km/s) = 2.75397 3.68566 3.25334
# Velocity P-wave (km/s) = 7.09228 7.65807 7.38060
#
# Compressibility (1/GPa) = 0.01376331
#
# Stress axis : x y z
#
# Youngs Moduli (GPa) = 68.95938 101.99841 63.52196
#
# Poissons Ratio (x) = 0.26160 0.44219
# Poissons Ratio (y) = 0.17686 0.22972
# Poissons Ratio (z) = 0.48004 0.36887
#
# Static dielectric constant tensor:
#      x y z
#    x 3.380000 0.000000 -0.009660 
#    y 0.000000 3.286540 0.000000 
#    z -0.009660 0.000000 3.261030 
# 
# 
# High freq. dielectric constant tensor:
#      x y z
#    x 1.703520 0.000000 0.006170 
#    y 0.000000 1.705020 0.000000 
#    z 0.006170 0.000000 1.692490 
# 
# From -- ./inp_files/226994.got.cif
#   From: 2010.06.25/outbox.cif.g09.slc.cpg/sg12_114_cif.got.tgz:226994.got - 2010.06.28 00:19:55.
