data_PCOD8084664
_publ_section_title
;
Structure prediction by ZEFSAII (Michael W. Deem and Ramdas Pophale) SiO2 
 PCOD8084664
Probable space group: C 2/M
;
_chemical_formula_sum "Si O2"
_cell_formula_units_Z 64
_cell_length_a 25.580705
_cell_length_b 16.686175
_cell_length_c 21.391761
_cell_angle_alpha 90.000000
_cell_angle_beta 30.058734
_cell_angle_gamma 90.000000
_cell_volume 4573.577429
_symmetry_space_group_name_H-M "C 2/M"
_symmetry_group_IT_number 12
_symmetry_cell_setting 'monoclinic'
loop_
_space_group_symop_operation_xyz
x,y,z
-x,y,-z
-x,-y,-z
x,-y,z
1/2+x,1/2+y,z
1/2-x,1/2+y,-z
1/2-x,1/2-y,-z
1/2+x,1/2-y,z
loop_
_atom_site_type_symbol
_atom_site_label
_atom_site_fract_x
_atom_site_fract_y
_atom_site_fract_z
Si Si1 0.091009 0.311940 0.950074
Si Si2 0.963754 0.093267 0.468563
Si Si3 0.427380 0.823036 0.831463
Si Si4 0.701650 0.724950 0.935752
Si Si5 0.600206 0.691126 0.231351
Si Si6 0.958355 0.593289 0.184541
Si Si7 0.770751 0.907177 0.002744
Si Si8 0.722154 0.907869 0.719006
O O1 0.140186 0.235060 0.934169
O O2 0.181843 0.354753 0.817667
O O3 0.000000 0.278193 0.000000
O O4 0.045341 0.377139 0.045438
O O5 0.842296 0.111748 0.583622
O O6 0.000000 0.120252 0.500000
O O7 0.021908 0.143700 0.356138
O O8 0.989702 0.000000 0.431723
O O9 0.463411 0.761401 0.739811
O O10 0.527020 0.860576 0.764470
O O11 0.356230 0.771558 0.950145
O O12 0.352062 0.893656 0.884334
O O13 0.815801 0.764373 0.811532
O O14 0.705811 0.632661 0.953529
O O15 0.655492 0.629080 0.127287
O O16 0.977070 0.500000 0.176626
O O17 0.842793 0.610963 0.277218
O O18 0.795960 0.000000 0.982366
O O19 0.705276 0.000000 0.755809
#
# Coordination Sequence:
#
# PCOD8084664 Si02
#       8
#     8   8   8   8   8   8   8   8
#     4   9  15  24  39  56  77 105 128 148 185 227
#     4  10  19  28  38  53  75 103 131 155 178 212
#     4   8  15  25  38  57  77  97 121 152 187 223
#     4   8  15  25  37  56  78  97 121 156 186 216
#     4   9  16  27  39  53  78 104 124 148 183 223
#     4   9  15  24  39  58  80 101 122 152 189 224
#     4   9  15  24  40  59  77  97 122 151 188 229
#     4   9  17  26  36  55  80 103 129 156 178 212
#
# _framework density 13.993422000000001
#
# number of rings (size 3 to 8) (size 9 to 14) (size 15 to 20)
#    0.000    3.125    0.000    3.375    0.000    1.500 
#    0.000    4.375    0.000    0.375    0.000    0.000 
#    0.000   41.500    0.000    0.000    0.000    0.000 
#
# Total GULP energy -396572.382215 kJ/mol
# GULP energy per Si atom -12392.886944 kJ/mol
# Density = 1.396157 g / cm^3
# Si number density = 13.993422 Si / 1000 Ang^3
#
#
#
# Elastic Constant Matrix: (Units=GPa)
#
#
# Indices 1 2 3 4 5 6 
#
# 1 112.9052 56.8798 45.2588 0.0000 -6.9897 0.0000
# 2 56.8798 82.9456 35.6375 0.0000 -0.4536 0.0000
# 3 45.2588 35.6375 70.1004 0.0000 -1.0247 0.0000
# 4 0.0000 0.0000 0.0000 19.2987 0.0000 2.6272
# 5 -6.9897 -0.4536 -1.0247 0.0000 16.2960 0.0000
# 6 0.0000 0.0000 0.0000 2.6272 0.0000 23.2164
#
#
#
# Elastic Compliance Matrix: (Units=1/GPa)
#
#
# Indices 1 2 3 4 5 6 
#
# 1 0.015748 -0.008234 -0.005891 0.000000 0.006155 0.000000
# 2 -0.008234 0.019731 -0.004762 0.000000 -0.003282 0.000000
# 3 -0.005891 -0.004762 0.020470 0.000000 -0.001372 0.000000
# 4 0.000000 0.000000 0.000000 0.052628 0.000000 -0.005955
# 5 0.006155 -0.003282 -0.001372 0.000000 0.063827 0.000000
# 6 0.000000 0.000000 0.000000 -0.005955 0.000000 0.043747
#
#
# Mechanical properties :
#
#
# Convention : Reuss Voigt Hill
#
# Bulk Modulus (GPa) = 55.02724 60.16705 57.59715
# Shear Modulus (GPa) = 19.23196 20.30722 19.76959
#
# Velocity S-wave (km/s) = 3.71125 3.81359 3.76277
# Velocity P-wave (km/s) = 7.60089 7.90451 7.75419
#
# Compressibility (1/GPa) = 0.01817282
#
# Stress axis : x y z
#
# Youngs Moduli (GPa) = 63.50086 50.68168 48.85240
#
# Poissons Ratio (x) = 0.41733 0.28780
# Poissons Ratio (y) = 0.52288 0.23266
# Poissons Ratio (z) = 0.37409 0.24137
#
# Static dielectric constant tensor:
#      x y z
#    x 3.049280 0.000000 -0.124330 
#    y 0.000000 2.670770 0.000000 
#    z -0.124330 0.000000 2.503880 
# 
# 
# High freq. dielectric constant tensor:
#      x y z
#    x 1.538650 0.000000 -0.011380 
#    y 0.000000 1.515170 0.000000 
#    z -0.011380 0.000000 1.506170 
# 
# From -- ./inp_files/168117.got.cif
#   From: 2010.06.25/outbox.cif.g09.slc.cpg/sg12_85_cif.got.tgz:168117.got - 2010.06.28 00:19:55.
