data_PCOD8084411
_publ_section_title
;
Structure prediction by ZEFSAII (Michael W. Deem and Ramdas Pophale) SiO2 
 PCOD8084411
Probable space group: C 2/M
;
_chemical_formula_sum "Si O2"
_cell_formula_units_Z 64
_cell_length_a 30.791325
_cell_length_b 8.981262
_cell_length_c 11.884107
_cell_angle_alpha 90.000000
_cell_angle_beta 88.571392
_cell_angle_gamma 90.000000
_cell_volume 3285.468309
_symmetry_space_group_name_H-M "C 2/M"
_symmetry_group_IT_number 12
_symmetry_cell_setting 'monoclinic'
loop_
_space_group_symop_operation_xyz
x,y,z
-x,y,-z
-x,-y,-z
x,-y,z
1/2+x,1/2+y,z
1/2-x,1/2+y,-z
1/2-x,1/2-y,-z
1/2+x,1/2-y,z
loop_
_atom_site_type_symbol
_atom_site_label
_atom_site_fract_x
_atom_site_fract_y
_atom_site_fract_z
Si Si1 0.452453 0.676063 0.720081
Si Si2 0.171178 0.676777 0.499663
Si Si3 0.879543 0.676628 0.116849
Si Si4 0.927006 0.326609 0.501616
Si Si5 0.038626 0.326837 0.748535
Si Si6 0.209987 0.326321 0.264863
Si Si7 0.297851 0.823108 0.262286
Si Si8 0.123589 0.674133 0.139166
O O1 0.452825 0.500000 0.721280
O O2 0.453638 0.735314 0.592425
O O3 0.495086 0.736799 0.781430
O O4 0.409635 0.733797 0.784223
O O5 0.169229 0.500000 0.500382
O O6 0.121967 0.735940 0.499376
O O7 0.196619 0.736188 0.388799
O O8 0.194579 0.735068 0.610782
O O9 0.878573 0.500000 0.125938
O O10 0.922852 0.736260 0.175167
O O11 0.836793 0.739139 0.182130
O O12 0.879557 0.730608 0.988457
O O13 0.928213 0.500000 0.535471
O O14 0.949031 0.299189 0.381030
O O15 0.030194 0.500000 0.773668
O O16 0.220380 0.500000 0.271022
O O17 0.252743 0.241975 0.219347
O O18 0.172059 0.292918 0.178676
O O19 0.295790 0.000000 0.257473
O O20 0.112338 0.500000 0.151749
#
# Coordination Sequence:
#
# PCOD8084411 Si02
#       8
#     8   8   8   8   8   8   8   8
#     4  12  25  38  55  84 120 149 181 229 288 340
#     4   9  16  31  56  82 111 145 181 226 276 327
#     4   9  19  37  62  87 107 141 195 245 275 315
#     4  10  18  35  62  86 110 148 188 226 275 334
#     4  10  20  37  63  88 111 144 190 232 276 334
#     4  10  20  34  54  81 113 150 188 225 274 333
#     4  10  19  34  57  85 115 143 181 233 283 328
#     4  10  21  40  62  80 107 149 198 239 273 323
#
# _framework density 19.479718999999999
#
# number of rings (size 3 to 8) (size 9 to 14) (size 15 to 20)
#    0.000    2.000    2.500    1.875    0.000    3.500 
#    0.000    5.000    0.000    0.000    0.000    0.000 
#    0.000    0.000    0.000    0.000    0.000    0.000 
#
# Total GULP energy -396877.432365 kJ/mol
# GULP energy per Si atom -12402.419761 kJ/mol
# Density = 1.943538 g / cm^3
# Si number density = 19.479719 Si / 1000 Ang^3
#
#
#
# Elastic Constant Matrix: (Units=GPa)
#
#
# Indices 1 2 3 4 5 6 
#
# 1 121.5207 39.5458 35.3482 0.0000 22.5265 0.0000
# 2 39.5458 53.6151 35.6324 0.0000 8.4036 0.0000
# 3 35.3482 35.6324 109.0080 0.0000 19.7275 0.0000
# 4 0.0000 0.0000 0.0000 8.5544 0.0000 0.1883
# 5 22.5265 8.4036 19.7275 0.0000 18.9101 0.0000
# 6 0.0000 0.0000 0.0000 0.1883 0.0000 30.5194
#
#
#
# Elastic Compliance Matrix: (Units=1/GPa)
#
#
# Indices 1 2 3 4 5 6 
#
# 1 0.012991 -0.008076 0.000713 0.000000 -0.012630 0.000000
# 2 -0.008076 0.028991 -0.007726 0.000000 0.004797 0.000000
# 3 0.000713 -0.007726 0.013560 0.000000 -0.011563 0.000000
# 4 0.000000 0.000000 0.000000 0.116915 0.000000 -0.000721
# 5 -0.012630 0.004797 -0.011563 0.000000 0.077858 0.000000
# 6 0.000000 0.000000 0.000000 -0.000721 0.000000 0.032770
#
#
# Mechanical properties :
#
#
# Convention : Reuss Voigt Hill
#
# Bulk Modulus (GPa) = 39.42513 56.13296 47.77904
# Shear Modulus (GPa) = 15.54148 23.17128 19.35638
#
# Velocity S-wave (km/s) = 2.82765 3.45267 3.15567
# Velocity P-wave (km/s) = 5.56272 6.69128 6.15293
#
# Compressibility (1/GPa) = 0.02536454
#
# Stress axis : x y z
#
# Youngs Moduli (GPa) = 76.97519 34.49333 73.74455
#
# Poissons Ratio (x) = 0.27858 -0.05259
# Poissons Ratio (y) = 0.62168 0.56973
# Poissons Ratio (z) = -0.05489 0.26649
#
# Static dielectric constant tensor:
#      x y z
#    x 3.699430 0.000000 0.075900 
#    y 0.000000 3.107870 0.000000 
#    z 0.075900 0.000000 3.678120 
# 
# 
# High freq. dielectric constant tensor:
#      x y z
#    x 1.776100 0.000000 0.003750 
#    y 0.000000 1.713430 0.000000 
#    z 0.003750 0.000000 1.758760 
# 
# From -- ./inp_files/187436.got.cif
#   From: 2010.06.25/outbox.cif.g09.slc.cpg/sg12_94_cif.got.tgz:187436.got - 2010.06.28 00:19:55.
