data_PCOD8084590
_publ_section_title
;
Structure prediction by ZEFSAII (Michael W. Deem and Ramdas Pophale) SiO2 
 PCOD8084590
Probable space group: C 2/M
;
_chemical_formula_sum "Si O2"
_cell_formula_units_Z 60
_cell_length_a 8.787729
_cell_length_b 28.890014
_cell_length_c 12.773180
_cell_angle_alpha 90.000000
_cell_angle_beta 112.345811
_cell_angle_gamma 90.000000
_cell_volume 2999.307889
_symmetry_space_group_name_H-M "C 2/M"
_symmetry_group_IT_number 12
_symmetry_cell_setting 'monoclinic'
loop_
_space_group_symop_operation_xyz
x,y,z
-x,y,-z
-x,-y,-z
x,-y,z
1/2+x,1/2+y,z
1/2-x,1/2+y,-z
1/2-x,1/2-y,-z
1/2+x,1/2-y,z
loop_
_atom_site_type_symbol
_atom_site_label
_atom_site_fract_x
_atom_site_fract_y
_atom_site_fract_z
Si Si1 0.500000 0.294087 0.500000
Si Si2 0.926063 0.211624 0.261822
Si Si3 0.540796 0.786068 0.132669
Si Si4 0.746957 0.126099 0.437852
Si Si5 0.582665 0.869626 0.769453
Si Si6 0.028177 0.448009 0.121650
Si Si7 0.868013 0.119835 0.690099
Si Si8 0.123658 0.052774 0.690077
O O1 0.513764 0.263771 0.611651
O O2 0.662477 0.325253 0.553598
O O3 0.732043 0.204641 0.200234
O O4 0.993273 0.239252 0.180348
O O5 0.000548 0.160616 0.287946
O O6 0.433082 0.827850 0.151892
O O7 0.500000 0.779937 0.000000
O O8 0.560460 0.132924 0.353594
O O9 0.744667 0.114737 0.559979
O O10 0.843682 0.084915 0.402907
O O11 0.576393 0.918567 0.824817
O O12 0.762008 0.869001 0.764719
O O13 0.959408 0.500000 0.111136
O O14 0.220638 0.445483 0.193790
O O15 0.000000 0.426808 0.000000
O O16 0.972146 0.072190 0.720096
O O17 0.087492 0.000000 0.644438
#
# Coordination Sequence:
#
# PCOD8084590 Si02
#       8
#     4   8   8   8   8   8   8   8
#     4  10  18  40  65  86 118 150 197 248 294 350
#     4  11  23  42  62  87 118 158 198 248 299 355
#     4  12  25  43  63  88 120 157 203 250 299 361
#     4  10  18  38  59  84 118 157 192 240 285 357
#     4  11  22  38  59  88 117 156 196 241 300 348
#     4   9  19  38  61  82 109 151 199 243 290 348
#     4  11  22  37  57  86 124 154 192 243 296 349
#     4  10  19  34  60  87 116 156 197 237 293 358
#
# _framework density 20.004615999999999
#
# number of rings (size 3 to 8) (size 9 to 14) (size 15 to 20)
#    0.000    1.467    4.000    2.800    0.000    2.133 
#    2.400    2.000    0.000    6.400    0.000    0.000 
#    0.000    0.000    0.000    0.000    0.000    0.000 
#
# Total GULP energy -371928.667463 kJ/mol
# GULP energy per Si atom -12397.622249 kJ/mol
# Density = 1.995908 g / cm^3
# Si number density = 20.004616 Si / 1000 Ang^3
#
#
#
# Elastic Constant Matrix: (Units=GPa)
#
#
# Indices 1 2 3 4 5 6 
#
# 1 99.9129 23.4918 41.6633 0.0000 -14.6588 0.0000
# 2 23.4918 72.7443 40.2781 0.0000 -8.3174 0.0000
# 3 41.6633 40.2781 142.2729 0.0000 -15.1526 0.0000
# 4 0.0000 0.0000 0.0000 17.2813 0.0000 -6.1179
# 5 -14.6588 -8.3174 -15.1526 0.0000 21.3631 0.0000
# 6 0.0000 0.0000 0.0000 -6.1179 0.0000 23.4115
#
#
#
# Elastic Compliance Matrix: (Units=1/GPa)
#
#
# Indices 1 2 3 4 5 6 
#
# 1 0.012362 -0.001963 -0.002425 0.000000 0.005998 0.000000
# 2 -0.001963 0.016835 -0.003934 0.000000 0.002417 0.000000
# 3 -0.002425 -0.003934 0.009208 0.000000 0.003335 0.000000
# 4 0.000000 0.000000 0.000000 0.063765 0.000000 0.016663
# 5 0.005998 0.002417 0.003335 0.000000 0.054232 0.000000
# 6 0.000000 0.000000 0.000000 0.016663 0.000000 0.047068
#
#
# Mechanical properties :
#
#
# Convention : Reuss Voigt Hill
#
# Bulk Modulus (GPa) = 45.95630 58.42184 52.18907
# Shear Modulus (GPa) = 21.99076 26.37765 24.18420
#
# Velocity S-wave (km/s) = 3.31914 3.63516 3.48074
# Velocity P-wave (km/s) = 6.14098 6.84739 6.50379
#
# Compressibility (1/GPa) = 0.02175980
#
# Stress axis : x y z
#
# Youngs Moduli (GPa) = 80.89525 59.39899 108.60258
#
# Poissons Ratio (x) = 0.11662 0.26341
# Poissons Ratio (y) = 0.15883 0.42722
# Poissons Ratio (z) = 0.19620 0.23366
#
# Static dielectric constant tensor:
#      x y z
#    x 3.498620 0.000000 -0.023050 
#    y 0.000000 3.689760 0.000000 
#    z -0.023050 0.000000 3.888520 
# 
# 
# High freq. dielectric constant tensor:
#      x y z
#    x 1.772720 0.000000 0.004720 
#    y 0.000000 1.774220 0.000000 
#    z 0.004720 0.000000 1.790660 
# 
# From -- ./inp_files/125799.got.cif
#   From: 2010.06.25/outbox.cif.g09.slc.cpg/sg12_63_cif.got.tgz:125799.got - 2010.06.28 00:19:55.
