data_PCOD8084853
_publ_section_title
;
Structure prediction by ZEFSAII (Michael W. Deem and Ramdas Pophale) SiO2 
 PCOD8084853
Probable space group: C 2/M
;
_chemical_formula_sum "Si O2"
_cell_formula_units_Z 64
_cell_length_a 31.592473
_cell_length_b 8.890446
_cell_length_c 30.436434
_cell_angle_alpha 90.000000
_cell_angle_beta 29.471037
_cell_angle_gamma 90.000000
_cell_volume 4205.827983
_symmetry_space_group_name_H-M "C 2/M"
_symmetry_group_IT_number 12
_symmetry_cell_setting 'monoclinic'
loop_
_space_group_symop_operation_xyz
x,y,z
-x,y,-z
-x,-y,-z
x,-y,z
1/2+x,1/2+y,z
1/2-x,1/2+y,-z
1/2-x,1/2-y,-z
1/2+x,1/2-y,z
loop_
_atom_site_type_symbol
_atom_site_label
_atom_site_fract_x
_atom_site_fract_y
_atom_site_fract_z
Si Si1 0.797814 0.326373 0.496602
Si Si2 0.897429 0.323499 0.006251
Si Si3 0.601815 0.665245 0.907508
Si Si4 0.671686 0.824308 0.667485
Si Si5 0.130944 0.826018 0.133295
Si Si6 0.712031 0.674762 0.967497
Si Si7 0.546093 0.170996 0.700182
Si Si8 0.918919 0.821838 0.169656
O O1 0.770909 0.500000 0.523629
O O2 0.750000 0.250000 0.500000
O O3 0.765934 0.242650 0.569621
O O4 0.899637 0.310319 0.394251
O O5 0.910785 0.500000 0.990949
O O6 0.985848 0.245353 0.912127
O O7 0.867641 0.280827 0.082683
O O8 0.822420 0.271355 0.041772
O O9 0.641864 0.500000 0.880951
O O10 0.625854 0.720803 0.836620
O O11 0.500000 0.651289 0.000000
O O12 0.604078 0.788342 0.689966
O O13 0.642302 0.744357 0.738173
O O14 0.681336 0.000000 0.667324
O O15 0.190886 0.726522 0.110565
O O16 0.032630 0.784799 0.231158
O O17 0.146682 0.000000 0.130078
O O18 0.152026 0.791245 0.063585
O O19 0.711864 0.500000 0.955043
O O20 0.512442 0.000000 0.735105
O O21 0.927874 0.000000 0.166745
#
# Coordination Sequence:
#
# PCOD8084853 Si02
#       8
#     8   8   8   8   8   8   8   8
#     4   9  17  29  43  60  84 113 145 178 213 254
#     4  11  20  29  44  64  86 112 145 181 214 252
#     4   8  16  30  44  59  82 112 144 175 210 254
#     4  10  19  29  43  64  88 114 146 181 215 253
#     4  10  20  31  45  64  83 108 144 183 217 249
#     4  10  20  33  46  60  84 115 144 177 216 255
#     4   9  18  30  43  60  84 115 145 174 212 256
#     4  10  19  30  44  62  86 116 147 177 212 256
#
# _framework density 15.21698
#
# number of rings (size 3 to 8) (size 9 to 14) (size 15 to 20)
#    0.000    2.375    0.000    5.250    0.000    9.250 
#    0.000    0.000    0.000    0.000    0.000    0.000 
#    0.000    1.000    0.000   10.500    0.000    5.000 
#
# Total GULP energy -396715.843690 kJ/mol
# GULP energy per Si atom -12397.370115 kJ/mol
# Density = 1.518235 g / cm^3
# Si number density = 15.216980 Si / 1000 Ang^3
#
#
#
# Elastic Constant Matrix: (Units=GPa)
#
#
# Indices 1 2 3 4 5 6 
#
# 1 74.7272 43.6748 39.8217 0.0000 14.5571 -0.0011
# 2 43.6748 95.5824 41.2456 0.0070 8.9068 -0.0104
# 3 39.8217 41.2456 84.2674 -0.0023 14.6876 0.0014
# 4 0.0000 0.0070 -0.0023 26.6984 0.0016 1.2620
# 5 14.5571 8.9068 14.6876 0.0016 21.9120 0.0018
# 6 -0.0011 -0.0104 0.0014 1.2620 0.0018 23.0902
#
#
#
# Elastic Compliance Matrix: (Units=1/GPa)
#
#
# Indices 1 2 3 4 5 6 
#
# 1 0.021946 -0.006856 -0.005615 0.000002 -0.008029 -0.000001
# 2 -0.006856 0.015433 -0.004545 -0.000005 0.001329 0.000007
# 3 -0.005615 -0.004545 0.017860 0.000003 -0.006393 -0.000003
# 4 0.000002 -0.000005 0.000003 0.037552 -0.000004 -0.002052
# 5 -0.008029 0.001329 -0.006393 -0.000004 0.054716 -0.000004
# 6 -0.000001 0.000007 -0.000003 -0.002052 -0.000004 0.043421
#
#
# Mechanical properties :
#
#
# Convention : Reuss Voigt Hill
#
# Bulk Modulus (GPa) = 47.16104 56.00680 51.58392
# Shear Modulus (GPa) = 21.54900 22.99576 22.27238
#
# Velocity S-wave (km/s) = 3.76721 3.89162 3.82992
# Velocity P-wave (km/s) = 7.06981 7.55502 7.31644
#
# Compressibility (1/GPa) = 0.02120395
#
# Stress axis : x y z
#
# Youngs Moduli (GPa) = 45.56696 64.79783 55.99224
#
# Poissons Ratio (x) = 0.44428 0.31442
# Poissons Ratio (y) = 0.31243 0.25449
# Poissons Ratio (z) = 0.25588 0.29451
#
# Static dielectric constant tensor:
#      x y z
#    x 2.885200 0.000000 0.280340 
#    y 0.000000 3.056850 0.000020 
#    z 0.280340 0.000020 3.033150 
# 
# 
# High freq. dielectric constant tensor:
#      x y z
#    x 1.554580 0.000000 0.017330 
#    y 0.000000 1.600200 0.000010 
#    z 0.017330 0.000010 1.564100 
# 
# From -- ./inp_files/384524.got.cif
#   From: 2010.06.25/outbox.cif.g09.slc.cpg/sg12_193_cif.got.tgz:384524.got - 2010.06.28 00:19:55.
