data_PCOD8084051
_publ_section_title
;
Structure prediction by ZEFSAII (Michael W. Deem and Ramdas Pophale) SiO2 
 PCOD8084051
Probable space group: C 2/M
;
_chemical_formula_sum "Si O2"
_cell_formula_units_Z 56
_cell_length_a 12.455465
_cell_length_b 13.383628
_cell_length_c 19.253584
_cell_angle_alpha 90.000000
_cell_angle_beta 109.064337
_cell_angle_gamma 90.000000
_cell_volume 3033.522558
_symmetry_space_group_name_H-M "C 2/M"
_symmetry_group_IT_number 12
_symmetry_cell_setting 'monoclinic'
loop_
_space_group_symop_operation_xyz
x,y,z
-x,y,-z
-x,-y,-z
x,-y,z
1/2+x,1/2+y,z
1/2-x,1/2+y,-z
1/2-x,1/2-y,-z
1/2+x,1/2-y,z
loop_
_atom_site_type_symbol
_atom_site_label
_atom_site_fract_x
_atom_site_fract_y
_atom_site_fract_z
Si Si1 0.869772 0.610956 0.672848
Si Si2 0.598353 0.382366 0.806441
Si Si3 0.683301 0.257071 0.701400
Si Si4 0.271173 0.225763 0.083728
Si Si5 0.379066 0.699811 0.833742
Si Si6 0.976560 0.385171 0.416785
Si Si7 0.006373 0.612886 0.832115
O O1 0.823800 0.500000 0.675974
O O2 0.765932 0.680797 0.669305
O O3 0.906193 0.627229 0.601013
O O4 0.984621 0.627104 0.744352
O O5 0.621484 0.500000 0.803428
O O6 0.601657 0.329093 0.731137
O O7 0.696106 0.331334 0.873375
O O8 0.477483 0.367006 0.820367
O O9 0.762285 0.187149 0.766171
O O10 0.615495 0.187585 0.635123
O O11 0.157269 0.176147 0.094044
O O12 0.369827 0.145529 0.117315
O O13 0.250000 0.250000 0.000000
O O14 0.412863 0.816373 0.847037
O O15 0.933385 0.500000 0.404471
O O16 0.000000 0.351108 0.500000
O O17 0.984942 0.500000 0.852097
#
# Coordination Sequence:
#
# PCOD8084051 Si02
#       7
#     8   8   8   8   8   8   8
#     4   9  17  32  54  76 100 134 176 218 259 306
#     4  10  21  36  54  78 104 133 175 223 265 308
#     4  10  18  34  57  77 100 137 177 217 261 308
#     4  10  21  35  50  74 108 141 172 208 258 317
#     4   9  19  34  52  75 101 131 171 218 259 299
#     4  10  21  35  52  79 112 141 172 211 256 311
#     4   9  18  33  53  75  98 130 175 217 253 298
#
# _framework density 18.460386
#
# number of rings (size 3 to 8) (size 9 to 14) (size 15 to 20)
#    0.000    2.429    0.000    3.857    0.000    8.000 
#    0.000    1.429    0.000    1.714    0.000    0.000 
#    0.000    0.000    0.000    0.000    0.000    0.000 
#
# Total GULP energy -346917.544467 kJ/mol
# GULP energy per Si atom -12389.912302 kJ/mol
# Density = 1.841837 g / cm^3
# Si number density = 18.460386 Si / 1000 Ang^3
#
#
#
# Elastic Constant Matrix: (Units=GPa)
#
#
# Indices 1 2 3 4 5 6 
#
# 1 101.0419 26.3867 62.1894 0.0000 -12.0960 0.0000
# 2 26.3867 96.2130 49.0430 0.0000 4.8281 0.0000
# 3 62.1894 49.0430 111.3867 0.0000 -19.4918 0.0000
# 4 0.0000 0.0000 0.0000 23.4867 0.0000 1.1276
# 5 -12.0960 4.8281 -19.4918 0.0000 24.0459 0.0000
# 6 0.0000 0.0000 0.0000 1.1276 0.0000 19.0842
#
#
#
# Elastic Compliance Matrix: (Units=1/GPa)
#
#
# Indices 1 2 3 4 5 6 
#
# 1 0.015095 0.000047 -0.008299 0.000000 0.000857 0.000000
# 2 0.000047 0.015174 -0.008432 0.000000 -0.009858 0.000000
# 3 -0.008299 -0.008432 0.019681 0.000000 0.013472 0.000000
# 4 0.000000 0.000000 0.000000 0.042698 0.000000 -0.002523
# 5 0.000857 -0.009858 0.013472 0.000000 0.054918 0.000000
# 6 0.000000 0.000000 0.000000 -0.002523 0.000000 0.052548
#
#
# Mechanical properties :
#
#
# Convention : Reuss Voigt Hill
#
# Bulk Modulus (GPa) = 60.30519 64.87550 62.59035
# Shear Modulus (GPa) = 20.91969 24.72488 22.82229
#
# Velocity S-wave (km/s) = 3.36999 3.66368 3.51990
# Velocity P-wave (km/s) = 6.91959 7.28808 7.10622
#
# Compressibility (1/GPa) = 0.01658232
#
# Stress axis : x y z
#
# Youngs Moduli (GPa) = 66.24836 65.90404 50.80977
#
# Poissons Ratio (x) = -0.00312 0.42165
# Poissons Ratio (y) = -0.00313 0.42845
# Poissons Ratio (z) = 0.54977 0.55573
#
# Static dielectric constant tensor:
#      x y z
#    x 3.467850 0.000000 -0.198010 
#    y 0.000000 3.347060 0.000000 
#    z -0.198010 0.000000 3.284410 
# 
# 
# High freq. dielectric constant tensor:
#      x y z
#    x 1.726480 0.000000 -0.014520 
#    y 0.000000 1.708470 0.000000 
#    z -0.014520 0.000000 1.692140 
# 
# From -- ./inp_files/263406.got.cif
#   From: 2010.06.25/outbox.cif.g09.slc.cpg/sg12_132_cif.got.tgz:263406.got - 2010.06.28 00:19:55.
