data_PCOD8084031
_publ_section_title
;
Structure prediction by ZEFSAII (Michael W. Deem and Ramdas Pophale) SiO2 
 PCOD8084031
Probable space group: C 2/M
;
_chemical_formula_sum "Si O2"
_cell_formula_units_Z 56
_cell_length_a 22.984275
_cell_length_b 17.546383
_cell_length_c 9.019909
_cell_angle_alpha 90.000000
_cell_angle_beta 121.641840
_cell_angle_gamma 90.000000
_cell_volume 3096.889323
_symmetry_space_group_name_H-M "C 2/M"
_symmetry_group_IT_number 12
_symmetry_cell_setting 'monoclinic'
loop_
_space_group_symop_operation_xyz
x,y,z
-x,y,-z
-x,-y,-z
x,-y,z
1/2+x,1/2+y,z
1/2-x,1/2+y,-z
1/2-x,1/2-y,-z
1/2+x,1/2-y,z
loop_
_atom_site_type_symbol
_atom_site_label
_atom_site_fract_x
_atom_site_fract_y
_atom_site_fract_z
Si Si1 0.152930 0.793975 0.454995
Si Si2 0.136841 0.278584 0.902391
Si Si3 0.783590 0.587165 0.098839
Si Si4 0.725032 0.697064 0.257754
Si Si5 0.663329 0.632088 0.760355
Si Si6 0.995427 0.225836 0.821193
Si Si7 0.472466 0.584823 0.308402
O O1 0.205762 0.731463 0.584030
O O2 0.176492 0.828694 0.328809
O O3 0.148588 0.865311 0.564050
O O4 0.079385 0.751752 0.340096
O O5 0.182295 0.260561 0.108818
O O6 0.149847 0.363221 0.855504
O O7 0.162338 0.220373 0.810554
O O8 0.055528 0.273211 0.821317
O O9 0.804906 0.500000 0.160983
O O10 0.742754 0.622818 0.183933
O O11 0.735117 0.591825 0.889439
O O12 0.609079 0.583687 0.782244
O O13 0.005927 0.136097 0.801616
O O14 0.000000 0.241557 0.000000
O O15 0.500000 0.619888 0.500000
O O16 0.500679 0.500000 0.318185
#
# Coordination Sequence:
#
# PCOD8084031 Si02
#       7
#     8   8   8   8   8   8   8
#     4  11  19  34  60  83 109 139 189 234 277 314
#     4  10  19  36  58  82 110 141 191 232 269 330
#     4  11  21  37  57  83 116 149 182 231 286 332
#     4  10  20  36  59  82 111 142 184 237 276 330
#     4  10  18  34  56  81 107 143 191 223 266 325
#     4  11  22  35  55  82 107 146 190 228 277 331
#     4  10  20  32  48  74 111 146 176 217 267 326
#
# _framework density 18.082661999999999
#
# number of rings (size 3 to 8) (size 9 to 14) (size 15 to 20)
#    0.000    1.571    5.714    1.286    0.000    0.286 
#    0.000    2.143    0.000    2.143    0.000    0.000 
#    0.000    0.000    0.000    0.000    0.000    0.000 
#
# Total GULP energy -347102.282351 kJ/mol
# GULP energy per Si atom -12396.510084 kJ/mol
# Density = 1.804150 g / cm^3
# Si number density = 18.082662 Si / 1000 Ang^3
#
#
#
# Elastic Constant Matrix: (Units=GPa)
#
#
# Indices 1 2 3 4 5 6 
#
# 1 105.4592 35.3644 41.6277 0.0000 7.9396 0.0000
# 2 35.3644 88.5991 19.1650 0.0000 -1.0932 0.0000
# 3 41.6277 19.1650 79.3992 0.0000 1.9314 0.0000
# 4 0.0000 0.0000 0.0000 16.0694 0.0000 0.7299
# 5 7.9396 -1.0932 1.9314 0.0000 37.7075 0.0000
# 6 0.0000 0.0000 0.0000 0.7299 0.0000 13.4915
#
#
#
# Elastic Compliance Matrix: (Units=1/GPa)
#
#
# Indices 1 2 3 4 5 6 
#
# 1 0.013414 -0.004093 -0.005981 0.000000 -0.002637 0.000000
# 2 -0.004093 0.013167 -0.001064 0.000000 0.001298 0.000000
# 3 -0.005981 -0.001064 0.015977 0.000000 0.000410 0.000000
# 4 0.000000 0.000000 0.000000 0.062383 0.000000 -0.003375
# 5 -0.002637 0.001298 0.000410 0.000000 0.027092 0.000000
# 6 0.000000 0.000000 0.000000 -0.003375 0.000000 0.074304
#
#
# Mechanical properties :
#
#
# Convention : Reuss Voigt Hill
#
# Bulk Modulus (GPa) = 49.30312 51.75240 50.52776
# Shear Modulus (GPa) = 21.24291 25.27369 23.25830
#
# Velocity S-wave (km/s) = 3.43121 3.74261 3.59028
# Velocity P-wave (km/s) = 6.55913 6.88173 6.72236
#
# Compressibility (1/GPa) = 0.02028269
#
# Stress axis : x y z
#
# Youngs Moduli (GPa) = 74.54790 75.94921 62.59015
#
# Poissons Ratio (x) = 0.31087 0.37433
# Poissons Ratio (y) = 0.30513 0.06658
# Poissons Ratio (z) = 0.44585 0.08079
#
# Static dielectric constant tensor:
#      x y z
#    x 3.539360 0.000000 -0.028530 
#    y 0.000000 2.955110 0.000000 
#    z -0.028530 0.000000 3.525360 
# 
# 
# High freq. dielectric constant tensor:
#      x y z
#    x 1.708310 0.000000 0.001740 
#    y 0.000000 1.651100 0.000000 
#    z 0.001740 0.000000 1.708500 
# 
# From -- ./inp_files/96945.got.cif
#   From: 2010.06.25/outbox.cif.g09.slc.cpg/sg12_49_cif.got.tgz:96945.got - 2010.06.28 00:19:55.
