data_PCOD8084202
_publ_section_title
;
Structure prediction by ZEFSAII (Michael W. Deem and Ramdas Pophale) SiO2 
 PCOD8084202
Probable space group: C 2/M
;
_chemical_formula_sum "Si O2"
_cell_formula_units_Z 64
_cell_length_a 32.550758
_cell_length_b 9.025030
_cell_length_c 15.160213
_cell_angle_alpha 90.000000
_cell_angle_beta 132.995570
_cell_angle_gamma 90.000000
_cell_volume 3257.420595
_symmetry_space_group_name_H-M "C 2/M"
_symmetry_group_IT_number 12
_symmetry_cell_setting 'monoclinic'
loop_
_space_group_symop_operation_xyz
x,y,z
-x,y,-z
-x,-y,-z
x,-y,z
1/2+x,1/2+y,z
1/2-x,1/2+y,-z
1/2-x,1/2-y,-z
1/2+x,1/2-y,z
loop_
_atom_site_type_symbol
_atom_site_label
_atom_site_fract_x
_atom_site_fract_y
_atom_site_fract_z
Si Si1 0.543554 0.825693 0.894815
Si Si2 0.369263 0.824030 0.475620
Si Si3 0.215870 0.331207 0.024537
Si Si4 0.745364 0.330833 0.724372
Si Si5 0.364985 0.823467 0.831329
Si Si6 0.064167 0.827199 0.583965
Si Si7 0.602410 0.326755 0.834137
Si Si8 0.417076 0.825764 0.729515
O O1 0.550151 0.740504 0.811517
O O2 0.482061 0.786453 0.841338
O O3 0.550201 0.000000 0.886873
O O4 0.589348 0.765225 0.031380
O O5 0.305085 0.772004 0.380568
O O6 0.405084 0.761819 0.447303
O O7 0.395737 0.761348 0.605173
O O8 0.371243 0.000000 0.472976
O O9 0.205279 0.500000 0.980469
O O10 0.251440 0.323171 0.165621
O O11 0.250000 0.250000 0.000000
O O12 0.156876 0.252559 0.952926
O O13 0.734413 0.500000 0.678363
O O14 0.802713 0.268115 0.765085
O O15 0.381093 0.759971 0.758387
O O16 0.367013 0.000000 0.836452
O O17 0.096126 0.793119 0.721669
O O18 0.000000 0.773986 0.500000
O O19 0.066570 0.000000 0.563176
O O20 0.606715 0.500000 0.858316
O O21 0.408192 0.000000 0.714667
#
# Coordination Sequence:
#
# PCOD8084202 Si02
#       8
#     8   8   8   8   8   8   8   8
#     4  10  18  34  60  88 114 146 187 234 285 341
#     4  11  23  37  55  85 118 150 188 236 287 330
#     4  11  22  37  56  82 110 143 188 232 280 335
#     4  10  21  38  58  80 111 151 194 232 272 336
#     4   9  17  34  59  86 112 146 190 235 282 337
#     4  10  22  40  59  80 111 154 196 229 272 337
#     4  11  22  35  55  83 113 147 184 229 282 334
#     4   9  19  34  57  87 116 144 187 240 287 336
#
# _framework density 19.647448000000001
#
# number of rings (size 3 to 8) (size 9 to 14) (size 15 to 20)
#    0.000    1.875    1.250    3.000    0.000    7.250 
#    0.000    0.625    0.000    4.500    0.000    0.000 
#    0.000    0.000    0.000    0.000    0.000    0.000 
#
# Total GULP energy -396863.914143 kJ/mol
# GULP energy per Si atom -12401.997317 kJ/mol
# Density = 1.960273 g / cm^3
# Si number density = 19.647448 Si / 1000 Ang^3
#
#
#
# Elastic Constant Matrix: (Units=GPa)
#
#
# Indices 1 2 3 4 5 6 
#
# 1 164.4643 47.2104 62.6509 0.0000 -5.8949 0.0000
# 2 47.2104 63.6205 40.1265 0.0000 -3.6644 0.0000
# 3 62.6509 40.1265 111.3081 0.0000 4.4069 0.0000
# 4 0.0000 0.0000 0.0000 21.5100 0.0000 5.1165
# 5 -5.8949 -3.6644 4.4069 0.0000 34.7970 0.0000
# 6 0.0000 0.0000 0.0000 5.1165 0.0000 22.6577
#
#
#
# Elastic Compliance Matrix: (Units=1/GPa)
#
#
# Indices 1 2 3 4 5 6 
#
# 1 0.008628 -0.004167 -0.003412 0.000000 0.001455 0.000000
# 2 -0.004167 0.022692 -0.005931 0.000000 0.002435 0.000000
# 3 -0.003412 -0.005931 0.013156 0.000000 -0.002869 0.000000
# 4 0.000000 0.000000 0.000000 0.049129 0.000000 -0.011094
# 5 0.001455 0.002435 -0.002869 0.000000 0.029604 0.000000
# 6 0.000000 0.000000 0.000000 -0.011094 0.000000 0.046640
#
#
# Mechanical properties :
#
#
# Convention : Reuss Voigt Hill
#
# Bulk Modulus (GPa) = 57.28750 71.04092 64.16421
# Shear Modulus (GPa) = 24.66832 28.41994 26.54413
#
# Velocity S-wave (km/s) = 3.54722 3.80741 3.67961
# Velocity P-wave (km/s) = 6.78218 7.45418 7.12611
#
# Compressibility (1/GPa) = 0.01745581
#
# Stress axis : x y z
#
# Youngs Moduli (GPa) = 115.89599 44.06926 76.00902
#
# Poissons Ratio (x) = 0.18364 0.25934
# Poissons Ratio (y) = 0.48294 0.45083
# Poissons Ratio (z) = 0.39544 0.26139
#
# Static dielectric constant tensor:
#      x y z
#    x 3.779710 0.000000 -0.015070 
#    y 0.000000 3.334790 0.000000 
#    z -0.015070 0.000000 3.699100 
# 
# 
# High freq. dielectric constant tensor:
#      x y z
#    x 1.782720 0.000000 0.000960 
#    y 0.000000 1.736660 0.000000 
#    z 0.000960 0.000000 1.770610 
# 
# From -- ./inp_files/250066.got.cif
#   From: 2010.06.25/outbox.cif.g09.slc.cpg/sg12_126_cif.got.tgz:250066.got - 2010.06.28 00:19:55.
