data_PCOD8084582
_publ_section_title
;
Structure prediction by ZEFSAII (Michael W. Deem and Ramdas Pophale) SiO2 
 PCOD8084582
Probable space group: C 2/M
;
_chemical_formula_sum "Si O2"
_cell_formula_units_Z 48
_cell_length_a 23.115145
_cell_length_b 18.218031
_cell_length_c 18.787362
_cell_angle_alpha 90.000000
_cell_angle_beta 164.043372
_cell_angle_gamma 90.000000
_cell_volume 2174.972625
_symmetry_space_group_name_H-M "C 2/M"
_symmetry_group_IT_number 12
_symmetry_cell_setting 'monoclinic'
loop_
_space_group_symop_operation_xyz
x,y,z
-x,y,-z
-x,-y,-z
x,-y,z
1/2+x,1/2+y,z
1/2-x,1/2+y,-z
1/2-x,1/2-y,-z
1/2+x,1/2-y,z
loop_
_atom_site_type_symbol
_atom_site_label
_atom_site_fract_x
_atom_site_fract_y
_atom_site_fract_z
Si Si1 0.704110 0.691638 0.556699
Si Si2 0.649245 0.309634 0.976091
Si Si3 0.757961 0.417545 0.736465
Si Si4 0.366534 0.849719 0.006936
Si Si5 0.445763 0.083512 0.249318
Si Si6 0.625097 0.347606 0.217743
O O1 0.504818 0.706811 0.271945
O O2 0.631551 0.634902 0.532609
O O3 0.777100 0.767013 0.679617
O O4 0.890690 0.659608 0.729017
O O5 0.739137 0.229913 0.104663
O O6 0.531269 0.348642 0.900902
O O7 0.837818 0.362713 0.178244
O O8 0.670752 0.500000 0.626423
O O9 0.731035 0.390555 0.785818
O O10 0.000000 0.412584 0.000000
O O11 0.364312 0.899745 0.073878
O O12 0.695190 0.093615 0.552104
O O13 0.385947 0.000000 0.196665
O O14 0.500000 0.372767 0.000000
#
# Coordination Sequence:
#
# PCOD8084582 Si02
#       6
#     8   8   8   8   8   8
#     4  10  18  37  67  98 127 166 218 260 318 394
#     4  11  22  41  68  97 126 167 222 268 317 386
#     4   9  18  31  57  97 134 164 199 257 327 390
#     4  10  18  39  64  92 131 171 216 265 316 390
#     4  12  26  41  64  96 129 172 219 268 329 384
#     4  11  23  44  69  94 124 168 222 274 323 379
#
# _framework density 22.069241999999999
#
# number of rings (size 3 to 8) (size 9 to 14) (size 15 to 20)
#    0.000    1.500    3.333    4.500    0.000    3.000 
#    0.000    1.667    0.000    2.000    0.000    0.000 
#    0.000    0.000    0.000    0.000    0.000    0.000 
#
# Total GULP energy -297751.287977 kJ/mol
# GULP energy per Si atom -12406.303666 kJ/mol
# Density = 2.201901 g / cm^3
# Si number density = 22.069242 Si / 1000 Ang^3
#
#
#
# Elastic Constant Matrix: (Units=GPa)
#
#
# Indices 1 2 3 4 5 6 
#
# 1 129.9633 59.6261 30.2397 0.0309 -19.3416 -0.0093
# 2 59.6261 134.7455 16.6037 0.0681 4.3561 -0.0111
# 3 30.2397 16.6037 37.8658 0.1584 -12.2530 0.0024
# 4 0.0309 0.0681 0.1584 26.7944 0.0825 0.0867
# 5 -19.3416 4.3561 -12.2530 0.0825 22.2323 -0.0132
# 6 -0.0093 -0.0111 0.0024 0.0867 -0.0132 32.7131
#
#
#
# Elastic Compliance Matrix: (Units=1/GPa)
#
#
# Indices 1 2 3 4 5 6 
#
# 1 0.012632 -0.005316 -0.004703 -0.000002 0.009439 0.000006
# 2 -0.005316 0.010414 -0.003016 0.000023 -0.008328 -0.000001
# 3 -0.004703 -0.003016 0.036945 -0.000257 0.016862 0.000002
# 4 -0.000002 0.000023 -0.000257 0.037324 -0.000287 -0.000099
# 5 0.009439 -0.008328 0.016862 -0.000287 0.064118 0.000025
# 6 0.000006 -0.000001 0.000002 -0.000099 0.000025 0.030569
#
#
# Mechanical properties :
#
#
# Convention : Reuss Voigt Hill
#
# Bulk Modulus (GPa) = 29.47934 57.27931 43.37933
# Shear Modulus (GPa) = 21.79793 29.42162 25.60978
#
# Velocity S-wave (km/s) = 3.14619 3.65519 3.41020
# Velocity P-wave (km/s) = 5.15603 6.62002 5.93335
#
# Compressibility (1/GPa) = 0.03392206
#
# Stress axis : x y z
#
# Youngs Moduli (GPa) = 79.16230 96.02009 27.06730
#
# Poissons Ratio (x) = 0.51040 0.12729
# Poissons Ratio (y) = 0.42079 0.08165
# Poissons Ratio (z) = 0.37229 0.28964
#
# Static dielectric constant tensor:
#      x y z
#    x 4.160780 -0.000070 0.016540 
#    y -0.000070 3.939530 -0.000090 
#    z 0.016540 -0.000090 3.785710 
# 
# 
# High freq. dielectric constant tensor:
#      x y z
#    x 1.878770 0.000000 0.002670 
#    y 0.000000 1.859410 -0.000010 
#    z 0.002670 -0.000010 1.858160 
# 
# From -- ./inp_files/285432.got.cif
#   From: 2010.06.25/outbox.cif.g09.slc.cpg/sg12_143_cif.got.tgz:285432.got - 2010.06.28 00:19:55.
