data_PCOD8084194
_publ_section_title
;
Structure prediction by ZEFSAII (Michael W. Deem and Ramdas Pophale) SiO2 
 PCOD8084194
Probable space group: C 2/M
;
_chemical_formula_sum "Si O2"
_cell_formula_units_Z 64
_cell_length_a 9.952253
_cell_length_b 25.726246
_cell_length_c 14.783041
_cell_angle_alpha 90.000000
_cell_angle_beta 117.912773
_cell_angle_gamma 90.000000
_cell_volume 3344.625056
_symmetry_space_group_name_H-M "C 2/M"
_symmetry_group_IT_number 12
_symmetry_cell_setting 'monoclinic'
loop_
_space_group_symop_operation_xyz
x,y,z
-x,y,-z
-x,-y,-z
x,-y,z
1/2+x,1/2+y,z
1/2-x,1/2+y,-z
1/2-x,1/2-y,-z
1/2+x,1/2-y,z
loop_
_atom_site_type_symbol
_atom_site_label
_atom_site_fract_x
_atom_site_fract_y
_atom_site_fract_z
Si Si1 0.252510 0.940542 0.678753
Si Si2 0.837738 0.061130 0.993285
Si Si3 0.408959 0.939128 0.224978
Si Si4 0.052448 0.198413 0.669562
Si Si5 0.194495 0.874255 0.501260
Si Si6 0.600173 0.603044 0.799898
Si Si7 0.192415 0.277821 0.392736
Si Si8 0.722268 0.438868 0.337166
O O1 0.422644 0.916484 0.736138
O O2 0.149562 0.910500 0.572386
O O3 0.177313 0.935159 0.752224
O O4 0.257776 0.000000 0.650368
O O5 0.708459 0.083719 0.885675
O O6 0.818997 0.000000 0.009609
O O7 0.818861 0.094887 0.078583
O O8 0.000000 0.071790 0.000000
O O9 0.358658 0.926837 0.311510
O O10 0.408213 0.000000 0.207775
O O11 0.948750 0.160738 0.574390
O O12 0.960769 0.247251 0.684186
O O13 0.115637 0.163120 0.772003
O O14 0.187536 0.222749 0.652210
O O15 0.331071 0.837261 0.581941
O O16 0.260182 0.910079 0.442568
O O17 0.426936 0.584928 0.755758
O O18 0.250000 0.250000 0.500000
O O19 0.701762 0.500000 0.348838
#
# Coordination Sequence:
#
# PCOD8084194 Si02
#       8
#     8   8   8   8   8   8   8   8
#     4  11  22  35  52  80 125 164 186 223 282 346
#     4  10  18  34  60  85 114 153 194 241 283 330
#     4   9  20  36  51  77 116 155 201 238 265 325
#     4  10  22  39  57  84 114 142 191 254 284 347
#     4  10  20  34  53  81 120 151 193 229 279 345
#     4  11  21  35  56  87 114 147 196 237 291 351
#     4  10  19  38  57  78 112 145 186 247 293 325
#     4  10  19  33  52  79 119 160 197 229 267 332
#
# _framework density 19.135180999999999
#
# number of rings (size 3 to 8) (size 9 to 14) (size 15 to 20)
#    0.000    1.875    2.500    3.000    1.750    1.000 
#   11.250    5.625    0.000    0.000    0.000    3.500 
#    0.000    0.000    0.000    0.000    0.000    0.000 
#
# Total GULP energy -396620.568004 kJ/mol
# GULP energy per Si atom -12394.392750 kJ/mol
# Density = 1.909163 g / cm^3
# Si number density = 19.135181 Si / 1000 Ang^3
#
#
#
# Elastic Constant Matrix: (Units=GPa)
#
#
# Indices 1 2 3 4 5 6 
#
# 1 59.8078 16.4468 24.8231 0.0000 -3.7154 0.0000
# 2 16.4468 75.3227 30.6510 0.0000 -8.1705 0.0000
# 3 24.8231 30.6510 86.5871 0.0000 -19.1644 0.0000
# 4 0.0000 0.0000 0.0000 28.3305 0.0000 -1.4508
# 5 -3.7154 -8.1705 -19.1644 0.0000 26.7371 0.0000
# 6 0.0000 0.0000 0.0000 -1.4508 0.0000 21.9903
#
#
#
# Elastic Compliance Matrix: (Units=1/GPa)
#
#
# Indices 1 2 3 4 5 6 
#
# 1 0.019375 -0.002338 -0.005098 0.000000 -0.001676 0.000000
# 2 -0.002338 0.015813 -0.004671 0.000000 0.001160 0.000000
# 3 -0.005098 -0.004671 0.016867 0.000000 0.009954 0.000000
# 4 0.000000 0.000000 0.000000 0.035417 0.000000 0.002337
# 5 -0.001676 0.001160 0.009954 0.000000 0.044657 0.000000
# 6 0.000000 0.000000 0.000000 0.002337 0.000000 0.045629
#
#
# Mechanical properties :
#
#
# Convention : Reuss Voigt Hill
#
# Bulk Modulus (GPa) = 35.91692 40.61771 38.26732
# Shear Modulus (GPa) = 23.66837 25.39802 24.53319
#
# Velocity S-wave (km/s) = 3.52078 3.64716 3.58453
# Velocity P-wave (km/s) = 5.94464 6.24568 6.09701
#
# Compressibility (1/GPa) = 0.02784203
#
# Stress axis : x y z
#
# Youngs Moduli (GPa) = 51.61330 63.23840 59.28697
#
# Poissons Ratio (x) = 0.14784 0.30223
# Poissons Ratio (y) = 0.12067 0.27692
# Poissons Ratio (z) = 0.26312 0.29538
#
# Static dielectric constant tensor:
#      x y z
#    x 3.642960 0.000000 0.027420 
#    y 0.000000 3.867910 0.000000 
#    z 0.027420 0.000000 3.456240 
# 
# 
# High freq. dielectric constant tensor:
#      x y z
#    x 1.746170 0.000000 -0.013170 
#    y 0.000000 1.728890 0.000000 
#    z -0.013170 0.000000 1.723560 
# 
# From -- ./inp_files/199907.got.cif
#   From: 2010.06.25/outbox.cif.g09.slc.cpg/sg12_100_cif.got.tgz:199907.got - 2010.06.28 00:19:55.
