data_PCOD8084479
_publ_section_title
;
Structure prediction by ZEFSAII (Michael W. Deem and Ramdas Pophale) SiO2 
 PCOD8084479
Probable space group: C 2/M
;
_chemical_formula_sum "Si O2"
_cell_formula_units_Z 64
_cell_length_a 25.807933
_cell_length_b 21.941848
_cell_length_c 8.099967
_cell_angle_alpha 90.000000
_cell_angle_beta 47.945079
_cell_angle_gamma 90.000000
_cell_volume 3405.712146
_symmetry_space_group_name_H-M "C 2/M"
_symmetry_group_IT_number 12
_symmetry_cell_setting 'monoclinic'
loop_
_space_group_symop_operation_xyz
x,y,z
-x,y,-z
-x,-y,-z
x,-y,z
1/2+x,1/2+y,z
1/2-x,1/2+y,-z
1/2-x,1/2-y,-z
1/2+x,1/2-y,z
loop_
_atom_site_type_symbol
_atom_site_label
_atom_site_fract_x
_atom_site_fract_y
_atom_site_fract_z
Si Si1 0.394318 0.353403 0.425991
Si Si2 0.725508 0.069908 0.478782
Si Si3 0.424162 0.241552 0.583754
Si Si4 0.860265 0.868902 0.143005
Si Si5 0.265113 0.867779 0.199322
Si Si6 0.984831 0.067375 0.722533
Si Si7 0.679609 0.145445 0.258653
Si Si8 0.202553 0.766574 0.919333
O O1 0.425725 0.292265 0.438126
O O2 0.395491 0.341646 0.229478
O O3 0.318017 0.374391 0.652536
O O4 0.445542 0.410011 0.339154
O O5 0.809436 0.073396 0.284855
O O6 0.705360 0.096427 0.703229
O O7 0.688897 0.105097 0.402347
O O8 0.701017 0.000000 0.521851
O O9 0.500000 0.232675 0.500000
O O10 0.397711 0.175452 0.571974
O O11 0.371374 0.265935 0.833008
O O12 0.807278 0.816842 0.200017
O O13 0.919270 0.888183 0.888123
O O14 0.279876 0.796930 0.204581
O O15 0.305021 0.891280 0.946319
O O16 0.000000 0.066257 0.500000
O O17 0.967816 0.000000 0.827534
O O18 0.730982 0.205374 0.121349
#
# Coordination Sequence:
#
# PCOD8084479 Si02
#       8
#     8   8   8   8   8   8   8   8
#     4  11  20  32  53  78 108 149 186 234 286 331
#     4  10  23  37  57  86 113 145 194 245 285 346
#     4  11  20  33  56  86 118 142 189 234 288 348
#     4  10  22  34  56  78 112 145 194 238 286 337
#     4  10  20  35  58  85 113 147 190 237 295 344
#     4  11  24  38  50  69 109 164 203 228 267 327
#     4  10  20  37  61  82 116 155 185 236 297 350
#     4  10  18  36  58  84 114 150 185 235 294 353
#
# _framework density 18.791958000000001
#
# number of rings (size 3 to 8) (size 9 to 14) (size 15 to 20)
#    0.000    1.625    2.500    3.375    3.500    5.000 
#    0.000    0.000    0.000    0.375    0.000    3.500 
#    0.000    0.000    0.000    0.000    0.000    0.000 
#
# Total GULP energy -396631.053726 kJ/mol
# GULP energy per Si atom -12394.720429 kJ/mol
# Density = 1.874919 g / cm^3
# Si number density = 18.791958 Si / 1000 Ang^3
#
#
#
# Elastic Constant Matrix: (Units=GPa)
#
#
# Indices 1 2 3 4 5 6 
#
# 1 104.5691 42.0554 44.3901 0.0000 -0.1442 0.0000
# 2 42.0554 84.4126 26.6379 0.0000 6.5095 0.0000
# 3 44.3901 26.6379 58.3386 0.0000 11.6054 0.0000
# 4 0.0000 0.0000 0.0000 23.3375 0.0000 -2.5460
# 5 -0.1442 6.5095 11.6054 0.0000 29.8548 0.0000
# 6 0.0000 0.0000 0.0000 -2.5460 0.0000 25.3494
#
#
#
# Elastic Compliance Matrix: (Units=1/GPa)
#
#
# Indices 1 2 3 4 5 6 
#
# 1 0.016379 -0.005032 -0.011271 0.000000 0.005558 0.000000
# 2 -0.005032 0.015397 -0.002741 0.000000 -0.002316 0.000000
# 3 -0.011271 -0.002741 0.029112 0.000000 -0.010773 0.000000
# 4 0.000000 0.000000 0.000000 0.043324 0.000000 0.004351
# 5 0.005558 -0.002316 -0.010773 0.000000 0.038215 0.000000
# 6 0.000000 0.000000 0.000000 0.004351 0.000000 0.039886
#
#
# Mechanical properties :
#
#
# Convention : Reuss Voigt Hill
#
# Bulk Modulus (GPa) = 43.85809 52.60969 48.23389
# Shear Modulus (GPa) = 21.92977 24.65748 23.29362
#
# Velocity S-wave (km/s) = 3.41981 3.62626 3.52455
# Velocity P-wave (km/s) = 6.24363 6.75201 6.50279
#
# Compressibility (1/GPa) = 0.02280081
#
# Stress axis : x y z
#
# Youngs Moduli (GPa) = 61.05380 64.94718 34.35020
#
# Poissons Ratio (x) = 0.32682 0.38715
# Poissons Ratio (y) = 0.30723 0.09415
# Poissons Ratio (z) = 0.68812 0.17801
#
# Static dielectric constant tensor:
#      x y z
#    x 3.230660 0.000000 0.101000 
#    y 0.000000 3.511150 0.000000 
#    z 0.101000 0.000000 3.369620 
# 
# 
# High freq. dielectric constant tensor:
#      x y z
#    x 1.733540 0.000000 0.016810 
#    y 0.000000 1.713760 0.000000 
#    z 0.016810 0.000000 1.720130 
# 
# From -- ./inp_files/106377.got.cif
#   From: 2010.06.25/outbox.cif.g09.slc.cpg/sg12_54_cif.got.tgz:106377.got - 2010.06.28 00:19:55.
