data_PCOD8084956
_publ_section_title
;
Structure prediction by ZEFSAII (Michael W. Deem and Ramdas Pophale) SiO2 
 PCOD8084956
Probable space group: C 2/M
;
_chemical_formula_sum "Si O2"
_cell_formula_units_Z 48
_cell_length_a 22.900643
_cell_length_b 9.379099
_cell_length_c 19.722610
_cell_angle_alpha 90.000000
_cell_angle_beta 43.535967
_cell_angle_gamma 90.000000
_cell_volume 2917.914039
_symmetry_space_group_name_H-M "C 2/M"
_symmetry_group_IT_number 12
_symmetry_cell_setting 'monoclinic'
loop_
_space_group_symop_operation_xyz
x,y,z
-x,y,-z
-x,-y,-z
x,-y,z
1/2+x,1/2+y,z
1/2-x,1/2+y,-z
1/2-x,1/2-y,-z
1/2+x,1/2-y,z
loop_
_atom_site_type_symbol
_atom_site_label
_atom_site_fract_x
_atom_site_fract_y
_atom_site_fract_z
Si Si1 0.051432 0.333877 0.193040
Si Si2 0.639485 0.165752 0.643177
Si Si3 0.208466 0.665081 0.439162
Si Si4 0.597106 0.834054 0.404283
Si Si5 0.204316 0.339046 0.982878
Si Si6 0.148320 0.832444 0.229278
O O1 0.052916 0.500000 0.214755
O O2 0.090314 0.240061 0.220681
O O3 0.955703 0.284772 0.259269
O O4 0.103200 0.311116 0.077904
O O5 0.703482 0.249314 0.638398
O O6 0.656891 0.204720 0.550285
O O7 0.652976 0.000000 0.646155
O O8 0.232049 0.500000 0.417358
O O9 0.149987 0.709292 0.425836
O O10 0.500000 0.796402 0.500000
O O11 0.631473 0.738587 0.314967
O O12 0.607925 0.000000 0.376546
O O13 0.224456 0.500000 0.985649
O O14 0.250283 0.306820 0.872176
O O15 0.250000 0.250000 0.000000
O O16 0.126379 0.000000 0.251008
#
# Coordination Sequence:
#
# PCOD8084956 Si02
#       6
#     8   8   8   8   8   8
#     4   9  16  29  49  69  91 122 156 184 219 271
#     4   9  17  30  49  69  88 114 149 187 223 263
#     4   9  18  31  46  66  91 117 146 183 226 267
#     4  10  20  34  50  66  89 123 157 183 216 272
#     4   8  15  27  43  65  92 119 148 184 224 266
#     4  10  19  29  44  70  99 121 146 187 233 267
#
# _framework density 16.450108
#
# number of rings (size 3 to 8) (size 9 to 14) (size 15 to 20)
#    0.000    2.833    0.000    1.500    0.000    5.000 
#    0.000    3.333    0.000    1.000    0.000    7.000 
#    0.000    0.000    0.000    0.000    0.000    0.000 
#
# Total GULP energy -297379.157041 kJ/mol
# GULP energy per Si atom -12390.798210 kJ/mol
# Density = 1.641267 g / cm^3
# Si number density = 16.450108 Si / 1000 Ang^3
#
#
#
# Elastic Constant Matrix: (Units=GPa)
#
#
# Indices 1 2 3 4 5 6 
#
# 1 116.5636 48.9975 73.7117 0.0004 -16.7577 -0.0001
# 2 48.9975 60.1396 56.9338 0.0034 -5.5360 -0.0019
# 3 73.7117 56.9338 134.3339 0.0006 -22.2752 -0.0005
# 4 0.0004 0.0034 0.0006 22.2011 -0.0006 -3.3537
# 5 -16.7577 -5.5360 -22.2752 -0.0006 27.4174 0.0003
# 6 -0.0001 -0.0019 -0.0005 -3.3537 0.0003 23.3783
#
#
#
# Elastic Compliance Matrix: (Units=1/GPa)
#
#
# Indices 1 2 3 4 5 6 
#
# 1 0.015251 -0.007979 -0.004286 0.000001 0.004229 -0.000001
# 2 -0.007979 0.032449 -0.010513 -0.000004 -0.006866 0.000002
# 3 -0.004286 -0.010513 0.015562 0.000001 0.007901 0.000000
# 4 0.000001 -0.000004 0.000001 0.046040 0.000002 0.006605
# 5 0.004229 -0.006866 0.007901 0.000002 0.044090 -0.000001
# 6 -0.000001 0.000002 0.000000 0.006605 -0.000001 0.043722
#
#
# Mechanical properties :
#
#
# Convention : Reuss Voigt Hill
#
# Bulk Modulus (GPa) = 56.47674 74.48036 65.47855
# Shear Modulus (GPa) = 20.11485 23.35897 21.73691
#
# Velocity S-wave (km/s) = 3.50062 3.77236 3.63903
# Velocity P-wave (km/s) = 7.12361 8.02179 7.58600
#
# Compressibility (1/GPa) = 0.01770641
#
# Stress axis : x y z
#
# Youngs Moduli (GPa) = 65.56924 30.81730 64.26085
#
# Poissons Ratio (x) = 0.24589 0.27540
# Poissons Ratio (y) = 0.52318 0.67558
# Poissons Ratio (z) = 0.28101 0.32398
#
# Static dielectric constant tensor:
#      x y z
#    x 2.871560 0.000000 -0.284450 
#    y 0.000000 3.135510 0.000000 
#    z -0.284450 0.000000 3.657360 
# 
# 
# High freq. dielectric constant tensor:
#      x y z
#    x 1.601350 0.000000 -0.018390 
#    y 0.000000 1.637190 0.000000 
#    z -0.018390 0.000000 1.643250 
# 
# From -- ./inp_files/280060.got.cif
#   From: 2010.06.25/outbox.cif.g09.slc.cpg/sg12_141_cif.got.tgz:280060.got - 2010.06.28 00:19:55.
