data_PCOD8084367
_publ_section_title
;
Structure prediction by ZEFSAII (Michael W. Deem and Ramdas Pophale) SiO2 
 PCOD8084367
Probable space group: C 2/M
;
_chemical_formula_sum "Si O2"
_cell_formula_units_Z 64
_cell_length_a 24.976442
_cell_length_b 8.849744
_cell_length_c 19.047670
_cell_angle_alpha 90.000000
_cell_angle_beta 51.442768
_cell_angle_gamma 90.000000
_cell_volume 3292.320338
_symmetry_space_group_name_H-M "C 2/M"
_symmetry_group_IT_number 12
_symmetry_cell_setting 'monoclinic'
loop_
_space_group_symop_operation_xyz
x,y,z
-x,y,-z
-x,-y,-z
x,-y,z
1/2+x,1/2+y,z
1/2-x,1/2+y,-z
1/2-x,1/2-y,-z
1/2+x,1/2-y,z
loop_
_atom_site_type_symbol
_atom_site_label
_atom_site_fract_x
_atom_site_fract_y
_atom_site_fract_z
Si Si1 0.461711 0.177567 0.197820
Si Si2 0.415239 0.170002 0.993832
Si Si3 0.345654 0.822010 0.188998
Si Si4 0.299323 0.179582 0.712339
Si Si5 0.376102 0.322223 0.770278
Si Si6 0.486755 0.175403 0.333559
Si Si7 0.069381 0.674884 0.476891
Si Si8 0.321554 0.829260 0.943136
O O1 0.520783 0.250102 0.098862
O O2 0.387256 0.212254 0.226485
O O3 0.463710 0.240931 0.276277
O O4 0.476507 0.000000 0.190021
O O5 0.348507 0.173601 0.999958
O O6 0.438747 0.000000 0.992140
O O7 0.391524 0.245111 0.086798
O O8 0.273066 0.740842 0.255701
O O9 0.333216 0.000000 0.187850
O O10 0.314896 0.243610 0.777039
O O11 0.360430 0.243669 0.612297
O O12 0.295442 0.000000 0.717116
O O13 0.367194 0.500000 0.772218
O O14 0.450333 0.268397 0.684105
O O15 0.373114 0.265193 0.852742
O O16 0.427782 0.196990 0.440625
O O17 0.508132 0.000000 0.310022
O O18 0.069227 0.500000 0.455966
O O19 0.000000 0.747725 0.500000
O O20 0.315649 0.000000 0.919861
O O21 0.250000 0.750000 0.000000
#
# Coordination Sequence:
#
# PCOD8084367 Si02
#       8
#     8   8   8   8   8   8   8   8
#     4   9  17  32  58  85 109 145 189 233 275 326
#     4   9  17  31  54  81 107 142 189 230 264 317
#     4  10  20  35  56  84 115 144 184 235 281 327
#     4  11  22  38  58  80 110 148 188 231 284 343
#     4  12  23  35  53  81 114 147 182 228 288 342
#     4  10  18  35  60  84 108 140 189 232 276 336
#     4   9  17  32  58  85 106 139 187 235 277 336
#     4  11  21  34  52  78 114 153 192 232 280 335
#
# _framework density 19.439177999999998
#
# number of rings (size 3 to 8) (size 9 to 14) (size 15 to 20)
#    0.000    1.875    2.500    3.000    0.000    2.500 
#    0.000    3.750    0.000    0.750    0.000    0.000 
#    0.000    0.000    0.000    0.000    0.000    0.000 
#
# Total GULP energy -396640.982571 kJ/mol
# GULP energy per Si atom -12395.030705 kJ/mol
# Density = 1.939493 g / cm^3
# Si number density = 19.439178 Si / 1000 Ang^3
#
#
#
# Elastic Constant Matrix: (Units=GPa)
#
#
# Indices 1 2 3 4 5 6 
#
# 1 116.9608 32.3063 50.8431 0.0002 -2.8450 -0.0014
# 2 32.3063 62.0316 22.7064 -0.0148 -3.4678 0.0053
# 3 50.8431 22.7064 111.5275 -0.0092 2.3402 0.0042
# 4 0.0002 -0.0148 -0.0092 19.4841 0.0004 -6.4612
# 5 -2.8450 -3.4678 2.3402 0.0004 24.9642 -0.0006
# 6 -0.0014 0.0053 0.0042 -6.4612 -0.0006 22.5036
#
#
#
# Elastic Compliance Matrix: (Units=1/GPa)
#
#
# Indices 1 2 3 4 5 6 
#
# 1 0.011744 -0.004412 -0.004479 -0.000005 0.001145 0.000001
# 2 -0.004412 0.019268 -0.001961 0.000014 0.002358 0.000000
# 3 -0.004479 -0.001961 0.011447 0.000004 -0.001856 -0.000001
# 4 -0.000005 0.000014 0.000004 0.056725 0.000000 0.016287
# 5 0.001145 0.002358 -0.001856 0.000000 0.040689 0.000001
# 6 0.000001 0.000000 -0.000001 0.016287 0.000001 0.049114
#
#
# Mechanical properties :
#
#
# Convention : Reuss Voigt Hill
#
# Bulk Modulus (GPa) = 48.18510 55.80350 51.99430
# Shear Modulus (GPa) = 22.97689 25.70131 24.33910
#
# Velocity S-wave (km/s) = 3.44174 3.64007 3.54229
# Velocity P-wave (km/s) = 6.37460 6.81438 6.59816
#
# Compressibility (1/GPa) = 0.02075330
#
# Stress axis : x y z
#
# Youngs Moduli (GPa) = 85.15185 51.89837 87.36200
#
# Poissons Ratio (x) = 0.22900 0.39133
# Poissons Ratio (y) = 0.37573 0.17130
# Poissons Ratio (z) = 0.38143 0.10176
#
# Static dielectric constant tensor:
#      x y z
#    x 3.484290 0.000010 0.160250 
#    y 0.000010 3.120100 0.000070 
#    z 0.160250 0.000070 3.967150 
# 
# 
# High freq. dielectric constant tensor:
#      x y z
#    x 1.754440 0.000000 0.005710 
#    y 0.000000 1.708750 0.000000 
#    z 0.005710 0.000000 1.763650 
# 
# From -- ./inp_files/324126.got.cif
#   From: 2010.06.25/outbox.cif.g09.slc.cpg/sg12_163_cif.got.tgz:324126.got - 2010.06.28 00:19:55.
