data_PCOD8084039
_publ_section_title
;
Structure prediction by ZEFSAII (Michael W. Deem and Ramdas Pophale) SiO2 
 PCOD8084039
Probable space group: C 2/M
;
_chemical_formula_sum "Si O2"
_cell_formula_units_Z 56
_cell_length_a 14.189380
_cell_length_b 20.248523
_cell_length_c 15.558388
_cell_angle_alpha 90.000000
_cell_angle_beta 38.196735
_cell_angle_gamma 90.000000
_cell_volume 2764.173459
_symmetry_space_group_name_H-M "C 2/M"
_symmetry_group_IT_number 12
_symmetry_cell_setting 'monoclinic'
loop_
_space_group_symop_operation_xyz
x,y,z
-x,y,-z
-x,-y,-z
x,-y,z
1/2+x,1/2+y,z
1/2-x,1/2+y,-z
1/2-x,1/2-y,-z
1/2+x,1/2-y,z
loop_
_atom_site_type_symbol
_atom_site_label
_atom_site_fract_x
_atom_site_fract_y
_atom_site_fract_z
Si Si1 0.934444 0.124937 0.131675
Si Si2 0.687520 0.574743 0.613799
Si Si3 0.643057 0.246859 0.995691
Si Si4 0.690144 0.774812 0.289071
Si Si5 0.876179 0.301389 0.442264
Si Si6 0.639748 0.575573 0.453255
Si Si7 0.377737 0.820966 0.256078
O O1 0.931554 0.080984 0.220896
O O2 0.762046 0.151401 0.236918
O O3 0.000000 0.085658 0.000000
O O4 0.046627 0.186302 0.063453
O O5 0.757040 0.500000 0.566282
O O6 0.812089 0.632640 0.534602
O O7 0.607827 0.586476 0.578000
O O8 0.740766 0.233779 0.840602
O O9 0.750000 0.250000 0.000000
O O10 0.519461 0.187218 0.089830
O O11 0.493564 0.774932 0.586461
O O12 0.747770 0.737384 0.334868
O O13 0.750000 0.250000 0.500000
O O14 0.954748 0.319336 0.295350
O O15 0.500000 0.606370 0.500000
O O16 0.661362 0.500000 0.413765
O O17 0.793292 0.609445 0.308573
#
# Coordination Sequence:
#
# PCOD8084039 Si02
#       7
#     8   8   8   8   8   8   8
#     4   9  20  37  57  83 114 151 194 240 294 352
#     4  10  22  39  58  83 119 154 196 243 294 360
#     4  10  18  34  56  82 114 154 193 245 300 348
#     4  10  21  35  54  83 121 146 191 249 295 360
#     4  11  22  34  56  87 114 151 192 243 298 356
#     4   9  20  37  56  82 119 159 198 245 299 359
#     4  10  20  32  55  83 110 153 192 239 304 348
#
# _framework density 20.259219999999999
#
# number of rings (size 3 to 8) (size 9 to 14) (size 15 to 20)
#    0.000    2.143    1.429    3.000    4.000    2.000 
#    0.000    1.429    0.000    3.429    0.000    0.000 
#    0.000    0.000    0.000    0.000    0.000    0.000 
#
# Total GULP energy -346877.875569 kJ/mol
# GULP energy per Si atom -12388.495556 kJ/mol
# Density = 2.021311 g / cm^3
# Si number density = 20.259220 Si / 1000 Ang^3
#
#
#
# Elastic Constant Matrix: (Units=GPa)
#
#
# Indices 1 2 3 4 5 6 
#
# 1 129.9308 23.6322 52.2215 -0.0021 0.3953 0.0022
# 2 23.6322 70.9312 40.8835 -0.0030 2.7599 0.0019
# 3 52.2215 40.8835 96.6011 -0.0044 15.6854 0.0019
# 4 -0.0021 -0.0030 -0.0044 23.4180 0.0037 4.0504
# 5 0.3953 2.7599 15.6854 0.0037 36.1895 -0.0017
# 6 0.0022 0.0019 0.0019 4.0504 -0.0017 19.5451
#
#
#
# Elastic Compliance Matrix: (Units=1/GPa)
#
#
# Indices 1 2 3 4 5 6 
#
# 1 0.010025 -0.000113 -0.005761 -0.000001 0.002396 0.000000
# 2 -0.000113 0.018805 -0.008245 0.000001 0.002141 -0.000001
# 3 -0.005761 -0.008245 0.018118 0.000003 -0.007161 -0.000002
# 4 -0.000001 0.000001 0.000003 0.044290 -0.000006 -0.009178
# 5 0.002396 0.002141 -0.007161 -0.000006 0.030547 0.000004
# 6 0.000000 -0.000001 -0.000002 -0.009178 0.000004 0.053066
#
#
# Mechanical properties :
#
#
# Convention : Reuss Voigt Hill
#
# Bulk Modulus (GPa) = 53.44539 58.99306 56.21922
# Shear Modulus (GPa) = 23.88636 27.87893 25.88264
#
# Velocity S-wave (km/s) = 3.43744 3.71362 3.57819
# Velocity P-wave (km/s) = 6.49559 6.89712 6.69936
#
# Compressibility (1/GPa) = 0.01871069
#
# Stress axis : x y z
#
# Youngs Moduli (GPa) = 99.75112 53.17778 55.19290
#
# Poissons Ratio (x) = 0.00600 0.31795
# Poissons Ratio (y) = 0.01126 0.45507
# Poissons Ratio (z) = 0.57463 0.43846
#
# Static dielectric constant tensor:
#      x y z
#    x 17.572050 0.000660 7.705670 
#    y 0.000660 3.446070 0.000380 
#    z 7.705670 0.000380 8.007880 
# 
# 
# High freq. dielectric constant tensor:
#      x y z
#    x 1.804400 0.000000 0.025070 
#    y 0.000000 1.750760 0.000000 
#    z 0.025070 0.000000 1.798940 
# 
# From -- ./inp_files/217661.got.cif
#   From: 2010.06.25/outbox.cif.g09.slc.cpg/sg12_109_cif.got.tgz:217661.got - 2010.06.28 00:19:55.
