data_PCOD8084600
_publ_section_title
;
Structure prediction by ZEFSAII (Michael W. Deem and Ramdas Pophale) SiO2 
 PCOD8084600
Probable space group: C 2/M
;
_chemical_formula_sum "Si O2"
_cell_formula_units_Z 44
_cell_length_a 15.272385
_cell_length_b 10.452940
_cell_length_c 30.783986
_cell_angle_alpha 90.000000
_cell_angle_beta 150.345171
_cell_angle_gamma 90.000000
_cell_volume 2431.514036
_symmetry_space_group_name_H-M "C 2/M"
_symmetry_group_IT_number 12
_symmetry_cell_setting 'monoclinic'
loop_
_space_group_symop_operation_xyz
x,y,z
-x,y,-z
-x,-y,-z
x,-y,z
1/2+x,1/2+y,z
1/2-x,1/2+y,-z
1/2-x,1/2-y,-z
1/2+x,1/2-y,z
loop_
_atom_site_type_symbol
_atom_site_label
_atom_site_fract_x
_atom_site_fract_y
_atom_site_fract_z
Si Si1 0.387371 0.000000 0.884410
Si Si2 0.902747 0.143470 0.771269
Si Si3 0.822043 0.000000 0.448101
Si Si4 0.065848 0.000000 0.404525
Si Si5 0.297890 0.000000 0.427492
Si Si6 0.188878 0.796012 0.746811
Si Si7 0.767245 0.000000 0.086310
Si Si8 0.113844 0.259721 0.323413
O O1 0.340458 0.878677 0.834878
O O2 0.278084 0.000000 0.881990
O O3 0.595995 0.000000 0.982575
O O4 0.785272 0.185409 0.761402
O O5 0.893208 0.259406 0.732047
O O6 0.834401 0.000000 0.726560
O O7 0.112394 0.125461 0.872739
O O8 0.720450 0.874386 0.390053
O O9 0.000000 0.000000 0.500000
O O10 0.868324 0.000000 0.518307
O O11 0.946515 0.124055 0.342019
O O12 0.254175 0.000000 0.460204
O O13 0.500000 0.000000 0.500000
O O14 0.205968 0.874748 0.370422
O O15 0.079401 0.732156 0.738720
#
# Coordination Sequence:
#
# PCOD8084600 Si02
#       8
#     4   8   4   4   4   8   4   8
#     4  10  18  38  62  90 116 151 193 236 294 334
#     4  10  20  37  59  86 113 155 199 226 288 351
#     4  12  25  36  54  80 119 153 194 247 295 343
#     4   9  22  39  53  83 112 156 196 233 309 342
#     4  10  20  36  60  76 107 151 193 252 286 351
#     4  10  20  36  63  81 119 152 188 248 285 350
#     4   9  19  35  63  88 115 153 198 234 273 366
#     4  11  22  39  57  83 117 150 201 242 292 343
#
# _framework density 18.095721000000001
#
# number of rings (size 3 to 8) (size 9 to 14) (size 15 to 20)
#    0.545    1.273    2.727    2.182    1.273    5.818 
#    0.000    0.000    0.000    0.000    0.000    3.818 
#    0.000    0.000    0.000    0.000    0.000    0.000 
#
# Total GULP energy -272545.856300 kJ/mol
# GULP energy per Si atom -12388.448014 kJ/mol
# Density = 1.805453 g / cm^3
# Si number density = 18.095721 Si / 1000 Ang^3
#
#
#
# Elastic Constant Matrix: (Units=GPa)
#
#
# Indices 1 2 3 4 5 6 
#
# 1 137.2778 37.8211 55.8668 0.0000 13.3422 0.0000
# 2 37.8211 85.7440 40.4112 -0.0001 -0.9550 0.0000
# 3 55.8668 40.4112 104.6663 -0.0006 1.3804 0.0002
# 4 0.0000 -0.0001 -0.0006 15.4387 0.0002 5.1513
# 5 13.3422 -0.9550 1.3804 0.0002 30.0056 0.0000
# 6 0.0000 0.0000 0.0002 5.1513 0.0000 36.1823
#
#
#
# Elastic Compliance Matrix: (Units=1/GPa)
#
#
# Indices 1 2 3 4 5 6 
#
# 1 0.010194 -0.002455 -0.004435 0.000000 -0.004407 0.000000
# 2 -0.002455 0.014863 -0.004451 0.000000 0.001770 0.000000
# 3 -0.004435 -0.004451 0.013624 0.000001 0.001204 0.000000
# 4 0.000000 0.000000 0.000001 0.068003 0.000000 -0.009682
# 5 -0.004407 0.001770 0.001204 0.000000 0.035288 0.000000
# 6 0.000000 0.000000 0.000000 -0.009682 0.000000 0.029016
#
#
# Mechanical properties :
#
#
# Convention : Reuss Voigt Hill
#
# Bulk Modulus (GPa) = 62.50804 66.20959 64.35881
# Shear Modulus (GPa) = 25.12500 29.23126 27.17813
#
# Velocity S-wave (km/s) = 3.73023 4.02352 3.87965
# Velocity P-wave (km/s) = 7.29183 7.63236 7.46404
#
# Compressibility (1/GPa) = 0.01599794
#
# Stress axis : x y z
#
# Youngs Moduli (GPa) = 98.09453 67.27957 73.39840
#
# Poissons Ratio (x) = 0.16520 0.32553
# Poissons Ratio (y) = 0.24086 0.32673
# Poissons Ratio (z) = 0.43506 0.29949
#
# Static dielectric constant tensor:
#      x y z
#    x 3.585890 0.000000 0.112170 
#    y 0.000000 3.192920 0.000000 
#    z 0.112170 0.000000 3.196270 
# 
# 
# High freq. dielectric constant tensor:
#      x y z
#    x 1.719020 0.000000 0.007700 
#    y 0.000000 1.689510 0.000000 
#    z 0.007700 0.000000 1.686420 
# 
# From -- ./inp_files/375950.got.cif
#   From: 2010.06.25/outbox.cif.g09.slc.cpg/sg12_188_cif.got.tgz:375950.got - 2010.06.28 00:19:55.
