data_PCOD8084944
_publ_section_title
;
Structure prediction by ZEFSAII (Michael W. Deem and Ramdas Pophale) SiO2 
 PCOD8084944
Probable space group: C 2/M
;
_chemical_formula_sum "Si O2"
_cell_formula_units_Z 60
_cell_length_a 22.280549
_cell_length_b 14.166422
_cell_length_c 11.126027
_cell_angle_alpha 90.000000
_cell_angle_beta 79.841145
_cell_angle_gamma 90.000000
_cell_volume 3456.715158
_symmetry_space_group_name_H-M "C 2/M"
_symmetry_group_IT_number 12
_symmetry_cell_setting 'monoclinic'
loop_
_space_group_symop_operation_xyz
x,y,z
-x,y,-z
-x,-y,-z
x,-y,z
1/2+x,1/2+y,z
1/2-x,1/2+y,-z
1/2-x,1/2-y,-z
1/2+x,1/2-y,z
loop_
_atom_site_type_symbol
_atom_site_label
_atom_site_fract_x
_atom_site_fract_y
_atom_site_fract_z
Si Si1 0.820716 0.104250 0.990357
Si Si2 0.931028 0.106678 0.562321
Si Si3 0.235843 0.389674 0.542637
Si Si4 0.731611 0.108773 0.817337
Si Si5 0.627629 0.752759 0.858433
Si Si6 0.052776 0.102831 0.181504
Si Si7 0.500000 0.280679 0.000000
Si Si8 0.152932 0.219120 0.582786
O O1 0.777678 0.149512 0.901847
O O2 0.887575 0.091215 0.916699
O O3 0.797225 0.000000 0.040335
O O4 0.827388 0.174644 0.099318
O O5 0.929813 0.149357 0.697464
O O6 0.896090 0.182197 0.494297
O O7 0.000000 0.100438 0.500000
O O8 0.901755 0.000000 0.566317
O O9 0.220732 0.500000 0.522549
O O10 0.257534 0.373385 0.673565
O O11 0.175938 0.324965 0.539817
O O12 0.289748 0.353234 0.436915
O O13 0.664102 0.150095 0.853914
O O14 0.723983 0.000000 0.845667
O O15 0.563695 0.774192 0.952010
O O16 0.619296 0.720796 0.723435
O O17 0.023342 0.000000 0.218178
O O18 0.003857 0.160002 0.121414
#
# Coordination Sequence:
#
# PCOD8084944 Si02
#       8
#     8   8   8   8   8   8   4   8
#     4   9  17  28  45  68  92 119 150 187 232 280
#     4  10  19  29  44  68  96 126 159 195 234 276
#     4   9  18  32  51  73  95 121 154 195 241 285
#     4   9  17  32  51  69  91 120 157 197 233 272
#     4  10  20  31  46  69  95 126 158 189 230 274
#     4   9  17  29  45  65  90 122 154 185 227 277
#     4  10  19  32  47  66  96 126 158 192 224 268
#     4  10  19  31  49  72  97 125 156 192 236 286
#
# _framework density 17.357519
#
# number of rings (size 3 to 8) (size 9 to 14) (size 15 to 20)
#    0.000    2.533    0.000    2.600    0.000    3.733 
#    0.000    0.333    0.000    0.400    0.000    0.933 
#    0.000    0.000    0.000    0.000    0.000    0.000 
#
# Total GULP energy -371725.873608 kJ/mol
# GULP energy per Si atom -12390.862454 kJ/mol
# Density = 1.731801 g / cm^3
# Si number density = 17.357519 Si / 1000 Ang^3
#
#
#
# Elastic Constant Matrix: (Units=GPa)
#
#
# Indices 1 2 3 4 5 6 
#
# 1 56.9167 21.7512 16.5892 0.0000 3.0953 0.0000
# 2 21.7512 60.1968 21.6580 0.0000 4.0804 0.0000
# 3 16.5892 21.6580 72.1146 0.0000 7.6000 0.0000
# 4 0.0000 0.0000 0.0000 23.5962 0.0000 9.1665
# 5 3.0953 4.0804 7.6000 0.0000 32.2627 0.0000
# 6 0.0000 0.0000 0.0000 9.1665 0.0000 28.8538
#
#
#
# Elastic Compliance Matrix: (Units=1/GPa)
#
#
# Indices 1 2 3 4 5 6 
#
# 1 0.020901 -0.006510 -0.002798 0.000000 -0.000523 0.000000
# 2 -0.006510 0.020688 -0.004620 0.000000 -0.000904 0.000000
# 3 -0.002798 -0.004620 0.016211 0.000000 -0.002966 0.000000
# 4 0.000000 0.000000 0.000000 0.048346 0.000000 -0.015359
# 5 -0.000523 -0.000904 -0.002966 0.000000 0.031859 0.000000
# 6 0.000000 0.000000 0.000000 -0.015359 0.000000 0.039537
#
#
# Mechanical properties :
#
#
# Convention : Reuss Voigt Hill
#
# Bulk Modulus (GPa) = 33.39664 34.35833 33.87749
# Shear Modulus (GPa) = 23.21477 25.55784 24.38631
#
# Velocity S-wave (km/s) = 3.66108 3.84140 3.75232
# Velocity P-wave (km/s) = 6.09537 6.28590 6.19137
#
# Compressibility (1/GPa) = 0.02994313
#
# Stress axis : x y z
#
# Youngs Moduli (GPa) = 47.84360 48.33673 61.68797
#
# Poissons Ratio (x) = 0.31469 0.17259
# Poissons Ratio (y) = 0.31148 0.28502
# Poissons Ratio (z) = 0.13386 0.22333
#
# Static dielectric constant tensor:
#      x y z
#    x 3.093020 0.000000 0.038100 
#    y 0.000000 3.639930 0.000000 
#    z 0.038100 0.000000 3.280900 
# 
# 
# High freq. dielectric constant tensor:
#      x y z
#    x 1.662130 0.000000 0.001610 
#    y 0.000000 1.646240 0.000000 
#    z 0.001610 0.000000 1.676470 
# 
# From -- ./inp_files/166715.got.cif
#   From: 2010.06.25/outbox.cif.g09.slc.cpg/sg12_84_cif.got.tgz:166715.got - 2010.06.28 00:19:55.
