data_PCOD8084373
_publ_section_title
;
Structure prediction by ZEFSAII (Michael W. Deem and Ramdas Pophale) SiO2 
 PCOD8084373
Probable space group: C 2/M
;
_chemical_formula_sum "Si O2"
_cell_formula_units_Z 52
_cell_length_a 14.180177
_cell_length_b 22.606993
_cell_length_c 11.734487
_cell_angle_alpha 90.000000
_cell_angle_beta 45.976642
_cell_angle_gamma 90.000000
_cell_volume 2704.902432
_symmetry_space_group_name_H-M "C 2/M"
_symmetry_group_IT_number 12
_symmetry_cell_setting 'monoclinic'
loop_
_space_group_symop_operation_xyz
x,y,z
-x,y,-z
-x,-y,-z
x,-y,z
1/2+x,1/2+y,z
1/2-x,1/2+y,-z
1/2-x,1/2-y,-z
1/2+x,1/2-y,z
loop_
_atom_site_type_symbol
_atom_site_label
_atom_site_fract_x
_atom_site_fract_y
_atom_site_fract_z
Si Si1 0.000000 0.655684 0.500000
Si Si2 0.398787 0.931011 0.401145
Si Si3 0.128655 0.755277 0.243606
Si Si4 0.860109 0.113866 0.732111
Si Si5 0.426921 0.893742 0.950538
Si Si6 0.626700 0.567616 0.526940
Si Si7 0.575517 0.755848 0.045666
O O1 0.085034 0.611670 0.505195
O O2 0.085559 0.699227 0.351938
O O3 0.515531 0.923749 0.210986
O O4 0.260307 0.908040 0.468708
O O5 0.395298 0.000000 0.440973
O O6 0.134373 0.816789 0.308358
O O7 0.038364 0.765926 0.205435
O O8 0.274948 0.737194 0.089459
O O9 0.858875 0.075170 0.620121
O O10 0.995398 0.099498 0.686070
O O11 0.731028 0.096884 0.913536
O O12 0.457167 0.824780 0.924224
O O13 0.500000 0.921703 0.000000
O O14 0.610677 0.500000 0.572029
O O15 0.500000 0.726972 0.000000
#
# Coordination Sequence:
#
# PCOD8084373 Si02
#       7
#     4   8   8   8   8   8   8
#     4  12  23  40  58  80 117 158 192 240 286 340
#     4  11  24  39  58  83 114 156 203 240 284 340
#     4  10  21  35  58  87 114 147 190 224 285 352
#     4  10  19  34  60  88 118 146 184 232 293 352
#     4  10  18  35  60  85 114 145 189 242 287 339
#     4  10  21  37  54  82 120 152 185 238 292 337
#     4   9  19  37  58  81 115 150 177 233 288 333
#
# _framework density 19.224354000000002
#
# number of rings (size 3 to 8) (size 9 to 14) (size 15 to 20)
#    0.000    1.846    3.077    2.077    0.000    2.769 
#    0.000    2.308    0.000    0.000    0.000    3.231 
#    0.000    0.000    0.000    0.000    0.000    0.000 
#
# Total GULP energy -322121.260337 kJ/mol
# GULP energy per Si atom -12389.279244 kJ/mol
# Density = 1.918060 g / cm^3
# Si number density = 19.224354 Si / 1000 Ang^3
#
#
#
# Elastic Constant Matrix: (Units=GPa)
#
#
# Indices 1 2 3 4 5 6 
#
# 1 123.7236 36.2734 62.3599 0.0000 -8.6369 0.0000
# 2 36.2734 72.2979 35.4981 0.0000 -7.2161 0.0000
# 3 62.3599 35.4981 79.3524 0.0000 -10.0815 0.0000
# 4 0.0000 0.0000 0.0000 7.0791 0.0000 -4.4502
# 5 -8.6369 -7.2161 -10.0815 0.0000 36.1284 0.0000
# 6 0.0000 0.0000 0.0000 -4.4502 0.0000 23.0581
#
#
#
# Elastic Compliance Matrix: (Units=1/GPa)
#
#
# Indices 1 2 3 4 5 6 
#
# 1 0.013611 -0.002015 -0.009779 0.000000 0.000123 0.000000
# 2 -0.002015 0.018089 -0.006336 0.000000 0.001363 0.000000
# 3 -0.009779 -0.006336 0.023497 0.000000 0.002953 0.000000
# 4 0.000000 0.000000 0.000000 0.160766 0.000000 0.031028
# 5 0.000123 0.001363 0.002953 0.000000 0.028805 0.000000
# 6 0.000000 0.000000 0.000000 0.031028 0.000000 0.049357
#
#
# Mechanical properties :
#
#
# Convention : Reuss Voigt Hill
#
# Bulk Modulus (GPa) = 52.80600 60.40408 56.60504
# Shear Modulus (GPa) = 14.85015 22.66928 18.75972
#
# Velocity S-wave (km/s) = 2.78234 3.43767 3.12722
# Velocity P-wave (km/s) = 6.15222 6.87354 6.52286
#
# Compressibility (1/GPa) = 0.01893724
#
# Stress axis : x y z
#
# Youngs Moduli (GPa) = 73.47078 55.28083 42.55949
#
# Poissons Ratio (x) = 0.11139 0.41620
# Poissons Ratio (y) = 0.14805 0.26964
# Poissons Ratio (z) = 0.71849 0.35023
#
# Static dielectric constant tensor:
#      x y z
#    x 3.854380 0.000000 -0.080550 
#    y 0.000000 3.388870 0.000000 
#    z -0.080550 0.000000 3.740070 
# 
# 
# High freq. dielectric constant tensor:
#      x y z
#    x 1.746810 0.000000 -0.010850 
#    y 0.000000 1.740580 0.000000 
#    z -0.010850 0.000000 1.736110 
# 
# From -- ./inp_files/148571.got.cif
#   From: 2010.06.25/outbox.cif.g09.slc.cpg/sg12_75_cif.got.tgz:148571.got - 2010.06.28 00:19:55.
