data_PCOD8084204
_publ_section_title
;
Structure prediction by ZEFSAII (Michael W. Deem and Ramdas Pophale) SiO2 
 PCOD8084204
Probable space group: C 2/M
;
_chemical_formula_sum "Si O2"
_cell_formula_units_Z 64
_cell_length_a 23.787187
_cell_length_b 8.506807
_cell_length_c 28.681199
_cell_angle_alpha 90.000000
_cell_angle_beta 32.844251
_cell_angle_gamma 90.000000
_cell_volume 3147.693311
_symmetry_space_group_name_H-M "C 2/M"
_symmetry_group_IT_number 12
_symmetry_cell_setting 'monoclinic'
loop_
_space_group_symop_operation_xyz
x,y,z
-x,y,-z
-x,-y,-z
x,-y,z
1/2+x,1/2+y,z
1/2-x,1/2+y,-z
1/2-x,1/2-y,-z
1/2+x,1/2-y,z
loop_
_atom_site_type_symbol
_atom_site_label
_atom_site_fract_x
_atom_site_fract_y
_atom_site_fract_z
Si Si1 0.473682 0.313076 0.408014
Si Si2 0.059720 0.183618 0.250668
Si Si3 0.552912 0.184806 0.758632
Si Si4 0.716032 0.681513 0.900793
Si Si5 0.854341 0.316570 0.143100
Si Si6 0.284206 0.312598 0.598167
Si Si7 0.338933 0.313323 0.661332
Si Si8 0.542493 0.184024 0.079033
O O1 0.481612 0.500000 0.403028
O O2 0.497596 0.252522 0.339267
O O3 0.359899 0.254951 0.503693
O O4 0.558766 0.244935 0.384907
O O5 0.180941 0.214059 0.172927
O O6 0.018898 0.276517 0.234735
O O7 0.040438 0.000000 0.256585
O O8 0.668578 0.255830 0.670767
O O9 0.501330 0.252626 0.841707
O O10 0.563385 0.000000 0.757598
O O11 0.747353 0.500000 0.881314
O O12 0.647093 0.718541 0.903467
O O13 0.648939 0.726160 0.993073
O O14 0.843241 0.500000 0.138485
O O15 0.761151 0.257282 0.240512
O O16 0.960895 0.281727 0.095054
O O17 0.281127 0.500000 0.601570
O O18 0.330263 0.247875 0.614827
O O19 0.343030 0.500000 0.656995
O O20 0.566518 0.000000 0.066473
#
# Coordination Sequence:
#
# PCOD8084204 Si02
#       8
#     8   8   8   8   8   8   8   8
#     4   9  17  29  52  85 117 147 186 232 276 327
#     4  11  23  40  59  80 111 152 196 237 282 335
#     4  10  21  38  59  84 114 148 191 238 284 330
#     4  12  25  39  58  85 115 148 187 234 288 339
#     4  10  18  34  60  88 117 150 186 225 277 339
#     4   9  16  29  53  87 119 146 182 232 281 327
#     4   9  14  26  52  85 116 146 182 226 274 327
#     4  10  21  38  61  86 115 151 188 229 280 339
#
# _framework density 20.332348
#
# number of rings (size 3 to 8) (size 9 to 14) (size 15 to 20)
#    0.000    2.000    2.500    2.250    0.000    5.000 
#    0.000    0.000    0.000    0.750    0.000    0.875 
#    0.000    0.000    0.000    0.000    0.000    0.000 
#
# Total GULP energy -396809.116730 kJ/mol
# GULP energy per Si atom -12400.284898 kJ/mol
# Density = 2.028607 g / cm^3
# Si number density = 20.332348 Si / 1000 Ang^3
#
#
#
# Elastic Constant Matrix: (Units=GPa)
#
#
# Indices 1 2 3 4 5 6 
#
# 1 98.7878 7.3321 44.5883 0.0116 11.6421 -0.0164
# 2 7.3321 19.4023 15.8958 -0.0263 3.7514 0.0208
# 3 44.5883 15.8958 163.1728 0.0006 20.1471 -0.0042
# 4 0.0116 -0.0263 0.0006 10.5074 0.0054 -0.3877
# 5 11.6421 3.7514 20.1471 0.0054 19.2485 -0.0087
# 6 -0.0164 0.0208 -0.0042 -0.3877 -0.0087 21.4583
#
#
#
# Elastic Compliance Matrix: (Units=1/GPa)
#
#
# Indices 1 2 3 4 5 6 
#
# 1 0.011898 -0.001572 -0.002581 -0.000014 -0.004188 0.000008
# 2 -0.001572 0.056824 -0.004428 0.000145 -0.005489 -0.000057
# 3 -0.002581 -0.004428 0.008000 -0.000006 -0.005949 0.000001
# 4 -0.000014 0.000145 -0.000006 0.095235 -0.000040 0.001720
# 5 -0.004188 -0.005489 -0.005949 -0.000040 0.061782 0.000025
# 6 0.000008 -0.000057 0.000001 0.001720 0.000025 0.046633
#
#
# Mechanical properties :
#
#
# Convention : Reuss Voigt Hill
#
# Bulk Modulus (GPa) = 16.79004 46.33282 31.56143
# Shear Modulus (GPa) = 15.75364 24.47928 20.11646
#
# Velocity S-wave (km/s) = 2.78655 3.47357 3.14886
# Velocity P-wave (km/s) = 4.31612 6.23898 5.36441
#
# Compressibility (1/GPa) = 0.05955911
#
# Stress axis : x y z
#
# Youngs Moduli (GPa) = 84.04853 17.59822 125.00530
#
# Poissons Ratio (x) = 0.02766 0.32263
# Poissons Ratio (y) = 0.13212 0.55357
# Poissons Ratio (z) = 0.21692 0.07793
#
# Static dielectric constant tensor:
#      x y z
#    x 3.637620 -0.000030 0.097530 
#    y -0.000030 3.096950 0.000020 
#    z 0.097530 0.000020 4.005420 
# 
# 
# High freq. dielectric constant tensor:
#      x y z
#    x 1.791970 0.000000 0.004560 
#    y 0.000000 1.739280 0.000000 
#    z 0.004560 0.000000 1.814260 
# 
# From -- ./inp_files/382343.got.cif
#   From: 2010.06.25/outbox.cif.g09.slc.cpg/sg12_192_cif.got.tgz:382343.got - 2010.06.28 00:19:55.
