data_PCOD8084515
_publ_section_title
;
Structure prediction by ZEFSAII (Michael W. Deem and Ramdas Pophale) SiO2 
 PCOD8084515
Probable space group: C 2/M
;
_chemical_formula_sum "Si O2"
_cell_formula_units_Z 56
_cell_length_a 14.952570
_cell_length_b 20.893545
_cell_length_c 9.307937
_cell_angle_alpha 90.000000
_cell_angle_beta 73.770010
_cell_angle_gamma 90.000000
_cell_volume 2792.025486
_symmetry_space_group_name_H-M "C 2/M"
_symmetry_group_IT_number 12
_symmetry_cell_setting 'monoclinic'
loop_
_space_group_symop_operation_xyz
x,y,z
-x,y,-z
-x,-y,-z
x,-y,z
1/2+x,1/2+y,z
1/2-x,1/2+y,-z
1/2-x,1/2-y,-z
1/2+x,1/2-y,z
loop_
_atom_site_type_symbol
_atom_site_label
_atom_site_fract_x
_atom_site_fract_y
_atom_site_fract_z
Si Si1 0.849876 0.267531 0.890564
Si Si2 0.031259 0.572514 0.639829
Si Si3 0.600167 0.644244 0.004013
Si Si4 0.722871 0.570546 0.165159
Si Si5 0.294025 0.842311 0.374221
Si Si6 0.729275 0.700983 0.701992
Si Si7 0.912320 0.400982 0.945345
O O1 0.830247 0.286423 0.733104
O O2 0.894450 0.325190 0.959064
O O3 0.750000 0.250000 0.000000
O O4 0.915621 0.206217 0.885436
O O5 0.070650 0.500000 0.614342
O O6 0.109279 0.619092 0.670544
O O7 0.000000 0.598111 0.500000
O O8 0.936689 0.575494 0.774802
O O9 0.661729 0.661150 0.836434
O O10 0.500000 0.618251 0.000000
O O11 0.649154 0.590052 0.076472
O O12 0.695589 0.500000 0.236340
O O13 0.724552 0.622128 0.294072
O O14 0.822533 0.563205 0.044206
O O15 0.316032 0.769814 0.315352
O O16 0.245968 0.841334 0.552275
O O17 0.000000 0.420744 0.000000
#
# Coordination Sequence:
#
# PCOD8084515 Si02
#       7
#     8   8   8   8   8   8   8
#     4  10  18  36  62  92 124 158 201 256 310 366
#     4  11  25  39  55  89 134 170 204 243 303 391
#     4  11  23  41  67  94 119 160 216 272 319 366
#     4  12  24  42  65  90 127 170 213 260 311 377
#     4  11  22  40  60  91 130 167 206 255 317 381
#     4  10  21  40  65  91 126 160 208 264 321 374
#     4  12  22  36  63  94 126 163 205 249 307 370
#
# _framework density 20.057123000000001
#
# number of rings (size 3 to 8) (size 9 to 14) (size 15 to 20)
#    0.000    1.000    5.714    3.000    2.000    0.857 
#    0.000    1.429    0.000    0.857    0.000    0.000 
#    0.000    0.000    0.000    0.000    0.000    0.000 
#
# Total GULP energy -347172.354300 kJ/mol
# GULP energy per Si atom -12399.012654 kJ/mol
# Density = 2.001147 g / cm^3
# Si number density = 20.057123 Si / 1000 Ang^3
#
#
#
# Elastic Constant Matrix: (Units=GPa)
#
#
# Indices 1 2 3 4 5 6 
#
# 1 94.2386 22.6442 32.7605 0.0000 20.8110 0.0000
# 2 22.6442 92.2405 23.1179 0.0000 2.1712 0.0000
# 3 32.7605 23.1179 131.1623 0.0000 4.9810 0.0000
# 4 0.0000 0.0000 0.0000 23.1191 0.0000 -0.1434
# 5 20.8110 2.1712 4.9810 0.0000 25.4692 0.0000
# 6 0.0000 0.0000 0.0000 -0.1434 0.0000 11.2073
#
#
#
# Elastic Compliance Matrix: (Units=1/GPa)
#
#
# Indices 1 2 3 4 5 6 
#
# 1 0.014694 -0.002647 -0.002777 0.000000 -0.011238 0.000000
# 2 -0.002647 0.011828 -0.001478 0.000000 0.001444 0.000000
# 3 -0.002777 -0.001478 0.008551 0.000000 0.000723 0.000000
# 4 0.000000 0.000000 0.000000 0.043258 0.000000 0.000554
# 5 -0.011238 0.001444 0.000723 0.000000 0.048181 0.000000
# 6 0.000000 0.000000 0.000000 0.000554 0.000000 0.089235
#
#
# Mechanical properties :
#
#
# Convention : Reuss Voigt Hill
#
# Bulk Modulus (GPa) = 47.01777 52.74293 49.88035
# Shear Modulus (GPa) = 21.12905 27.90037 24.51471
#
# Velocity S-wave (km/s) = 3.24920 3.73372 3.49985
# Velocity P-wave (km/s) = 6.12937 6.70380 6.42301
#
# Compressibility (1/GPa) = 0.02126855
#
# Stress axis : x y z
#
# Youngs Moduli (GPa) = 68.05269 84.54843 116.94729
#
# Poissons Ratio (x) = 0.22379 0.32476
# Poissons Ratio (y) = 0.18013 0.17289
# Poissons Ratio (z) = 0.18898 0.12499
#
# Static dielectric constant tensor:
#      x y z
#    x 3.558090 0.000000 0.284200 
#    y 0.000000 3.811910 0.000000 
#    z 0.284200 0.000000 3.992240 
# 
# 
# High freq. dielectric constant tensor:
#      x y z
#    x 1.758040 0.000000 0.023130 
#    y 0.000000 1.782720 0.000000 
#    z 0.023130 0.000000 1.789520 
# 
# From -- ./inp_files/64110.got.cif
#   From: 2010.06.25/outbox.cif.g09.slc.cpg/sg12_33_cif.got.tgz:64110.got - 2010.06.28 00:19:55.
