data_PCOD8084606
_publ_section_title
;
Structure prediction by ZEFSAII (Michael W. Deem and Ramdas Pophale) SiO2 
 PCOD8084606
Probable space group: C 2/M
;
_chemical_formula_sum "Si O2"
_cell_formula_units_Z 56
_cell_length_a 9.058731
_cell_length_b 25.138434
_cell_length_c 20.571349
_cell_angle_alpha 90.000000
_cell_angle_beta 141.269251
_cell_angle_gamma 90.000000
_cell_volume 2930.945333
_symmetry_space_group_name_H-M "C 2/M"
_symmetry_group_IT_number 12
_symmetry_cell_setting 'monoclinic'
loop_
_space_group_symop_operation_xyz
x,y,z
-x,y,-z
-x,-y,-z
x,-y,z
1/2+x,1/2+y,z
1/2-x,1/2+y,-z
1/2-x,1/2-y,-z
1/2+x,1/2-y,z
loop_
_atom_site_type_symbol
_atom_site_label
_atom_site_fract_x
_atom_site_fract_y
_atom_site_fract_z
Si Si1 0.339974 0.659374 0.008570
Si Si2 0.666910 0.801070 0.194156
Si Si3 0.518253 0.000000 0.431339
Si Si4 0.450077 0.500000 0.409054
Si Si5 0.439908 0.695449 0.781543
Si Si6 0.922352 0.440479 0.043678
Si Si7 0.188940 0.394818 0.619842
Si Si8 0.681021 0.587337 0.724561
O O1 0.275588 0.597071 0.992623
O O2 0.102783 0.694805 0.923158
O O3 0.500000 0.668848 0.000000
O O4 0.480726 0.675466 0.120828
O O5 0.692423 0.751409 0.251621
O O6 0.838477 0.797205 0.190680
O O7 0.732522 0.852743 0.259649
O O8 0.500000 0.000000 0.500000
O O9 0.402003 0.944491 0.365772
O O10 0.792824 0.000000 0.528454
O O11 0.500000 0.500000 0.500000
O O12 0.308756 0.552904 0.338044
O O13 0.246074 0.655201 0.685711
O O14 0.817549 0.500000 0.001790
O O15 0.155447 0.441327 0.166852
O O16 0.000000 0.418007 0.000000
O O17 0.420449 0.414298 0.663049
O O18 0.000000 0.377290 0.500000
#
# Coordination Sequence:
#
# PCOD8084606 Si02
#       8
#     8   8   4   4   8   8   8   8
#     4  11  22  39  59  86 120 156 195 244 290 354
#     4  10  22  39  63  85 117 152 199 240 296 354
#     4  10  18  38  64  84 110 150 205 242 280 335
#     4  12  22  38  59  88 117 157 193 241 293 344
#     4  11  22  40  60  89 117 157 196 242 295 346
#     4  10  20  35  59  87 117 157 198 239 295 356
#     4  10  19  36  64  87 114 148 202 244 277 341
#     4  10  19  38  60  83 116 155 191 240 290 343
#
# _framework density 19.106465
#
# number of rings (size 3 to 8) (size 9 to 14) (size 15 to 20)
#    0.000    1.571    3.571    4.286    0.000    0.286 
#    9.000    3.571    0.000    0.000    0.000    0.000 
#    0.000    0.000    0.000    0.000    0.000    0.000 
#
# Total GULP energy -346991.619363 kJ/mol
# GULP energy per Si atom -12392.557834 kJ/mol
# Density = 1.906298 g / cm^3
# Si number density = 19.106465 Si / 1000 Ang^3
#
#
#
# Elastic Constant Matrix: (Units=GPa)
#
#
# Indices 1 2 3 4 5 6 
#
# 1 87.4656 40.0339 41.1466 0.0000 -10.6455 0.0000
# 2 40.0339 154.9555 66.6015 0.0000 -10.6376 0.0000
# 3 41.1466 66.6015 118.1791 -0.0010 -12.3791 -0.0003
# 4 0.0000 0.0000 -0.0010 18.5956 -0.0003 -3.5499
# 5 -10.6455 -10.6376 -12.3791 -0.0003 30.7028 -0.0001
# 6 0.0000 0.0000 -0.0003 -3.5499 -0.0001 27.7607
#
#
#
# Elastic Compliance Matrix: (Units=1/GPa)
#
#
# Indices 1 2 3 4 5 6 
#
# 1 0.014374 -0.001973 -0.003594 0.000000 0.002851 0.000000
# 2 -0.001973 0.008820 -0.004213 0.000000 0.000673 0.000000
# 3 -0.003594 -0.004213 0.012325 0.000001 0.002263 0.000000
# 4 0.000000 0.000000 0.000001 0.055122 0.000001 0.007049
# 5 0.002851 0.000673 0.002263 0.000001 0.034705 0.000000
# 6 0.000000 0.000000 0.000000 0.007049 0.000000 0.036923
#
#
# Mechanical properties :
#
#
# Convention : Reuss Voigt Hill
#
# Bulk Modulus (GPa) = 62.66443 72.90712 67.78577
# Shear Modulus (GPa) = 26.71669 29.59971 28.15820
#
# Velocity S-wave (km/s) = 3.74345 3.94026 3.84311
# Velocity P-wave (km/s) = 7.18006 7.67737 7.43288
#
# Compressibility (1/GPa) = 0.01595802
#
# Stress axis : x y z
#
# Youngs Moduli (GPa) = 69.57051 113.37359 81.13853
#
# Poissons Ratio (x) = 0.22371 0.29161
# Poissons Ratio (y) = 0.13727 0.34187
# Poissons Ratio (z) = 0.25003 0.47768
#
# Static dielectric constant tensor:
#      x y z
#    x 3.732790 -0.000040 1.711700 
#    y -0.000040 4.178280 -0.000160 
#    z 1.711700 -0.000160 9.619500 
# 
# 
# High freq. dielectric constant tensor:
#      x y z
#    x 1.726340 0.000000 0.008340 
#    y 0.000000 1.760650 0.000000 
#    z 0.008340 0.000000 1.737750 
# 
# From -- ./inp_files/259907.got.cif
#   From: 2010.06.25/outbox.cif.g09.slc.cpg/sg12_130_cif.got.tgz:259907.got - 2010.06.28 00:19:55.
