data_PCOD8084366
_publ_section_title
;
Structure prediction by ZEFSAII (Michael W. Deem and Ramdas Pophale) SiO2 
 PCOD8084366
Probable space group: C 2/M
;
_chemical_formula_sum "Si O2"
_cell_formula_units_Z 64
_cell_length_a 20.035771
_cell_length_b 8.902498
_cell_length_c 18.999676
_cell_angle_alpha 90.000000
_cell_angle_beta 93.079368
_cell_angle_gamma 90.000000
_cell_volume 3384.048659
_symmetry_space_group_name_H-M "C 2/M"
_symmetry_group_IT_number 12
_symmetry_cell_setting 'monoclinic'
loop_
_space_group_symop_operation_xyz
x,y,z
-x,y,-z
-x,-y,-z
x,-y,z
1/2+x,1/2+y,z
1/2-x,1/2+y,-z
1/2-x,1/2-y,-z
1/2+x,1/2-y,z
loop_
_atom_site_type_symbol
_atom_site_label
_atom_site_fract_x
_atom_site_fract_y
_atom_site_fract_z
Si Si1 0.060927 0.675771 0.552729
Si Si2 0.983131 0.323423 0.294535
Si Si3 0.368242 0.324251 0.201544
Si Si4 0.300503 0.676330 0.448900
Si Si5 0.387821 0.321937 0.757511
Si Si6 0.247839 0.675348 0.292611
Si Si7 0.581287 0.323594 0.940011
Si Si8 0.932568 0.821638 0.909148
O O1 0.076267 0.500000 0.546947
O O2 0.043264 0.723361 0.630624
O O3 0.125733 0.764506 0.530477
O O4 0.000000 0.724541 0.500000
O O5 0.994065 0.500000 0.288536
O O6 0.929348 0.269570 0.235255
O O7 0.053592 0.243446 0.287101
O O8 0.383485 0.500000 0.214944
O O9 0.298943 0.277947 0.233567
O O10 0.364513 0.284619 0.117566
O O11 0.298851 0.500000 0.460347
O O12 0.250000 0.750000 0.500000
O O13 0.280532 0.720510 0.368449
O O14 0.392251 0.500000 0.755289
O O15 0.318325 0.270720 0.721049
O O16 0.394462 0.258745 0.838152
O O17 0.230141 0.500000 0.288494
O O18 0.572869 0.500000 0.947109
O O19 0.508711 0.260571 0.912833
O O20 0.601905 0.263542 0.019352
O O21 0.931118 0.000000 0.904484
#
# Coordination Sequence:
#
# PCOD8084366 Si02
#       8
#     8   8   8   8   8   8   8   8
#     4  10  23  42  62  86 116 149 184 229 285 338
#     4  11  22  36  58  85 116 146 183 236 287 333
#     4  10  18  35  60  83 108 146 194 234 275 337
#     4  11  24  42  63  86 116 152 191 232 275 335
#     4  11  22  36  57  83 114 150 193 235 275 335
#     4  10  23  40  57  80 115 152 186 230 284 333
#     4   8  13  25  51  81 108 139 183 233 280 329
#     4   8  14  26  48  81 111 140 182 234 279 325
#
# _framework density 18.912257
#
# number of rings (size 3 to 8) (size 9 to 14) (size 15 to 20)
#    0.000    2.125    2.500    1.875    1.750    2.250 
#    0.000    0.625    0.000    2.250    0.000    0.000 
#    0.000    0.000    0.000    0.000    0.000    0.000 
#
# Total GULP energy -396720.333480 kJ/mol
# GULP energy per Si atom -12397.510421 kJ/mol
# Density = 1.886921 g / cm^3
# Si number density = 18.912257 Si / 1000 Ang^3
#
#
#
# Elastic Constant Matrix: (Units=GPa)
#
#
# Indices 1 2 3 4 5 6 
#
# 1 129.2746 46.2670 55.7186 0.0000 -14.2702 0.0000
# 2 46.2670 49.4202 36.7474 0.0000 -6.6324 0.0000
# 3 55.7186 36.7474 106.3567 0.0000 -19.8703 0.0000
# 4 0.0000 0.0000 0.0000 19.8032 0.0000 -0.0415
# 5 -14.2702 -6.6324 -19.8703 0.0000 33.3857 0.0000
# 6 0.0000 0.0000 0.0000 -0.0415 0.0000 32.2682
#
#
#
# Elastic Compliance Matrix: (Units=1/GPa)
#
#
# Indices 1 2 3 4 5 6 
#
# 1 0.012553 -0.009245 -0.003063 0.000000 0.001706 0.000000
# 2 -0.009245 0.034041 -0.007193 0.000000 -0.001470 0.000000
# 3 -0.003063 -0.007193 0.014605 0.000000 0.005954 0.000000
# 4 0.000000 0.000000 0.000000 0.050497 0.000000 0.000065
# 5 0.001706 -0.001470 0.005954 0.000000 0.033934 0.000000
# 6 0.000000 0.000000 0.000000 0.000065 0.000000 0.030990
#
#
# Mechanical properties :
#
#
# Convention : Reuss Voigt Hill
#
# Bulk Modulus (GPa) = 45.05306 62.50196 53.77751
# Shear Modulus (GPa) = 22.41939 26.84598 24.63268
#
# Velocity S-wave (km/s) = 3.44676 3.77171 3.61289
# Velocity P-wave (km/s) = 6.30191 7.21720 6.77503
#
# Compressibility (1/GPa) = 0.02219605
#
# Stress axis : x y z
#
# Youngs Moduli (GPa) = 79.66262 29.37622 68.47132
#
# Poissons Ratio (x) = 0.27159 0.20974
# Poissons Ratio (y) = 0.73651 0.49250
# Poissons Ratio (z) = 0.24403 0.21130
#
# Static dielectric constant tensor:
#      x y z
#    x 3.382120 0.000000 -0.140490 
#    y 0.000000 3.198130 0.000000 
#    z -0.140490 0.000000 3.943420 
# 
# 
# High freq. dielectric constant tensor:
#      x y z
#    x 1.723500 0.000000 -0.011020 
#    y 0.000000 1.709260 0.000000 
#    z -0.011020 0.000000 1.754210 
# 
# From -- ./inp_files/314061.got.cif
#   From: 2010.06.25/outbox.cif.g09.slc.cpg/sg12_158_cif.got.tgz:314061.got - 2010.06.28 00:19:55.
