data_PCOD8084161
_publ_section_title
;
Structure prediction by ZEFSAII (Michael W. Deem and Ramdas Pophale) SiO2 
 PCOD8084161
Probable space group: C 2/M
;
_chemical_formula_sum "Si O2"
_cell_formula_units_Z 56
_cell_length_a 13.046854
_cell_length_b 13.733857
_cell_length_c 26.425926
_cell_angle_alpha 90.000000
_cell_angle_beta 143.728004
_cell_angle_gamma 90.000000
_cell_volume 2801.372098
_symmetry_space_group_name_H-M "C 2/M"
_symmetry_group_IT_number 12
_symmetry_cell_setting 'monoclinic'
loop_
_space_group_symop_operation_xyz
x,y,z
-x,y,-z
-x,-y,-z
x,-y,z
1/2+x,1/2+y,z
1/2-x,1/2+y,-z
1/2-x,1/2-y,-z
1/2+x,1/2-y,z
loop_
_atom_site_type_symbol
_atom_site_label
_atom_site_fract_x
_atom_site_fract_y
_atom_site_fract_z
Si Si1 0.743348 0.886137 0.208085
Si Si2 0.402803 0.700281 0.627010
Si Si3 0.130381 0.388437 0.446819
Si Si4 0.715188 0.108543 0.082649
Si Si5 0.734193 0.887824 0.657118
Si Si6 0.056137 0.276526 0.936589
Si Si7 0.071665 0.107170 0.166082
O O1 0.765279 0.853304 0.158073
O O2 0.547170 0.849358 0.143997
O O3 0.896482 0.830699 0.298155
O O4 0.762335 0.000000 0.225860
O O5 0.304430 0.635153 0.546446
O O6 0.386392 0.815203 0.607599
O O7 0.322324 0.681120 0.650464
O O8 0.134815 0.500000 0.428333
O O9 0.973284 0.375060 0.424557
O O10 0.883495 0.109635 0.115549
O O11 0.641228 0.000000 0.057627
O O12 0.563135 0.172152 0.994228
O O13 0.794741 0.858088 0.737656
O O14 0.788992 0.000000 0.667293
O O15 0.936173 0.178646 0.885843
O O16 0.250000 0.250000 0.000000
O O17 0.122041 0.000000 0.166333
#
# Coordination Sequence:
#
# PCOD8084161 Si02
#       7
#     8   8   8   8   8   8   8
#     4  11  20  33  55  82 107 136 181 239 290 332
#     4  11  21  35  60  88 116 150 196 243 283 342
#     4  10  22  37  57  87 121 156 192 236 293 349
#     4   9  17  31  51  75 101 130 169 221 278 327
#     4  10  18  34  59  85 113 148 194 241 286 338
#     4  10  20  31  47  74 107 140 171 217 282 349
#     4   9  17  31  51  74 101 136 179 224 267 322
#
# _framework density 19.990203999999999
#
# number of rings (size 3 to 8) (size 9 to 14) (size 15 to 20)
#    0.000    2.000    1.429    3.429    0.000    2.857 
#    0.000    0.000    0.000   14.571    0.000    0.000 
#    0.000    0.000    0.000    0.000    0.000    0.000 
#
# Total GULP energy -346869.279240 kJ/mol
# GULP energy per Si atom -12388.188544 kJ/mol
# Density = 1.994471 g / cm^3
# Si number density = 19.990204 Si / 1000 Ang^3
#
#
#
# Elastic Constant Matrix: (Units=GPa)
#
#
# Indices 1 2 3 4 5 6 
#
# 1 45.9134 39.3902 26.1184 0.0000 4.6555 0.0000
# 2 39.3902 147.1082 68.2367 0.0000 -13.7361 0.0000
# 3 26.1184 68.2367 145.6167 -0.0001 9.9629 0.0000
# 4 0.0000 0.0000 -0.0001 35.8794 0.0000 -5.6731
# 5 4.6555 -13.7361 9.9629 0.0000 27.7409 0.0000
# 6 0.0000 0.0000 0.0000 -5.6731 0.0000 23.9565
#
#
#
# Elastic Compliance Matrix: (Units=1/GPa)
#
#
# Indices 1 2 3 4 5 6 
#
# 1 0.030608 -0.008681 -0.000796 0.000000 -0.009149 0.000000
# 2 -0.008681 0.012207 -0.004794 0.000000 0.009223 0.000000
# 3 -0.000796 -0.004794 0.009647 0.000000 -0.005705 0.000000
# 4 0.000000 0.000000 0.000000 0.028955 0.000000 0.006857
# 5 -0.009149 0.009223 -0.005705 0.000000 0.044199 0.000000
# 6 0.000000 0.000000 0.000000 0.006857 0.000000 0.043366
#
#
# Mechanical properties :
#
#
# Convention : Reuss Voigt Hill
#
# Bulk Modulus (GPa) = 41.80620 67.34766 54.57693
# Shear Modulus (GPa) = 24.33106 31.17491 27.75298
#
# Velocity S-wave (km/s) = 3.49255 3.95335 3.73007
# Velocity P-wave (km/s) = 6.10104 7.38932 6.77587
#
# Compressibility (1/GPa) = 0.02391990
#
# Stress axis : x y z
#
# Youngs Moduli (GPa) = 32.67103 81.91904 103.65756
#
# Poissons Ratio (x) = 0.71111 0.08254
# Poissons Ratio (y) = 0.28361 0.49697
# Poissons Ratio (z) = 0.02601 0.39275
#
# Static dielectric constant tensor:
#      x y z
#    x 3.462750 0.000000 0.127230 
#    y 0.000000 4.102560 0.000000 
#    z 0.127230 0.000000 4.093990 
# 
# 
# High freq. dielectric constant tensor:
#      x y z
#    x 1.734900 0.000000 0.020430 
#    y 0.000000 1.778160 0.000000 
#    z 0.020430 0.000000 1.813180 
# 
# From -- ./inp_files/376404.got.cif
#   From: 2010.06.25/outbox.cif.g09.slc.cpg/sg12_189_cif.got.tgz:376404.got - 2010.06.28 00:19:55.
