data_PCOD8084254
_publ_section_title
;
Structure prediction by ZEFSAII (Michael W. Deem and Ramdas Pophale) SiO2 
 PCOD8084254
Probable space group: C 2/M
;
_chemical_formula_sum "Si O2"
_cell_formula_units_Z 52
_cell_length_a 13.985704
_cell_length_b 12.382473
_cell_length_c 20.712903
_cell_angle_alpha 90.000000
_cell_angle_beta 48.226122
_cell_angle_gamma 90.000000
_cell_volume 2675.120269
_symmetry_space_group_name_H-M "C 2/M"
_symmetry_group_IT_number 12
_symmetry_cell_setting 'monoclinic'
loop_
_space_group_symop_operation_xyz
x,y,z
-x,y,-z
-x,-y,-z
x,-y,z
1/2+x,1/2+y,z
1/2-x,1/2+y,-z
1/2-x,1/2-y,-z
1/2+x,1/2-y,z
loop_
_atom_site_type_symbol
_atom_site_label
_atom_site_fract_x
_atom_site_fract_y
_atom_site_fract_z
Si Si1 0.826226 0.373097 0.198474
Si Si2 0.626592 0.715345 0.517017
Si Si3 0.556637 0.500000 0.204780
Si Si4 0.615148 0.876203 0.095783
Si Si5 0.852430 0.274561 0.636366
Si Si6 0.750884 0.684054 0.094344
Si Si7 0.224941 0.000000 0.670460
Si Si8 0.087076 0.000000 0.605950
O O1 0.790615 0.500000 0.213229
O O2 0.718533 0.304336 0.282718
O O3 0.832044 0.327816 0.122996
O O4 0.963240 0.354877 0.170818
O O5 0.750000 0.750000 0.500000
O O6 0.502403 0.789949 0.587311
O O7 0.662066 0.716803 0.426068
O O8 0.585166 0.597940 0.557882
O O9 0.628683 0.606074 0.149222
O O10 0.416837 0.500000 0.234042
O O11 0.539189 0.500000 0.291027
O O12 0.694413 0.804676 0.111294
O O13 0.648557 0.000000 0.096219
O O14 0.654006 0.846616 0.005757
O O15 0.797019 0.394480 0.662394
O O16 0.212266 0.000000 0.597425
#
# Coordination Sequence:
#
# PCOD8084254 Si02
#       8
#     8   8   4   8   8   8   4   4
#     4  11  23  40  62  91 125 160 210 256 305 365
#     4  11  23  41  63  93 120 157 209 257 305 367
#     4  10  18  34  64  91 115 165 208 238 302 364
#     4  10  22  39  62  94 124 158 208 258 303 360
#     4  11  25  39  64  92 124 162 208 253 315 361
#     4  11  20  37  67  89 123 166 205 250 310 366
#     4  10  22  42  62  87 125 168 206 244 305 379
#     4  10  22  38  68  87 124 165 201 256 307 362
#
# _framework density 19.438378
#
# number of rings (size 3 to 8) (size 9 to 14) (size 15 to 20)
#    0.462    0.923    3.077    2.308    2.154    4.923 
#    1.385    0.000    0.000    1.846    0.000    0.000 
#    0.000    0.000    0.000    0.000    0.000    0.000 
#
# Total GULP energy -322359.397976 kJ/mol
# GULP energy per Si atom -12398.438384 kJ/mol
# Density = 1.939414 g / cm^3
# Si number density = 19.438378 Si / 1000 Ang^3
#
#
#
# Elastic Constant Matrix: (Units=GPa)
#
#
# Indices 1 2 3 4 5 6 
#
# 1 84.8953 36.8493 12.9437 0.0000 -12.8313 0.0000
# 2 36.8493 113.6438 28.2317 0.0000 2.2034 0.0000
# 3 12.9437 28.2317 76.3809 0.0000 -4.9027 0.0000
# 4 0.0000 0.0000 0.0000 -20.6750 0.0000 67.4218
# 5 -12.8313 2.2034 -4.9027 0.0000 27.9919 0.0000
# 6 0.0000 0.0000 0.0000 67.4218 0.0000 -58.1000
#
#
#
# Elastic Compliance Matrix: (Units=1/GPa)
#
#
# Indices 1 2 3 4 5 6 
#
# 1 0.015069 -0.004964 -0.000253 0.000000 0.007254 0.000000
# 2 -0.004964 0.011379 -0.003609 0.000000 -0.003803 0.000000
# 3 -0.000253 -0.003609 0.014645 0.000000 0.002733 0.000000
# 4 0.000000 0.000000 0.000000 0.017372 0.000000 0.020159
# 5 0.007254 -0.003803 0.002733 0.000000 0.039828 0.000000
# 6 0.000000 0.000000 0.000000 0.020159 0.000000 0.006182
#
#
# Mechanical properties :
#
#
# Convention : Reuss Voigt Hill
#
# Bulk Modulus (GPa) = 42.66111 47.88549 45.27330
# Shear Modulus (GPa) = 38.47943 2.96972 20.72457
#
# Velocity S-wave (km/s) = 4.45405 1.23737 3.26876
# Velocity P-wave (km/s) = 6.96031 5.17005 6.13088
#
# Compressibility (1/GPa) = 0.02344055
#
# Stress axis : x y z
#
# Youngs Moduli (GPa) = 66.36245 87.87940 68.28485
#
# Poissons Ratio (x) = 0.43622 0.01729
# Poissons Ratio (y) = 0.32941 0.24643
# Poissons Ratio (z) = 0.01681 0.31715
#
# Static dielectric constant tensor:
#      x y z
#    x 3.450270 0.000000 -0.224250 
#    y 0.000000 3.580160 0.000000 
#    z -0.224250 0.000000 3.564160 
# 
# 
# High freq. dielectric constant tensor:
#      x y z
#    x 1.755540 0.000000 -0.014430 
#    y 0.000000 1.759350 0.000000 
#    z -0.014430 0.000000 1.760980 
# 
# From -- ./inp_files/309807.got.cif
#   From: 2010.06.25/outbox.cif.g09.slc.cpg/sg12_155_cif.got.tgz:309807.got - 2010.06.28 00:19:55.
