data_PCOD8084091
_publ_section_title
;
Structure prediction by ZEFSAII (Michael W. Deem and Ramdas Pophale) SiO2 
 PCOD8084091
Probable space group: C 2/M
;
_chemical_formula_sum "Si O2"
_cell_formula_units_Z 64
_cell_length_a 14.483954
_cell_length_b 9.109922
_cell_length_c 27.118585
_cell_angle_alpha 90.000000
_cell_angle_beta 105.955344
_cell_angle_gamma 90.000000
_cell_volume 3440.387604
_symmetry_space_group_name_H-M "C 2/M"
_symmetry_group_IT_number 12
_symmetry_cell_setting 'monoclinic'
loop_
_space_group_symop_operation_xyz
x,y,z
-x,y,-z
-x,-y,-z
x,-y,z
1/2+x,1/2+y,z
1/2-x,1/2+y,-z
1/2-x,1/2-y,-z
1/2+x,1/2-y,z
loop_
_atom_site_type_symbol
_atom_site_label
_atom_site_fract_x
_atom_site_fract_y
_atom_site_fract_z
Si Si1 0.860168 0.171237 0.708239
Si Si2 0.791945 0.327853 0.553559
Si Si3 0.185272 0.829314 0.637977
Si Si4 0.601988 0.331869 0.901229
Si Si5 0.588065 0.674489 0.176157
Si Si6 0.467765 0.327626 0.625598
Si Si7 0.800169 0.667733 0.886761
Si Si8 0.887718 0.836442 0.989821
O O1 0.757997 0.248718 0.685360
O O2 0.904554 0.226846 0.766260
O O3 0.938194 0.209043 0.677552
O O4 0.837840 0.000000 0.706089
O O5 0.803812 0.500000 0.545599
O O6 0.750000 0.250000 0.500000
O O7 0.717214 0.296047 0.586736
O O8 0.896741 0.260819 0.579445
O O9 0.076490 0.773484 0.631314
O O10 0.192004 0.000000 0.651404
O O11 0.576345 0.500000 0.909555
O O12 0.508590 0.258786 0.862556
O O13 0.685994 0.317953 0.874063
O O14 0.632067 0.264253 0.958854
O O15 0.590457 0.500000 0.173492
O O16 0.675740 0.739498 0.158063
O O17 0.457092 0.500000 0.612422
O O18 0.833011 0.500000 0.884993
O O19 0.847110 0.728323 0.943173
O O20 0.841569 0.000000 0.977488
O O21 0.000000 0.849270 0.000000
#
# Coordination Sequence:
#
# PCOD8084091 Si02
#       8
#     8   8   8   8   8   8   8   8
#     4   9  19  34  56  79 100 131 175 221 258 302
#     4  10  20  34  52  79 113 148 179 218 262 306
#     4   9  19  35  56  79 107 140 175 216 267 313
#     4   9  19  35  54  75 101 135 170 203 251 313
#     4  10  20  38  56  73 102 139 173 205 252 318
#     4   9  18  35  56  79 104 139 181 219 261 312
#     4  11  22  34  52  80 106 129 165 216 259 298
#     4  10  18  34  58  75  96 137 172 199 249 316
#
# _framework density 18.602556
#
# number of rings (size 3 to 8) (size 9 to 14) (size 15 to 20)
#    0.000    2.375    1.250    1.125    0.000    3.250 
#    0.000    6.875    0.000    0.000    0.000    0.000 
#    0.000    0.000    0.000    0.000    0.000    0.000 
#
# Total GULP energy -396765.392767 kJ/mol
# GULP energy per Si atom -12398.918524 kJ/mol
# Density = 1.856022 g / cm^3
# Si number density = 18.602556 Si / 1000 Ang^3
#
#
#
# Elastic Constant Matrix: (Units=GPa)
#
#
# Indices 1 2 3 4 5 6 
#
# 1 111.9926 31.6794 42.8905 0.0000 -3.5786 0.0000
# 2 31.6794 43.9935 42.3415 0.0000 4.1173 0.0000
# 3 42.8905 42.3415 128.0482 0.0000 0.5228 0.0000
# 4 0.0000 0.0000 0.0000 6.4730 0.0000 -11.1357
# 5 -3.5786 4.1173 0.5228 0.0000 17.0024 0.0000
# 6 0.0000 0.0000 0.0000 -11.1357 0.0000 21.5056
#
#
#
# Elastic Compliance Matrix: (Units=1/GPa)
#
#
# Indices 1 2 3 4 5 6 
#
# 1 0.011738 -0.007415 -0.001497 0.000000 0.004312 0.000000
# 2 -0.007415 0.039075 -0.010394 0.000000 -0.010704 0.000000
# 3 -0.001497 -0.010394 0.011740 0.000000 0.001841 0.000000
# 4 0.000000 0.000000 0.000000 1.414589 0.000000 0.732481
# 5 0.004312 -0.010704 0.001841 0.000000 0.062258 0.000000
# 6 0.000000 0.000000 0.000000 0.732481 0.000000 0.425782
#
#
# Mechanical properties :
#
#
# Convention : Reuss Voigt Hill
#
# Bulk Modulus (GPa) = 41.76792 57.53969 49.65380
# Shear Modulus (GPa) = 2.48537 20.13772 11.31154
#
# Velocity S-wave (km/s) = 1.15712 3.29374 2.46857
# Velocity P-wave (km/s) = 4.92816 6.74264 5.90551
#
# Compressibility (1/GPa) = 0.02394182
#
# Stress axis : x y z
#
# Youngs Moduli (GPa) = 85.19460 25.59186 85.17555
#
# Poissons Ratio (x) = 0.18975 0.12755
# Poissons Ratio (y) = 0.63169 0.88528
# Poissons Ratio (z) = 0.12758 0.26599
#
# Static dielectric constant tensor:
#      x y z
#    x 3.565860 0.000000 -0.040100 
#    y 0.000000 3.323950 0.000000 
#    z -0.040100 0.000000 3.540000 
# 
# 
# High freq. dielectric constant tensor:
#      x y z
#    x 1.726040 0.000000 -0.004400 
#    y 0.000000 1.706250 0.000000 
#    z -0.004400 0.000000 1.723450 
# 
# From -- ./inp_files/359901.got.cif
#   From: 2010.06.25/outbox.cif.g09.slc.cpg/sg12_180_cif.got.tgz:359901.got - 2010.06.28 00:19:55.
