data_PCOD8084148
_publ_section_title
;
Structure prediction by ZEFSAII (Michael W. Deem and Ramdas Pophale) SiO2 
 PCOD8084148
Probable space group: C 2/M
;
_chemical_formula_sum "Si O2"
_cell_formula_units_Z 52
_cell_length_a 8.114040
_cell_length_b 28.451475
_cell_length_c 11.718716
_cell_angle_alpha 90.000000
_cell_angle_beta 98.273163
_cell_angle_gamma 90.000000
_cell_volume 2677.186982
_symmetry_space_group_name_H-M "C 2/M"
_symmetry_group_IT_number 12
_symmetry_cell_setting 'monoclinic'
loop_
_space_group_symop_operation_xyz
x,y,z
-x,y,-z
-x,-y,-z
x,-y,z
1/2+x,1/2+y,z
1/2-x,1/2+y,-z
1/2-x,1/2-y,-z
1/2+x,1/2-y,z
loop_
_atom_site_type_symbol
_atom_site_label
_atom_site_fract_x
_atom_site_fract_y
_atom_site_fract_z
Si Si1 0.688934 0.167059 0.521192
Si Si2 0.695471 0.052255 0.033538
Si Si3 0.000000 0.102426 0.500000
Si Si4 0.383915 0.403593 0.251974
Si Si5 0.657111 0.206866 0.762313
Si Si6 0.716844 0.196037 0.280149
Si Si7 0.134371 0.870666 0.101042
O O1 0.500000 0.144058 0.500000
O O2 0.707508 0.195939 0.638080
O O3 0.711557 0.202638 0.416955
O O4 0.841164 0.130659 0.532942
O O5 0.754169 0.064306 0.169010
O O6 0.763899 0.000000 0.012378
O O7 0.500000 0.052871 0.000000
O O8 0.758932 0.089450 0.949248
O O9 0.070307 0.073945 0.618156
O O10 0.304065 0.352569 0.259946
O O11 0.555301 0.397067 0.201090
O O12 0.471403 0.195089 0.782298
O O13 0.687031 0.262652 0.776872
O O14 0.764952 0.175571 0.857528
O O15 0.000000 0.850871 0.000000
#
# Coordination Sequence:
#
# PCOD8084148 Si02
#       7
#     8   8   4   8   8   8   8
#     4   9  19  31  50  79 112 160 206 240 282 336
#     4  10  22  42  67  89 111 143 189 244 297 357
#     4  10  18  34  59  82 126 160 192 250 287 354
#     4  10  20  37  57  88 117 153 196 236 296 345
#     4  11  19  34  49  77 116 154 199 240 283 328
#     4  10  21  31  52  78 114 156 194 236 281 341
#     4  10  21  36  58  83 112 147 193 238 286 346
#
# _framework density 19.423372000000001
#
# number of rings (size 3 to 8) (size 9 to 14) (size 15 to 20)
#    0.000    2.000    1.538    2.308    2.154    2.769 
#    1.385    8.077    0.000    0.000    0.000    2.154 
#    0.000    0.000    0.000    0.000    0.000    0.000 
#
# Total GULP energy -322158.372160 kJ/mol
# GULP energy per Si atom -12390.706622 kJ/mol
# Density = 1.937916 g / cm^3
# Si number density = 19.423372 Si / 1000 Ang^3
#
#
#
# Elastic Constant Matrix: (Units=GPa)
#
#
# Indices 1 2 3 4 5 6 
#
# 1 83.3760 26.5072 33.8569 0.0000 7.2974 0.0000
# 2 26.5072 83.2758 40.2844 0.0000 5.6865 0.0000
# 3 33.8569 40.2844 104.2980 0.0000 11.2745 0.0000
# 4 0.0000 0.0000 0.0000 111.6662 0.0000 85.6000
# 5 7.2974 5.6865 11.2745 0.0000 29.7396 0.0000
# 6 0.0000 0.0000 0.0000 85.6000 0.0000 69.3794
#
#
#
# Elastic Compliance Matrix: (Units=1/GPa)
#
#
# Indices 1 2 3 4 5 6 
#
# 1 0.014425 -0.002827 -0.003406 0.000000 -0.001708 0.000000
# 2 -0.002827 0.015335 -0.004967 0.000000 -0.000355 0.000000
# 3 -0.003406 -0.004967 0.012950 0.000000 -0.003124 0.000000
# 4 0.000000 0.000000 0.000000 0.165201 0.000000 -0.203824
# 5 -0.001708 -0.000355 -0.003124 0.000000 0.035296 0.000000
# 6 0.000000 0.000000 0.000000 -0.203824 0.000000 0.265890
#
#
# Mechanical properties :
#
#
# Convention : Reuss Voigt Hill
#
# Bulk Modulus (GPa) = 49.23776 52.47187 50.85482
# Shear Modulus (GPa) = 9.28905 53.51047 31.39976
#
# Velocity S-wave (km/s) = 2.18924 5.25446 4.02505
# Velocity P-wave (km/s) = 5.63872 7.99287 6.91669
#
# Compressibility (1/GPa) = 0.02030962
#
# Stress axis : x y z
#
# Youngs Moduli (GPa) = 69.32254 65.20924 77.22194
#
# Poissons Ratio (x) = 0.18437 0.26302
# Poissons Ratio (y) = 0.19600 0.38355
# Poissons Ratio (z) = 0.23612 0.32389
#
# Static dielectric constant tensor:
#      x y z
#    x 4.373770 0.000000 -0.018980 
#    y 0.000000 3.283530 0.000000 
#    z -0.018980 0.000000 3.912610 
# 
# 
# High freq. dielectric constant tensor:
#      x y z
#    x 1.774050 0.000000 0.006820 
#    y 0.000000 1.716370 0.000000 
#    z 0.006820 0.000000 1.764990 
# 
# From -- ./inp_files/123768.got.cif
#   From: 2010.06.25/outbox.cif.g09.slc.cpg/sg12_62_cif.got.tgz:123768.got - 2010.06.28 00:19:55.
