data_PCOD8084764
_publ_section_title
;
Structure prediction by ZEFSAII (Michael W. Deem and Ramdas Pophale) SiO2 
 PCOD8084764
Probable space group: C 2/M
;
_chemical_formula_sum "Si O2"
_cell_formula_units_Z 64
_cell_length_a 33.269058
_cell_length_b 9.194057
_cell_length_c 23.255998
_cell_angle_alpha 90.000000
_cell_angle_beta 30.501408
_cell_angle_gamma 90.000000
_cell_volume 3610.519291
_symmetry_space_group_name_H-M "C 2/M"
_symmetry_group_IT_number 12
_symmetry_cell_setting 'monoclinic'
loop_
_space_group_symop_operation_xyz
x,y,z
-x,y,-z
-x,-y,-z
x,-y,z
1/2+x,1/2+y,z
1/2-x,1/2+y,-z
1/2-x,1/2-y,-z
1/2+x,1/2-y,z
loop_
_atom_site_type_symbol
_atom_site_label
_atom_site_fract_x
_atom_site_fract_y
_atom_site_fract_z
Si Si1 0.875936 0.328352 0.983465
Si Si2 0.008750 0.829390 0.340587
Si Si3 0.371571 0.839762 0.724464
Si Si4 0.219341 0.159318 0.985873
Si Si5 0.272920 0.671064 0.759142
Si Si6 0.991772 0.832339 0.229025
Si Si7 0.667505 0.671391 0.434992
Si Si8 0.690155 0.669949 0.532564
O O1 0.881453 0.500000 0.971520
O O2 0.964452 0.260463 0.876070
O O3 0.848149 0.257613 0.958249
O O4 0.814711 0.282750 0.109782
O O5 0.070040 0.743954 0.304967
O O6 0.021801 0.795140 0.256915
O O7 0.921648 0.772019 0.465877
O O8 0.019444 0.000000 0.339864
O O9 0.288811 0.866190 0.856288
O O10 0.348547 0.746994 0.696292
O O11 0.406490 0.000000 0.665044
O O12 0.185628 0.000000 0.046337
O O13 0.250000 0.250000 0.000000
O O14 0.285044 0.500000 0.753883
O O15 0.275985 0.714332 0.688007
O O16 0.899180 0.796183 0.337719
O O17 0.008353 0.000000 0.195067
O O18 0.659845 0.500000 0.452092
O O19 0.702800 0.730795 0.451694
O O20 0.708485 0.500000 0.513313
O O21 0.750000 0.750000 0.500000
#
# Coordination Sequence:
#
# PCOD8084764 Si02
#       8
#     8   8   8   8   8   8   8   8
#     4  10  19  29  45  69  93 121 160 200 237 279
#     4   9  17  30  48  67  88 122 166 204 239 281
#     4  10  20  30  40  61  94 127 160 202 246 281
#     4  10  19  29  41  58  85 123 164 205 247 284
#     4   9  18  33  50  66  89 127 170 203 231 271
#     4   9  18  32  50  72  99 128 156 191 238 288
#     4   8  16  33  54  72  92 122 160 197 233 279
#     4   9  18  34  57  83 104 122 148 186 236 289
#
# _framework density 17.725981999999998
#
# number of rings (size 3 to 8) (size 9 to 14) (size 15 to 20)
#    0.000    2.750    0.000    3.375    0.000    5.500 
#    0.000    5.625    0.000    0.750    0.000    5.250 
#    0.000    0.000    0.000    0.000    0.000    0.000 
#
# Total GULP energy -396435.453913 kJ/mol
# GULP energy per Si atom -12388.607935 kJ/mol
# Density = 1.768564 g / cm^3
# Si number density = 17.725982 Si / 1000 Ang^3
#
#
#
# Elastic Constant Matrix: (Units=GPa)
#
#
# Indices 1 2 3 4 5 6 
#
# 1 100.3831 45.9268 56.5355 0.0036 -8.9422 0.0003
# 2 45.9268 74.0479 49.7290 -0.0014 -1.4693 0.0026
# 3 56.5355 49.7290 103.8740 -0.0031 6.3550 -0.0016
# 4 0.0036 -0.0014 -0.0031 23.6245 0.0023 -5.0989
# 5 -8.9422 -1.4693 6.3550 0.0023 21.2483 -0.0002
# 6 0.0003 0.0026 -0.0016 -5.0989 -0.0002 24.3968
#
#
#
# Elastic Compliance Matrix: (Units=1/GPa)
#
#
# Indices 1 2 3 4 5 6 
#
# 1 0.017566 -0.005769 -0.007362 -0.000005 0.009196 -0.000001
# 2 -0.005769 0.022193 -0.007569 0.000000 0.001371 -0.000003
# 3 -0.007362 -0.007569 0.017805 0.000005 -0.008946 0.000003
# 4 -0.000005 0.000000 0.000005 0.044329 -0.000008 0.009265
# 5 0.009196 0.001371 -0.008946 -0.000008 0.053703 -0.000002
# 6 -0.000001 -0.000003 0.000003 0.009265 -0.000002 0.042925
#
#
# Mechanical properties :
#
#
# Convention : Reuss Voigt Hill
#
# Bulk Modulus (GPa) = 61.86026 64.74306 63.30166
# Shear Modulus (GPa) = 20.38256 22.26150 21.32203
#
# Velocity S-wave (km/s) = 3.39465 3.54767 3.47200
# Velocity P-wave (km/s) = 7.09498 7.30650 7.20152
#
# Compressibility (1/GPa) = 0.01616547
#
# Stress axis : x y z
#
# Youngs Moduli (GPa) = 56.92697 45.05917 56.16517
#
# Poissons Ratio (x) = 0.25994 0.41347
# Poissons Ratio (y) = 0.32840 0.42510
# Poissons Ratio (z) = 0.41908 0.34104
#
# Static dielectric constant tensor:
#      x y z
#    x 3.061620 -0.000010 0.085520 
#    y -0.000010 3.313660 0.000030 
#    z 0.085520 0.000030 3.352930 
# 
# 
# High freq. dielectric constant tensor:
#      x y z
#    x 1.653370 0.000000 0.005900 
#    y 0.000000 1.677610 0.000000 
#    z 0.005900 0.000000 1.690330 
# 
# From -- ./inp_files/353393.got.cif
#   From: 2010.06.25/outbox.cif.g09.slc.cpg/sg12_177_cif.got.tgz:353393.got - 2010.06.28 00:19:55.
