data_PCOD8084486
_publ_section_title
;
Structure prediction by ZEFSAII (Michael W. Deem and Ramdas Pophale) SiO2 
 PCOD8084486
Probable space group: C 2/M
;
_chemical_formula_sum "Si O2"
_cell_formula_units_Z 64
_cell_length_a 14.796506
_cell_length_b 24.065390
_cell_length_c 17.338196
_cell_angle_alpha 90.000000
_cell_angle_beta 146.100501
_cell_angle_gamma 90.000000
_cell_volume 3443.389145
_symmetry_space_group_name_H-M "C 2/M"
_symmetry_group_IT_number 12
_symmetry_cell_setting 'monoclinic'
loop_
_space_group_symop_operation_xyz
x,y,z
-x,y,-z
-x,-y,-z
x,-y,z
1/2+x,1/2+y,z
1/2-x,1/2+y,-z
1/2-x,1/2-y,-z
1/2+x,1/2-y,z
loop_
_atom_site_type_symbol
_atom_site_label
_atom_site_fract_x
_atom_site_fract_y
_atom_site_fract_z
Si Si1 0.761481 0.437928 0.174397
Si Si2 0.466327 0.259538 0.712709
Si Si3 0.288118 0.391375 0.388685
Si Si4 0.357868 0.631860 0.132895
Si Si5 0.627165 0.733714 0.528716
Si Si6 0.456750 0.561691 0.846576
Si Si7 0.940087 0.634496 0.190068
Si Si8 0.913935 0.935470 0.320745
O O1 0.837082 0.500000 0.229681
O O2 0.703067 0.420202 0.218724
O O3 0.890914 0.393353 0.236375
O O4 0.608840 0.437737 0.010473
O O5 0.600178 0.303143 0.835330
O O6 0.449109 0.269851 0.609754
O O7 0.296502 0.267634 0.639152
O O8 0.536634 0.199118 0.778552
O O9 0.336201 0.327242 0.412257
O O10 0.314173 0.423894 0.327736
O O11 0.397697 0.419406 0.532935
O O12 0.101797 0.396871 0.279063
O O13 0.512485 0.602953 0.202041
O O14 0.334975 0.603276 0.199395
O O15 0.191576 0.623953 0.969313
O O16 0.500000 0.761579 0.500000
O O17 0.431894 0.500000 0.795001
O O18 0.898187 0.000000 0.286532
#
# Coordination Sequence:
#
# PCOD8084486 Si02
#       8
#     8   8   8   8   8   8   8   8
#     4   8  15  30  50  73 102 138 173 215 264 325
#     4  10  21  34  55  82 113 144 189 229 278 341
#     4  10  19  38  57  80 109 144 192 235 282 331
#     4  11  20  36  54  83 117 148 181 232 285 336
#     4  10  18  36  59  79 104 148 189 235 279 328
#     4   8  15  29  50  73 101 138 179 211 260 326
#     4  10  22  34  57  83 114 147 183 231 287 340
#     4  11  22  37  60  83 111 152 196 237 285 338
#
# _framework density 18.58634
#
# number of rings (size 3 to 8) (size 9 to 14) (size 15 to 20)
#    0.000    2.250    2.500    2.250    0.000    3.000 
#    0.000    0.625    0.000    4.500    0.000    2.625 
#    0.000    0.000    0.000    0.000    0.000    0.000 
#
# Total GULP energy -396673.787085 kJ/mol
# GULP energy per Si atom -12396.055846 kJ/mol
# Density = 1.854404 g / cm^3
# Si number density = 18.586340 Si / 1000 Ang^3
#
#
#
# Elastic Constant Matrix: (Units=GPa)
#
#
# Indices 1 2 3 4 5 6 
#
# 1 110.6427 36.9018 39.6379 0.0001 20.9464 0.0000
# 2 36.9018 84.1563 22.8707 0.0000 13.6691 0.0000
# 3 39.6379 22.8707 60.6081 -0.0001 17.7913 0.0000
# 4 0.0001 0.0000 -0.0001 8.5633 -0.0001 -0.7137
# 5 20.9464 13.6691 17.7913 -0.0001 24.5506 0.0000
# 6 0.0000 0.0000 0.0000 -0.7137 0.0000 28.7731
#
#
#
# Elastic Compliance Matrix: (Units=1/GPa)
#
#
# Indices 1 2 3 4 5 6 
#
# 1 0.013245 -0.003373 -0.005873 0.000000 -0.005167 0.000000
# 2 -0.003373 0.014553 -0.002226 0.000000 -0.003612 0.000000
# 3 -0.005873 -0.002226 0.024573 0.000000 -0.011557 0.000000
# 4 0.000000 0.000000 0.000000 0.117019 0.000000 0.002902
# 5 -0.005167 -0.003612 -0.011557 0.000000 0.055527 0.000000
# 6 0.000000 0.000000 0.000000 0.002902 0.000000 0.034827
#
#
# Mechanical properties :
#
#
# Convention : Reuss Voigt Hill
#
# Bulk Modulus (GPa) = 33.98026 50.46976 42.22501
# Shear Modulus (GPa) = 17.09426 22.77718 19.93572
#
# Velocity S-wave (km/s) = 3.03598 3.50448 3.27861
# Velocity P-wave (km/s) = 5.53278 6.60215 6.09098
#
# Compressibility (1/GPa) = 0.02942885
#
# Stress axis : x y z
#
# Youngs Moduli (GPa) = 75.49958 68.71394 40.69530
#
# Poissons Ratio (x) = 0.23174 0.23900
# Poissons Ratio (y) = 0.25463 0.09057
# Poissons Ratio (z) = 0.44341 0.15293
#
# Static dielectric constant tensor:
#      x y z
#    x 3.713320 0.000000 0.127210 
#    y 0.000000 3.425860 0.000000 
#    z 0.127210 0.000000 3.213910 
# 
# 
# High freq. dielectric constant tensor:
#      x y z
#    x 1.729090 0.000000 0.003120 
#    y 0.000000 1.720260 0.000000 
#    z 0.003120 0.000000 1.696980 
# 
# From -- ./inp_files/272887.got.cif
#   From: 2010.06.25/outbox.cif.g09.slc.cpg/sg12_137_cif.got.tgz:272887.got - 2010.06.28 00:19:55.
