data_PCOD8084760
_publ_section_title
;
Structure prediction by ZEFSAII (Michael W. Deem and Ramdas Pophale) SiO2 
 PCOD8084760
Probable space group: C 2/M
;
_chemical_formula_sum "Si O2"
_cell_formula_units_Z 48
_cell_length_a 17.892856
_cell_length_b 30.209884
_cell_length_c 5.989277
_cell_angle_alpha 90.000000
_cell_angle_beta 102.894405
_cell_angle_gamma 90.000000
_cell_volume 3155.811584
_symmetry_space_group_name_H-M "C 2/M"
_symmetry_group_IT_number 12
_symmetry_cell_setting 'monoclinic'
loop_
_space_group_symop_operation_xyz
x,y,z
-x,y,-z
-x,-y,-z
x,-y,z
1/2+x,1/2+y,z
1/2-x,1/2+y,-z
1/2-x,1/2-y,-z
1/2+x,1/2-y,z
loop_
_atom_site_type_symbol
_atom_site_label
_atom_site_fract_x
_atom_site_fract_y
_atom_site_fract_z
Si Si1 0.883035 0.372322 0.755356
Si Si2 0.282234 0.184932 0.403978
Si Si3 0.918515 0.548651 0.063186
Si Si4 0.113128 0.704376 0.908752
Si Si5 0.863718 0.233583 0.693321
Si Si6 0.500000 0.091248 0.500000
Si Si7 0.500000 0.244643 0.500000
O O1 0.808471 0.359244 0.555961
O O2 0.956268 0.378368 0.646756
O O3 0.865369 0.416142 0.893266
O O4 0.910583 0.332682 0.931142
O O5 0.310514 0.186339 0.165711
O O6 0.189510 0.189510 0.347308
O O7 0.319763 0.226746 0.546502
O O8 0.879021 0.500000 0.031711
O O9 0.934767 0.562087 0.331140
O O10 0.000000 0.546509 0.000000
O O11 0.045686 0.711050 0.687878
O O12 0.124255 0.751572 0.041542
O O13 0.943103 0.224614 0.611757
#
# Coordination Sequence:
#
# PCOD8084760 Si02
#       7
#     8   8   8   8   8   4   4
#     4  10  20  29  41  60  79 104 137 174 207 238
#     4   9  18  30  42  57  78 105 136 169 205 242
#     4   9  18  30  42  57  78 105 136 169 205 242
#     4  10  19  29  41  58  80 106 138 172 205 238
#     4   9  18  30  42  57  78 105 136 169 205 242
#     4  10  19  29  41  58  80 106 138 172 205 238
#     4  10  20  29  41  60  79 104 137 174 207 238
#
# _framework density 15.210032999999999
#
# number of rings (size 3 to 8) (size 9 to 14) (size 15 to 20)
#    0.000    2.500    0.000    2.250    0.000   22.000 
#    0.000    0.000    0.000    0.000    0.000    0.000 
#    0.000    0.000    0.000    0.750    0.000   11.000 
#
# Total GULP energy -297417.996116 kJ/mol
# GULP energy per Si atom -12392.416505 kJ/mol
# Density = 1.517541 g / cm^3
# Si number density = 15.210033 Si / 1000 Ang^3
#
#
#
# Elastic Constant Matrix: (Units=GPa)
#
#
# Indices 1 2 3 4 5 6 
#
# 1 82.2313 34.6551 35.4145 0.0000 -6.3451 0.0000
# 2 34.6551 72.9484 42.6227 0.0000 8.2684 0.0000
# 3 35.4145 42.6227 96.1246 0.0000 -8.9738 0.0000
# 4 0.0000 0.0000 0.0000 22.6257 0.0000 7.3292
# 5 -6.3451 8.2684 -8.9738 0.0000 15.6948 0.0000
# 6 0.0000 0.0000 0.0000 7.3292 0.0000 11.7461
#
#
#
# Elastic Compliance Matrix: (Units=1/GPa)
#
#
# Indices 1 2 3 4 5 6 
#
# 1 0.017216 -0.008404 -0.001640 0.000000 0.010450 0.000000
# 2 -0.008404 0.026855 -0.011038 0.000000 -0.023857 0.000000
# 3 -0.001640 -0.011038 0.017307 0.000000 0.015048 0.000000
# 4 0.000000 0.000000 0.000000 0.055394 0.000000 -0.034564
# 5 0.010450 -0.023857 0.015048 0.000000 0.089112 0.000000
# 6 0.000000 0.000000 0.000000 -0.034564 0.000000 0.106701
#
#
# Mechanical properties :
#
#
# Convention : Reuss Voigt Hill
#
# Bulk Modulus (GPa) = 52.05497 52.96543 52.51020
# Shear Modulus (GPa) = 13.84451 19.25414 16.54932
#
# Velocity S-wave (km/s) = 3.02026 3.56179 3.30214
# Velocity P-wave (km/s) = 6.81623 7.19815 7.00979
#
# Compressibility (1/GPa) = 0.01921046
#
# Stress axis : x y z
#
# Youngs Moduli (GPa) = 58.08712 37.23760 57.78044
#
# Poissons Ratio (x) = 0.31296 0.09479
# Poissons Ratio (y) = 0.48819 0.63780
# Poissons Ratio (z) = 0.09529 0.41104
#
# Static dielectric constant tensor:
#      x y z
#    x 3.005840 0.000000 -0.173700 
#    y 0.000000 2.954660 0.000000 
#    z -0.173700 0.000000 3.544330 
# 
# 
# High freq. dielectric constant tensor:
#      x y z
#    x 1.544370 0.000000 -0.020050 
#    y 0.000000 1.538470 0.000000 
#    z -0.020050 0.000000 1.606540 
# 
# From -- ./inp_files/18017.got.cif
#   From: 2010.06.25/outbox.cif.g09.slc.cpg/sg12_10_cif.got.tgz:18017.got - 2010.06.28 00:19:55.
