data_PCOD8084586
_publ_section_title
;
Structure prediction by ZEFSAII (Michael W. Deem and Ramdas Pophale) SiO2 
 PCOD8084586
Probable space group: C 2/M
;
_chemical_formula_sum "Si O2"
_cell_formula_units_Z 56
_cell_length_a 13.333116
_cell_length_b 27.035867
_cell_length_c 9.907175
_cell_angle_alpha 90.000000
_cell_angle_beta 129.711818
_cell_angle_gamma 90.000000
_cell_volume 2747.257316
_symmetry_space_group_name_H-M "C 2/M"
_symmetry_group_IT_number 12
_symmetry_cell_setting 'monoclinic'
loop_
_space_group_symop_operation_xyz
x,y,z
-x,y,-z
-x,-y,-z
x,-y,z
1/2+x,1/2+y,z
1/2-x,1/2+y,-z
1/2-x,1/2-y,-z
1/2+x,1/2-y,z
loop_
_atom_site_type_symbol
_atom_site_label
_atom_site_fract_x
_atom_site_fract_y
_atom_site_fract_z
Si Si1 0.370201 0.000000 0.977239
Si Si2 0.023924 0.500000 0.362313
Si Si3 0.634602 0.376757 0.169483
Si Si4 0.246904 0.168584 0.019326
Si Si5 0.015927 0.776351 0.159631
Si Si6 0.842414 0.603920 0.864299
Si Si7 0.013654 0.698910 0.360303
Si Si8 0.827785 0.600699 0.550725
O O1 0.393766 0.000000 0.159634
O O2 0.500000 0.000000 0.000000
O O3 0.294051 0.950026 0.873426
O O4 0.097139 0.549346 0.381597
O O5 0.000000 0.500000 0.500000
O O6 0.728533 0.372621 0.120726
O O7 0.610674 0.322662 0.213286
O O8 0.703918 0.408181 0.346248
O O9 0.500000 0.401407 0.000000
O O10 0.374059 0.199001 0.168121
O O11 0.272376 0.143754 0.897405
O O12 0.121974 0.203937 0.901275
O O13 0.086003 0.739888 0.328197
O O14 0.000000 0.749012 0.000000
O O15 0.785150 0.613100 0.665961
O O16 0.000000 0.609436 0.000000
O O17 0.083159 0.645679 0.426466
O O18 0.000000 0.719133 0.500000
#
# Coordination Sequence:
#
# PCOD8084586 Si02
#       8
#     4   4   8   8   8   8   8   8
#     4  10  18  38  52  87 138 149 181 241 314 364
#     4  12  24  36  61  97 128 158 195 246 311 368
#     4   9  22  45  60  81 123 165 204 254 294 347
#     4  10  20  39  58  86 121 161 194 248 307 356
#     4   9  23  42  58  79 120 167 204 243 296 357
#     4  11  20  34  60  90 127 157 188 247 305 373
#     4  12  22  34  58  92 120 149 202 251 301 361
#     4  12  23  38  61  92 124 157 200 247 303 363
#
# _framework density 20.383965
#
# number of rings (size 3 to 8) (size 9 to 14) (size 15 to 20)
#    0.000    1.714    5.714    0.857    4.000    1.714 
#    0.000    2.500    0.000    2.571    0.000    8.500 
#    0.000    0.000    0.000    0.000    0.000    0.000 
#
# Total GULP energy -347041.831980 kJ/mol
# GULP energy per Si atom -12394.351142 kJ/mol
# Density = 2.033757 g / cm^3
# Si number density = 20.383965 Si / 1000 Ang^3
#
#
#
# Elastic Constant Matrix: (Units=GPa)
#
#
# Indices 1 2 3 4 5 6 
#
# 1 82.3004 29.3253 36.6573 0.0000 -26.1428 0.0000
# 2 29.3253 66.6683 28.6563 0.0000 -10.1776 0.0000
# 3 36.6573 28.6563 127.4414 0.0000 -34.2138 0.0000
# 4 0.0000 0.0000 0.0000 29.9974 0.0000 -14.4644
# 5 -26.1428 -10.1776 -34.2138 0.0000 41.9421 0.0000
# 6 0.0000 0.0000 0.0000 -14.4644 0.0000 4.3532
#
#
#
# Elastic Compliance Matrix: (Units=1/GPa)
#
#
# Indices 1 2 3 4 5 6 
#
# 1 0.017518 -0.005791 -0.001514 0.000000 0.008279 0.000000
# 2 -0.005791 0.018571 -0.002906 0.000000 -0.001473 0.000000
# 3 -0.001514 -0.002906 0.010874 0.000000 0.007222 0.000000
# 4 0.000000 0.000000 0.000000 -0.055362 0.000000 -0.183950
# 5 0.008279 -0.001473 0.007222 0.000000 0.034536 0.000000
# 6 0.000000 0.000000 0.000000 -0.183950 0.000000 -0.381491
#
#
# Mechanical properties :
#
#
# Convention : Reuss Voigt Hill
#
# Bulk Modulus (GPa) = 37.67631 51.74310 44.70971
# Shear Modulus (GPa) = -15.33348 27.37662 6.02157
#
# Velocity S-wave (km/s) = -2.74566 3.66874 1.72061
# Velocity P-wave (km/s) = 2.91065 6.58677 5.09202
#
# Compressibility (1/GPa) = 0.02654187
#
# Stress axis : x y z
#
# Youngs Moduli (GPa) = 57.08314 53.84757 91.95837
#
# Poissons Ratio (x) = 0.31183 0.13925
# Poissons Ratio (y) = 0.33057 0.26720
# Poissons Ratio (z) = 0.08644 0.15646
#
# Static dielectric constant tensor:
#      x y z
#    x 3.646120 0.000000 -0.312890 
#    y 0.000000 3.652620 0.000000 
#    z -0.312890 0.000000 3.935140 
# 
# 
# High freq. dielectric constant tensor:
#      x y z
#    x 1.779540 0.000000 -0.029160 
#    y 0.000000 1.785070 0.000000 
#    z -0.029160 0.000000 1.799960 
# 
# From -- ./inp_files/54849.got.cif
#   From: 2010.06.25/outbox.cif.g09.slc.cpg/sg12_28_cif.got.tgz:54849.got - 2010.06.28 00:19:55.
