data_PCOD8084369
_publ_section_title
;
Structure prediction by ZEFSAII (Michael W. Deem and Ramdas Pophale) SiO2 
 PCOD8084369
Probable space group: C 2/M
;
_chemical_formula_sum "Si O2"
_cell_formula_units_Z 64
_cell_length_a 20.104739
_cell_length_b 8.933314
_cell_length_c 24.303784
_cell_angle_alpha 90.000000
_cell_angle_beta 125.670201
_cell_angle_gamma 90.000000
_cell_volume 3546.074482
_symmetry_space_group_name_H-M "C 2/M"
_symmetry_group_IT_number 12
_symmetry_cell_setting 'monoclinic'
loop_
_space_group_symop_operation_xyz
x,y,z
-x,y,-z
-x,-y,-z
x,-y,z
1/2+x,1/2+y,z
1/2-x,1/2+y,-z
1/2-x,1/2-y,-z
1/2+x,1/2-y,z
loop_
_atom_site_type_symbol
_atom_site_label
_atom_site_fract_x
_atom_site_fract_y
_atom_site_fract_z
Si Si1 0.704920 0.822148 0.427375
Si Si2 0.024038 0.677716 0.319030
Si Si3 0.866590 0.325789 0.304209
Si Si4 0.273340 0.325082 0.850302
Si Si5 0.962158 0.674988 0.171566
Si Si6 0.789204 0.822121 0.072184
Si Si7 0.740855 0.675304 0.664616
Si Si8 0.378257 0.173084 0.816055
O O1 0.750000 0.750000 0.500000
O O2 0.611890 0.760589 0.380472
O O3 0.750099 0.768791 0.393538
O O4 0.706281 0.000000 0.433698
O O5 0.026600 0.500000 0.317822
O O6 0.955958 0.733795 0.329652
O O7 0.001538 0.734576 0.247262
O O8 0.868060 0.500000 0.317195
O O9 0.804771 0.287558 0.225049
O O10 0.840090 0.246802 0.347824
O O11 0.280348 0.500000 0.867050
O O12 0.263390 0.234002 0.901447
O O13 0.355452 0.270779 0.858603
O O14 0.937693 0.500000 0.164495
O O15 0.882989 0.771873 0.120697
O O16 0.027438 0.701178 0.154223
O O17 0.784193 0.000000 0.066360
O O18 0.750000 0.750000 0.000000
O O19 0.729225 0.500000 0.660485
O O20 0.821791 0.722849 0.737395
O O21 0.362460 0.000000 0.822524
#
# Coordination Sequence:
#
# PCOD8084369 Si02
#       8
#     8   8   8   8   8   8   8   8
#     4  10  20  35  54  76 106 146 183 223 270 324
#     4   9  16  32  56  79 105 140 183 223 267 322
#     4   9  17  30  53  80 105 135 176 224 269 318
#     4  10  19  34  56  82 114 146 180 225 276 325
#     4  10  18  35  60  84 111 144 184 228 276 329
#     4  12  25  40  58  82 114 149 186 226 273 330
#     4   9  17  31  51  76 107 141 177 218 270 323
#     4   9  17  31  56  85 111 142 181 225 274 330
#
# _framework density 18.048126
#
# number of rings (size 3 to 8) (size 9 to 14) (size 15 to 20)
#    0.000    2.250    2.500    1.500    0.000    1.500 
#    0.000    2.500    0.000    7.500    0.000    0.000 
#    0.000    0.000    0.000    0.000    0.000    0.000 
#
# Total GULP energy -396799.157000 kJ/mol
# GULP energy per Si atom -12399.973656 kJ/mol
# Density = 1.800705 g / cm^3
# Si number density = 18.048126 Si / 1000 Ang^3
#
#
#
# Elastic Constant Matrix: (Units=GPa)
#
#
# Indices 1 2 3 4 5 6 
#
# 1 151.8897 51.4881 67.2794 0.0000 -15.5241 0.0000
# 2 51.4881 67.1073 44.9408 0.0000 -9.9480 0.0000
# 3 67.2794 44.9408 105.4241 0.0000 -8.7368 0.0000
# 4 0.0000 0.0000 0.0000 27.1980 0.0000 -2.4883
# 5 -15.5241 -9.9480 -8.7368 0.0000 26.6622 0.0000
# 6 0.0000 0.0000 0.0000 -2.4883 0.0000 33.0851
#
#
#
# Elastic Compliance Matrix: (Units=1/GPa)
#
#
# Indices 1 2 3 4 5 6 
#
# 1 0.010399 -0.004571 -0.004448 0.000000 0.002892 0.000000
# 2 -0.004571 0.023535 -0.006793 0.000000 0.003894 0.000000
# 3 -0.004448 -0.006793 0.015208 0.000000 -0.000141 0.000000
# 4 0.000000 0.000000 0.000000 0.037022 0.000000 0.002784
# 5 0.002892 0.003894 -0.000141 0.000000 0.040597 0.000000
# 6 0.000000 0.000000 0.000000 0.002784 0.000000 0.030434
#
#
# Mechanical properties :
#
#
# Convention : Reuss Voigt Hill
#
# Bulk Modulus (GPa) = 57.08387 72.42640 64.75514
# Shear Modulus (GPa) = 25.68593 28.10327 26.89460
#
# Velocity S-wave (km/s) = 3.77661 3.95033 3.86445
# Velocity P-wave (km/s) = 7.12141 7.81175 7.47455
#
# Compressibility (1/GPa) = 0.01751808
#
# Stress axis : x y z
#
# Youngs Moduli (GPa) = 96.16141 42.49002 65.75386
#
# Poissons Ratio (x) = 0.19423 0.29249
# Poissons Ratio (y) = 0.43957 0.44665
# Poissons Ratio (z) = 0.42775 0.28862
#
# Static dielectric constant tensor:
#      x y z
#    x 3.662510 0.000000 0.001280 
#    y 0.000000 3.178090 0.000000 
#    z 0.001280 0.000000 3.222120 
# 
# 
# High freq. dielectric constant tensor:
#      x y z
#    x 1.717290 0.000000 -0.006820 
#    y 0.000000 1.681850 0.000000 
#    z -0.006820 0.000000 1.673210 
# 
# From -- ./inp_files/345955.got.cif
#   From: 2010.06.25/outbox.cif.g09.slc.cpg/sg12_173_cif.got.tgz:345955.got - 2010.06.28 00:19:55.
