data_PCOD8084216
_publ_section_title
;
Structure prediction by ZEFSAII (Michael W. Deem and Ramdas Pophale) SiO2 
 PCOD8084216
Probable space group: C 2/M
;
_chemical_formula_sum "Si O2"
_cell_formula_units_Z 56
_cell_length_a 24.538300
_cell_length_b 8.849076
_cell_length_c 17.488668
_cell_angle_alpha 90.000000
_cell_angle_beta 51.885333
_cell_angle_gamma 90.000000
_cell_volume 2987.795091
_symmetry_space_group_name_H-M "C 2/M"
_symmetry_group_IT_number 12
_symmetry_cell_setting 'monoclinic'
loop_
_space_group_symop_operation_xyz
x,y,z
-x,y,-z
-x,-y,-z
x,-y,z
1/2+x,1/2+y,z
1/2-x,1/2+y,-z
1/2-x,1/2-y,-z
1/2+x,1/2-y,z
loop_
_atom_site_type_symbol
_atom_site_label
_atom_site_fract_x
_atom_site_fract_y
_atom_site_fract_z
Si Si1 0.905278 0.825020 0.800893
Si Si2 0.575235 0.327442 0.045401
Si Si3 0.839333 0.678272 0.157711
Si Si4 0.312721 0.677994 0.745120
Si Si5 0.581031 0.323168 0.777358
Si Si6 0.426723 0.678752 0.527449
Si Si7 0.450553 0.821884 0.350236
O O1 0.887438 0.799434 0.905319
O O2 0.839167 0.777645 0.807261
O O3 0.969301 0.724571 0.719000
O O4 0.926464 0.000000 0.768240
O O5 0.585370 0.500000 0.009227
O O6 0.494373 0.288110 0.122288
O O7 0.607733 0.216289 0.955789
O O8 0.838596 0.500000 0.170461
O O9 0.763775 0.745111 0.201510
O O10 0.861095 0.755923 0.217530
O O11 0.308502 0.500000 0.741175
O O12 0.366422 0.739242 0.635583
O O13 0.592533 0.500000 0.757347
O O14 0.589418 0.246992 0.687645
O O15 0.500000 0.726952 0.500000
O O16 0.423429 0.500000 0.517927
O O17 0.414244 0.760135 0.457793
O O18 0.443968 0.000000 0.352659
#
# Coordination Sequence:
#
# PCOD8084216 Si02
#       7
#     8   8   8   8   8   8   8
#     4   9  17  35  57  78 107 148 189 218 257 322
#     4   9  19  34  56  80 104 140 189 230 261 316
#     4  11  22  35  53  80 114 144 177 228 280 316
#     4   9  19  35  55  80 110 146 185 221 262 322
#     4  10  21  39  60  78 103 144 192 225 259 323
#     4  10  18  34  61  82 104 146 190 215 254 326
#     4  11  21  33  54  87 117 134 169 232 287 314
#
# _framework density 18.742918
#
# number of rings (size 3 to 8) (size 9 to 14) (size 15 to 20)
#    0.000    2.143    1.429    3.429    0.000    5.429 
#    0.000    3.571    0.000    0.000    0.000    0.000 
#    0.000    0.000    0.000    0.000    0.000    0.000 
#
# Total GULP energy -347248.887365 kJ/mol
# GULP energy per Si atom -12401.745977 kJ/mol
# Density = 1.870026 g / cm^3
# Si number density = 18.742918 Si / 1000 Ang^3
#
#
#
# Elastic Constant Matrix: (Units=GPa)
#
#
# Indices 1 2 3 4 5 6 
#
# 1 144.4110 36.1793 34.5947 0.0001 18.2673 -0.0001
# 2 36.1793 68.2754 24.2052 0.0002 9.3948 -0.0006
# 3 34.5947 24.2052 51.3472 0.0008 17.0036 -0.0007
# 4 0.0001 0.0002 0.0008 23.3749 -0.0002 5.1504
# 5 18.2673 9.3948 17.0036 -0.0002 27.0636 0.0002
# 6 -0.0001 -0.0006 -0.0007 5.1504 0.0002 24.2993
#
#
#
# Elastic Compliance Matrix: (Units=1/GPa)
#
#
# Indices 1 2 3 4 5 6 
#
# 1 0.008906 -0.003048 -0.003691 0.000000 -0.002634 0.000000
# 2 -0.003048 0.018656 -0.006664 0.000000 -0.000232 0.000000
# 3 -0.003691 -0.006664 0.029690 -0.000001 -0.013849 0.000001
# 4 0.000000 0.000000 -0.000001 0.044877 0.000001 -0.009512
# 5 -0.002634 -0.000232 -0.013849 0.000001 0.047509 -0.000001
# 6 0.000000 0.000000 0.000001 -0.009512 -0.000001 0.043170
#
#
# Mechanical properties :
#
#
# Convention : Reuss Voigt Hill
#
# Bulk Modulus (GPa) = 32.84619 50.44355 41.64487
# Shear Modulus (GPa) = 21.76164 26.21786 23.98975
#
# Velocity S-wave (km/s) = 3.41113 3.74413 3.58150
# Velocity P-wave (km/s) = 5.75126 6.75745 6.27456
#
# Compressibility (1/GPa) = 0.03044493
#
# Stress axis : x y z
#
# Youngs Moduli (GPa) = 112.28720 53.60118 33.68191
#
# Poissons Ratio (x) = 0.16339 0.12432
# Poissons Ratio (y) = 0.34227 0.22446
# Poissons Ratio (z) = 0.41445 0.35721
#
# Static dielectric constant tensor:
#      x y z
#    x 3.705840 0.000000 0.108220 
#    y 0.000000 3.226890 0.000000 
#    z 0.108220 0.000000 3.402680 
# 
# 
# High freq. dielectric constant tensor:
#      x y z
#    x 1.733160 0.000000 0.020160 
#    y 0.000000 1.712440 0.000000 
#    z 0.020160 0.000000 1.717980 
# 
# From -- ./inp_files/287314.got.cif
#   From: 2010.06.25/outbox.cif.g09.slc.cpg/sg12_144_cif.got.tgz:287314.got - 2010.06.28 00:19:55.
