data_PCOD8084089
_publ_section_title
;
Structure prediction by ZEFSAII (Michael W. Deem and Ramdas Pophale) SiO2 
 PCOD8084089
Probable space group: C 2/M
;
_chemical_formula_sum "Si O2"
_cell_formula_units_Z 64
_cell_length_a 14.582509
_cell_length_b 8.724415
_cell_length_c 27.154005
_cell_angle_alpha 90.000000
_cell_angle_beta 104.233183
_cell_angle_gamma 90.000000
_cell_volume 3348.590739
_symmetry_space_group_name_H-M "C 2/M"
_symmetry_group_IT_number 12
_symmetry_cell_setting 'monoclinic'
loop_
_space_group_symop_operation_xyz
x,y,z
-x,y,-z
-x,-y,-z
x,-y,z
1/2+x,1/2+y,z
1/2-x,1/2+y,-z
1/2-x,1/2-y,-z
1/2+x,1/2-y,z
loop_
_atom_site_type_symbol
_atom_site_label
_atom_site_fract_x
_atom_site_fract_y
_atom_site_fract_z
Si Si1 0.658278 0.182735 0.290039
Si Si2 0.040022 0.319788 0.366577
Si Si3 0.697648 0.176982 0.098952
Si Si4 0.897477 0.670876 0.009173
Si Si5 0.413649 0.180451 0.823821
Si Si6 0.091775 0.825700 0.886243
Si Si7 0.271913 0.181831 0.555545
Si Si8 0.168066 0.682840 0.633245
O O1 0.576693 0.235203 0.317717
O O2 0.626745 0.246065 0.232610
O O3 0.758668 0.259261 0.315811
O O4 0.671320 0.000000 0.293619
O O5 0.029043 0.500000 0.364865
O O6 0.120487 0.270245 0.416475
O O7 0.936816 0.251859 0.366705
O O8 0.670939 0.246441 0.041751
O O9 0.641421 0.254700 0.136815
O O10 0.807078 0.196766 0.125761
O O11 0.666420 0.000000 0.091349
O O12 0.863578 0.500000 0.020728
O O13 0.899721 0.781276 0.055826
O O14 0.000000 0.659881 0.000000
O O15 0.523245 0.220519 0.844918
O O16 0.400214 0.000000 0.821144
O O17 0.056771 0.000000 0.878692
O O18 0.250000 0.250000 0.500000
O O19 0.196944 0.250734 0.584106
O O20 0.260174 0.000000 0.554092
O O21 0.169412 0.500000 0.631065
#
# Coordination Sequence:
#
# PCOD8084089 Si02
#       8
#     8   8   8   8   8   8   8   8
#     4   9  19  36  57  78 102 137 179 222 261 310
#     4   8  17  34  54  77 107 143 178 216 266 316
#     4   9  19  35  53  75 103 136 169 209 259 314
#     4  10  18  34  58  74  96 137 176 202 247 322
#     4  10  20  38  58  74 101 141 178 207 256 324
#     4  11  22  34  51  78 108 130 164 218 267 304
#     4  10  20  36  55  80 115 149 185 222 261 309
#     4  10  19  34  56  79 107 143 180 219 267 316
#
# _framework density 19.112517
#
# number of rings (size 3 to 8) (size 9 to 14) (size 15 to 20)
#    0.000    2.375    1.250    2.250    0.000    2.250 
#    0.000   10.625    0.000    0.000    0.000    0.000 
#    0.000    0.000    0.000    0.000    0.000    0.000 
#
# Total GULP energy -396700.853396 kJ/mol
# GULP energy per Si atom -12396.901669 kJ/mol
# Density = 1.906902 g / cm^3
# Si number density = 19.112517 Si / 1000 Ang^3
#
#
#
# Elastic Constant Matrix: (Units=GPa)
#
#
# Indices 1 2 3 4 5 6 
#
# 1 134.7722 25.9527 59.5117 0.0000 9.8796 0.0000
# 2 25.9527 34.7607 25.6224 0.0000 -0.9474 0.0000
# 3 59.5117 25.6224 154.8703 0.0000 17.3544 0.0000
# 4 0.0000 0.0000 0.0000 10.5243 0.0000 11.8956
# 5 9.8796 -0.9474 17.3544 0.0000 16.9313 0.0000
# 6 0.0000 0.0000 0.0000 11.8956 0.0000 22.6505
#
#
#
# Elastic Compliance Matrix: (Units=1/GPa)
#
#
# Indices 1 2 3 4 5 6 
#
# 1 0.009850 -0.005642 -0.002454 0.000000 -0.003548 0.000000
# 2 -0.005642 0.037074 -0.005160 0.000000 0.010655 0.000000
# 3 -0.002454 -0.005160 0.009180 0.000000 -0.008266 0.000000
# 4 0.000000 0.000000 0.000000 0.233810 0.000000 -0.122792
# 5 -0.003548 0.010655 -0.008266 0.000000 0.070201 0.000000
# 6 0.000000 0.000000 0.000000 -0.122792 0.000000 0.108637
#
#
# Mechanical properties :
#
#
# Convention : Reuss Voigt Hill
#
# Bulk Modulus (GPa) = 33.79207 60.73075 47.26141
# Shear Modulus (GPa) = 9.89848 24.24230 17.07039
#
# Velocity S-wave (km/s) = 2.27822 3.56532 2.99181
# Velocity P-wave (km/s) = 4.96381 6.98520 6.05939
#
# Compressibility (1/GPa) = 0.02959274
#
# Stress axis : x y z
#
# Youngs Moduli (GPa) = 101.52148 26.97300 108.93294
#
# Poissons Ratio (x) = 0.15218 0.26733
# Poissons Ratio (y) = 0.57278 0.56206
# Poissons Ratio (z) = 0.24914 0.13917
#
# Static dielectric constant tensor:
#      x y z
#    x 3.732300 0.000000 -0.026220 
#    y 0.000000 3.269340 0.000000 
#    z -0.026220 0.000000 3.622040 
# 
# 
# High freq. dielectric constant tensor:
#      x y z
#    x 1.750780 0.000000 0.003580 
#    y 0.000000 1.716860 0.000000 
#    z 0.003580 0.000000 1.745650 
# 
# From -- ./inp_files/359868.got.cif
#   From: 2010.06.25/outbox.cif.g09.slc.cpg/sg12_180_cif.got.tgz:359868.got - 2010.06.28 00:19:55.
