data_PCOD8084670
_publ_section_title
;
Structure prediction by ZEFSAII (Michael W. Deem and Ramdas Pophale) SiO2 
 PCOD8084670
Probable space group: C 2/M
;
_chemical_formula_sum "Si O2"
_cell_formula_units_Z 56
_cell_length_a 21.388096
_cell_length_b 14.151289
_cell_length_c 17.911317
_cell_angle_alpha 90.000000
_cell_angle_beta 136.161133
_cell_angle_gamma 90.000000
_cell_volume 3754.901855
_symmetry_space_group_name_H-M "C 2/M"
_symmetry_group_IT_number 12
_symmetry_cell_setting 'monoclinic'
loop_
_space_group_symop_operation_xyz
x,y,z
-x,y,-z
-x,-y,-z
x,-y,z
1/2+x,1/2+y,z
1/2-x,1/2+y,-z
1/2-x,1/2-y,-z
1/2+x,1/2-y,z
loop_
_atom_site_type_symbol
_atom_site_label
_atom_site_fract_x
_atom_site_fract_y
_atom_site_fract_z
Si Si1 0.893840 0.766278 0.396789
Si Si2 0.050737 0.887722 0.850668
Si Si3 0.147758 0.111795 0.342543
Si Si4 0.415545 0.394465 0.280906
Si Si5 0.406234 0.612177 0.951898
Si Si6 0.371428 0.394690 0.511911
Si Si7 0.754507 0.611588 0.291703
O O1 0.871692 0.822355 0.301616
O O2 0.847856 0.824679 0.424392
O O3 0.847729 0.663897 0.353060
O O4 0.000000 0.751366 0.500000
O O5 0.102949 0.856993 0.819699
O O6 0.949194 0.844761 0.765040
O O7 0.043294 0.000000 0.844086
O O8 0.103846 0.853639 0.970554
O O9 0.173829 0.143150 0.449677
O O10 0.224060 0.141307 0.349063
O O11 0.136811 0.000000 0.332854
O O12 0.375073 0.500000 0.258194
O O13 0.521996 0.399474 0.384632
O O14 0.408868 0.500000 0.948107
O O15 0.321453 0.648783 0.831363
O O16 0.500000 0.653206 0.000000
O O17 0.335866 0.500000 0.461262
O O18 0.771713 0.500000 0.299172
#
# Coordination Sequence:
#
# PCOD8084670 Si02
#       7
#     8   8   8   8   8   8   8
#     4  10  19  29  39  54  80 114 144 161 181 220
#     4   8  12  21  40  63  82  98 116 153 212 256
#     4   8  13  23  39  61  82  98 121 158 206 249
#     4   8  14  25  42  61  80 101 127 161 202 241
#     4   9  14  23  41  62  81 100 123 157 206 249
#     4   8  14  25  43  62  79  98 123 164 212 244
#     4  10  19  28  39  57  82 109 137 164 188 226
#
# _framework density 14.913838
#
# number of rings (size 3 to 8) (size 9 to 14) (size 15 to 20)
#    0.000    3.286    1.429    2.143    0.000    2.571 
#    0.000    0.714    0.000    0.000    0.000    0.000 
#    0.000    2.286    0.000    0.000    0.000    0.143 
#
# Total GULP energy -346909.202238 kJ/mol
# GULP energy per Si atom -12389.614366 kJ/mol
# Density = 1.487989 g / cm^3
# Si number density = 14.913838 Si / 1000 Ang^3
#
#
#
# Elastic Constant Matrix: (Units=GPa)
#
#
# Indices 1 2 3 4 5 6 
#
# 1 86.9960 38.3051 48.5358 0.0000 -24.7379 0.0000
# 2 38.3051 45.9278 27.6611 0.0000 -5.0847 0.0000
# 3 48.5358 27.6611 66.0136 0.0000 -21.4184 0.0000
# 4 0.0000 0.0000 0.0000 7.8357 0.0000 3.8098
# 5 -24.7379 -5.0847 -21.4184 0.0000 27.3381 0.0000
# 6 0.0000 0.0000 0.0000 3.8098 0.0000 13.9400
#
#
#
# Elastic Compliance Matrix: (Units=1/GPa)
#
#
# Indices 1 2 3 4 5 6 
#
# 1 0.027922 -0.016359 -0.008667 0.000000 0.015433 0.000000
# 2 -0.016359 0.039351 -0.009237 0.000000 -0.014721 0.000000
# 3 -0.008667 -0.009237 0.029887 0.000000 0.013854 0.000000
# 4 0.000000 0.000000 0.000000 0.147179 0.000000 -0.040224
# 5 0.015433 -0.014721 0.013854 0.000000 0.058661 0.000000
# 6 0.000000 0.000000 0.000000 -0.040224 0.000000 0.082729
#
#
# Mechanical properties :
#
#
# Convention : Reuss Voigt Hill
#
# Bulk Modulus (GPa) = 34.92589 47.54906 41.23747
# Shear Modulus (GPa) = 10.78053 15.45177 13.11615
#
# Velocity S-wave (km/s) = 2.69151 3.22230 2.96879
# Velocity P-wave (km/s) = 5.75572 6.76727 6.28189
#
# Compressibility (1/GPa) = 0.02863205
#
# Stress axis : x y z
#
# Youngs Moduli (GPa) = 35.81447 25.41244 33.45985
#
# Poissons Ratio (x) = 0.41572 0.29000
# Poissons Ratio (y) = 0.58589 0.30909
# Poissons Ratio (z) = 0.31041 0.23475
#
# Static dielectric constant tensor:
#      x y z
#    x 3.052970 0.000000 -0.496810 
#    y 0.000000 2.475530 0.000000 
#    z -0.496810 0.000000 2.963060 
# 
# 
# High freq. dielectric constant tensor:
#      x y z
#    x 1.565300 0.000000 -0.035220 
#    y 0.000000 1.520360 0.000000 
#    z -0.035220 0.000000 1.555920 
# 
# From -- ./inp_files/176909.got.cif
#   From: 2010.06.25/outbox.cif.g09.slc.cpg/sg12_89_cif.got.tgz:176909.got - 2010.06.28 00:19:55.
