data_PCOD8084823
_publ_section_title
;
Structure prediction by ZEFSAII (Michael W. Deem and Ramdas Pophale) SiO2 
 PCOD8084823
Probable space group: C 2/M
;
_chemical_formula_sum "Si O2"
_cell_formula_units_Z 64
_cell_length_a 30.229542
_cell_length_b 9.280408
_cell_length_c 15.031086
_cell_angle_alpha 90.000000
_cell_angle_beta 78.944945
_cell_angle_gamma 90.000000
_cell_volume 4138.607575
_symmetry_space_group_name_H-M "C 2/M"
_symmetry_group_IT_number 12
_symmetry_cell_setting 'monoclinic'
loop_
_space_group_symop_operation_xyz
x,y,z
-x,y,-z
-x,-y,-z
x,-y,z
1/2+x,1/2+y,z
1/2-x,1/2+y,-z
1/2-x,1/2-y,-z
1/2+x,1/2-y,z
loop_
_atom_site_type_symbol
_atom_site_label
_atom_site_fract_x
_atom_site_fract_y
_atom_site_fract_z
Si Si1 0.529450 0.830373 0.111494
Si Si2 0.967711 0.331432 0.691919
Si Si3 0.441550 0.670505 0.383901
Si Si4 0.196229 0.335262 0.446101
Si Si5 0.433196 0.829610 0.083758
Si Si6 0.099186 0.665295 0.436250
Si Si7 0.294613 0.667745 0.379525
Si Si8 0.879154 0.168116 0.241970
O O1 0.545689 0.781534 0.202904
O O2 0.478854 0.773530 0.113901
O O3 0.526738 0.000000 0.103532
O O4 0.563990 0.778332 0.020966
O O5 0.980796 0.500000 0.685085
O O6 0.924870 0.297046 0.647138
O O7 0.009555 0.241064 0.640637
O O8 0.446813 0.500000 0.391016
O O9 0.417731 0.729673 0.480795
O O10 0.412159 0.713700 0.309609
O O11 0.199694 0.500000 0.475922
O O12 0.152810 0.310650 0.400075
O O13 0.242517 0.292783 0.376306
O O14 0.189740 0.243545 0.536817
O O15 0.391324 0.752933 0.147547
O O16 0.426508 0.000000 0.095297
O O17 0.089020 0.500000 0.468067
O O18 0.301471 0.500000 0.395384
O O19 0.327893 0.713706 0.286814
O O20 0.883240 0.000000 0.220130
#
# Coordination Sequence:
#
# PCOD8084823 Si02
#       8
#     8   8   8   8   8   8   8   8
#     4   8  15  28  45  64  83 108 141 178 217 253
#     4  10  19  32  47  62  86 117 148 181 215 250
#     4  11  21  31  42  61  91 122 151 176 204 250
#     4   9  17  29  45  64  84 109 145 183 213 249
#     4   9  16  28  47  65  82 108 143 177 215 258
#     4  10  20  31  45  65  86 114 151 184 212 246
#     4   9  17  30  45  61  86 115 141 174 218 258
#     4  10  19  29  42  64  90 116 141 171 214 258
#
# _framework density 15.464138
#
# number of rings (size 3 to 8) (size 9 to 14) (size 15 to 20)
#    0.000    2.500    2.500    1.500    0.000    3.000 
#    0.000    1.875    0.000    0.000    0.000    0.875 
#    0.000    0.000    0.000    0.000    0.000    0.000 
#
# Total GULP energy -396636.401934 kJ/mol
# GULP energy per Si atom -12394.887560 kJ/mol
# Density = 1.542894 g / cm^3
# Si number density = 15.464138 Si / 1000 Ang^3
#
#
#
# Elastic Constant Matrix: (Units=GPa)
#
#
# Indices 1 2 3 4 5 6 
#
# 1 110.4516 32.6344 61.0889 0.0000 -13.3729 0.0000
# 2 32.6344 36.0309 29.8423 0.0000 -7.4330 0.0000
# 3 61.0889 29.8423 99.9077 0.0000 -17.0715 0.0000
# 4 0.0000 0.0000 0.0000 19.4198 0.0000 -4.2486
# 5 -13.3729 -7.4330 -17.0715 0.0000 23.6147 0.0000
# 6 0.0000 0.0000 0.0000 -4.2486 0.0000 16.3195
#
#
#
# Elastic Compliance Matrix: (Units=1/GPa)
#
#
# Indices 1 2 3 4 5 6 
#
# 1 0.015308 -0.008013 -0.006750 0.000000 0.001267 0.000000
# 2 -0.008013 0.041433 -0.006872 0.000000 0.003536 0.000000
# 3 -0.006750 -0.006872 0.017304 0.000000 0.006524 0.000000
# 4 0.000000 0.000000 0.000000 0.054604 0.000000 0.014216
# 5 0.001267 0.003536 0.006524 0.000000 0.048893 0.000000
# 6 0.000000 0.000000 0.000000 0.014216 0.000000 0.064977
#
#
# Mechanical properties :
#
#
# Convention : Reuss Voigt Hill
#
# Bulk Modulus (GPa) = 32.49474 54.83573 43.66524
# Shear Modulus (GPa) = 16.88913 20.05910 18.47411
#
# Velocity S-wave (km/s) = 3.30835 3.60549 3.46011
# Velocity P-wave (km/s) = 5.97094 7.27115 6.65289
#
# Compressibility (1/GPa) = 0.03077421
#
# Stress axis : x y z
#
# Youngs Moduli (GPa) = 65.32485 24.13544 57.78938
#
# Poissons Ratio (x) = 0.19339 0.39010
# Poissons Ratio (y) = 0.52344 0.39715
# Poissons Ratio (z) = 0.44096 0.16587
#
# Static dielectric constant tensor:
#      x y z
#    x 3.066650 0.000000 -0.109290 
#    y 0.000000 2.861710 0.000000 
#    z -0.109290 0.000000 3.063940 
# 
# 
# High freq. dielectric constant tensor:
#      x y z
#    x 1.580440 0.000000 -0.013390 
#    y 0.000000 1.584350 0.000000 
#    z -0.013390 0.000000 1.578500 
# 
# From -- ./inp_files/248317.got.cif
#   From: 2010.06.25/outbox.cif.g09.slc.cpg/sg12_125_cif.got.tgz:248317.got - 2010.06.28 00:19:55.
