data_PCOD8084887
_publ_section_title
;
Structure prediction by ZEFSAII (Michael W. Deem and Ramdas Pophale) SiO2 
 PCOD8084887
Probable space group: C 2/M
;
_chemical_formula_sum "Si O2"
_cell_formula_units_Z 56
_cell_length_a 28.734693
_cell_length_b 9.105478
_cell_length_c 17.239723
_cell_angle_alpha 90.000000
_cell_angle_beta 49.574359
_cell_angle_gamma 90.000000
_cell_volume 3433.727799
_symmetry_space_group_name_H-M "C 2/M"
_symmetry_group_IT_number 12
_symmetry_cell_setting 'monoclinic'
loop_
_space_group_symop_operation_xyz
x,y,z
-x,y,-z
-x,-y,-z
x,-y,z
1/2+x,1/2+y,z
1/2-x,1/2+y,-z
1/2-x,1/2-y,-z
1/2+x,1/2-y,z
loop_
_atom_site_type_symbol
_atom_site_label
_atom_site_fract_x
_atom_site_fract_y
_atom_site_fract_z
Si Si1 0.153182 0.329318 0.592137
Si Si2 0.717167 0.168299 0.272202
Si Si3 0.072955 0.673575 0.282058
Si Si4 0.773290 0.833059 0.367071
Si Si5 0.041607 0.169266 0.637202
Si Si6 0.711366 0.168813 0.105595
Si Si7 0.904525 0.831225 0.588764
O O1 0.137263 0.500000 0.614409
O O2 0.176235 0.274302 0.651407
O O3 0.205776 0.295697 0.472516
O O4 0.092275 0.242827 0.636428
O O5 0.771867 0.189438 0.275252
O O6 0.739445 0.203040 0.160702
O O7 0.663808 0.277915 0.354526
O O8 0.692259 0.000000 0.302348
O O9 0.062983 0.500000 0.293208
O O10 0.140497 0.717759 0.179343
O O11 0.064357 0.733627 0.378483
O O12 0.023240 0.749289 0.279416
O O13 0.790513 0.000000 0.370545
O O14 0.057222 0.187927 0.530347
O O15 0.035778 0.000000 0.667819
O O16 0.716963 0.000000 0.078967
O O17 0.750000 0.250000 0.000000
O O18 0.903743 0.000000 0.617087
#
# Coordination Sequence:
#
# PCOD8084887 Si02
#       7
#     8   8   8   8   8   8   8
#     4  10  19  29  45  66  93 130 166 197 232 271
#     4   9  17  31  49  69  94 127 162 193 233 282
#     4  10  21  34  48  66  91 124 160 193 232 285
#     4   9  17  30  46  65  93 127 163 200 233 268
#     4  11  21  31  44  66  96 128 162 196 232 273
#     4   9  19  34  52  73  95 119 152 194 238 286
#     4  10  19  29  43  66  95 125 159 196 230 270
#
# _framework density 16.308807000000002
#
# number of rings (size 3 to 8) (size 9 to 14) (size 15 to 20)
#    0.000    2.286    1.429    3.000    0.000    7.429 
#    0.000    0.000    0.000    0.000    0.000    1.000 
#    0.000    8.000    0.000    0.000    0.000    0.000 
#
# Total GULP energy -347161.812288 kJ/mol
# GULP energy per Si atom -12398.636153 kJ/mol
# Density = 1.627169 g / cm^3
# Si number density = 16.308807 Si / 1000 Ang^3
#
#
#
# Elastic Constant Matrix: (Units=GPa)
#
#
# Indices 1 2 3 4 5 6 
#
# 1 129.3406 63.8408 46.7258 0.0002 -1.9893 -0.0001
# 2 63.8408 90.2971 40.1149 0.0018 -2.4857 -0.0005
# 3 46.7258 40.1149 67.5580 0.0007 3.3635 -0.0002
# 4 0.0002 0.0018 0.0007 22.3405 -0.0003 -1.4991
# 5 -1.9893 -2.4857 3.3635 -0.0003 13.7240 -0.0001
# 6 -0.0001 -0.0005 -0.0002 -1.4991 -0.0001 33.4177
#
#
#
# Elastic Compliance Matrix: (Units=1/GPa)
#
#
# Indices 1 2 3 4 5 6 
#
# 1 0.012961 -0.006913 -0.004951 0.000001 0.001840 0.000000
# 2 -0.006913 0.019073 -0.006748 -0.000001 0.004106 0.000000
# 3 -0.004951 -0.006748 0.022606 0.000000 -0.007480 0.000000
# 4 0.000001 -0.000001 0.000000 0.044897 0.000001 0.002014
# 5 0.001840 0.004106 -0.007480 0.000001 0.075709 0.000000
# 6 0.000000 0.000000 0.000000 0.002014 0.000000 0.030015
#
#
# Mechanical properties :
#
#
# Convention : Reuss Voigt Hill
#
# Bulk Modulus (GPa) = 57.42200 65.39543 61.40872
# Shear Modulus (GPa) = 20.13779 22.99739 21.56759
#
# Velocity S-wave (km/s) = 3.51776 3.75923 3.64050
# Velocity P-wave (km/s) = 7.19619 7.68295 7.44355
#
# Compressibility (1/GPa) = 0.01741493
#
# Stress axis : x y z
#
# Youngs Moduli (GPa) = 77.15694 52.42921 44.23666
#
# Poissons Ratio (x) = 0.36246 0.21900
# Poissons Ratio (y) = 0.53341 0.29853
# Poissons Ratio (z) = 0.38198 0.35381
#
# Static dielectric constant tensor:
#      x y z
#    x 3.185010 0.000000 0.028230 
#    y 0.000000 3.191980 0.000000 
#    z 0.028230 0.000000 2.716340 
# 
# 
# High freq. dielectric constant tensor:
#      x y z
#    x 1.632040 0.000000 0.001820 
#    y 0.000000 1.640010 0.000000 
#    z 0.001820 0.000000 1.574640 
# 
# From -- ./inp_files/288171.got.cif
#   From: 2010.06.25/outbox.cif.g09.slc.cpg/sg12_145_cif.got.tgz:288171.got - 2010.06.28 00:19:55.
