data_PCOD8084492
_publ_section_title
;
Structure prediction by ZEFSAII (Michael W. Deem and Ramdas Pophale) SiO2 
 PCOD8084492
Probable space group: C 2/M
;
_chemical_formula_sum "Si O2"
_cell_formula_units_Z 64
_cell_length_a 19.892307
_cell_length_b 16.801018
_cell_length_c 22.640953
_cell_angle_alpha 90.000000
_cell_angle_beta 152.887127
_cell_angle_gamma 90.000000
_cell_volume 3448.555946
_symmetry_space_group_name_H-M "C 2/M"
_symmetry_group_IT_number 12
_symmetry_cell_setting 'monoclinic'
loop_
_space_group_symop_operation_xyz
x,y,z
-x,y,-z
-x,-y,-z
x,-y,z
1/2+x,1/2+y,z
1/2-x,1/2+y,-z
1/2-x,1/2-y,-z
1/2+x,1/2-y,z
loop_
_atom_site_type_symbol
_atom_site_label
_atom_site_fract_x
_atom_site_fract_y
_atom_site_fract_z
Si Si1 0.309235 0.824504 0.232164
Si Si2 0.288667 0.407789 0.506635
Si Si3 0.080328 0.315137 0.264197
Si Si4 0.948574 0.802604 0.257818
Si Si5 0.801254 0.185436 0.726163
Si Si6 0.388022 0.908017 0.512907
Si Si7 0.599969 0.407579 0.980777
Si Si8 0.735358 0.156374 0.999471
O O1 0.354537 0.747603 0.230577
O O2 0.260326 0.794279 0.257784
O O3 0.443870 0.885996 0.341614
O O4 0.169280 0.867982 0.093186
O O5 0.327350 0.500000 0.531045
O O6 0.186059 0.383031 0.372028
O O7 0.437841 0.357413 0.618258
O O8 0.210355 0.388237 0.507206
O O9 0.161341 0.268765 0.275208
O O10 0.036189 0.254560 0.281724
O O11 0.937592 0.360768 0.125807
O O12 0.836332 0.861963 0.135381
O O13 0.673210 0.141107 0.590049
O O14 0.945225 0.130621 0.841924
O O15 0.381252 0.000000 0.490607
O O16 0.574439 0.500000 0.973376
O O17 0.713020 0.395826 0.015397
O O18 0.750000 0.250000 0.000000
#
# Coordination Sequence:
#
# PCOD8084492 Si02
#       8
#     8   8   8   8   8   8   8   8
#     4  12  24  37  56  83 115 157 193 225 280 347
#     4  11  22  36  61  91 111 141 195 252 301 332
#     4  11  19  38  62  79 112 152 195 241 281 335
#     4  11  19  38  62  79 112 152 195 241 281 335
#     4  12  24  37  56  83 115 157 193 225 280 347
#     4  11  22  36  52  78 115 154 189 225 278 346
#     4  12  23  37  58  88 122 154 189 232 283 340
#     4  10  18  36  60  81 107 153 196 237 277 318
#
# _framework density 18.558492999999999
#
# number of rings (size 3 to 8) (size 9 to 14) (size 15 to 20)
#    0.000    0.750    7.500    2.625    0.000    6.000 
#    0.000    0.000    0.000    1.500    0.000    0.000 
#    0.000    5.000    0.000    0.000    0.000    0.000 
#
# Total GULP energy -396919.934377 kJ/mol
# GULP energy per Si atom -12403.747949 kJ/mol
# Density = 1.851625 g / cm^3
# Si number density = 18.558493 Si / 1000 Ang^3
#
#
#
# Elastic Constant Matrix: (Units=GPa)
#
#
# Indices 1 2 3 4 5 6 
#
# 1 74.2766 26.6082 -5.2413 0.0044 -15.1295 -0.0011
# 2 26.6082 39.3050 7.1161 0.0264 -1.1538 0.0065
# 3 -5.2413 7.1161 101.1604 0.0323 -4.9983 0.0062
# 4 0.0044 0.0264 0.0323 16.6280 0.0073 -3.0897
# 5 -15.1295 -1.1538 -4.9983 0.0073 20.9010 -0.0008
# 6 -0.0011 0.0065 0.0062 -3.0897 -0.0008 13.8849
#
#
#
# Elastic Compliance Matrix: (Units=1/GPa)
#
#
# Indices 1 2 3 4 5 6 
#
# 1 0.022425 -0.015257 0.003031 0.000007 0.016115 0.000010
# 2 -0.015257 0.036171 -0.003827 -0.000047 -0.009962 -0.000027
# 3 0.003031 -0.003827 0.010534 -0.000018 0.004502 -0.000006
# 4 0.000007 -0.000047 -0.000018 0.062734 -0.000023 0.013960
# 5 0.016115 -0.009962 0.004502 -0.000023 0.060037 0.000002
# 6 0.000010 -0.000027 -0.000006 0.013960 0.000002 0.075127
#
#
# Mechanical properties :
#
#
# Convention : Reuss Voigt Hill
#
# Bulk Modulus (GPa) = 27.00887 30.18979 28.59933
# Shear Modulus (GPa) = 16.05269 22.70006 19.37637
#
# Velocity S-wave (km/s) = 2.94424 3.50117 3.23471
# Velocity P-wave (km/s) = 5.11303 5.71375 5.42171
#
# Compressibility (1/GPa) = 0.03702487
#
# Stress axis : x y z
#
# Youngs Moduli (GPa) = 44.59281 27.64649 94.93042
#
# Poissons Ratio (x) = 0.42180 -0.28777
# Poissons Ratio (y) = 0.68035 0.36331
# Poissons Ratio (z) = -0.13518 0.10581
#
# Static dielectric constant tensor:
#      x y z
#    x 3.341440 0.000000 -0.020550 
#    y 0.000000 3.223450 -0.000020 
#    z -0.020550 -0.000020 4.015460 
# 
# 
# High freq. dielectric constant tensor:
#      x y z
#    x 1.698690 0.000000 -0.003060 
#    y 0.000000 1.696060 0.000000 
#    z -0.003060 0.000000 1.750260 
# 
# From -- ./inp_files/317406.got.cif
#   From: 2010.06.25/outbox.cif.g09.slc.cpg/sg12_159_cif.got.tgz:317406.got - 2010.06.28 00:19:55.
