data_PCOD8084795
_publ_section_title
;
Structure prediction by ZEFSAII (Michael W. Deem and Ramdas Pophale) SiO2 
 PCOD8084795
Probable space group: C 2/M
;
_chemical_formula_sum "Si O2"
_cell_formula_units_Z 56
_cell_length_a 29.700548
_cell_length_b 9.810694
_cell_length_c 13.184969
_cell_angle_alpha 90.000000
_cell_angle_beta 112.687562
_cell_angle_gamma 90.000000
_cell_volume 3544.598402
_symmetry_space_group_name_H-M "C 2/M"
_symmetry_group_IT_number 12
_symmetry_cell_setting 'monoclinic'
loop_
_space_group_symop_operation_xyz
x,y,z
-x,y,-z
-x,-y,-z
x,-y,z
1/2+x,1/2+y,z
1/2-x,1/2+y,-z
1/2-x,1/2-y,-z
1/2+x,1/2-y,z
loop_
_atom_site_type_symbol
_atom_site_label
_atom_site_fract_x
_atom_site_fract_y
_atom_site_fract_z
Si Si1 0.283652 0.151729 0.652617
Si Si2 0.048899 0.147112 0.604842
Si Si3 0.477058 0.655926 0.872555
Si Si4 0.898961 0.746323 0.533469
Si Si5 0.294544 0.144997 0.425851
Si Si6 0.370712 0.349196 0.721871
Si Si7 0.499603 0.842870 0.706791
O O1 0.278691 0.139572 0.528644
O O2 0.235659 0.231864 0.653145
O O3 0.332258 0.235519 0.723454
O O4 0.285962 0.000000 0.703587
O O5 0.092260 0.171477 0.562517
O O6 0.042500 0.270318 0.679054
O O7 0.000000 0.134180 0.500000
O O8 0.058675 0.000000 0.667508
O O9 0.489430 0.500000 0.850255
O O10 0.418801 0.674145 0.831001
O O11 0.498406 0.762896 0.811360
O O12 0.500000 0.692430 0.000000
O O13 0.852794 0.652926 0.468212
O O14 0.885145 0.843487 0.615452
O O15 0.947175 0.659920 0.604633
O O16 0.279627 0.000000 0.362745
O O17 0.348669 0.500000 0.721529
O O18 0.514221 0.000000 0.737316
#
# Coordination Sequence:
#
# PCOD8084795 Si02
#       7
#     8   8   8   8   8   8   8
#     4   9  17  26  36  53  78 107 137 169 203 239
#     4   9  17  28  41  57  80 112 146 174 202 241
#     4   9  18  32  48  64  82 106 137 172 209 250
#     4   9  17  26  41  60  82 111 145 175 202 236
#     4   9  16  25  37  53  76 107 141 172 201 235
#     4   9  16  27  43  60  80 107 138 170 205 244
#     4  10  19  29  42  61  85 111 139 173 211 247
#
# _framework density 15.798688
#
# number of rings (size 3 to 8) (size 9 to 14) (size 15 to 20)
#    0.000    2.857    0.000    1.714    0.000   14.286 
#    0.000    0.000    0.000    0.000    0.000    0.000 
#    0.000    1.143    0.000    2.714    0.000    3.429 
#
# Total GULP energy -346922.416279 kJ/mol
# GULP energy per Si atom -12390.086296 kJ/mol
# Density = 1.576273 g / cm^3
# Si number density = 15.798688 Si / 1000 Ang^3
#
#
#
# Elastic Constant Matrix: (Units=GPa)
#
#
# Indices 1 2 3 4 5 6 
#
# 1 69.5584 44.1262 31.2323 0.0000 6.3027 0.0000
# 2 44.1262 149.0430 45.6238 0.0000 3.9166 0.0000
# 3 31.2323 45.6238 56.1297 0.0000 4.0241 0.0000
# 4 0.0000 0.0000 0.0000 15.7022 0.0000 0.9563
# 5 6.3027 3.9166 4.0241 0.0000 12.4472 0.0000
# 6 0.0000 0.0000 0.0000 0.9563 0.0000 13.1741
#
#
#
# Elastic Compliance Matrix: (Units=1/GPa)
#
#
# Indices 1 2 3 4 5 6 
#
# 1 0.020940 -0.003466 -0.008346 0.000000 -0.006814 0.000000
# 2 -0.003466 0.009508 -0.005847 0.000000 0.000653 0.000000
# 3 -0.008346 -0.005847 0.027413 0.000000 -0.002796 0.000000
# 4 0.000000 0.000000 0.000000 0.063968 0.000000 -0.004643
# 5 -0.006814 0.000653 -0.002796 0.000000 0.084489 0.000000
# 6 0.000000 0.000000 0.000000 -0.004643 0.000000 0.076244
#
#
# Mechanical properties :
#
#
# Convention : Reuss Voigt Hill
#
# Bulk Modulus (GPa) = 44.35843 57.41064 50.88454
# Shear Modulus (GPa) = 15.36603 18.51461 16.94032
#
# Velocity S-wave (km/s) = 3.12206 3.42703 3.27809
# Velocity P-wave (km/s) = 6.41362 7.21645 6.82685
#
# Compressibility (1/GPa) = 0.02254363
#
# Stress axis : x y z
#
# Youngs Moduli (GPa) = 47.75584 105.17265 36.47911
#
# Poissons Ratio (x) = 0.36449 0.30446
# Poissons Ratio (y) = 0.16550 0.21329
# Poissons Ratio (z) = 0.39857 0.61494
#
# Static dielectric constant tensor:
#      x y z
#    x 3.108010 0.000000 0.071930 
#    y 0.000000 3.291220 0.000000 
#    z 0.071930 0.000000 2.576090 
# 
# 
# High freq. dielectric constant tensor:
#      x y z
#    x 1.592930 0.000000 0.015930 
#    y 0.000000 1.623560 0.000000 
#    z 0.015930 0.000000 1.541430 
# 
# From -- ./inp_files/248575.got.cif
#   From: 2010.06.25/outbox.cif.g09.slc.cpg/sg12_125_cif.got.tgz:248575.got - 2010.06.28 00:19:55.
