data_PCOD8084649
_publ_section_title
;
Structure prediction by ZEFSAII (Michael W. Deem and Ramdas Pophale) SiO2 
 PCOD8084649
Probable space group: C 2/M
;
_chemical_formula_sum "Si O2"
_cell_formula_units_Z 64
_cell_length_a 27.418606
_cell_length_b 9.308745
_cell_length_c 16.833882
_cell_angle_alpha 90.000000
_cell_angle_beta 99.791407
_cell_angle_gamma 90.000000
_cell_volume 4233.972838
_symmetry_space_group_name_H-M "C 2/M"
_symmetry_group_IT_number 12
_symmetry_cell_setting 'monoclinic'
loop_
_space_group_symop_operation_xyz
x,y,z
-x,y,-z
-x,-y,-z
x,-y,z
1/2+x,1/2+y,z
1/2-x,1/2+y,-z
1/2-x,1/2-y,-z
1/2+x,1/2-y,z
loop_
_atom_site_type_symbol
_atom_site_label
_atom_site_fract_x
_atom_site_fract_y
_atom_site_fract_z
Si Si1 0.538891 0.336222 0.907104
Si Si2 0.800592 0.830671 0.027373
Si Si3 0.873718 0.831884 0.175092
Si Si4 0.443995 0.659442 0.514641
Si Si5 0.026502 0.332301 0.335244
Si Si6 0.886956 0.838265 0.932287
Si Si7 0.926523 0.831438 0.340356
Si Si8 0.554923 0.832781 0.165849
O O1 0.523087 0.500000 0.882406
O O2 0.577222 0.270970 0.853490
O O3 0.491581 0.235485 0.891676
O O4 0.563959 0.330051 0.000158
O O5 0.823765 0.774884 0.118555
O O6 0.790320 0.000000 0.025548
O O7 0.750000 0.750000 0.000000
O O8 0.838752 0.788394 0.968076
O O9 0.878827 0.796831 0.270717
O O10 0.874076 0.000000 0.156655
O O11 0.500000 0.658282 0.500000
O O12 0.428098 0.500000 0.538569
O O13 0.437671 0.769430 0.585658
O O14 0.412333 0.708050 0.427750
O O15 0.018367 0.500000 0.348682
O O16 0.053500 0.302089 0.259529
O O17 0.973498 0.255886 0.321585
O O18 0.895286 0.736793 0.857866
O O19 0.879028 0.000000 0.899492
O O20 0.940568 0.000000 0.338856
O O21 0.555293 0.000000 0.147382
#
# Coordination Sequence:
#
# PCOD8084649 Si02
#       8
#     8   8   8   8   8   8   8   8
#     4   9  16  28  44  58  77 110 145 173 204 241
#     4   9  18  33  50  67  85 107 136 170 212 257
#     4   8  14  26  45  64  82 108 141 173 205 245
#     4   8  15  25  38  56  75 103 145 180 205 237
#     4  10  19  27  35  53  83 116 144 171 208 248
#     4   9  19  32  45  61  79 106 144 174 203 250
#     4   9  15  26  43  59  77 106 145 181 205 235
#     4  11  21  28  37  58  86 113 143 176 207 242
#
# _framework density 15.115826999999999
#
# number of rings (size 3 to 8) (size 9 to 14) (size 15 to 20)
#    0.000    2.875    1.250    3.375    0.000    6.250 
#    0.000    2.500    0.000    0.000    0.000    0.000 
#    0.000    1.000    0.000    2.250    0.000    3.500 
#
# Total GULP energy -396507.479798 kJ/mol
# GULP energy per Si atom -12390.858744 kJ/mol
# Density = 1.508142 g / cm^3
# Si number density = 15.115827 Si / 1000 Ang^3
#
#
#
# Elastic Constant Matrix: (Units=GPa)
#
#
# Indices 1 2 3 4 5 6 
#
# 1 67.7380 36.2967 51.6392 0.0000 6.5259 0.0000
# 2 36.2967 70.4861 53.2601 0.0000 -2.0309 0.0000
# 3 51.6392 53.2601 110.8114 0.0000 8.0157 0.0000
# 4 0.0000 0.0000 0.0000 22.6727 0.0000 -1.1085
# 5 6.5259 -2.0309 8.0157 0.0000 14.7998 0.0000
# 6 0.0000 0.0000 0.0000 -1.1085 0.0000 19.3894
#
#
#
# Elastic Compliance Matrix: (Units=1/GPa)
#
#
# Indices 1 2 3 4 5 6 
#
# 1 0.025402 -0.007558 -0.007618 0.000000 -0.008112 0.000000
# 2 -0.007558 0.025804 -0.009760 0.000000 0.012160 0.000000
# 3 -0.007618 -0.009760 0.017817 0.000000 -0.007630 0.000000
# 4 0.000000 0.000000 0.000000 0.044230 0.000000 0.002529
# 5 -0.008112 0.012160 -0.007630 0.000000 0.076947 0.000000
# 6 0.000000 0.000000 0.000000 0.002529 0.000000 0.051719
#
#
# Mechanical properties :
#
#
# Convention : Reuss Voigt Hill
#
# Bulk Modulus (GPa) = 52.21573 59.04750 55.63161
# Shear Modulus (GPa) = 16.76871 18.56168 17.66520
#
# Velocity S-wave (km/s) = 3.33430 3.50803 3.42227
# Velocity P-wave (km/s) = 7.03151 7.45363 7.24564
#
# Compressibility (1/GPa) = 0.01915132
#
# Stress axis : x y z
#
# Youngs Moduli (GPa) = 39.36767 38.75322 56.12504
#
# Poissons Ratio (x) = 0.29290 0.42756
# Poissons Ratio (y) = 0.29754 0.54778
# Poissons Ratio (z) = 0.29990 0.37823
#
# Static dielectric constant tensor:
#      x y z
#    x 2.538850 0.000000 0.088980 
#    y 0.000000 2.828620 0.000000 
#    z 0.088980 0.000000 3.304030 
# 
# 
# High freq. dielectric constant tensor:
#      x y z
#    x 1.521130 0.000000 0.003050 
#    y 0.000000 1.570570 0.000000 
#    z 0.003050 0.000000 1.587730 
# 
# From -- ./inp_files/291571.got.cif
#   From: 2010.06.25/outbox.cif.g09.slc.cpg/sg12_146_cif.got.tgz:291571.got - 2010.06.28 00:19:55.
