data_PCOD8084353
_publ_section_title
;
Structure prediction by ZEFSAII (Michael W. Deem and Ramdas Pophale) SiO2 
 PCOD8084353
Probable space group: C 2/M
;
_chemical_formula_sum "Si O2"
_cell_formula_units_Z 48
_cell_length_a 19.915610
_cell_length_b 15.241465
_cell_length_c 8.931943
_cell_angle_alpha 90.000000
_cell_angle_beta 105.351741
_cell_angle_gamma 90.000000
_cell_volume 2614.489327
_symmetry_space_group_name_H-M "C 2/M"
_symmetry_group_IT_number 12
_symmetry_cell_setting 'monoclinic'
loop_
_space_group_symop_operation_xyz
x,y,z
-x,y,-z
-x,-y,-z
x,-y,z
1/2+x,1/2+y,z
1/2-x,1/2+y,-z
1/2-x,1/2-y,-z
1/2+x,1/2-y,z
loop_
_atom_site_type_symbol
_atom_site_label
_atom_site_fract_x
_atom_site_fract_y
_atom_site_fract_z
Si Si1 0.928836 0.000000 0.368491
Si Si2 0.182532 0.695469 0.411008
Si Si3 0.562317 0.333139 0.832991
Si Si4 0.403521 0.671315 0.814756
Si Si5 0.198509 0.500000 0.453860
Si Si6 0.424424 0.000000 0.389279
Si Si7 0.424452 0.812566 0.382165
Si Si8 0.150148 0.000000 0.380329
O O1 0.925320 0.917635 0.259119
O O2 0.000000 0.000000 0.500000
O O3 0.865887 0.000000 0.450797
O O4 0.250000 0.750000 0.500000
O O5 0.144547 0.745486 0.252714
O O6 0.199142 0.594511 0.365839
O O7 0.132343 0.695877 0.523248
O O8 0.482323 0.309772 0.814908
O O9 0.594940 0.253232 0.760766
O O10 0.603246 0.345719 0.012277
O O11 0.381340 0.585297 0.713466
O O12 0.129442 0.500000 0.508035
O O13 0.267286 0.500000 0.597290
O O14 0.500000 0.000000 0.500000
O O15 0.417666 0.908388 0.296607
O O16 0.500000 0.794342 0.500000
#
# Coordination Sequence:
#
# PCOD8084353 Si02
#       8
#     4   8   8   8   4   4   8   4
#     4  12  21  33  57  90 117 154 197 238 281 341
#     4  11  21  37  61  86 112 151 199 241 288 342
#     4  11  22  36  56  88 122 152 189 237 297 351
#     4  11  22  37  57  86 121 155 186 240 299 347
#     4  10  22  35  59  87 112 146 194 245 284 334
#     4   8  18  34  58  83 104 138 191 247 286 316
#     4  10  18  35  59  85 109 144 197 241 277 341
#     4  12  21  36  61  82 117 157 195 238 284 345
#
# _framework density 18.359227000000001
#
# number of rings (size 3 to 8) (size 9 to 14) (size 15 to 20)
#    0.000    1.333    5.000    2.000    0.000    1.333 
#    0.000    1.667    0.000    2.000    0.000    0.000 
#    0.000    0.000    0.000    0.000    0.000    0.000 
#
# Total GULP energy -297408.467075 kJ/mol
# GULP energy per Si atom -12392.019461 kJ/mol
# Density = 1.831744 g / cm^3
# Si number density = 18.359227 Si / 1000 Ang^3
#
#
#
# Elastic Constant Matrix: (Units=GPa)
#
#
# Indices 1 2 3 4 5 6 
#
# 1 84.5008 26.7263 31.2278 0.0000 7.7424 0.0000
# 2 26.7263 182.8362 72.0714 0.0000 -3.8683 0.0000
# 3 31.2278 72.0714 118.0740 0.0000 -6.0952 0.0000
# 4 0.0000 0.0000 0.0000-1663.2686 0.0000 226.6551
# 5 7.7424 -3.8683 -6.0952 0.0000 22.6618 0.0000
# 6 0.0000 0.0000 0.0000 226.6551 0.0000 -12.0498
#
#
#
# Elastic Compliance Matrix: (Units=1/GPa)
#
#
# Indices 1 2 3 4 5 6 
#
# 1 0.013909 -0.000774 -0.003507 0.000000 -0.005827 0.000000
# 2 -0.000774 0.007245 -0.004199 0.000000 0.000372 0.000000
# 3 -0.003507 -0.004199 0.012153 0.000000 0.003750 0.000000
# 4 0.000000 0.000000 0.000000 0.000385 0.000000 0.007234
# 5 -0.005827 0.000372 0.003750 0.000000 0.047190 0.000000
# 6 0.000000 0.000000 0.000000 0.007234 0.000000 0.053088
#
#
# Mechanical properties :
#
#
# Convention : Reuss Voigt Hill
#
# Bulk Modulus (GPa) = 61.16837 71.71800 66.44318
# Shear Modulus (GPa) = 31.97361 -313.50561 -140.76600
#
# Velocity S-wave (km/s) = 4.17772 -13.08177 -8.76582
# Velocity P-wave (km/s) = 7.52735 13.74875 8.13533
#
# Compressibility (1/GPa) = 0.01634832
#
# Stress axis : x y z
#
# Youngs Moduli (GPa) = 71.89596 138.01794 82.28306
#
# Poissons Ratio (x) = 0.10684 0.28856
# Poissons Ratio (y) = 0.05565 0.34548
# Poissons Ratio (z) = 0.25213 0.57949
#
# Static dielectric constant tensor:
#      x y z
#    x 3.591830 0.000000 0.019010 
#    y 0.000000 3.508990 0.000000 
#    z 0.019010 0.000000 3.229520 
# 
# 
# High freq. dielectric constant tensor:
#      x y z
#    x 1.716990 0.000000 0.003150 
#    y 0.000000 1.741720 0.000000 
#    z 0.003150 0.000000 1.675080 
# 
# From -- ./inp_files/85762.got.cif
#   From: 2010.06.25/outbox.cif.g09.slc.cpg/sg12_43_cif.got.tgz:85762.got - 2010.06.28 00:19:55.
