data_PCOD8084375
_publ_section_title
;
Structure prediction by ZEFSAII (Michael W. Deem and Ramdas Pophale) SiO2 
 PCOD8084375
Probable space group: C 2/M
;
_chemical_formula_sum "Si O2"
_cell_formula_units_Z 64
_cell_length_a 15.448739
_cell_length_b 8.894134
_cell_length_c 32.903949
_cell_angle_alpha 90.000000
_cell_angle_beta 133.499993
_cell_angle_gamma 90.000000
_cell_volume 3279.495090
_symmetry_space_group_name_H-M "C 2/M"
_symmetry_group_IT_number 12
_symmetry_cell_setting 'monoclinic'
loop_
_space_group_symop_operation_xyz
x,y,z
-x,y,-z
-x,-y,-z
x,-y,z
1/2+x,1/2+y,z
1/2-x,1/2+y,-z
1/2-x,1/2-y,-z
1/2+x,1/2-y,z
loop_
_atom_site_type_symbol
_atom_site_label
_atom_site_fract_x
_atom_site_fract_y
_atom_site_fract_z
Si Si1 0.360406 0.327253 0.126378
Si Si2 0.845005 0.821121 0.560514
Si Si3 0.301606 0.322185 0.637613
Si Si4 0.226511 0.323957 0.755772
Si Si5 0.401575 0.820945 0.937014
Si Si6 0.902109 0.322393 0.368972
Si Si7 0.450919 0.177511 0.862663
Si Si8 0.455280 0.673198 0.244880
O O1 0.354351 0.500000 0.110558
O O2 0.228222 0.262570 0.091403
O O3 0.418462 0.230291 0.109231
O O4 0.441899 0.309607 0.192568
O O5 0.750000 0.750000 0.500000
O O6 0.813086 0.761325 0.595413
O O7 0.975103 0.767283 0.589021
O O8 0.839081 0.000000 0.556286
O O9 0.302327 0.500000 0.637960
O O10 0.179050 0.267808 0.619179
O O11 0.414695 0.265768 0.700317
O O12 0.249534 0.500000 0.765034
O O13 0.166234 0.276790 0.694047
O O14 0.353549 0.243679 0.800341
O O15 0.143563 0.274472 0.765903
O O16 0.429542 0.759497 0.901105
O O17 0.402570 0.000000 0.936646
O O18 0.500000 0.757341 0.000000
O O19 0.928533 0.500000 0.379149
O O20 0.442349 0.000000 0.858861
O O21 0.435860 0.500000 0.252127
#
# Coordination Sequence:
#
# PCOD8084375 Si02
#       8
#     8   8   8   8   8   8   8   8
#     4  10  20  36  59  85 115 151 189 236 288 342
#     4  11  23  40  61  84 113 151 194 240 283 332
#     4   9  19  36  60  83 111 150 189 224 274 345
#     4  11  21  34  58  89 120 149 184 235 290 342
#     4   9  19  37  59  81 110 153 199 239 285 341
#     4  10  21  39  61  86 114 148 189 232 279 337
#     4  11  22  37  58  85 116 152 192 236 286 347
#     4  10  18  35  60  85 115 153 192 227 282 351
#
# _framework density 19.5152
#
# number of rings (size 3 to 8) (size 9 to 14) (size 15 to 20)
#    0.000    1.875    2.500    1.875    0.000    4.000 
#    0.000    4.375    0.000    2.625    0.000    0.000 
#    0.000    0.000    0.000    0.000    0.000    0.000 
#
# Total GULP energy -396873.108253 kJ/mol
# GULP energy per Si atom -12402.284633 kJ/mol
# Density = 1.947078 g / cm^3
# Si number density = 19.515200 Si / 1000 Ang^3
#
#
#
# Elastic Constant Matrix: (Units=GPa)
#
#
# Indices 1 2 3 4 5 6 
#
# 1 162.8577 33.4949 66.3451 0.0000 14.5744 0.0000
# 2 33.4949 43.2677 36.5771 0.0000 7.5171 0.0000
# 3 66.3451 36.5771 136.1244 0.0000 18.1339 0.0000
# 4 0.0000 0.0000 0.0000 19.3820 0.0000 3.9792
# 5 14.5744 7.5171 18.1339 0.0000 17.9228 0.0000
# 6 0.0000 0.0000 0.0000 3.9792 0.0000 35.0395
#
#
#
# Elastic Compliance Matrix: (Units=1/GPa)
#
#
# Indices 1 2 3 4 5 6 
#
# 1 0.008206 -0.003654 -0.002696 0.000000 -0.002412 0.000000
# 2 -0.003654 0.031941 -0.006256 0.000000 -0.004095 0.000000
# 3 -0.002696 -0.006256 0.011211 0.000000 -0.006526 0.000000
# 4 0.000000 0.000000 0.000000 0.052826 0.000000 -0.005999
# 5 -0.002412 -0.004095 -0.006526 0.000000 0.066078 0.000000
# 6 0.000000 0.000000 0.000000 -0.005999 0.000000 0.029220
#
#
# Mechanical properties :
#
#
# Convention : Reuss Voigt Hill
#
# Bulk Modulus (GPa) = 38.24857 68.34267 53.29562
# Shear Modulus (GPa) = 21.42154 28.19105 24.80629
#
# Velocity S-wave (km/s) = 3.31673 3.80487 3.56915
# Velocity P-wave (km/s) = 5.85743 7.37557 6.65990
#
# Compressibility (1/GPa) = 0.02614477
#
# Stress axis : x y z
#
# Youngs Moduli (GPa) = 121.85901 31.30781 89.19943
#
# Poissons Ratio (x) = 0.11440 0.24051
# Poissons Ratio (y) = 0.44529 0.55804
# Poissons Ratio (z) = 0.32857 0.19586
#
# Static dielectric constant tensor:
#      x y z
#    x 4.143300 0.000000 0.355220 
#    y 0.000000 3.281650 0.000000 
#    z 0.355220 0.000000 4.081900 
# 
# 
# High freq. dielectric constant tensor:
#      x y z
#    x 1.775210 0.000000 0.003070 
#    y 0.000000 1.731040 0.000000 
#    z 0.003070 0.000000 1.761160 
# 
# From -- ./inp_files/375588.got.cif
#   From: 2010.06.25/outbox.cif.g09.slc.cpg/sg12_188_cif.got.tgz:375588.got - 2010.06.28 00:19:55.
