data_PCOD8084017
_publ_section_title
;
Structure prediction by ZEFSAII (Michael W. Deem and Ramdas Pophale) SiO2 
 PCOD8084017
Probable space group: C 2/M
;
_chemical_formula_sum "Si O2"
_cell_formula_units_Z 48
_cell_length_a 18.616562
_cell_length_b 12.683421
_cell_length_c 11.346226
_cell_angle_alpha 90.000000
_cell_angle_beta 94.574094
_cell_angle_gamma 90.000000
_cell_volume 2670.557297
_symmetry_space_group_name_H-M "C 2/M"
_symmetry_group_IT_number 12
_symmetry_cell_setting 'monoclinic'
loop_
_space_group_symop_operation_xyz
x,y,z
-x,y,-z
-x,-y,-z
x,-y,z
1/2+x,1/2+y,z
1/2-x,1/2+y,-z
1/2-x,1/2-y,-z
1/2+x,1/2-y,z
loop_
_atom_site_type_symbol
_atom_site_label
_atom_site_fract_x
_atom_site_fract_y
_atom_site_fract_z
Si Si1 0.659997 0.803162 0.144259
Si Si2 0.448785 0.000000 0.606081
Si Si3 0.442941 0.000000 0.883555
Si Si4 0.417213 0.621263 0.991243
Si Si5 0.841306 0.314455 0.584330
Si Si6 0.809304 0.120801 0.176624
Si Si7 0.185550 0.879527 0.555109
O O1 0.672559 0.793694 0.282665
O O2 0.741456 0.820162 0.105427
O O3 0.606235 0.897406 0.102657
O O4 0.628292 0.691556 0.103020
O O5 0.500000 0.000000 0.500000
O O6 0.405557 0.894471 0.576457
O O7 0.475225 0.000000 0.750445
O O8 0.500000 0.000000 0.000000
O O9 0.410260 0.500000 0.949848
O O10 0.383542 0.639406 0.116108
O O11 0.500000 0.657874 0.000000
O O12 0.862038 0.203437 0.525371
O O13 0.768318 0.366507 0.523023
O O14 0.825304 0.156080 0.311459
O O15 0.784937 0.000000 0.175368
O O16 0.160033 0.000000 0.529528
#
# Coordination Sequence:
#
# PCOD8084017 Si02
#       7
#     8   4   4   8   8   8   8
#     4  10  18  34  56  76 105 137 178 223 263 319
#     4  10  20  38  56  76 118 149 174 217 275 334
#     4  10  20  36  58  84 107 145 185 220 273 325
#     4  10  21  35  51  73 105 141 173 213 270 325
#     4   9  18  32  53  80 101 142 174 211 277 316
#     4   9  17  33  56  77 100 140 179 218 268 319
#     4   9  16  31  56  78 105 129 179 228 256 317
#
# _framework density 17.973777999999999
#
# number of rings (size 3 to 8) (size 9 to 14) (size 15 to 20)
#    0.000    2.500    1.667    1.000    0.000    0.667 
#    9.000    0.000    0.000    0.500    0.000    0.000 
#    0.000    0.000    0.000    0.000    0.000    0.000 
#
# Total GULP energy -297338.509098 kJ/mol
# GULP energy per Si atom -12389.104546 kJ/mol
# Density = 1.793287 g / cm^3
# Si number density = 17.973778 Si / 1000 Ang^3
#
#
#
# Elastic Constant Matrix: (Units=GPa)
#
#
# Indices 1 2 3 4 5 6 
#
# 1 94.6173 34.7141 45.2434 0.0000 -7.5130 0.0000
# 2 34.7141 101.7202 43.1381 0.0000 10.5142 0.0000
# 3 45.2434 43.1381 61.0051 0.0000 5.9584 0.0000
# 4 0.0000 0.0000 0.0000 35.3038 0.0000 6.7046
# 5 -7.5130 10.5142 5.9584 0.0000 26.2154 0.0000
# 6 0.0000 0.0000 0.0000 6.7046 0.0000 20.2492
#
#
#
# Elastic Compliance Matrix: (Units=1/GPa)
#
#
# Indices 1 2 3 4 5 6 
#
# 1 0.018165 -0.001474 -0.013291 0.000000 0.008818 0.000000
# 2 -0.001474 0.014474 -0.008727 0.000000 -0.004244 0.000000
# 3 -0.013291 -0.008727 0.033187 0.000000 -0.007852 0.000000
# 4 0.000000 0.000000 0.000000 0.030226 0.000000 -0.010008
# 5 0.008818 -0.004244 -0.007852 0.000000 0.044160 0.000000
# 6 0.000000 0.000000 0.000000 -0.010008 0.000000 0.052698
#
#
# Mechanical properties :
#
#
# Convention : Reuss Voigt Hill
#
# Bulk Modulus (GPa) = 53.07277 55.94821 54.51049
# Shear Modulus (GPa) = 20.31087 25.30347 22.80717
#
# Velocity S-wave (km/s) = 3.36524 3.75614 3.56605
# Velocity P-wave (km/s) = 6.68519 7.07154 6.88108
#
# Compressibility (1/GPa) = 0.01884205
#
# Stress axis : x y z
#
# Youngs Moduli (GPa) = 55.05007 69.09158 30.13266
#
# Poissons Ratio (x) = 0.10187 0.40048
# Poissons Ratio (y) = 0.08116 0.26296
# Poissons Ratio (z) = 0.73165 0.60294
#
# Static dielectric constant tensor:
#      x y z
#    x 3.285020 0.000000 -0.088160 
#    y 0.000000 3.435970 0.000000 
#    z -0.088160 0.000000 3.355740 
# 
# 
# High freq. dielectric constant tensor:
#      x y z
#    x 1.681640 0.000000 -0.008740 
#    y 0.000000 1.703170 0.000000 
#    z -0.008740 0.000000 1.686510 
# 
# From -- ./inp_files/164256.got.cif
#   From: 2010.06.25/outbox.cif.g09.slc.cpg/sg12_83_cif.got.tgz:164256.got - 2010.06.28 00:19:55.
