data_PCOD8084692
_publ_section_title
;
Structure prediction by ZEFSAII (Michael W. Deem and Ramdas Pophale) SiO2 
 PCOD8084692
Probable space group: C 2/M
;
_chemical_formula_sum "Si O2"
_cell_formula_units_Z 48
_cell_length_a 23.855393
_cell_length_b 8.951112
_cell_length_c 15.449446
_cell_angle_alpha 90.000000
_cell_angle_beta 59.448644
_cell_angle_gamma 90.000000
_cell_volume 2840.974480
_symmetry_space_group_name_H-M "C 2/M"
_symmetry_group_IT_number 12
_symmetry_cell_setting 'monoclinic'
loop_
_space_group_symop_operation_xyz
x,y,z
-x,y,-z
-x,-y,-z
x,-y,z
1/2+x,1/2+y,z
1/2-x,1/2+y,-z
1/2-x,1/2-y,-z
1/2+x,1/2-y,z
loop_
_atom_site_type_symbol
_atom_site_label
_atom_site_fract_x
_atom_site_fract_y
_atom_site_fract_z
Si Si1 0.992413 0.666194 0.770170
Si Si2 0.827721 0.174042 0.755894
Si Si3 0.456613 0.178021 0.613851
Si Si4 0.844823 0.331903 0.918548
Si Si5 0.814849 0.675709 0.129110
Si Si6 0.445493 0.179131 0.110025
O O1 0.018715 0.500000 0.731954
O O2 0.987924 0.744438 0.678580
O O3 0.039556 0.743584 0.804554
O O4 0.922170 0.662168 0.869651
O O5 0.825270 0.220454 0.857853
O O6 0.755812 0.211120 0.772992
O O7 0.883084 0.262312 0.659546
O O8 0.843525 0.000000 0.736853
O O9 0.500000 0.233830 0.500000
O O10 0.451853 0.000000 0.622400
O O11 0.819092 0.500000 0.918646
O O12 0.816038 0.262811 0.029721
O O13 0.826536 0.500000 0.111936
O O14 0.874087 0.741920 0.139697
O O15 0.447866 0.000000 0.111455
O O16 0.500000 0.237967 0.000000
#
# Coordination Sequence:
#
# PCOD8084692 Si02
#       6
#     8   8   8   8   8   8
#     4   8  13  22  40  65  86 106 140 182 218 243
#     4  10  19  28  40  64  93 116 141 175 221 267
#     4   9  18  33  51  67  82 105 143 189 226 259
#     4   9  15  26  42  61  88 120 151 178 204 244
#     4   9  16  24  37  61  93 122 146 176 210 249
#     4   9  13  20  37  62  90 117 143 177 211 240
#
# _framework density 16.895612
#
# number of rings (size 3 to 8) (size 9 to 14) (size 15 to 20)
#    0.000    3.000    1.667    2.000    0.000    0.333 
#    0.000    0.833    0.000    1.000    0.000   18.667 
#    0.000    0.000    0.000    0.000    0.000    0.167 
#
# Total GULP energy -297319.721756 kJ/mol
# GULP energy per Si atom -12388.321740 kJ/mol
# Density = 1.685716 g / cm^3
# Si number density = 16.895612 Si / 1000 Ang^3
#
#
#
# Elastic Constant Matrix: (Units=GPa)
#
#
# Indices 1 2 3 4 5 6 
#
# 1 113.9388 16.3423 63.8976 0.0000 -15.0902 0.0000
# 2 16.3423 17.7994 15.9055 0.0000 -3.5314 -0.0001
# 3 63.8976 15.9055 117.8238 0.0000 -4.8814 0.0000
# 4 0.0000 0.0000 0.0000 15.5855 0.0000 -3.7975
# 5 -15.0902 -3.5314 -4.8814 0.0000 18.1634 0.0000
# 6 0.0000 -0.0001 0.0000 -3.7975 0.0000 12.2258
#
#
#
# Elastic Compliance Matrix: (Units=1/GPa)
#
#
# Indices 1 2 3 4 5 6 
#
# 1 0.014597 -0.005502 -0.006791 0.000000 0.009232 0.000000
# 2 -0.005502 0.067894 -0.005890 0.000000 0.007047 0.000001
# 3 -0.006791 -0.005890 0.012827 0.000000 -0.003340 0.000000
# 4 0.000000 0.000000 0.000000 0.069416 0.000000 0.021561
# 5 0.009232 0.007047 -0.003340 0.000000 0.063199 0.000000
# 6 0.000000 0.000001 0.000000 0.021561 0.000000 0.088491
#
#
# Mechanical properties :
#
#
# Convention : Reuss Voigt Hill
#
# Bulk Modulus (GPa) = 16.96263 49.09474 33.02869
# Shear Modulus (GPa) = 13.42500 19.42272 16.42386
#
# Velocity S-wave (km/s) = 2.82190 3.39421 3.12120
# Velocity P-wave (km/s) = 4.54741 6.66946 5.70792
#
# Compressibility (1/GPa) = 0.05895312
#
# Stress axis : x y z
#
# Youngs Moduli (GPa) = 68.50766 14.72878 77.96208
#
# Poissons Ratio (x) = 0.08104 0.52943
# Poissons Ratio (y) = 0.37692 0.45917
# Poissons Ratio (z) = 0.46523 0.08675
#
# Static dielectric constant tensor:
#      x y z
#    x 3.430340 0.000000 -0.023920 
#    y 0.000000 2.689670 0.000000 
#    z -0.023920 0.000000 3.076720 
# 
# 
# High freq. dielectric constant tensor:
#      x y z
#    x 1.654060 0.000000 -0.007450 
#    y 0.000000 1.599240 0.000000 
#    z -0.007450 0.000000 1.627240 
# 
# From -- ./inp_files/236842.got.cif
#   From: 2010.06.25/outbox.cif.g09.slc.cpg/sg12_119_cif.got.tgz:236842.got - 2010.06.28 00:19:55.
