data_PCOD8084001
_publ_section_title
;
Structure prediction by ZEFSAII (Michael W. Deem and Ramdas Pophale) SiO2 
 PCOD8084001
Probable space group: C 2/M
;
_chemical_formula_sum "Si O2"
_cell_formula_units_Z 44
_cell_length_a 23.964925
_cell_length_b 11.994001
_cell_length_c 11.127640
_cell_angle_alpha 90.000000
_cell_angle_beta 50.357359
_cell_angle_gamma 90.000000
_cell_volume 2462.950828
_symmetry_space_group_name_H-M "C 2/M"
_symmetry_group_IT_number 12
_symmetry_cell_setting 'monoclinic'
loop_
_space_group_symop_operation_xyz
x,y,z
-x,y,-z
-x,-y,-z
x,-y,z
1/2+x,1/2+y,z
1/2-x,1/2+y,-z
1/2-x,1/2-y,-z
1/2+x,1/2-y,z
loop_
_atom_site_type_symbol
_atom_site_label
_atom_site_fract_x
_atom_site_fract_y
_atom_site_fract_z
Si Si1 0.684796 0.373825 0.524751
Si Si2 0.173151 0.500000 0.281765
Si Si3 0.559585 0.785517 0.758326
Si Si4 0.548597 0.000000 0.621273
Si Si5 0.383039 0.000000 0.894319
Si Si6 0.599580 0.208701 0.969511
Si Si7 0.237769 0.816889 0.706921
O O1 0.675340 0.500000 0.491651
O O2 0.605755 0.320271 0.652553
O O3 0.728031 0.305514 0.363161
O O4 0.728776 0.375296 0.589779
O O5 0.089064 0.500000 0.438046
O O6 0.174572 0.500000 0.135186
O O7 0.212162 0.389592 0.276091
O O8 0.475556 0.746238 0.870224
O O9 0.575554 0.889825 0.652013
O O10 0.583448 0.829994 0.856000
O O11 0.462670 0.000000 0.726341
O O12 0.370171 0.893268 0.994758
O O13 0.660796 0.304471 0.881581
#
# Coordination Sequence:
#
# PCOD8084001 Si02
#       7
#     8   4   8   4   4   8   8
#     4  10  19  33  53  82 106 136 168 212 270 321
#     4  12  21  36  52  79 107 140 175 219 259 304
#     4   9  17  33  56  79 109 132 170 219 264 307
#     4  10  18  34  55  81 103 133 174 223 267 303
#     4  10  22  34  55  75 106 143 181 210 253 313
#     4   9  19  34  50  81 104 141 171 210 264 308
#     4  10  21  33  53  78 111 134 171 219 262 308
#
# _framework density 17.864750000000001
#
# number of rings (size 3 to 8) (size 9 to 14) (size 15 to 20)
#    0.000    2.182    2.727    0.818    1.273    2.909 
#    1.636    1.818    0.000    0.000    0.000    5.091 
#    0.000    0.000    0.000    0.000    0.000    0.000 
#
# Total GULP energy -272754.022174 kJ/mol
# GULP energy per Si atom -12397.910099 kJ/mol
# Density = 1.782409 g / cm^3
# Si number density = 17.864750 Si / 1000 Ang^3
#
#
#
# Elastic Constant Matrix: (Units=GPa)
#
#
# Indices 1 2 3 4 5 6 
#
# 1 71.9406 40.7587 33.5736 0.0000 3.8785 0.0000
# 2 40.7587 114.7691 31.4182 0.0000 0.3852 0.0000
# 3 33.5736 31.4182 65.6851 0.0000 -8.4849 0.0000
# 4 0.0000 0.0000 0.0000 18.0734 0.0000 -2.6210
# 5 3.8785 0.3852 -8.4849 0.0000 26.1721 0.0000
# 6 0.0000 0.0000 0.0000 -2.6210 0.0000 21.0515
#
#
#
# Elastic Compliance Matrix: (Units=1/GPa)
#
#
# Indices 1 2 3 4 5 6 
#
# 1 0.021446 -0.005038 -0.009344 0.000000 -0.006133 0.000000
# 2 -0.005038 0.011289 -0.002870 0.000000 -0.000350 0.000000
# 3 -0.009344 -0.002870 0.022500 0.000000 0.008721 0.000000
# 4 0.000000 0.000000 0.000000 0.056347 0.000000 0.007015
# 5 -0.006133 -0.000350 0.008721 0.000000 0.041950 0.000000
# 6 0.000000 0.000000 0.000000 0.007015 0.000000 0.048376
#
#
# Mechanical properties :
#
#
# Convention : Reuss Voigt Hill
#
# Bulk Modulus (GPa) = 48.23787 51.54398 49.89093
# Shear Modulus (GPa) = 20.54885 22.83570 21.69227
#
# Velocity S-wave (km/s) = 3.39521 3.57915 3.48839
# Velocity P-wave (km/s) = 6.51385 6.78199 6.64927
#
# Compressibility (1/GPa) = 0.02073060
#
# Stress axis : x y z
#
# Youngs Moduli (GPa) = 46.62865 88.58129 44.44499
#
# Poissons Ratio (x) = 0.44624 0.41531
# Poissons Ratio (y) = 0.23490 0.12756
# Poissons Ratio (z) = 0.43572 0.25423
#
# Static dielectric constant tensor:
#      x y z
#    x 3.243410 0.000000 -0.273480 
#    y 0.000000 3.089200 0.000000 
#    z -0.273480 0.000000 3.323410 
# 
# 
# High freq. dielectric constant tensor:
#      x y z
#    x 1.679990 0.000000 -0.022960 
#    y 0.000000 1.675150 0.000000 
#    z -0.022960 0.000000 1.687000 
# 
# From -- ./inp_files/94853.got.cif
#   From: 2010.06.25/outbox.cif.g09.slc.cpg/sg12_48_cif.got.tgz:94853.got - 2010.06.28 00:19:55.
