data_PCOD8084147
_publ_section_title
;
Structure prediction by ZEFSAII (Michael W. Deem and Ramdas Pophale) SiO2 
 PCOD8084147
Probable space group: C 2/M
;
_chemical_formula_sum "Si O2"
_cell_formula_units_Z 56
_cell_length_a 31.117382
_cell_length_b 23.236435
_cell_length_c 12.822280
_cell_angle_alpha 90.000000
_cell_angle_beta 160.587984
_cell_angle_gamma 90.000000
_cell_volume 3081.379336
_symmetry_space_group_name_H-M "C 2/M"
_symmetry_group_IT_number 12
_symmetry_cell_setting 'monoclinic'
loop_
_space_group_symop_operation_xyz
x,y,z
-x,y,-z
-x,-y,-z
x,-y,z
1/2+x,1/2+y,z
1/2-x,1/2+y,-z
1/2-x,1/2-y,-z
1/2+x,1/2-y,z
loop_
_atom_site_type_symbol
_atom_site_label
_atom_site_fract_x
_atom_site_fract_y
_atom_site_fract_z
Si Si1 0.481642 0.280664 0.835590
Si Si2 0.609061 0.933181 0.335832
Si Si3 0.129521 0.063286 0.398184
Si Si4 0.257928 0.152520 0.797999
Si Si5 0.482162 0.837328 0.717788
Si Si6 0.638566 0.391594 0.202302
Si Si7 0.865306 0.706377 0.242439
O O1 0.340285 0.299118 0.470903
O O2 0.505596 0.218903 0.841171
O O3 0.500000 0.272700 0.000000
O O4 0.588528 0.329074 0.047614
O O5 0.580369 0.891407 0.366415
O O6 0.745116 0.912990 0.601277
O O7 0.615955 0.000000 0.387810
O O8 0.500000 0.924679 0.000000
O O9 0.189924 0.089941 0.641511
O O10 0.172334 0.107846 0.403476
O O11 0.184426 0.000000 0.501602
O O12 0.975755 0.061056 0.063928
O O13 0.376690 0.145459 0.992880
O O14 0.305586 0.161850 0.024038
O O15 0.392324 0.824842 0.412751
O O16 0.000000 0.732629 0.500000
O O17 0.750000 0.750000 0.000000
#
# Coordination Sequence:
#
# PCOD8084147 Si02
#       7
#     8   8   8   8   8   8   8
#     4  11  21  34  56  88 118 146 185 237 298 345
#     4  11  24  39  55  82 121 162 198 233 291 358
#     4  10  18  34  59  82 113 152 191 238 283 339
#     4  10  21  38  55  86 113 146 197 236 284 352
#     4  11  24  37  59  84 118 156 191 244 294 346
#     4  10  19  34  56  85 115 154 192 233 284 355
#     4  10  21  40  62  83 115 155 201 245 297 357
#
# _framework density 18.173680000000001
#
# number of rings (size 3 to 8) (size 9 to 14) (size 15 to 20)
#    0.000    1.571    4.286    3.000    2.000    2.286 
#    0.000    0.714    0.000    2.571    0.000    5.000 
#    0.000    0.000    0.000    0.000    0.000    0.000 
#
# Total GULP energy -346904.655978 kJ/mol
# GULP energy per Si atom -12389.451999 kJ/mol
# Density = 1.813232 g / cm^3
# Si number density = 18.173680 Si / 1000 Ang^3
#
#
#
# Elastic Constant Matrix: (Units=GPa)
#
#
# Indices 1 2 3 4 5 6 
#
# 1 100.8880 61.4176 50.1507 0.0000 3.1694 0.0000
# 2 61.4176 124.2430 46.0476 0.0000 -0.1734 0.0000
# 3 50.1507 46.0476 90.5373 0.0000 -10.0969 0.0000
# 4 0.0000 0.0000 0.0000 7.2322 0.0000 -9.0544
# 5 3.1694 -0.1734 -10.0969 0.0000 32.6039 0.0000
# 6 0.0000 0.0000 0.0000 -9.0544 0.0000 10.2955
#
#
#
# Elastic Compliance Matrix: (Units=1/GPa)
#
#
# Indices 1 2 3 4 5 6 
#
# 1 0.017021 -0.005875 -0.006865 0.000000 -0.003812 0.000000
# 2 -0.005875 0.012024 -0.002890 0.000000 -0.000260 0.000000
# 3 -0.006865 -0.002890 0.016977 0.000000 0.005909 0.000000
# 4 0.000000 0.000000 0.000000 -1.368499 0.000000 -1.203535
# 5 -0.003812 -0.000260 0.005909 0.000000 0.032870 0.000000
# 6 0.000000 0.000000 0.000000 -1.203535 0.000000 -0.961327
#
#
# Mechanical properties :
#
#
# Convention : Reuss Voigt Hill
#
# Bulk Modulus (GPa) = 67.74634 70.09999 68.92316
# Shear Modulus (GPa) = -2.25759 20.56315 9.15278
#
# Velocity S-wave (km/s) = -1.11576 3.36740 2.24660
# Velocity P-wave (km/s) = 5.97480 7.33315 6.68855
#
# Compressibility (1/GPa) = 0.01476095
#
# Stress axis : x y z
#
# Youngs Moduli (GPa) = 58.75118 83.16939 58.90318
#
# Poissons Ratio (x) = 0.48861 0.40440
# Poissons Ratio (y) = 0.34516 0.17023
# Poissons Ratio (z) = 0.40335 0.24036
#
# Static dielectric constant tensor:
#      x y z
#    x 2.851030 0.000000 0.365090 
#    y 0.000000 3.387560 0.000000 
#    z 0.365090 0.000000 3.320030 
# 
# 
# High freq. dielectric constant tensor:
#      x y z
#    x 1.690190 0.000000 0.006170 
#    y 0.000000 1.698780 0.000000 
#    z 0.006170 0.000000 1.719770 
# 
# From -- ./inp_files/190400.got.cif
#   From: 2010.06.25/outbox.cif.g09.slc.cpg/sg12_96_cif.got.tgz:190400.got - 2010.06.28 00:19:55.
