data_PCOD8084817
_publ_section_title
;
Structure prediction by ZEFSAII (Michael W. Deem and Ramdas Pophale) SiO2 
 PCOD8084817
Probable space group: C 2/M
;
_chemical_formula_sum "Si O2"
_cell_formula_units_Z 64
_cell_length_a 27.243340
_cell_length_b 8.976764
_cell_length_c 16.310818
_cell_angle_alpha 90.000000
_cell_angle_beta 86.579216
_cell_angle_gamma 90.000000
_cell_volume 3981.817996
_symmetry_space_group_name_H-M "C 2/M"
_symmetry_group_IT_number 12
_symmetry_cell_setting 'monoclinic'
loop_
_space_group_symop_operation_xyz
x,y,z
-x,y,-z
-x,-y,-z
x,-y,z
1/2+x,1/2+y,z
1/2-x,1/2+y,-z
1/2-x,1/2-y,-z
1/2+x,1/2-y,z
loop_
_atom_site_type_symbol
_atom_site_label
_atom_site_fract_x
_atom_site_fract_y
_atom_site_fract_z
Si Si1 0.290640 0.667922 0.102440
Si Si2 0.350121 0.673831 0.786337
Si Si3 0.417100 0.176345 0.648588
Si Si4 0.216578 0.173152 0.570503
Si Si5 0.521185 0.163564 0.588406
Si Si6 0.320578 0.167852 0.946864
Si Si7 0.240785 0.673976 0.737773
Si Si8 0.608607 0.328481 0.516033
O O1 0.309593 0.500000 0.115385
O O2 0.235808 0.665907 0.073785
O O3 0.292806 0.758776 0.186801
O O4 0.326076 0.748348 0.033236
O O5 0.360713 0.500000 0.793623
O O6 0.392301 0.749006 0.728925
O O7 0.352422 0.745099 0.876296
O O8 0.297976 0.704726 0.748916
O O9 0.475281 0.217209 0.648801
O O10 0.392741 0.236135 0.567635
O O11 0.408849 0.000000 0.651000
O O12 0.250000 0.250000 0.500000
O O13 0.226644 0.245643 0.656341
O O14 0.160100 0.199343 0.554272
O O15 0.230146 0.000000 0.572678
O O16 0.500000 0.151388 0.500000
O O17 0.566696 0.277579 0.585138
O O18 0.539795 0.000000 0.614829
O O19 0.340751 0.000000 0.953688
O O20 0.229504 0.500000 0.731892
O O21 0.600120 0.500000 0.494335
#
# Coordination Sequence:
#
# PCOD8084817 Si02
#       8
#     8   8   8   8   8   8   8   8
#     4   9  16  27  43  61  83 112 145 181 218 255
#     4  10  19  29  42  63  90 117 147 181 217 259
#     4  10  19  30  45  65  88 114 144 177 217 265
#     4  11  23  35  46  63  87 116 151 187 221 257
#     4   8  16  30  46  64  84 108 140 176 216 263
#     4   9  16  26  41  61  85 114 145 176 214 259
#     4  10  20  32  45  62  85 116 153 187 218 256
#     4  10  20  32  46  64  85 111 146 185 221 258
#
# _framework density 16.073060999999999
#
# number of rings (size 3 to 8) (size 9 to 14) (size 15 to 20)
#    0.000    2.375    0.000    4.125    0.000   12.250 
#    0.000    0.000    0.000    0.000    0.000    0.000 
#    0.000    1.000    0.000   10.500    0.000    6.250 
#
# Total GULP energy -396774.386652 kJ/mol
# GULP energy per Si atom -12399.199583 kJ/mol
# Density = 1.603648 g / cm^3
# Si number density = 16.073061 Si / 1000 Ang^3
#
#
#
# Elastic Constant Matrix: (Units=GPa)
#
#
# Indices 1 2 3 4 5 6 
#
# 1 60.9168 55.3458 49.7050 0.0000 -18.5470 0.0000
# 2 55.3458 130.6412 72.9863 0.0000 -17.2686 0.0000
# 3 49.7050 72.9863 135.7063 0.0000 -25.4135 0.0000
# 4 0.0000 0.0000 0.0000 34.0507 0.0000 -5.0236
# 5 -18.5470 -17.2686 -25.4135 0.0000 22.5034 0.0000
# 6 0.0000 0.0000 0.0000 -5.0236 0.0000 22.2323
#
#
#
# Elastic Compliance Matrix: (Units=1/GPa)
#
#
# Indices 1 2 3 4 5 6 
#
# 1 0.033317 -0.009827 -0.004043 0.000000 0.015353 0.000000
# 2 -0.009827 0.013929 -0.004321 0.000000 -0.002290 0.000000
# 3 -0.004043 -0.004321 0.012592 0.000000 0.007572 0.000000
# 4 0.000000 0.000000 0.000000 0.030381 0.000000 0.006865
# 5 0.015353 -0.002290 0.007572 0.000000 0.063885 0.000000
# 6 0.000000 0.000000 0.000000 0.006865 0.000000 0.046531
#
#
# Mechanical properties :
#
#
# Convention : Reuss Voigt Hill
#
# Bulk Modulus (GPa) = 42.63191 75.92649 59.27920
# Shear Modulus (GPa) = 20.42201 25.70578 23.06390
#
# Velocity S-wave (km/s) = 3.56838 4.00347 3.79217
# Velocity P-wave (km/s) = 6.59994 8.28923 7.49235
#
# Compressibility (1/GPa) = 0.02345661
#
# Stress axis : x y z
#
# Youngs Moduli (GPa) = 30.01472 71.79321 79.41833
#
# Poissons Ratio (x) = 0.70548 0.32108
# Poissons Ratio (y) = 0.29494 0.34317
# Poissons Ratio (z) = 0.12134 0.31022
#
# Static dielectric constant tensor:
#      x y z
#    x 2.934430 0.000000 -0.313960 
#    y 0.000000 3.277790 0.000000 
#    z -0.313960 0.000000 3.060770 
# 
# 
# High freq. dielectric constant tensor:
#      x y z
#    x 1.575060 0.000000 -0.025930 
#    y 0.000000 1.639540 0.000000 
#    z -0.025930 0.000000 1.610710 
# 
# From -- ./inp_files/243931.got.cif
#   From: 2010.06.25/outbox.cif.g09.slc.cpg/sg12_122_cif.got.tgz:243931.got - 2010.06.28 00:19:55.
