data_PCOD8084048
_publ_section_title
;
Structure prediction by ZEFSAII (Michael W. Deem and Ramdas Pophale) SiO2 
 PCOD8084048
Probable space group: C 2/M
;
_chemical_formula_sum "Si O2"
_cell_formula_units_Z 64
_cell_length_a 14.509881
_cell_length_b 9.179884
_cell_length_c 27.025605
_cell_angle_alpha 90.000000
_cell_angle_beta 103.856321
_cell_angle_gamma 90.000000
_cell_volume 3495.028108
_symmetry_space_group_name_H-M "C 2/M"
_symmetry_group_IT_number 12
_symmetry_cell_setting 'monoclinic'
loop_
_space_group_symop_operation_xyz
x,y,z
-x,y,-z
-x,-y,-z
x,-y,z
1/2+x,1/2+y,z
1/2-x,1/2+y,-z
1/2-x,1/2-y,-z
1/2+x,1/2-y,z
loop_
_atom_site_type_symbol
_atom_site_label
_atom_site_fract_x
_atom_site_fract_y
_atom_site_fract_z
Si Si1 0.696903 0.666823 0.597793
Si Si2 0.462672 0.328569 0.133523
Si Si3 0.419693 0.326037 0.325239
Si Si4 0.841527 0.328344 0.865925
Si Si5 0.774275 0.830319 0.053049
Si Si6 0.102147 0.837376 0.489566
Si Si7 0.408814 0.167122 0.612325
Si Si8 0.845084 0.827067 0.211075
O O1 0.663706 0.500000 0.589656
O O2 0.639573 0.737728 0.635889
O O3 0.671677 0.733487 0.540491
O O4 0.806780 0.681644 0.624792
O O5 0.482526 0.500000 0.136574
O O6 0.559654 0.249594 0.132015
O O7 0.380795 0.288388 0.083549
O O8 0.424742 0.273546 0.182187
O O9 0.425601 0.500000 0.325901
O O10 0.524105 0.259806 0.343298
O O11 0.371728 0.268060 0.268759
O O12 0.858053 0.500000 0.863135
O O13 0.803241 0.287041 0.915466
O O14 0.760886 0.273356 0.816755
O O15 0.768415 0.000000 0.041793
O O16 0.750000 0.750000 0.000000
O O17 0.097980 0.728678 0.443547
O O18 0.000000 0.849756 0.500000
O O19 0.135567 0.000000 0.476891
O O20 0.442519 0.000000 0.613839
O O21 0.844036 0.000000 0.208821
#
# Coordination Sequence:
#
# PCOD8084048 Si02
#       8
#     8   8   8   8   8   8   8   8
#     4   9  19  34  52  74 100 130 164 201 244 299
#     4   9  18  34  53  77 105 136 172 216 260 304
#     4  10  19  37  58  73  96 136 174 202 243 308
#     4   9  18  34  54  78 103 136 177 216 254 304
#     4   9  19  34  51  74 110 144 178 215 256 304
#     4  10  18  34  57  74  94 132 175 201 233 305
#     4  11  22  34  50  78 108 128 157 209 262 297
#     4   8  17  34  56  75  97 132 173 211 252 301
#
# _framework density 18.311727000000001
#
# number of rings (size 3 to 8) (size 9 to 14) (size 15 to 20)
#    0.000    2.625    1.250    2.250    0.000    2.750 
#    0.000    8.750    0.000    0.000    0.000    0.000 
#    0.000    0.000    0.000    0.000    0.000    0.000 
#
# Total GULP energy -396665.728456 kJ/mol
# GULP energy per Si atom -12395.804014 kJ/mol
# Density = 1.827005 g / cm^3
# Si number density = 18.311727 Si / 1000 Ang^3
#
#
#
# Elastic Constant Matrix: (Units=GPa)
#
#
# Indices 1 2 3 4 5 6 
#
# 1 128.7136 37.6717 57.0389 0.0000 11.4631 0.0000
# 2 37.6717 40.0118 39.0955 0.0000 3.6280 0.0000
# 3 57.0389 39.0955 145.4458 0.0000 18.1946 0.0000
# 4 0.0000 0.0000 0.0000 8.7068 0.0000 9.1539
# 5 11.4631 3.6280 18.1946 0.0000 19.0145 0.0000
# 6 0.0000 0.0000 0.0000 9.1539 0.0000 29.6672
#
#
#
# Elastic Compliance Matrix: (Units=1/GPa)
#
#
# Indices 1 2 3 4 5 6 
#
# 1 0.011395 -0.008783 -0.001657 0.000000 -0.003609 0.000000
# 2 -0.008783 0.040774 -0.008184 0.000000 0.005347 0.000000
# 3 -0.001657 -0.008184 0.010684 0.000000 -0.007663 0.000000
# 4 0.000000 0.000000 0.000000 0.170001 0.000000 -0.052454
# 5 -0.003609 0.005347 -0.007663 0.000000 0.061079 0.000000
# 6 0.000000 0.000000 0.000000 -0.052454 0.000000 0.049892
#
#
# Mechanical properties :
#
#
# Convention : Reuss Voigt Hill
#
# Bulk Modulus (GPa) = 39.05483 64.64263 51.84873
# Shear Modulus (GPa) = 12.83340 23.50203 18.16772
#
# Velocity S-wave (km/s) = 2.65019 3.58640 3.15324
# Velocity P-wave (km/s) = 5.54425 7.24759 6.45238
#
# Compressibility (1/GPa) = 0.02560503
#
# Stress axis : x y z
#
# Youngs Moduli (GPa) = 87.75579 24.52535 93.60161
#
# Poissons Ratio (x) = 0.21541 0.15505
# Poissons Ratio (y) = 0.77076 0.76608
# Poissons Ratio (z) = 0.14537 0.20073
#
# Static dielectric constant tensor:
#      x y z
#    x 3.475970 0.000000 0.064320 
#    y 0.000000 3.103790 0.000000 
#    z 0.064320 0.000000 3.696460 
# 
# 
# High freq. dielectric constant tensor:
#      x y z
#    x 1.717590 0.000000 0.005680 
#    y 0.000000 1.679270 0.000000 
#    z 0.005680 0.000000 1.712990 
# 
# From -- ./inp_files/359880.got.cif
#   From: 2010.06.25/outbox.cif.g09.slc.cpg/sg12_180_cif.got.tgz:359880.got - 2010.06.28 00:19:55.
