data_PCOD8084321
_publ_section_title
;
Structure prediction by ZEFSAII (Michael W. Deem and Ramdas Pophale) SiO2 
 PCOD8084321
Probable space group: C 2/M
;
_chemical_formula_sum "Si O2"
_cell_formula_units_Z 40
_cell_length_a 17.930418
_cell_length_b 26.299556
_cell_length_c 7.448289
_cell_angle_alpha 90.000000
_cell_angle_beta 144.516585
_cell_angle_gamma 90.000000
_cell_volume 2038.792798
_symmetry_space_group_name_H-M "C 2/M"
_symmetry_group_IT_number 12
_symmetry_cell_setting 'monoclinic'
loop_
_space_group_symop_operation_xyz
x,y,z
-x,y,-z
-x,-y,-z
x,-y,z
1/2+x,1/2+y,z
1/2-x,1/2+y,-z
1/2-x,1/2-y,-z
1/2+x,1/2-y,z
loop_
_atom_site_type_symbol
_atom_site_label
_atom_site_fract_x
_atom_site_fract_y
_atom_site_fract_z
Si Si1 0.747574 0.816217 0.673942
Si Si2 0.356430 0.376313 0.199885
Si Si3 0.764273 0.202778 0.308058
Si Si4 0.481585 0.848923 0.248348
Si Si5 0.627949 0.944151 0.867897
O O1 0.810172 0.809699 0.600991
O O2 0.709910 0.761684 0.687561
O O3 0.614179 0.847164 0.401683
O O4 0.846218 0.847414 0.989889
O O5 0.500000 0.399108 0.500000
O O6 0.337518 0.334197 0.316987
O O7 0.252200 0.421911 0.004230
O O8 0.610050 0.196776 0.991991
O O9 0.500000 0.846952 0.500000
O O10 0.409117 0.902250 0.054059
O O11 0.500000 0.950404 0.500000
O O12 0.664328 0.000000 0.017893
#
# Coordination Sequence:
#
# PCOD8084321 Si02
#       5
#     8   8   8   8   8
#     4  11  21  36  53  80 117 154 191 228 275 332
#     4  11  23  37  57  83 115 150 187 236 283 333
#     4  10  23  34  54  80 114 158 191 226 274 335
#     4  10  18  35  58  84 108 147 190 238 276 328
#     4   9  17  36  63  86 107 143 192 236 289 340
#
# _framework density 19.619453
#
# number of rings (size 3 to 8) (size 9 to 14) (size 15 to 20)
#    0.000    1.800    6.000    1.200    2.800    1.200 
#    0.000    0.000    0.000   14.400    0.000    7.000 
#    0.000    0.000    0.000    0.000    0.000    0.000 
#
# Total GULP energy -247820.986544 kJ/mol
# GULP energy per Si atom -12391.049327 kJ/mol
# Density = 1.957480 g / cm^3
# Si number density = 19.619453 Si / 1000 Ang^3
#
#
#
# Elastic Constant Matrix: (Units=GPa)
#
#
# Indices 1 2 3 4 5 6 
#
# 1 37.2766 20.4656 30.9034 0.0000 3.0333 0.0000
# 2 20.4656 116.8381 37.9281 0.0000 2.1700 0.0000
# 3 30.9034 37.9281 94.4698 0.0000 21.6571 0.0000
# 4 0.0000 0.0000 0.0000 10.0220 0.0000 4.8654
# 5 3.0333 2.1700 21.6571 0.0000 30.8224 0.0000
# 6 0.0000 0.0000 0.0000 4.8654 0.0000 13.4840
#
#
#
# Elastic Compliance Matrix: (Units=1/GPa)
#
#
# Indices 1 2 3 4 5 6 
#
# 1 0.038406 -0.002703 -0.012701 0.000000 0.005335 0.000000
# 2 -0.002703 0.010194 -0.003701 0.000000 0.002149 0.000000
# 3 -0.012701 -0.003701 0.018929 0.000000 -0.011790 0.000000
# 4 0.000000 0.000000 0.000000 0.120972 0.000000 -0.043650
# 5 0.005335 0.002149 -0.011790 0.000000 0.040052 0.000000
# 6 0.000000 0.000000 0.000000 -0.043650 0.000000 0.089912
#
#
# Mechanical properties :
#
#
# Convention : Reuss Voigt Hill
#
# Bulk Modulus (GPa) = 34.10886 47.46431 40.78659
# Shear Modulus (GPa) = 13.64446 21.48483 17.56464
#
# Velocity S-wave (km/s) = 2.64001 3.31279 2.99535
# Velocity P-wave (km/s) = 5.16874 6.23520 5.72685
#
# Compressibility (1/GPa) = 0.02931789
#
# Stress axis : x y z
#
# Youngs Moduli (GPa) = 26.03732 98.09819 52.82891
#
# Poissons Ratio (x) = 0.26518 0.67100
# Poissons Ratio (y) = 0.07039 0.19552
# Poissons Ratio (z) = 0.33071 0.36306
#
# Static dielectric constant tensor:
#      x y z
#    x 3.342980 0.000000 0.073050 
#    y 0.000000 4.008370 0.000000 
#    z 0.073050 0.000000 3.610110 
# 
# 
# High freq. dielectric constant tensor:
#      x y z
#    x 1.742220 0.000000 0.008330 
#    y 0.000000 1.755070 0.000000 
#    z 0.008330 0.000000 1.760620 
# 
# From -- ./inp_files/90753.got.cif
#   From: 2010.06.25/outbox.cif.g09.slc.cpg/sg12_46_cif.got.tgz:90753.got - 2010.06.28 00:19:55.
