data_PCOD8084043
_publ_section_title
;
Structure prediction by ZEFSAII (Michael W. Deem and Ramdas Pophale) SiO2 
 PCOD8084043
Probable space group: C 2/M
;
_chemical_formula_sum "Si O2"
_cell_formula_units_Z 52
_cell_length_a 19.776065
_cell_length_b 9.802083
_cell_length_c 17.367993
_cell_angle_alpha 90.000000
_cell_angle_beta 50.778221
_cell_angle_gamma 90.000000
_cell_volume 2608.217449
_symmetry_space_group_name_H-M "C 2/M"
_symmetry_group_IT_number 12
_symmetry_cell_setting 'monoclinic'
loop_
_space_group_symop_operation_xyz
x,y,z
-x,y,-z
-x,-y,-z
x,-y,z
1/2+x,1/2+y,z
1/2-x,1/2+y,-z
1/2-x,1/2-y,-z
1/2+x,1/2-y,z
loop_
_atom_site_type_symbol
_atom_site_label
_atom_site_fract_x
_atom_site_fract_y
_atom_site_fract_z
Si Si1 0.290357 0.847748 0.032482
Si Si2 0.082864 0.158412 0.492974
Si Si3 0.686236 0.352774 0.857232
Si Si4 0.492068 0.851261 0.851676
Si Si5 0.750566 0.655320 0.642724
Si Si6 0.084029 0.157591 0.670974
Si Si7 0.000000 0.219599 0.000000
O O1 0.272268 0.775176 0.127736
O O2 0.248359 0.000000 0.065051
O O3 0.250000 0.750000 0.000000
O O4 0.389832 0.859143 0.937993
O O5 0.166363 0.247265 0.410350
O O6 0.063547 0.186114 0.596534
O O7 0.000000 0.202076 0.500000
O O8 0.105433 0.000000 0.462528
O O9 0.730114 0.500000 0.847273
O O10 0.694930 0.327809 0.760326
O O11 0.585062 0.370325 0.956361
O O12 0.514919 0.745098 0.768503
O O13 0.532110 0.811471 0.905167
O O14 0.528738 0.000000 0.801321
O O15 0.783443 0.500000 0.607188
O O16 0.684160 0.697466 0.621333
O O17 0.068594 0.000000 0.703640
#
# Coordination Sequence:
#
# PCOD8084043 Si02
#       7
#     8   8   8   8   8   8   4
#     4  10  22  38  54  79 116 158 201 244 290 349
#     4  10  23  42  62  86 117 155 199 249 305 365
#     4  10  20  34  57  86 116 152 192 237 289 350
#     4  10  21  35  56  85 116 148 191 242 292 346
#     4  10  21  38  60  90 119 151 197 247 298 357
#     4  10  21  39  61  88 120 152 197 248 299 365
#     4  10  18  34  56  84 120 152 188 232 284 342
#
# _framework density 19.936987999999999
#
# number of rings (size 3 to 8) (size 9 to 14) (size 15 to 20)
#    0.000    2.000    1.538    1.385    0.000    7.077 
#    0.000    3.077    0.000    0.000    0.000    0.000 
#    0.000    0.000    0.000    0.000    0.000    0.000 
#
# Total GULP energy -322244.787683 kJ/mol
# GULP energy per Si atom -12394.030295 kJ/mol
# Density = 1.989161 g / cm^3
# Si number density = 19.936988 Si / 1000 Ang^3
#
#
#
# Elastic Constant Matrix: (Units=GPa)
#
#
# Indices 1 2 3 4 5 6 
#
# 1 103.8637 47.8359 28.8931 0.0000 26.9411 0.0000
# 2 47.8359 126.9078 46.5447 0.0000 14.1441 0.0000
# 3 28.8931 46.5447 80.7098 0.0000 17.3181 0.0000
# 4 0.0000 0.0000 0.0000 31.0046 0.0000 -5.2442
# 5 26.9411 14.1441 17.3181 0.0000 24.7084 0.0000
# 6 0.0000 0.0000 0.0000 -5.2442 0.0000 25.7870
#
#
#
# Elastic Compliance Matrix: (Units=1/GPa)
#
#
# Indices 1 2 3 4 5 6 
#
# 1 0.015233 -0.004155 -0.000004 0.000000 -0.014229 0.000000
# 2 -0.004155 0.011209 -0.005382 0.000000 0.001885 0.000000
# 3 -0.000004 -0.005382 0.017459 0.000000 -0.009151 0.000000
# 4 0.000000 0.000000 0.000000 0.033402 0.000000 0.006793
# 5 -0.014229 0.001885 -0.009151 0.000000 0.061322 0.000000
# 6 0.000000 0.000000 0.000000 0.006793 0.000000 0.040161
#
#
# Mechanical properties :
#
#
# Convention : Reuss Voigt Hill
#
# Bulk Modulus (GPa) = 40.28923 62.00317 51.14620
# Shear Modulus (GPa) = 24.25529 28.84719 26.55124
#
# Velocity S-wave (km/s) = 3.49176 3.80796 3.65328
# Velocity P-wave (km/s) = 6.04224 7.10642 6.59583
#
# Compressibility (1/GPa) = 0.02482053
#
# Stress axis : x y z
#
# Youngs Moduli (GPa) = 65.64506 89.21110 57.27771
#
# Poissons Ratio (x) = 0.37063 0.00025
# Poissons Ratio (y) = 0.27273 0.30824
# Poissons Ratio (z) = 0.00029 0.48010
#
# Static dielectric constant tensor:
#      x y z
#    x 3.611900 0.000000 0.228290 
#    y 0.000000 3.890650 0.000000 
#    z 0.228290 0.000000 3.378330 
# 
# 
# High freq. dielectric constant tensor:
#      x y z
#    x 1.772060 0.000000 0.013570 
#    y 0.000000 1.787350 0.000000 
#    z 0.013570 0.000000 1.764410 
# 
# From -- ./inp_files/282029.got.cif
#   From: 2010.06.25/outbox.cif.g09.slc.cpg/sg12_142_cif.got.tgz:282029.got - 2010.06.28 00:19:55.
