data_PCOD8084788
_publ_section_title
;
Structure prediction by ZEFSAII (Michael W. Deem and Ramdas Pophale) SiO2 
 PCOD8084788
Probable space group: C 2/M
;
_chemical_formula_sum "Si O2"
_cell_formula_units_Z 48
_cell_length_a 20.945492
_cell_length_b 12.551508
_cell_length_c 18.652185
_cell_angle_alpha 90.000000
_cell_angle_beta 37.512876
_cell_angle_gamma 90.000000
_cell_volume 2986.004643
_symmetry_space_group_name_H-M "C 2/M"
_symmetry_group_IT_number 12
_symmetry_cell_setting 'monoclinic'
loop_
_space_group_symop_operation_xyz
x,y,z
-x,y,-z
-x,-y,-z
x,-y,z
1/2+x,1/2+y,z
1/2-x,1/2+y,-z
1/2-x,1/2-y,-z
1/2+x,1/2-y,z
loop_
_atom_site_type_symbol
_atom_site_label
_atom_site_fract_x
_atom_site_fract_y
_atom_site_fract_z
Si Si1 0.111465 0.382092 0.937717
Si Si2 0.233573 0.124355 0.592159
Si Si3 0.709226 0.195157 0.717525
Si Si4 0.421223 0.747474 0.365256
Si Si5 0.497785 0.123121 0.175397
Si Si6 0.439025 0.622107 0.484812
O O1 0.163051 0.500000 0.894210
O O2 0.186530 0.305458 0.823588
O O3 0.089186 0.339336 0.038216
O O4 0.000000 0.391467 0.000000
O O5 0.218350 0.183436 0.682177
O O6 0.342255 0.159114 0.459278
O O7 0.139496 0.153728 0.622390
O O8 0.234044 0.000000 0.607442
O O9 0.617699 0.135259 0.755875
O O10 0.814785 0.131601 0.606227
O O11 0.507800 0.802969 0.237016
O O12 0.477270 0.693698 0.383603
O O13 0.514770 0.000000 0.180406
O O14 0.500000 0.665652 0.500000
O O15 0.469337 0.500000 0.442944
#
# Coordination Sequence:
#
# PCOD8084788 Si02
#       6
#     8   8   8   8   8   8
#     4   8  13  22  39  63  86 104 126 160 202 241
#     4   9  16  25  40  61  82 107 132 160 205 247
#     4   9  16  26  42  62  85 107 131 166 199 236
#     4   9  17  26  40  59  82 105 131 168 201 239
#     4   9  15  24  43  67  86 104 126 162 209 245
#     4  10  19  29  42  59  80 108 138 166 196 232
#
# _framework density 16.074992000000002
#
# number of rings (size 3 to 8) (size 9 to 14) (size 15 to 20)
#    0.000    3.000    0.000    4.500    0.000    0.000 
#    0.000    0.000    0.000   27.000    0.000    0.000 
#    0.000    0.000    0.000    0.000    0.000    0.000 
#
# Total GULP energy -297442.608858 kJ/mol
# GULP energy per Si atom -12393.442036 kJ/mol
# Density = 1.603840 g / cm^3
# Si number density = 16.074992 Si / 1000 Ang^3
#
#
#
# Elastic Constant Matrix: (Units=GPa)
#
#
# Indices 1 2 3 4 5 6 
#
# 1 62.1644 30.8610 29.3605 0.0000 25.5837 0.0000
# 2 30.8610 97.5244 44.2991 0.0000 26.4304 0.0000
# 3 29.3605 44.2991 102.8252 0.0000 42.0996 0.0000
# 4 0.0000 0.0000 0.0000 20.2280 0.0000 7.9399
# 5 25.5837 26.4304 42.0996 0.0000 27.5558 0.0000
# 6 0.0000 0.0000 0.0000 7.9399 0.0000 18.1034
#
#
#
# Elastic Compliance Matrix: (Units=1/GPa)
#
#
# Indices 1 2 3 4 5 6 
#
# 1 0.028401 -0.002893 0.007468 0.000000 -0.035003 0.000000
# 2 -0.002893 0.014227 -0.002179 0.000000 -0.007631 0.000000
# 3 0.007468 -0.002179 0.028078 0.000000 -0.047742 0.000000
# 4 0.000000 0.000000 0.000000 0.059717 0.000000 -0.026191
# 5 -0.035003 -0.007631 -0.047742 0.000000 0.149048 0.000000
# 6 0.000000 0.000000 0.000000 -0.026191 0.000000 0.066725
#
#
# Mechanical properties :
#
#
# Convention : Reuss Voigt Hill
#
# Bulk Modulus (GPa) = 13.24518 52.39500 32.82009
# Shear Modulus (GPa) = 13.63992 23.71032 18.67512
#
# Velocity S-wave (km/s) = 2.91609 3.84472 3.41214
# Velocity P-wave (km/s) = 4.42670 7.23699 5.99873
#
# Compressibility (1/GPa) = 0.07549915
#
# Stress axis : x y z
#
# Youngs Moduli (GPa) = 35.20990 70.28757 35.61456
#
# Poissons Ratio (x) = 0.20337 -0.26598
# Poissons Ratio (y) = 0.10187 0.07760
# Poissons Ratio (z) = -0.26296 0.15314
#
# Static dielectric constant tensor:
#      x y z
#    x 2.811220 0.000000 0.405610 
#    y 0.000000 2.860580 0.000000 
#    z 0.405610 0.000000 3.384300 
# 
# 
# High freq. dielectric constant tensor:
#      x y z
#    x 1.576170 0.000000 0.027840 
#    y 0.000000 1.600000 0.000000 
#    z 0.027840 0.000000 1.617670 
# 
# From -- ./inp_files/174088.got.cif
#   From: 2010.06.25/outbox.cif.g09.slc.cpg/sg12_88_cif.got.tgz:174088.got - 2010.06.28 00:19:55.
