data_PCOD8084153
_publ_section_title
;
Structure prediction by ZEFSAII (Michael W. Deem and Ramdas Pophale) SiO2 
 PCOD8084153
Probable space group: C 2/M
;
_chemical_formula_sum "Si O2"
_cell_formula_units_Z 64
_cell_length_a 30.882609
_cell_length_b 8.959061
_cell_length_c 19.220142
_cell_angle_alpha 90.000000
_cell_angle_beta 141.835654
_cell_angle_gamma 90.000000
_cell_volume 3285.979090
_symmetry_space_group_name_H-M "C 2/M"
_symmetry_group_IT_number 12
_symmetry_cell_setting 'monoclinic'
loop_
_space_group_symop_operation_xyz
x,y,z
-x,y,-z
-x,-y,-z
x,-y,z
1/2+x,1/2+y,z
1/2-x,1/2+y,-z
1/2-x,1/2-y,-z
1/2+x,1/2-y,z
loop_
_atom_site_type_symbol
_atom_site_label
_atom_site_fract_x
_atom_site_fract_y
_atom_site_fract_z
Si Si1 0.835740 0.174408 0.751093
Si Si2 0.179222 0.322375 0.764714
Si Si3 0.412428 0.322870 0.240692
Si Si4 0.073447 0.825430 0.999334
Si Si5 0.670333 0.323325 0.998145
Si Si6 0.563273 0.824185 0.218492
Si Si7 0.811874 0.676475 0.381641
Si Si8 0.550964 0.176053 0.362712
O O1 0.863746 0.259092 0.718301
O O2 0.759238 0.239690 0.673725
O O3 0.831883 0.000000 0.729188
O O4 0.887796 0.207838 0.880159
O O5 0.171048 0.500000 0.758786
O O6 0.113843 0.246061 0.720254
O O7 0.250672 0.265109 0.891710
O O8 0.179081 0.263761 0.685378
O O9 0.414632 0.500000 0.248543
O O10 0.489607 0.263325 0.323655
O O11 0.359672 0.267703 0.113335
O O12 0.999939 0.740594 0.907105
O O13 0.058084 0.000000 0.970160
O O14 0.120905 0.760391 0.996792
O O15 0.670304 0.500000 0.004047
O O16 0.554296 0.774154 0.286898
O O17 0.565086 0.000000 0.213623
O O18 0.804571 0.500000 0.368499
O O19 0.877106 0.727314 0.510427
O O20 0.538327 0.000000 0.354821
#
# Coordination Sequence:
#
# PCOD8084153 Si02
#       8
#     8   8   8   8   8   8   8   8
#     4  10  20  36  61  86 107 140 186 230 271 322
#     4  10  19  36  61  85 109 140 181 229 275 322
#     4  11  22  36  56  84 116 146 177 221 275 331
#     4  10  18  34  59  84 109 142 183 224 268 324
#     4   9  17  32  57  84 110 139 177 223 270 321
#     4  11  23  36  53  82 118 148 177 221 276 330
#     4   9  19  38  62  82 103 140 192 236 266 311
#     4  10  22  40  58  78 107 147 191 229 267 318
#
# _framework density 19.476690000000001
#
# number of rings (size 3 to 8) (size 9 to 14) (size 15 to 20)
#    0.000    2.000    2.500    1.500    0.000    3.500 
#    0.000    5.625    0.000    0.000    0.000    0.000 
#    0.000    0.000    0.000    0.000    0.000    0.000 
#
# Total GULP energy -396892.019535 kJ/mol
# GULP energy per Si atom -12402.875610 kJ/mol
# Density = 1.943236 g / cm^3
# Si number density = 19.476690 Si / 1000 Ang^3
#
#
#
# Elastic Constant Matrix: (Units=GPa)
#
#
# Indices 1 2 3 4 5 6 
#
# 1 163.9642 41.4706 53.4541 0.0000 23.6044 0.0000
# 2 41.4706 38.9938 33.6608 0.0000 9.2503 0.0000
# 3 53.4541 33.6608 110.4656 0.0000 20.9583 0.0000
# 4 0.0000 0.0000 0.0000 20.1135 0.0000 0.2400
# 5 23.6044 9.2503 20.9583 0.0000 19.4412 0.0000
# 6 0.0000 0.0000 0.0000 0.2400 0.0000 29.8406
#
#
#
# Elastic Compliance Matrix: (Units=1/GPa)
#
#
# Indices 1 2 3 4 5 6 
#
# 1 0.009248 -0.007439 -0.000942 0.000000 -0.006673 0.000000
# 2 -0.007439 0.041437 -0.008800 0.000000 -0.001198 0.000000
# 3 -0.000942 -0.008800 0.014053 0.000000 -0.009818 0.000000
# 4 0.000000 0.000000 0.000000 0.049723 0.000000 -0.000400
# 5 -0.006673 -0.001198 -0.009818 0.000000 0.070694 0.000000
# 6 0.000000 0.000000 0.000000 -0.000400 0.000000 0.033515
#
#
# Mechanical properties :
#
#
# Convention : Reuss Voigt Hill
#
# Bulk Modulus (GPa) = 32.92072 63.39940 48.16006
# Shear Modulus (GPa) = 19.00005 26.20159 22.60082
#
# Velocity S-wave (km/s) = 3.12673 3.67178 3.41017
# Velocity P-wave (km/s) = 5.47491 7.11323 6.34715
#
# Compressibility (1/GPa) = 0.03037601
#
# Stress axis : x y z
#
# Youngs Moduli (GPa) = 108.12709 24.13291 71.16054
#
# Poissons Ratio (x) = 0.17953 0.06705
# Poissons Ratio (y) = 0.80440 0.62618
# Poissons Ratio (z) = 0.10188 0.21236
#
# Static dielectric constant tensor:
#      x y z
#    x 3.732000 0.000000 0.016620 
#    y 0.000000 3.161750 0.000000 
#    z 0.016620 0.000000 3.608690 
# 
# 
# High freq. dielectric constant tensor:
#      x y z
#    x 1.777170 0.000000 0.002730 
#    y 0.000000 1.723980 0.000000 
#    z 0.002730 0.000000 1.756770 
# 
# From -- ./inp_files/295867.got.cif
#   From: 2010.06.25/outbox.cif.g09.slc.cpg/sg12_148_cif.got.tgz:295867.got - 2010.06.28 00:19:55.
