data_PCOD8084656
_publ_section_title
;
Structure prediction by ZEFSAII (Michael W. Deem and Ramdas Pophale) SiO2 
 PCOD8084656
Probable space group: C 2/M
;
_chemical_formula_sum "Si O2"
_cell_formula_units_Z 64
_cell_length_a 25.920934
_cell_length_b 8.932332
_cell_length_c 14.448770
_cell_angle_alpha 90.000000
_cell_angle_beta 83.781904
_cell_angle_gamma 90.000000
_cell_volume 3325.705556
_symmetry_space_group_name_H-M "C 2/M"
_symmetry_group_IT_number 12
_symmetry_cell_setting 'monoclinic'
loop_
_space_group_symop_operation_xyz
x,y,z
-x,y,-z
-x,-y,-z
x,-y,z
1/2+x,1/2+y,z
1/2-x,1/2+y,-z
1/2-x,1/2-y,-z
1/2+x,1/2-y,z
loop_
_atom_site_type_symbol
_atom_site_label
_atom_site_fract_x
_atom_site_fract_y
_atom_site_fract_z
Si Si1 0.396747 0.171640 0.106165
Si Si2 0.775635 0.325490 0.725587
Si Si3 0.271189 0.665760 0.909775
Si Si4 0.824897 0.329000 0.280963
Si Si5 0.016869 0.174573 0.393654
Si Si6 0.391155 0.335133 0.912836
Si Si7 0.925797 0.176436 0.273987
Si Si8 0.892496 0.677002 0.723567
O O1 0.339205 0.183941 0.166515
O O2 0.436788 0.252609 0.169858
O O3 0.413412 0.000000 0.091176
O O4 0.401522 0.246786 0.005396
O O5 0.769293 0.500000 0.708040
O O6 0.759610 0.282707 0.831779
O O7 0.730965 0.238569 0.676491
O O8 0.835066 0.271539 0.698837
O O9 0.245877 0.500000 0.897531
O O10 0.331085 0.640334 0.912819
O O11 0.250000 0.750000 0.000000
O O12 0.825379 0.500000 0.313466
O O13 0.871211 0.241119 0.325317
O O14 0.068116 0.269725 0.362551
O O15 0.000000 0.214735 0.500000
O O16 0.971395 0.224880 0.333592
O O17 0.030045 0.000000 0.380055
O O18 0.418070 0.500000 0.911491
O O19 0.410661 0.246703 0.818167
O O20 0.920888 0.000000 0.265516
O O21 0.892697 0.500000 0.736158
#
# Coordination Sequence:
#
# PCOD8084656 Si02
#       8
#     8   8   8   8   8   8   8   8
#     4   9  18  30  48  77 113 150 190 229 267 315
#     4  10  19  31  48  73 108 148 185 223 270 322
#     4  10  19  27  39  63  99 144 193 233 266 308
#     4   9  18  30  50  78 112 150 188 227 268 314
#     4  10  22  42  67  90 109 134 173 224 281 338
#     4  10  19  31  48  71 107 152 191 227 270 319
#     4   9  18  34  57  83 111 142 181 225 270 324
#     4  10  22  37  55  82 114 147 184 229 279 327
#
# _framework density 19.244036999999999
#
# number of rings (size 3 to 8) (size 9 to 14) (size 15 to 20)
#    0.750    1.625    0.000    3.000    0.000    6.250 
#    0.000    0.625    0.000    4.500    0.000    0.000 
#    0.000    0.000    0.000    0.000    0.000    0.000 
#
# Total GULP energy -396423.116924 kJ/mol
# GULP energy per Si atom -12388.222404 kJ/mol
# Density = 1.920024 g / cm^3
# Si number density = 19.244037 Si / 1000 Ang^3
#
#
#
# Elastic Constant Matrix: (Units=GPa)
#
#
# Indices 1 2 3 4 5 6 
#
# 1 79.4619 34.7430 23.6742 0.0000 -14.7761 0.0000
# 2 34.7430 99.8511 25.7401 0.0000 -10.0357 0.0000
# 3 23.6742 25.7401 49.0452 0.0000 -12.7725 0.0000
# 4 0.0000 0.0000 0.0000 20.5671 0.0000 -3.7079
# 5 -14.7761 -10.0357 -12.7725 0.0000 14.2503 0.0000
# 6 0.0000 0.0000 0.0000 -3.7079 0.0000 21.1789
#
#
#
# Elastic Compliance Matrix: (Units=1/GPa)
#
#
# Indices 1 2 3 4 5 6 
#
# 1 0.017636 -0.004070 -0.003080 0.000000 0.012660 0.000000
# 2 -0.004070 0.012659 -0.004509 0.000000 0.000654 0.000000
# 3 -0.003080 -0.004509 0.029460 0.000000 0.020036 0.000000
# 4 0.000000 0.000000 0.000000 0.050206 0.000000 0.008790
# 5 0.012660 0.000654 0.020036 0.000000 0.101719 0.000000
# 6 0.000000 0.000000 0.000000 0.008790 0.000000 0.048756
#
#
# Mechanical properties :
#
#
# Convention : Reuss Voigt Hill
#
# Bulk Modulus (GPa) = 27.44428 44.07474 35.75951
# Shear Modulus (GPa) = 16.89761 20.81268 18.85514
#
# Velocity S-wave (km/s) = 2.96644 3.29220 3.13356
# Velocity P-wave (km/s) = 5.10149 6.11590 5.63158
#
# Compressibility (1/GPa) = 0.03643746
#
# Stress axis : x y z
#
# Youngs Moduli (GPa) = 56.70263 78.99456 33.94390
#
# Poissons Ratio (x) = 0.32151 0.10454
# Poissons Ratio (y) = 0.23078 0.15305
# Poissons Ratio (z) = 0.17464 0.35619
#
# Static dielectric constant tensor:
#      x y z
#    x 3.484170 0.000000 0.051810 
#    y 0.000000 3.580120 0.000000 
#    z 0.051810 0.000000 3.112690 
# 
# 
# High freq. dielectric constant tensor:
#      x y z
#    x 1.742970 0.000000 0.003010 
#    y 0.000000 1.762500 0.000000 
#    z 0.003010 0.000000 1.706330 
# 
# From -- ./inp_files/243918.got.cif
#   From: 2010.06.25/outbox.cif.g09.slc.cpg/sg12_122_cif.got.tgz:243918.got - 2010.06.28 00:19:55.
