data_PCOD8084264
_publ_section_title
;
Structure prediction by ZEFSAII (Michael W. Deem and Ramdas Pophale) SiO2 
 PCOD8084264
Probable space group: C 2/M
;
_chemical_formula_sum "Si O2"
_cell_formula_units_Z 64
_cell_length_a 8.791334
_cell_length_b 20.898145
_cell_length_c 24.061779
_cell_angle_alpha 90.000000
_cell_angle_beta 52.195230
_cell_angle_gamma 90.000000
_cell_volume 3492.806314
_symmetry_space_group_name_H-M "C 2/M"
_symmetry_group_IT_number 12
_symmetry_cell_setting 'monoclinic'
loop_
_space_group_symop_operation_xyz
x,y,z
-x,y,-z
-x,-y,-z
x,-y,z
1/2+x,1/2+y,z
1/2-x,1/2+y,-z
1/2-x,1/2-y,-z
1/2+x,1/2-y,z
loop_
_atom_site_type_symbol
_atom_site_label
_atom_site_fract_x
_atom_site_fract_y
_atom_site_fract_z
Si Si1 0.826500 0.250928 0.760679
Si Si2 0.605621 0.071563 0.712063
Si Si3 0.301734 0.075266 0.576427
Si Si4 0.985442 0.665706 0.822699
Si Si5 0.674930 0.426001 0.920660
Si Si6 0.028623 0.924497 0.433266
Si Si7 0.837995 0.929864 0.203600
Si Si8 0.670861 0.663155 0.704055
O O1 0.857967 0.299610 0.804070
O O2 0.624897 0.215654 0.822175
O O3 0.811283 0.287709 0.705124
O O4 0.001484 0.202057 0.712166
O O5 0.626648 0.115074 0.761558
O O6 0.391980 0.074403 0.735000
O O7 0.757915 0.096573 0.632862
O O8 0.660108 0.000000 0.718543
O O9 0.500000 0.088342 0.500000
O O10 0.130340 0.098896 0.574875
O O11 0.289677 0.119051 0.634373
O O12 0.284784 0.000000 0.596738
O O13 0.846401 0.624910 0.895215
O O14 0.744740 0.500000 0.912716
O O15 0.608117 0.414824 0.872208
O O16 0.500000 0.409536 0.000000
O O17 0.000000 0.892261 0.500000
O O18 0.008434 0.000000 0.443432
O O19 0.933150 0.880376 0.225082
O O20 0.914817 0.000000 0.201810
#
# Coordination Sequence:
#
# PCOD8084264 Si02
#       8
#     8   8   8   8   8   8   8   8
#     4  10  22  33  56  74 108 142 190 220 264 304
#     4   9  16  28  51  77  99 129 175 219 264 318
#     4  10  22  36  54  82 111 137 173 227 288 334
#     4  10  18  35  51  78 104 141 179 225 257 316
#     4   9  17  32  57  87 115 141 176 222 270 323
#     4   9  18  30  46  74 108 136 163 205 268 330
#     4   9  17  30  54  82 106 139 177 221 276 323
#     4  11  20  38  54  79 106 144 183 233 264 323
#
# _framework density 18.323376
#
# number of rings (size 3 to 8) (size 9 to 14) (size 15 to 20)
#    0.000    2.375    2.500    2.250    1.750    0.000 
#    0.000    3.125    0.000    3.000    0.000    2.625 
#    0.000    0.000    0.000    0.000    0.000    0.000 
#
# Total GULP energy -396568.072934 kJ/mol
# GULP energy per Si atom -12392.752279 kJ/mol
# Density = 1.828167 g / cm^3
# Si number density = 18.323376 Si / 1000 Ang^3
#
#
#
# Elastic Constant Matrix: (Units=GPa)
#
#
# Indices 1 2 3 4 5 6 
#
# 1 77.7722 38.9619 42.7803 -0.0001 1.9477 0.0002
# 2 38.9619 96.6817 54.9074 0.0000 -4.4005 0.0001
# 3 42.7803 54.9074 137.8503 -0.0001 -7.1499 0.0001
# 4 -0.0001 0.0000 -0.0001 24.5985 0.0000 0.9719
# 5 1.9477 -4.4005 -7.1499 0.0000 15.5081 -0.0001
# 6 0.0002 0.0001 0.0001 0.9719 -0.0001 18.9454
#
#
#
# Elastic Compliance Matrix: (Units=1/GPa)
#
#
# Indices 1 2 3 4 5 6 
#
# 1 0.017650 -0.005284 -0.003653 0.000000 -0.005400 0.000000
# 2 -0.005284 0.014977 -0.004171 0.000000 0.002991 0.000000
# 3 -0.003653 -0.004171 0.010257 0.000000 0.004004 0.000000
# 4 0.000000 0.000000 0.000000 0.040735 0.000000 -0.002090
# 5 -0.005400 0.002991 0.004004 0.000000 0.067855 0.000000
# 6 0.000000 0.000000 0.000000 -0.002090 0.000000 0.052891
#
#
# Mechanical properties :
#
#
# Convention : Reuss Voigt Hill
#
# Bulk Modulus (GPa) = 59.99208 65.06704 62.52956
# Shear Modulus (GPa) = 21.17419 23.52071 22.34745
#
# Velocity S-wave (km/s) = 3.40308 3.58669 3.49609
# Velocity P-wave (km/s) = 6.94644 7.26222 7.10609
#
# Compressibility (1/GPa) = 0.01666887
#
# Stress axis : x y z
#
# Youngs Moduli (GPa) = 56.65794 66.76734 97.49643
#
# Poissons Ratio (x) = 0.35280 0.35614
# Poissons Ratio (y) = 0.29938 0.40663
# Poissons Ratio (z) = 0.20696 0.27847
#
# Static dielectric constant tensor:
#      x y z
#    x 3.245320 0.000000 -0.006240 
#    y 0.000000 3.628190 0.000000 
#    z -0.006240 0.000000 3.242250 
# 
# 
# High freq. dielectric constant tensor:
#      x y z
#    x 1.691250 0.000000 -0.002300 
#    y 0.000000 1.715690 0.000000 
#    z -0.002300 0.000000 1.689350 
# 
# From -- ./inp_files/333730.got.cif
#   From: 2010.06.25/outbox.cif.g09.slc.cpg/sg12_167_cif.got.tgz:333730.got - 2010.06.28 00:19:55.
