data_PCOD8084750
_publ_section_title
;
Structure prediction by ZEFSAII (Michael W. Deem and Ramdas Pophale) SiO2 
 PCOD8084750
Probable space group: C 2/M
;
_chemical_formula_sum "Si O2"
_cell_formula_units_Z 48
_cell_length_a 18.328040
_cell_length_b 12.453945
_cell_length_c 14.779289
_cell_angle_alpha 90.000000
_cell_angle_beta 128.461385
_cell_angle_gamma 90.000000
_cell_volume 2641.517788
_symmetry_space_group_name_H-M "C 2/M"
_symmetry_group_IT_number 12
_symmetry_cell_setting 'monoclinic'
loop_
_space_group_symop_operation_xyz
x,y,z
-x,y,-z
-x,-y,-z
x,-y,z
1/2+x,1/2+y,z
1/2-x,1/2+y,-z
1/2-x,1/2-y,-z
1/2+x,1/2-y,z
loop_
_atom_site_type_symbol
_atom_site_label
_atom_site_fract_x
_atom_site_fract_y
_atom_site_fract_z
Si Si1 0.174542 0.500000 0.281787
Si Si2 0.518691 0.773867 0.813784
Si Si3 0.219978 0.500000 0.124561
Si Si4 0.296261 0.624864 0.797664
Si Si5 0.500000 0.690411 0.000000
Si Si6 0.798298 0.223675 0.129236
Si Si7 0.810931 0.733103 0.634517
Si Si8 0.464853 0.000000 0.122340
O O1 0.238959 0.500000 0.244874
O O2 0.198697 0.606863 0.354604
O O3 0.069034 0.500000 0.162267
O O4 0.591671 0.712689 0.806588
O O5 0.418726 0.740189 0.697538
O O6 0.545216 0.898069 0.819566
O O7 0.521990 0.758668 0.926259
O O8 0.269553 0.604821 0.128916
O O9 0.111203 0.500000 0.015302
O O10 0.264534 0.500000 0.764671
O O11 0.232185 0.686835 0.821140
O O12 0.278031 0.689111 0.690329
O O13 0.406110 0.622462 0.909106
O O14 0.750000 0.250000 0.000000
O O15 0.750000 0.750000 0.500000
#
# Coordination Sequence:
#
# PCOD8084750 Si02
#       8
#     4   8   4   8   4   8   8   4
#     4  10  21  38  63  88 111 151 206 253 290 338
#     4  10  22  36  57  89 118 156 198 240 295 349
#     4  12  21  36  57  86 129 157 190 236 296 363
#     4  11  23  37  60  87 122 157 196 242 296 354
#     4  10  19  37  54  84 122 155 198 235 288 360
#     4  12  23  36  55  89 128 161 188 228 300 367
#     4  10  23  44  65  85 113 155 208 255 290 337
#     4  10  19  28  58  87 118 150 189 241 295 344
#
# _framework density 18.171372000000002
#
# number of rings (size 3 to 8) (size 9 to 14) (size 15 to 20)
#    0.000    1.333    5.000    0.500    8.167    0.000 
#    6.000    0.833    0.000    2.000    0.000    0.000 
#    0.000    0.000    0.000    0.000    0.000    0.000 
#
# Total GULP energy -297361.010308 kJ/mol
# GULP energy per Si atom -12390.042096 kJ/mol
# Density = 1.813001 g / cm^3
# Si number density = 18.171372 Si / 1000 Ang^3
#
#
#
# Elastic Constant Matrix: (Units=GPa)
#
#
# Indices 1 2 3 4 5 6 
#
# 1 120.4629 60.4135 72.6158 0.0000 -12.6334 0.0000
# 2 60.4135 157.7034 54.5501 0.0000 -9.8570 0.0000
# 3 72.6158 54.5501 132.2828 0.0000 1.1967 0.0000
# 4 0.0000 0.0000 0.0000 19.6156 0.0000 -2.1575
# 5 -12.6334 -9.8570 1.1967 0.0000 20.1177 0.0000
# 6 0.0000 0.0000 0.0000 -2.1575 0.0000 37.2989
#
#
#
# Elastic Compliance Matrix: (Units=1/GPa)
#
#
# Indices 1 2 3 4 5 6 
#
# 1 0.014811 -0.002694 -0.007095 0.000000 0.008403 0.000000
# 2 -0.002694 0.008190 -0.001920 0.000000 0.002435 0.000000
# 3 -0.007095 -0.001920 0.012302 0.000000 -0.006128 0.000000
# 4 0.000000 0.000000 0.000000 0.051306 0.000000 0.002968
# 5 0.008403 0.002435 -0.006128 0.000000 0.056542 0.000000
# 6 0.000000 0.000000 0.000000 0.002968 0.000000 0.026982
#
#
# Mechanical properties :
#
#
# Convention : Reuss Voigt Hill
#
# Bulk Modulus (GPa) = 84.15645 87.28979 85.72312
# Shear Modulus (GPa) = 25.31487 30.26443 27.78965
#
# Velocity S-wave (km/s) = 3.73650 4.08548 3.91488
# Velocity P-wave (km/s) = 8.06402 8.39024 8.22875
#
# Compressibility (1/GPa) = 0.01188263
#
# Stress axis : x y z
#
# Youngs Moduli (GPa) = 67.51824 122.10699 81.28947
#
# Poissons Ratio (x) = 0.32899 0.57677
# Poissons Ratio (y) = 0.18191 0.15609
# Poissons Ratio (z) = 0.47906 0.23447
#
# Static dielectric constant tensor:
#      x y z
#    x 3.081220 0.000000 0.096220 
#    y 0.000000 3.467110 0.000000 
#    z 0.096220 0.000000 3.054140 
# 
# 
# High freq. dielectric constant tensor:
#      x y z
#    x 1.708060 0.000000 -0.006590 
#    y 0.000000 1.716720 0.000000 
#    z -0.006590 0.000000 1.675550 
# 
# From -- ./inp_files/154357.got.cif
#   From: 2010.06.25/outbox.cif.g09.slc.cpg/sg12_78_cif.got.tgz:154357.got - 2010.06.28 00:19:55.
