data_PCOD8084354
_publ_section_title
;
Structure prediction by ZEFSAII (Michael W. Deem and Ramdas Pophale) SiO2 
 PCOD8084354
Probable space group: C 2/M
;
_chemical_formula_sum "Si O2"
_cell_formula_units_Z 56
_cell_length_a 19.903789
_cell_length_b 16.396147
_cell_length_c 24.051257
_cell_angle_alpha 90.000000
_cell_angle_beta 21.307813
_cell_angle_gamma 90.000000
_cell_volume 2852.162728
_symmetry_space_group_name_H-M "C 2/M"
_symmetry_group_IT_number 12
_symmetry_cell_setting 'monoclinic'
loop_
_space_group_symop_operation_xyz
x,y,z
-x,y,-z
-x,-y,-z
x,-y,z
1/2+x,1/2+y,z
1/2-x,1/2+y,-z
1/2-x,1/2-y,-z
1/2+x,1/2-y,z
loop_
_atom_site_type_symbol
_atom_site_label
_atom_site_fract_x
_atom_site_fract_y
_atom_site_fract_z
Si Si1 0.492461 0.907297 0.071013
Si Si2 0.010475 0.591556 0.318573
Si Si3 0.313720 0.671630 0.016376
Si Si4 0.304475 0.249762 0.254250
Si Si5 0.526309 0.232761 0.567868
Si Si6 0.832076 0.149240 0.877151
Si Si7 0.832799 0.836562 0.451658
O O1 0.358618 0.845431 0.207022
O O2 0.418669 0.000000 0.133906
O O3 0.500000 0.882769 0.000000
O O4 0.691145 0.901277 0.947595
O O5 0.019334 0.500000 0.334304
O O6 0.953999 0.650297 0.412434
O O7 0.840113 0.601682 0.405418
O O8 0.209102 0.611385 0.138857
O O9 0.517409 0.691518 0.882671
O O10 0.318724 0.626829 0.952620
O O11 0.194406 0.753787 0.107105
O O12 0.192874 0.264819 0.396211
O O13 0.177491 0.272350 0.300262
O O14 0.543126 0.317802 0.589380
O O15 0.036223 0.127789 0.697784
O O16 0.750000 0.750000 0.500000
#
# Coordination Sequence:
#
# PCOD8084354 Si02
#       7
#     8   8   8   8   8   8   8
#     4  10  22  37  59  94 129 157 197 256 310 357
#     4  11  24  39  60  91 127 157 203 266 312 351
#     4  10  20  35  58  90 117 159 211 249 297 357
#     4  10  22  39  66  88 118 166 212 249 297 374
#     4  10  21  41  62  91 118 163 212 247 303 377
#     4  10  19  34  60  85 119 161 204 246 293 366
#     4  10  18  35  59  85 117 157 199 243 295 370
#
# _framework density 19.634222000000001
#
# number of rings (size 3 to 8) (size 9 to 14) (size 15 to 20)
#    0.000    1.857    2.857    2.571    6.000    1.143 
#    0.000    7.143    0.000    0.000    0.000    0.000 
#    0.000    0.000    0.000    0.000    0.000    0.000 
#
# Total GULP energy -347080.183849 kJ/mol
# GULP energy per Si atom -12395.720852 kJ/mol
# Density = 1.958953 g / cm^3
# Si number density = 19.634222 Si / 1000 Ang^3
#
#
#
# Elastic Constant Matrix: (Units=GPa)
#
#
# Indices 1 2 3 4 5 6 
#
# 1 113.9312 39.7574 56.7787 -0.0343 -2.6523 0.0289
# 2 39.7574 97.6817 47.5129 0.1537 2.4935 -0.0314
# 3 56.7787 47.5129 139.0532 0.1444 -12.2782 0.0073
# 4 -0.0343 0.1537 0.1444 17.4090 -0.0244 -0.0632
# 5 -2.6523 2.4935 -12.2782 -0.0244 23.6187 0.0097
# 6 0.0289 -0.0314 0.0073 -0.0632 0.0097 16.2138
#
#
#
# Elastic Compliance Matrix: (Units=1/GPa)
#
#
# Indices 1 2 3 4 5 6 
#
# 1 0.011677 -0.002889 -0.003813 0.000080 -0.000366 -0.000024
# 2 -0.002889 0.013299 -0.003686 -0.000098 -0.003645 0.000034
# 3 -0.003813 -0.003686 0.010486 -0.000054 0.005412 -0.000008
# 4 0.000080 -0.000098 -0.000054 0.057444 0.000050 0.000224
# 5 -0.000366 -0.003645 0.005412 0.000050 0.045497 -0.000036
# 6 -0.000024 0.000034 -0.000008 0.000224 -0.000036 0.061677
#
#
# Mechanical properties :
#
#
# Convention : Reuss Voigt Hill
#
# Bulk Modulus (GPa) = 68.09398 70.97380 69.53389
# Shear Modulus (GPa) = 22.14814 25.22278 23.68546
#
# Velocity S-wave (km/s) = 3.36227 3.58807 3.47700
# Velocity P-wave (km/s) = 7.05902 7.30699 7.18407
#
# Compressibility (1/GPa) = 0.01468559
#
# Stress axis : x y z
#
# Youngs Moduli (GPa) = 85.63670 75.19151 95.36336
#
# Poissons Ratio (x) = 0.21720 0.36367
# Poissons Ratio (y) = 0.24737 0.35156
# Poissons Ratio (z) = 0.32657 0.27719
#
# Static dielectric constant tensor:
#      x y z
#    x 4.033500 -0.000060 -0.169060 
#    y -0.000060 3.524130 0.000280 
#    z -0.169060 0.000280 3.715060 
# 
# 
# High freq. dielectric constant tensor:
#      x y z
#    x 1.768890 -0.000010 -0.007390 
#    y -0.000010 1.731890 0.000020 
#    z -0.007390 0.000020 1.775360 
# 
# From -- ./inp_files/347763.got.cif
#   From: 2010.06.25/outbox.cif.g09.slc.cpg/sg12_174_cif.got.tgz:347763.got - 2010.06.28 00:19:55.
