data_PCOD8084592
_publ_section_title
;
Structure prediction by ZEFSAII (Michael W. Deem and Ramdas Pophale) SiO2 
 PCOD8084592
Probable space group: C 2/M
;
_chemical_formula_sum "Si O2"
_cell_formula_units_Z 40
_cell_length_a 9.297749
_cell_length_b 26.674914
_cell_length_c 12.046756
_cell_angle_alpha 90.000000
_cell_angle_beta 42.544702
_cell_angle_gamma 90.000000
_cell_volume 2020.243836
_symmetry_space_group_name_H-M "C 2/M"
_symmetry_group_IT_number 12
_symmetry_cell_setting 'monoclinic'
loop_
_space_group_symop_operation_xyz
x,y,z
-x,y,-z
-x,-y,-z
x,-y,z
1/2+x,1/2+y,z
1/2-x,1/2+y,-z
1/2-x,1/2-y,-z
1/2+x,1/2-y,z
loop_
_atom_site_type_symbol
_atom_site_label
_atom_site_fract_x
_atom_site_fract_y
_atom_site_fract_z
Si Si1 0.030788 0.775485 0.731556
Si Si2 0.000000 0.257410 0.500000
Si Si3 0.882072 0.678711 0.949230
Si Si4 0.779527 0.000000 0.682483
Si Si5 0.422803 0.927717 0.829150
Si Si6 0.636242 0.500000 0.114648
Si Si7 0.662395 0.000000 0.310576
O O1 0.995910 0.774987 0.617189
O O2 0.278570 0.789528 0.619195
O O3 0.977851 0.722628 0.819454
O O4 0.869477 0.815052 0.879947
O O5 0.918536 0.631575 0.847670
O O6 0.000000 0.673861 0.000000
O O7 0.654184 0.050776 0.726490
O O8 0.838140 0.000000 0.773228
O O9 0.000000 0.000000 0.500000
O O10 0.369536 0.947843 0.736981
O O11 0.244385 0.949704 0.010547
O O12 0.394547 0.500000 0.223487
O O13 0.500000 0.000000 0.500000
#
# Coordination Sequence:
#
# PCOD8084592 Si02
#       7
#     8   4   8   4   8   4   4
#     4  10  22  40  67  85 131 165 212 258 331 372
#     4  10  20  44  60  92 118 170 202 264 326 380
#     4  11  21  40  62  97 119 173 216 264 302 388
#     4  10  19  36  61  92 120 160 198 256 317 367
#     4  10  21  38  62  87 119 164 212 247 301 382
#     4  10  18  38  60  84 116 164 192 250 299 375
#     4  10  21  42  61  88 128 162 194 259 327 370
#
# _framework density 19.799590999999999
#
# number of rings (size 3 to 8) (size 9 to 14) (size 15 to 20)
#    0.000    2.000    2.000    4.800    0.000    0.000 
#   10.800    4.000    0.000    0.000    0.000    0.000 
#    0.000    0.000    0.000    0.000    0.000    0.000 
#
# Total GULP energy -247771.419259 kJ/mol
# GULP energy per Si atom -12388.570963 kJ/mol
# Density = 1.975453 g / cm^3
# Si number density = 19.799591 Si / 1000 Ang^3
#
#
#
# Elastic Constant Matrix: (Units=GPa)
#
#
# Indices 1 2 3 4 5 6 
#
# 1 166.8119 40.9242 82.5783 0.0000 -10.4996 0.0000
# 2 40.9242 115.1819 49.9052 0.0000 -1.6001 0.0000
# 3 82.5783 49.9052 165.3373 0.0000 -11.0463 0.0000
# 4 0.0000 0.0000 0.0000 9.6854 0.0000 1.2903
# 5 -10.4996 -1.6001 -11.0463 0.0000 58.3631 0.0000
# 6 0.0000 0.0000 0.0000 1.2903 0.0000 15.1118
#
#
#
# Elastic Compliance Matrix: (Units=1/GPa)
#
#
# Indices 1 2 3 4 5 6 
#
# 1 0.008161 -0.001317 -0.003629 0.000000 0.000745 0.000000
# 2 -0.001317 0.010206 -0.002451 0.000000 -0.000421 0.000000
# 3 -0.003629 -0.002451 0.008662 0.000000 0.000919 0.000000
# 4 0.000000 0.000000 0.000000 0.104436 0.000000 -0.008917
# 5 0.000745 -0.000421 0.000919 0.000000 0.017431 0.000000
# 6 0.000000 0.000000 0.000000 -0.008917 0.000000 0.066935
#
#
# Mechanical properties :
#
#
# Convention : Reuss Voigt Hill
#
# Bulk Modulus (GPa) = 81.72930 88.23850 84.98390
# Shear Modulus (GPa) = 21.30352 34.89363 28.09857
#
# Velocity S-wave (km/s) = 3.28374 4.20258 3.77125
# Velocity P-wave (km/s) = 7.46627 8.25902 7.87263
#
# Compressibility (1/GPa) = 0.01223551
#
# Stress axis : x y z
#
# Youngs Moduli (GPa) = 122.53102 97.98246 115.44881
#
# Poissons Ratio (x) = 0.12905 0.41894
# Poissons Ratio (y) = 0.16138 0.28295
# Poissons Ratio (z) = 0.44464 0.24014
#
# Static dielectric constant tensor:
#      x y z
#    x 3.982090 0.000000 -0.133470 
#    y 0.000000 3.268160 0.000000 
#    z -0.133470 0.000000 4.181510 
# 
# 
# High freq. dielectric constant tensor:
#      x y z
#    x 1.792420 0.000000 -0.002380 
#    y 0.000000 1.730770 0.000000 
#    z -0.002380 0.000000 1.795770 
# 
# From -- ./inp_files/123462.got.cif
#   From: 2010.06.25/outbox.cif.g09.slc.cpg/sg12_62_cif.got.tgz:123462.got - 2010.06.28 00:19:55.
