data_PCOD8084127
_publ_section_title
;
Structure prediction by ZEFSAII (Michael W. Deem and Ramdas Pophale) SiO2 
 PCOD8084127
Probable space group: C 2/M
;
_chemical_formula_sum "Si O2"
_cell_formula_units_Z 48
_cell_length_a 20.405400
_cell_length_b 18.157089
_cell_length_c 9.746235
_cell_angle_alpha 90.000000
_cell_angle_beta 136.582979
_cell_angle_gamma 90.000000
_cell_volume 2481.856454
_symmetry_space_group_name_H-M "C 2/M"
_symmetry_group_IT_number 12
_symmetry_cell_setting 'monoclinic'
loop_
_space_group_symop_operation_xyz
x,y,z
-x,y,-z
-x,-y,-z
x,-y,z
1/2+x,1/2+y,z
1/2-x,1/2+y,-z
1/2-x,1/2-y,-z
1/2+x,1/2-y,z
loop_
_atom_site_type_symbol
_atom_site_label
_atom_site_fract_x
_atom_site_fract_y
_atom_site_fract_z
Si Si1 0.761622 0.179380 0.422567
Si Si2 0.583339 0.912924 0.232788
Si Si3 0.376683 0.413943 0.217630
Si Si4 0.999163 0.674408 0.345764
Si Si5 0.717350 0.184160 0.043870
Si Si6 0.548943 0.657743 0.393653
O O1 0.750000 0.250000 0.500000
O O2 0.685703 0.115766 0.337711
O O3 0.752227 0.202935 0.249838
O O4 0.871178 0.148662 0.605326
O O5 0.564723 0.877103 0.351863
O O6 0.589264 0.000000 0.257345
O O7 0.500000 0.889756 0.000000
O O8 0.380331 0.500000 0.199984
O O9 0.267041 0.387541 0.050319
O O10 0.416936 0.389680 0.425354
O O11 0.443049 0.374994 0.199472
O O12 0.000000 0.641182 0.500000
O O13 0.041624 0.756077 0.416497
O O14 0.894577 0.672385 0.122930
O O15 0.750000 0.250000 0.000000
#
# Coordination Sequence:
#
# PCOD8084127 Si02
#       6
#     8   8   8   8   8   8
#     4  11  22  37  65  92 120 163 210 250 308 373
#     4  11  25  43  60  88 126 163 213 266 311 369
#     4  10  20  35  58  92 124 154 199 260 307 357
#     4  12  21  39  66  89 121 162 212 257 316 373
#     4  11  22  37  61  95 123 162 203 255 307 371
#     4  10  18  34  58  90 120 153 200 250 302 363
#
# _framework density 19.340361000000001
#
# number of rings (size 3 to 8) (size 9 to 14) (size 15 to 20)
#    0.000    1.167    6.667    2.000    0.000    4.333 
#    0.000    0.000    0.000    0.000    0.000    1.167 
#    0.000    0.000    0.000    0.000    0.000    0.000 
#
# Total GULP energy -297430.244285 kJ/mol
# GULP energy per Si atom -12392.926845 kJ/mol
# Density = 1.929634 g / cm^3
# Si number density = 19.340361 Si / 1000 Ang^3
#
#
#
# Elastic Constant Matrix: (Units=GPa)
#
#
# Indices 1 2 3 4 5 6 
#
# 1 163.2108 59.7577 31.4281 0.0000 7.9939 0.0000
# 2 59.7577 113.9669 22.1926 0.0000 -10.2476 0.0000
# 3 31.4281 22.1926 45.4748 0.0000 -5.0781 0.0000
# 4 0.0000 0.0000 0.0000 23.6575 0.0000 5.3935
# 5 7.9939 -10.2476 -5.0781 0.0000 34.5762 0.0000
# 6 0.0000 0.0000 0.0000 5.3935 0.0000 34.9707
#
#
#
# Elastic Compliance Matrix: (Units=1/GPa)
#
#
# Indices 1 2 3 4 5 6 
#
# 1 0.008638 -0.004010 -0.004442 0.000000 -0.003838 0.000000
# 2 -0.004010 0.011727 -0.002501 0.000000 0.004035 0.000000
# 3 -0.004442 -0.002501 0.026751 0.000000 0.004215 0.000000
# 4 0.000000 0.000000 0.000000 0.043810 0.000000 -0.006757
# 5 -0.003838 0.004035 0.004215 0.000000 0.031624 0.000000
# 6 0.000000 0.000000 0.000000 -0.006757 0.000000 0.029637
#
#
# Mechanical properties :
#
#
# Convention : Reuss Voigt Hill
#
# Bulk Modulus (GPa) = 39.66512 61.04548 50.35530
# Shear Modulus (GPa) = 27.39764 32.59248 29.99506
#
# Velocity S-wave (km/s) = 3.76786 4.10958 3.94243
# Velocity P-wave (km/s) = 6.28352 7.35870 6.84226
#
# Compressibility (1/GPa) = 0.02521106
#
# Stress axis : x y z
#
# Youngs Moduli (GPa) = 115.76157 85.27481 37.38130
#
# Poissons Ratio (x) = 0.34192 0.16604
# Poissons Ratio (y) = 0.46416 0.09350
# Poissons Ratio (z) = 0.51420 0.21329
#
# Static dielectric constant tensor:
#      x y z
#    x 4.981510 0.000000 0.958970 
#    y 0.000000 3.191560 0.000000 
#    z 0.958970 0.000000 4.605600 
# 
# 
# High freq. dielectric constant tensor:
#      x y z
#    x 1.784020 0.000000 0.024380 
#    y 0.000000 1.742960 0.000000 
#    z 0.024380 0.000000 1.719270 
# 
# From -- ./inp_files/88170.got.cif
#   From: 2010.06.25/outbox.cif.g09.slc.cpg/sg12_45_cif.got.tgz:88170.got - 2010.06.28 00:19:55.
