data_PCOD8084093
_publ_section_title
;
Structure prediction by ZEFSAII (Michael W. Deem and Ramdas Pophale) SiO2 
 PCOD8084093
Probable space group: C 2/M
;
_chemical_formula_sum "Si O2"
_cell_formula_units_Z 56
_cell_length_a 21.960622
_cell_length_b 16.987770
_cell_length_c 9.419281
_cell_angle_alpha 90.000000
_cell_angle_beta 62.955153
_cell_angle_gamma 90.000000
_cell_volume 3129.725680
_symmetry_space_group_name_H-M "C 2/M"
_symmetry_group_IT_number 12
_symmetry_cell_setting 'monoclinic'
loop_
_space_group_symop_operation_xyz
x,y,z
-x,y,-z
-x,-y,-z
x,-y,z
1/2+x,1/2+y,z
1/2-x,1/2+y,-z
1/2-x,1/2-y,-z
1/2+x,1/2-y,z
loop_
_atom_site_type_symbol
_atom_site_label
_atom_site_fract_x
_atom_site_fract_y
_atom_site_fract_z
Si Si1 0.910260 0.183752 0.869734
Si Si2 0.795637 0.408452 0.289874
Si Si3 0.831320 0.804896 0.668165
Si Si4 0.077102 0.689476 0.902932
Si Si5 0.735289 0.822923 0.411847
Si Si6 0.364383 0.589274 0.164112
Si Si7 0.064600 0.820123 0.688414
O O1 0.856087 0.191680 0.802228
O O2 0.985985 0.178719 0.723920
O O3 0.904668 0.256878 0.982029
O O4 0.892621 0.104808 0.976182
O O5 0.785177 0.500000 0.268598
O O6 0.735095 0.360313 0.277302
O O7 0.869615 0.382174 0.153353
O O8 0.795007 0.393653 0.461049
O O9 0.815273 0.712445 0.653773
O O10 0.889537 0.833837 0.498404
O O11 0.083821 0.739125 0.749742
O O12 0.000000 0.656162 0.000000
O O13 0.750000 0.750000 0.500000
O O14 0.802637 0.851423 0.261270
O O15 0.339639 0.500000 0.202899
O O16 0.423673 0.607133 0.216028
#
# Coordination Sequence:
#
# PCOD8084093 Si02
#       7
#     8   8   8   8   8   8   8
#     4  10  22  34  54  82 112 143 181 223 267 310
#     4  11  21  34  56  82 109 140 177 224 272 320
#     4  11  20  35  57  83 108 139 183 227 265 313
#     4   9  19  37  58  82 105 138 184 224 264 321
#     4  10  18  34  58  76 100 136 185 227 261 306
#     4  11  21  35  54  80 112 145 180 218 265 323
#     4  10  18  36  57  78 106 146 189 221 253 313
#
# _framework density 17.892942000000001
#
# number of rings (size 3 to 8) (size 9 to 14) (size 15 to 20)
#    0.000    1.714    4.286    4.714    0.000    4.286 
#    0.000    0.000    0.000    3.429    0.000    2.000 
#    0.000    0.000    0.000    0.000    0.000    0.000 
#
# Total GULP energy -347122.711733 kJ/mol
# GULP energy per Si atom -12397.239705 kJ/mol
# Density = 1.785222 g / cm^3
# Si number density = 17.892942 Si / 1000 Ang^3
#
#
#
# Elastic Constant Matrix: (Units=GPa)
#
#
# Indices 1 2 3 4 5 6 
#
# 1 111.4748 47.8166 45.2401 0.0000 -2.5233 0.0000
# 2 47.8166 76.7298 21.9513 0.0000 -3.8723 0.0000
# 3 45.2401 21.9513 66.5838 0.0000 -7.5679 0.0000
# 4 0.0000 0.0000 0.0000 19.9283 0.0000 -5.9560
# 5 -2.5233 -3.8723 -7.5679 0.0000 36.6423 0.0000
# 6 0.0000 0.0000 0.0000 -5.9560 0.0000 11.9812
#
#
#
# Elastic Compliance Matrix: (Units=1/GPa)
#
#
# Indices 1 2 3 4 5 6 
#
# 1 0.015418 -0.007328 -0.008220 0.000000 -0.001410 0.000000
# 2 -0.007328 0.017884 -0.000778 0.000000 0.001225 0.000000
# 3 -0.008220 -0.000778 0.021286 0.000000 0.003748 0.000000
# 4 0.000000 0.000000 0.000000 0.058936 0.000000 0.029298
# 5 -0.001410 0.001225 0.003748 0.000000 0.028097 0.000000
# 6 0.000000 0.000000 0.000000 0.029298 0.000000 0.098028
#
#
# Mechanical properties :
#
#
# Convention : Reuss Voigt Hill
#
# Bulk Modulus (GPa) = 45.58652 53.86717 49.72685
# Shear Modulus (GPa) = 17.88189 23.02905 20.45547
#
# Velocity S-wave (km/s) = 3.16473 3.59144 3.38481
# Velocity P-wave (km/s) = 6.23592 6.88248 6.56716
#
# Compressibility (1/GPa) = 0.02193631
#
# Stress axis : x y z
#
# Youngs Moduli (GPa) = 64.85971 55.91726 46.97860
#
# Poissons Ratio (x) = 0.40974 0.38617
# Poissons Ratio (y) = 0.47527 0.03654
# Poissons Ratio (z) = 0.53316 0.04350
#
# Static dielectric constant tensor:
#      x y z
#    x 3.393180 0.000000 -0.082870 
#    y 0.000000 3.257170 0.000000 
#    z -0.082870 0.000000 3.360430 
# 
# 
# High freq. dielectric constant tensor:
#      x y z
#    x 1.687910 0.000000 -0.017390 
#    y 0.000000 1.664890 0.000000 
#    z -0.017390 0.000000 1.698430 
# 
# From -- ./inp_files/97628.got.cif
#   From: 2010.06.25/outbox.cif.g09.slc.cpg/sg12_49_cif.got.tgz:97628.got - 2010.06.28 00:19:55.
