data_PCOD8084759
_publ_section_title
;
Structure prediction by ZEFSAII (Michael W. Deem and Ramdas Pophale) SiO2 
 PCOD8084759
Probable space group: C 2/M
;
_chemical_formula_sum "Si O2"
_cell_formula_units_Z 56
_cell_length_a 27.373104
_cell_length_b 8.941905
_cell_length_c 14.646381
_cell_angle_alpha 90.000000
_cell_angle_beta 102.769150
_cell_angle_gamma 90.000000
_cell_volume 3496.299472
_symmetry_space_group_name_H-M "C 2/M"
_symmetry_group_IT_number 12
_symmetry_cell_setting 'monoclinic'
loop_
_space_group_symop_operation_xyz
x,y,z
-x,y,-z
-x,-y,-z
x,-y,z
1/2+x,1/2+y,z
1/2-x,1/2+y,-z
1/2-x,1/2-y,-z
1/2+x,1/2-y,z
loop_
_atom_site_type_symbol
_atom_site_label
_atom_site_fract_x
_atom_site_fract_y
_atom_site_fract_z
Si Si1 0.126955 0.666672 0.211686
Si Si2 0.556009 0.820514 0.030374
Si Si3 0.639826 0.824156 0.933081
Si Si4 0.689350 0.825507 0.774390
Si Si5 0.183426 0.322086 0.404230
Si Si6 0.283447 0.168287 0.890760
Si Si7 0.796133 0.175879 0.406191
O O1 0.108681 0.500000 0.226246
O O2 0.141569 0.741293 0.315389
O O3 0.177344 0.662153 0.174791
O O4 0.082277 0.743716 0.134276
O O5 0.588029 0.762601 0.955732
O O6 0.555538 0.000000 0.033069
O O7 0.500000 0.755197 0.000000
O O8 0.644327 0.786256 0.827360
O O9 0.640674 0.000000 0.951119
O O10 0.688831 0.764450 0.008025
O O11 0.740386 0.782532 0.845779
O O12 0.680308 0.734458 0.678294
O O13 0.690409 0.000000 0.751141
O O14 0.180500 0.500000 0.412655
O O15 0.172797 0.247174 0.497402
O O16 0.238238 0.274741 0.389750
O O17 0.261772 0.000000 0.896696
O O18 0.802766 0.000000 0.412268
#
# Coordination Sequence:
#
# PCOD8084759 Si02
#       7
#     8   8   8   8   8   8   8
#     4   8  13  23  40  60  83 110 137 167 209 248
#     4   8  13  23  41  64  87 110 136 167 206 256
#     4   8  16  26  38  57  84 113 140 171 209 247
#     4  11  19  26  37  58  86 116 144 172 204 241
#     4   9  16  28  42  58  81 111 141 174 212 245
#     4   9  15  27  41  55  81 116 145 170 200 241
#     4  10  19  29  41  57  80 114 147 177 206 242
#
# _framework density 16.016935
#
# number of rings (size 3 to 8) (size 9 to 14) (size 15 to 20)
#    0.000    3.000    1.429    3.000    0.000    0.571 
#    0.000    0.714    0.000    0.000    0.000    1.000 
#    0.000   36.000    0.000    0.000    0.000    0.000 
#
# Total GULP energy -346890.582513 kJ/mol
# GULP energy per Si atom -12388.949375 kJ/mol
# Density = 1.598048 g / cm^3
# Si number density = 16.016935 Si / 1000 Ang^3
#
#
#
# Elastic Constant Matrix: (Units=GPa)
#
#
# Indices 1 2 3 4 5 6 
#
# 1 67.5770 12.8899 59.8049 0.0000 4.5389 0.0000
# 2 12.8899 24.4824 25.9164 0.0000 -2.0021 0.0000
# 3 59.8049 25.9164 143.3078 0.0000 -8.8256 0.0000
# 4 0.0000 0.0000 0.0000 21.5101 0.0000 -1.4938
# 5 4.5389 -2.0021 -8.8256 0.0000 19.3220 0.0000
# 6 0.0000 0.0000 0.0000 -1.4938 0.0000 8.3603
#
#
#
# Elastic Compliance Matrix: (Units=1/GPa)
#
#
# Indices 1 2 3 4 5 6 
#
# 1 0.025798 -0.002937 -0.010934 0.000000 -0.011359 0.000000
# 2 -0.002937 0.050873 -0.007828 0.000000 0.002386 0.000000
# 3 -0.010934 -0.007828 0.013443 0.000000 0.007898 0.000000
# 4 0.000000 0.000000 0.000000 0.047074 0.000000 0.008411
# 5 -0.011359 0.002386 0.007898 0.000000 0.058277 0.000000
# 6 0.000000 0.000000 0.000000 0.008411 0.000000 0.121116
#
#
# Mechanical properties :
#
#
# Convention : Reuss Voigt Hill
#
# Bulk Modulus (GPa) = 21.40564 48.06552 34.73558
# Shear Modulus (GPa) = 13.31379 18.95554 16.13466
#
# Velocity S-wave (km/s) = 2.88624 3.44389 3.17732
# Velocity P-wave (km/s) = 4.94980 6.77408 5.93248
#
# Compressibility (1/GPa) = 0.04671666
#
# Stress axis : x y z
#
# Youngs Moduli (GPa) = 38.76308 19.65679 74.38789
#
# Poissons Ratio (x) = 0.05772 0.81338
# Poissons Ratio (y) = 0.11383 0.58228
# Poissons Ratio (z) = 0.42385 0.15387
#
# Static dielectric constant tensor:
#      x y z
#    x 2.910720 0.000000 -0.042320 
#    y 0.000000 2.708090 0.000000 
#    z -0.042320 0.000000 3.320220 
# 
# 
# High freq. dielectric constant tensor:
#      x y z
#    x 1.569730 0.000000 -0.010350 
#    y 0.000000 1.579690 0.000000 
#    z -0.010350 0.000000 1.625710 
# 
# From -- ./inp_files/243017.got.cif
#   From: 2010.06.25/outbox.cif.g09.slc.cpg/sg12_122_cif.got.tgz:243017.got - 2010.06.28 00:19:55.
