data_PCOD8084496
_publ_section_title
;
Structure prediction by ZEFSAII (Michael W. Deem and Ramdas Pophale) SiO2 
 PCOD8084496
Probable space group: C 2/M
;
_chemical_formula_sum "Si O2"
_cell_formula_units_Z 48
_cell_length_a 15.940915
_cell_length_b 14.162505
_cell_length_c 11.067725
_cell_angle_alpha 90.000000
_cell_angle_beta 109.896361
_cell_angle_gamma 90.000000
_cell_volume 2349.538783
_symmetry_space_group_name_H-M "C 2/M"
_symmetry_group_IT_number 12
_symmetry_cell_setting 'monoclinic'
loop_
_space_group_symop_operation_xyz
x,y,z
-x,y,-z
-x,-y,-z
x,-y,z
1/2+x,1/2+y,z
1/2-x,1/2+y,-z
1/2-x,1/2-y,-z
1/2+x,1/2-y,z
loop_
_atom_site_type_symbol
_atom_site_label
_atom_site_fract_x
_atom_site_fract_y
_atom_site_fract_z
Si Si1 0.785183 0.897193 0.294963
Si Si2 0.311836 0.214829 0.424181
Si Si3 0.005480 0.757098 0.142043
Si Si4 0.597805 0.892066 0.336095
Si Si5 0.184467 0.835832 0.946150
Si Si6 0.330757 0.606526 0.795987
O O1 0.846664 0.810140 0.372858
O O2 0.686519 0.882934 0.299174
O O3 0.777898 0.897017 0.146222
O O4 0.822995 0.000000 0.354714
O O5 0.250000 0.250000 0.500000
O O6 0.390312 0.153492 0.523946
O O7 0.258712 0.149627 0.304170
O O8 0.020242 0.663596 0.228641
O O9 0.084409 0.832242 0.203372
O O10 0.913485 0.801730 0.140449
O O11 0.000000 0.726679 0.000000
O O12 0.567796 0.000000 0.337556
O O13 0.250000 0.750000 0.000000
O O14 0.178714 0.897886 0.064069
O O15 0.344037 0.500000 0.754502
#
# Coordination Sequence:
#
# PCOD8084496 Si02
#       6
#     8   8   8   8   8   8
#     4  10  19  34  60  87 113 148 190 234 289 340
#     4  10  18  36  60  85 117 149 190 238 281 337
#     4  10  21  37  58  84 119 150 190 241 283 334
#     4  10  20  38  63  87 113 150 195 238 281 341
#     4  11  21  38  59  81 121 154 187 240 294 340
#     4  11  21  36  61  88 114 153 196 234 285 345
#
# _framework density 20.429541
#
# number of rings (size 3 to 8) (size 9 to 14) (size 15 to 20)
#    0.000    1.667    5.000    2.000    0.000    4.667 
#    0.000    2.500    0.000    2.000    0.000    0.000 
#    0.000    0.000    0.000    0.000    0.000    0.000 
#
# Total GULP energy -297532.645978 kJ/mol
# GULP energy per Si atom -12397.193582 kJ/mol
# Density = 2.038304 g / cm^3
# Si number density = 20.429541 Si / 1000 Ang^3
#
#
#
# Elastic Constant Matrix: (Units=GPa)
#
#
# Indices 1 2 3 4 5 6 
#
# 1 31.9745 13.8798 17.1211 0.0000 -0.0720 0.0000
# 2 13.8798 174.2187 70.3389 0.0000 9.6312 0.0000
# 3 17.1211 70.3389 118.3848 0.0000 6.3639 0.0000
# 4 0.0000 0.0000 0.0000 29.9870 0.0000 -5.5418
# 5 -0.0720 9.6312 6.3639 0.0000 27.1824 0.0000
# 6 0.0000 0.0000 0.0000 -5.5418 0.0000 11.3338
#
#
#
# Elastic Compliance Matrix: (Units=1/GPa)
#
#
# Indices 1 2 3 4 5 6 
#
# 1 0.034078 -0.001019 -0.004402 0.000000 0.001482 0.000000
# 2 -0.001019 0.007655 -0.004309 0.000000 -0.001706 0.000000
# 3 -0.004402 -0.004309 0.011710 0.000000 -0.001226 0.000000
# 4 0.000000 0.000000 0.000000 0.036661 0.000000 0.017926
# 5 0.001482 -0.001706 -0.001226 0.000000 0.037684 0.000000
# 6 0.000000 0.000000 0.000000 0.017926 0.000000 0.096997
#
#
# Mechanical properties :
#
#
# Convention : Reuss Voigt Hill
#
# Bulk Modulus (GPa) = 29.42810 58.58418 44.00614
# Shear Modulus (GPa) = 19.56376 28.58317 24.07346
#
# Velocity S-wave (km/s) = 3.09790 3.74453 3.43646
# Velocity P-wave (km/s) = 5.21842 6.88722 6.11006
#
# Compressibility (1/GPa) = 0.03398113
#
# Stress axis : x y z
#
# Youngs Moduli (GPa) = 29.34430 130.62885 85.39694
#
# Poissons Ratio (x) = 0.13317 0.37595
# Poissons Ratio (y) = 0.02992 0.36800
# Poissons Ratio (z) = 0.12919 0.56291
#
# Static dielectric constant tensor:
#      x y z
#    x 3.421150 0.000000 -0.135250 
#    y 0.000000 3.911590 0.000000 
#    z -0.135250 0.000000 3.956020 
# 
# 
# High freq. dielectric constant tensor:
#      x y z
#    x 1.762140 0.000000 -0.015440 
#    y 0.000000 1.808290 0.000000 
#    z -0.015440 0.000000 1.804790 
# 
# From -- ./inp_files/143859.got.cif
#   From: 2010.06.25/outbox.cif.g09.slc.cpg/sg12_72_cif.got.tgz:143859.got - 2010.06.28 00:19:55.
