data_PCOD8084889
_publ_section_title
;
Structure prediction by ZEFSAII (Michael W. Deem and Ramdas Pophale) SiO2 
 PCOD8084889
Probable space group: C 2/M
;
_chemical_formula_sum "Si O2"
_cell_formula_units_Z 64
_cell_length_a 28.700922
_cell_length_b 9.457763
_cell_length_c 26.548712
_cell_angle_alpha 90.000000
_cell_angle_beta 146.173741
_cell_angle_gamma 90.000000
_cell_volume 4011.719352
_symmetry_space_group_name_H-M "C 2/M"
_symmetry_group_IT_number 12
_symmetry_cell_setting 'monoclinic'
loop_
_space_group_symop_operation_xyz
x,y,z
-x,y,-z
-x,-y,-z
x,-y,z
1/2+x,1/2+y,z
1/2-x,1/2+y,-z
1/2-x,1/2-y,-z
1/2+x,1/2-y,z
loop_
_atom_site_type_symbol
_atom_site_label
_atom_site_fract_x
_atom_site_fract_y
_atom_site_fract_z
Si Si1 0.796064 0.168494 0.771605
Si Si2 0.982462 0.837541 0.403543
Si Si3 0.364785 0.336091 0.389504
Si Si4 0.106968 0.339341 0.968971
Si Si5 0.039621 0.665785 0.089747
Si Si6 0.907518 0.658218 0.255093
Si Si7 0.228733 0.156860 0.137223
Si Si8 0.834366 0.336156 0.085337
O O1 0.715177 0.236824 0.672405
O O2 0.879668 0.239913 0.825230
O O3 0.793227 0.212570 0.827355
O O4 0.796454 0.000000 0.763164
O O5 0.074595 0.812708 0.508522
O O6 0.913140 0.789619 0.382176
O O7 0.976257 0.752051 0.345550
O O8 0.967804 0.000000 0.377057
O O9 0.337303 0.500000 0.361080
O O10 0.124207 0.500000 0.999827
O O11 0.101086 0.320439 0.903390
O O12 0.023730 0.288365 0.922691
O O13 0.187980 0.254720 0.058915
O O14 0.062830 0.500000 0.112777
O O15 0.000000 0.704837 0.000000
O O16 0.943559 0.500000 0.281250
O O17 0.827504 0.658827 0.219323
O O18 0.883266 0.721132 0.178476
O O19 0.192310 0.000000 0.097081
O O20 0.808781 0.500000 0.071139
O O21 0.750000 0.250000 0.000000
#
# Coordination Sequence:
#
# PCOD8084889 Si02
#       8
#     8   8   8   8   8   8   8   8
#     4  11  21  31  46  70  96 126 160 190 231 282
#     4   9  18  31  48  70  94 124 159 191 228 276
#     4   9  18  32  48  68  96 125 155 193 231 273
#     4  10  20  33  48  66  90 124 165 201 231 269
#     4  10  20  33  48  67  91 123 163 200 234 273
#     4  10  19  31  45  67  98 129 157 189 232 279
#     4  10  19  29  43  66  97 127 156 191 230 272
#     4  10  20  32  47  68  94 125 160 195 232 275
#
# _framework density 15.953258999999999
#
# number of rings (size 3 to 8) (size 9 to 14) (size 15 to 20)
#    0.000    2.125    3.750    1.125    0.000    2.750 
#    0.000    1.250    0.000    0.000    0.000    0.875 
#    0.000    0.000    0.000    0.000    0.000    0.000 
#
# Total GULP energy -396751.757658 kJ/mol
# GULP energy per Si atom -12398.492427 kJ/mol
# Density = 1.591695 g / cm^3
# Si number density = 15.953259 Si / 1000 Ang^3
#
#
#
# Elastic Constant Matrix: (Units=GPa)
#
#
# Indices 1 2 3 4 5 6 
#
# 1 77.9511 25.7948 34.9691 0.0000 -8.2256 0.0000
# 2 25.7948 61.6205 50.6332 0.0000 -4.5470 0.0000
# 3 34.9691 50.6332 94.7211 0.0000 -9.0026 0.0000
# 4 0.0000 0.0000 0.0000 29.5946 0.0000 -2.2161
# 5 -8.2256 -4.5470 -9.0026 0.0000 27.5924 0.0000
# 6 0.0000 0.0000 0.0000 -2.2161 0.0000 18.0972
#
#
#
# Elastic Compliance Matrix: (Units=1/GPa)
#
#
# Indices 1 2 3 4 5 6 
#
# 1 0.015958 -0.003303 -0.003845 0.000000 0.002959 0.000000
# 2 -0.003303 0.029626 -0.014703 0.000000 -0.000899 0.000000
# 3 -0.003845 -0.014703 0.020121 0.000000 0.002996 0.000000
# 4 0.000000 0.000000 0.000000 0.034103 0.000000 0.004176
# 5 0.002959 -0.000899 0.002996 0.000000 0.037953 0.000000
# 6 0.000000 0.000000 0.000000 0.004176 0.000000 0.055769
#
#
# Mechanical properties :
#
#
# Convention : Reuss Voigt Hill
#
# Bulk Modulus (GPa) = 45.44528 50.78745 48.11637
# Shear Modulus (GPa) = 20.44453 23.24987 21.84720
#
# Velocity S-wave (km/s) = 3.58373 3.82170 3.70462
# Velocity P-wave (km/s) = 6.75814 7.16785 6.96601
#
# Compressibility (1/GPa) = 0.02200449
#
# Stress axis : x y z
#
# Youngs Moduli (GPa) = 62.66259 33.75468 49.69999
#
# Poissons Ratio (x) = 0.11148 0.19109
# Poissons Ratio (y) = 0.20696 0.73072
# Poissons Ratio (z) = 0.24093 0.49628
#
# Static dielectric constant tensor:
#      x y z
#    x 2.986220 0.000000 -0.064400 
#    y 0.000000 3.050290 0.000000 
#    z -0.064400 0.000000 2.868230 
# 
# 
# High freq. dielectric constant tensor:
#      x y z
#    x 1.592100 0.000000 -0.006540 
#    y 0.000000 1.615780 0.000000 
#    z -0.006540 0.000000 1.596890 
# 
# From -- ./inp_files/384628.got.cif
#   From: 2010.06.25/outbox.cif.g09.slc.cpg/sg12_193_cif.got.tgz:384628.got - 2010.06.28 00:19:55.
