data_PCOD8084986
_publ_section_title
;
Structure prediction by ZEFSAII (Michael W. Deem and Ramdas Pophale) SiO2 
 PCOD8084986
Probable space group: C 2/M
;
_chemical_formula_sum "Si O2"
_cell_formula_units_Z 56
_cell_length_a 19.257919
_cell_length_b 9.482714
_cell_length_c 28.587585
_cell_angle_alpha 90.000000
_cell_angle_beta 141.552179
_cell_angle_gamma 90.000000
_cell_volume 3246.170710
_symmetry_space_group_name_H-M "C 2/M"
_symmetry_group_IT_number 12
_symmetry_cell_setting 'monoclinic'
loop_
_space_group_symop_operation_xyz
x,y,z
-x,y,-z
-x,-y,-z
x,-y,z
1/2+x,1/2+y,z
1/2-x,1/2+y,-z
1/2-x,1/2-y,-z
1/2+x,1/2-y,z
loop_
_atom_site_type_symbol
_atom_site_label
_atom_site_fract_x
_atom_site_fract_y
_atom_site_fract_z
Si Si1 0.048708 0.162846 0.253388
Si Si2 0.696268 0.163336 0.402367
Si Si3 0.626793 0.663386 0.193706
Si Si4 0.624133 0.161464 0.690890
Si Si5 0.610981 0.160191 0.461246
Si Si6 0.657497 0.339226 0.796629
Si Si7 0.093370 0.665239 0.085126
O O1 0.126811 0.261084 0.325506
O O2 0.061447 0.205830 0.206067
O O3 0.918243 0.186225 0.197442
O O4 0.084429 0.000000 0.280046
O O5 0.635086 0.185307 0.419260
O O6 0.819043 0.233776 0.469634
O O7 0.710368 0.000000 0.396735
O O8 0.609620 0.500000 0.171926
O O9 0.758084 0.698035 0.271345
O O10 0.576991 0.754839 0.125354
O O11 0.521343 0.191303 0.601094
O O12 0.605215 0.250213 0.727433
O O13 0.620319 0.000000 0.705221
O O14 0.641589 0.000000 0.491621
O O15 0.651280 0.500000 0.776713
O O16 0.786266 0.297656 0.874294
O O17 0.079556 0.500000 0.087841
O O18 0.000000 0.719872 0.000000
#
# Coordination Sequence:
#
# PCOD8084986 Si02
#       7
#     8   8   8   8   8   8   8
#     4  10  19  32  48  70  99 128 158 194 240 287
#     4  10  19  29  45  69  95 125 161 202 242 279
#     4   9  19  33  51  73  98 127 157 193 237 284
#     4   9  16  30  49  69  92 121 162 204 237 276
#     4   9  17  29  45  67  93 122 160 204 244 279
#     4   9  17  29  49  72  94 124 159 194 232 279
#     4   9  18  34  54  75  98 125 157 192 232 279
#
# _framework density 17.251094999999999
#
# number of rings (size 3 to 8) (size 9 to 14) (size 15 to 20)
#    0.000    2.714    1.429    0.429    0.000    2.000 
#    0.000    1.429    0.000    4.286    0.000    0.000 
#    0.000    0.000    0.000    0.000    0.000    0.000 
#
# Total GULP energy -347140.734190 kJ/mol
# GULP energy per Si atom -12397.883364 kJ/mol
# Density = 1.721183 g / cm^3
# Si number density = 17.251095 Si / 1000 Ang^3
#
#
#
# Elastic Constant Matrix: (Units=GPa)
#
#
# Indices 1 2 3 4 5 6 
#
# 1 103.3393 43.0685 51.3663 0.0000 0.5739 0.0000
# 2 43.0685 73.5357 58.3511 0.0000 -3.5848 -0.0002
# 3 51.3663 58.3511 121.6863 0.0000 2.1254 0.0000
# 4 0.0000 0.0000 0.0000 27.9505 0.0000 -4.0616
# 5 0.5739 -3.5848 2.1254 0.0000 17.2967 0.0000
# 6 0.0000 -0.0002 0.0000 -4.0616 0.0000 20.1974
#
#
#
# Elastic Compliance Matrix: (Units=1/GPa)
#
#
# Indices 1 2 3 4 5 6 
#
# 1 0.013504 -0.005590 -0.002998 0.000000 -0.001238 0.000000
# 2 -0.005590 0.024874 -0.009682 0.000000 0.006530 0.000000
# 3 -0.002998 -0.009682 0.014190 0.000000 -0.003651 0.000000
# 4 0.000000 0.000000 0.000000 0.036855 0.000000 0.007411
# 5 -0.001238 0.006530 -0.003651 0.000000 0.059658 0.000000
# 6 0.000000 0.000000 0.000000 0.007411 0.000000 0.051002
#
#
# Mechanical properties :
#
#
# Convention : Reuss Voigt Hill
#
# Bulk Modulus (GPa) = 62.39382 67.12592 64.75987
# Shear Modulus (GPa) = 20.66423 22.80727 21.73575
#
# Velocity S-wave (km/s) = 3.46475 3.63998 3.55345
# Velocity P-wave (km/s) = 7.22859 7.52739 7.37950
#
# Compressibility (1/GPa) = 0.01602723
#
# Stress axis : x y z
#
# Youngs Moduli (GPa) = 74.05329 40.20265 70.47370
#
# Poissons Ratio (x) = 0.22475 0.21127
# Poissons Ratio (y) = 0.41399 0.68231
# Poissons Ratio (z) = 0.22200 0.38923
#
# Static dielectric constant tensor:
#      x y z
#    x 3.180020 0.000000 0.270720 
#    y 0.000000 3.252620 0.000000 
#    z 0.270720 0.000000 3.190460 
# 
# 
# High freq. dielectric constant tensor:
#      x y z
#    x 1.648200 0.000000 0.019380 
#    y 0.000000 1.667850 0.000000 
#    z 0.019380 0.000000 1.655510 
# 
# From -- ./inp_files/280291.got.cif
#   From: 2010.06.25/outbox.cif.g09.slc.cpg/sg12_141_cif.got.tgz:280291.got - 2010.06.28 00:19:55.
