data_PCOD8084163
_publ_section_title
;
Structure prediction by ZEFSAII (Michael W. Deem and Ramdas Pophale) SiO2 
 PCOD8084163
Probable space group: C 2/M
;
_chemical_formula_sum "Si O2"
_cell_formula_units_Z 56
_cell_length_a 18.687993
_cell_length_b 13.552188
_cell_length_c 12.876913
_cell_angle_alpha 90.000000
_cell_angle_beta 116.120780
_cell_angle_gamma 90.000000
_cell_volume 2928.170197
_symmetry_space_group_name_H-M "C 2/M"
_symmetry_group_IT_number 12
_symmetry_cell_setting 'monoclinic'
loop_
_space_group_symop_operation_xyz
x,y,z
-x,y,-z
-x,-y,-z
x,-y,z
1/2+x,1/2+y,z
1/2-x,1/2+y,-z
1/2-x,1/2-y,-z
1/2+x,1/2-y,z
loop_
_atom_site_type_symbol
_atom_site_label
_atom_site_fract_x
_atom_site_fract_y
_atom_site_fract_z
Si Si1 0.253577 0.609968 0.597432
Si Si2 0.911145 0.884366 0.585149
Si Si3 0.871912 0.610317 0.654974
Si Si4 0.479278 0.227929 0.281681
Si Si5 0.063450 0.386500 0.949731
Si Si6 0.202607 0.385189 0.184356
Si Si7 0.655512 0.268097 0.653771
O O1 0.247270 0.500000 0.641182
O O2 0.344447 0.637469 0.629714
O O3 0.209979 0.614950 0.459246
O O4 0.215773 0.685675 0.652026
O O5 0.888652 0.831483 0.462492
O O6 0.993517 0.842622 0.688014
O O7 0.921410 0.000000 0.569118
O O8 0.905040 0.500000 0.688350
O O9 0.851719 0.655332 0.754937
O O10 0.940184 0.669032 0.636378
O O11 0.452547 0.192745 0.150780
O O12 0.408927 0.209623 0.318260
O O13 0.056679 0.500000 0.905200
O O14 0.153077 0.365608 0.047605
O O15 0.000000 0.369012 0.000000
O O16 0.217368 0.500000 0.213103
O O17 0.289763 0.335911 0.236514
#
# Coordination Sequence:
#
# PCOD8084163 Si02
#       7
#     8   8   8   8   8   8   8
#     4  10  21  36  57  84 117 157 196 234 285 350
#     4  11  23  40  60  84 117 161 205 235 272 346
#     4  10  18  34  59  86 114 148 194 242 288 342
#     4  12  24  35  56  89 123 152 185 237 302 345
#     4  10  21  39  64  91 113 144 197 249 293 341
#     4  10  20  37  64  87 108 149 201 248 281 328
#     4  12  23  36  57  88 125 153 188 236 300 351
#
# _framework density 19.124572000000001
#
# number of rings (size 3 to 8) (size 9 to 14) (size 15 to 20)
#    0.000    1.286    4.286    2.571    0.000    3.429 
#    0.000    1.429    0.000    1.286    0.000    0.000 
#    0.000    0.000    0.000    0.000    0.000    0.000 
#
# Total GULP energy -347105.834637 kJ/mol
# GULP energy per Si atom -12396.636951 kJ/mol
# Density = 1.908104 g / cm^3
# Si number density = 19.124572 Si / 1000 Ang^3
#
#
#
# Elastic Constant Matrix: (Units=GPa)
#
#
# Indices 1 2 3 4 5 6 
#
# 1 81.4105 38.5794 32.2891 0.0000 -5.9682 0.0000
# 2 38.5794 71.1905 48.0910 0.0000 -6.2992 0.0000
# 3 32.2891 48.0910 93.4352 0.0000 8.4757 0.0000
# 4 0.0000 0.0000 0.0000 28.9334 0.0000 8.9693
# 5 -5.9682 -6.2992 8.4757 0.0000 24.5163 0.0000
# 6 0.0000 0.0000 0.0000 8.9693 0.0000 18.6916
#
#
#
# Elastic Compliance Matrix: (Units=1/GPa)
#
#
# Indices 1 2 3 4 5 6 
#
# 1 0.016901 -0.007290 -0.002366 0.000000 0.003059 0.000000
# 2 -0.007290 0.027153 -0.012315 0.000000 0.009459 0.000000
# 3 -0.002366 -0.012315 0.018787 0.000000 -0.010235 0.000000
# 4 0.000000 0.000000 0.000000 0.040602 0.000000 -0.019483
# 5 0.003059 0.009459 -0.010235 0.000000 0.047503 0.000000
# 6 0.000000 0.000000 0.000000 -0.019483 0.000000 0.062849
#
#
# Mechanical properties :
#
#
# Convention : Reuss Voigt Hill
#
# Bulk Modulus (GPa) = 52.90985 53.77281 53.34133
# Shear Modulus (GPa) = 18.93688 22.90004 20.91846
#
# Velocity S-wave (km/s) = 3.15014 3.46412 3.31085
# Velocity P-wave (km/s) = 6.39977 6.64668 6.52439
#
# Compressibility (1/GPa) = 0.01890007
#
# Stress axis : x y z
#
# Youngs Moduli (GPa) = 59.16946 36.82813 53.22834
#
# Poissons Ratio (x) = 0.26847 0.12593
# Poissons Ratio (y) = 0.43133 0.65549
# Poissons Ratio (z) = 0.13999 0.45352
#
# Static dielectric constant tensor:
#      x y z
#    x 3.483780 0.000000 0.219180 
#    y 0.000000 3.673350 0.000000 
#    z 0.219180 0.000000 3.389900 
# 
# 
# High freq. dielectric constant tensor:
#      x y z
#    x 1.741280 0.000000 0.018150 
#    y 0.000000 1.743080 0.000000 
#    z 0.018150 0.000000 1.723530 
# 
# From -- ./inp_files/155958.got.cif
#   From: 2010.06.25/outbox.cif.g09.slc.cpg/sg12_78_cif.got.tgz:155958.got - 2010.06.28 00:19:55.
