data_PCOD8084376
_publ_section_title
;
Structure prediction by ZEFSAII (Michael W. Deem and Ramdas Pophale) SiO2 
 PCOD8084376
Probable space group: C 2/M
;
_chemical_formula_sum "Si O2"
_cell_formula_units_Z 48
_cell_length_a 15.800152
_cell_length_b 21.160971
_cell_length_c 12.122896
_cell_angle_alpha 90.000000
_cell_angle_beta 141.972317
_cell_angle_gamma 90.000000
_cell_volume 2496.971906
_symmetry_space_group_name_H-M "C 2/M"
_symmetry_group_IT_number 12
_symmetry_cell_setting 'monoclinic'
loop_
_space_group_symop_operation_xyz
x,y,z
-x,y,-z
-x,-y,-z
x,-y,z
1/2+x,1/2+y,z
1/2-x,1/2+y,-z
1/2-x,1/2-y,-z
1/2+x,1/2-y,z
loop_
_atom_site_type_symbol
_atom_site_label
_atom_site_fract_x
_atom_site_fract_y
_atom_site_fract_z
Si Si1 0.610350 0.133971 0.307549
Si Si2 0.000000 0.791467 0.500000
Si Si3 0.099542 0.500000 0.205972
Si Si4 0.500000 0.214037 0.000000
Si Si5 0.658023 0.706123 0.985548
Si Si6 0.916928 0.000000 0.526608
Si Si7 0.425287 0.169809 0.319145
Si Si8 0.417498 0.634371 0.612499
O O1 0.570594 0.060826 0.251774
O O2 0.511899 0.163145 0.297661
O O3 0.766607 0.142092 0.511192
O O4 0.591183 0.170241 0.173047
O O5 0.911909 0.745490 0.330034
O O6 0.905334 0.836435 0.477377
O O7 0.256950 0.500000 0.327152
O O8 0.000000 0.500000 0.000000
O O9 0.602992 0.256147 0.034208
O O10 0.530715 0.670456 0.799545
O O11 0.750000 0.750000 0.000000
O O12 0.765520 0.650937 0.137706
O O13 0.955325 0.939428 0.640348
O O14 0.000000 0.000000 0.500000
O O15 0.500000 0.134733 0.500000
#
# Coordination Sequence:
#
# PCOD8084376 Si02
#       8
#     8   4   4   4   8   4   8   8
#     4  11  23  40  62  90 126 164 205 254 312 365
#     4  10  18  35  60  85 124 152 198 248 298 364
#     4  10  22  40  61  92 122 162 207 258 295 371
#     4  12  24  35  66  91 124 164 204 248 326 364
#     4  12  23  39  58  94 127 161 205 254 307 380
#     4  10  22  38  62  89 120 164 204 248 308 358
#     4  10  23  40  59  87 126 158 203 255 303 366
#     4  11  23  37  61  90 126 159 201 251 308 366
#
# _framework density 19.223284
#
# number of rings (size 3 to 8) (size 9 to 14) (size 15 to 20)
#    0.500    0.667    5.000    1.000    2.333    2.667 
#    0.000    0.417    0.000    0.500    0.000    0.000 
#    0.000    0.000    0.000    0.000    0.000    0.000 
#
# Total GULP energy -297400.159971 kJ/mol
# GULP energy per Si atom -12391.673332 kJ/mol
# Density = 1.917953 g / cm^3
# Si number density = 19.223284 Si / 1000 Ang^3
#
#
#
# Elastic Constant Matrix: (Units=GPa)
#
#
# Indices 1 2 3 4 5 6 
#
# 1 124.1653 53.4280 52.9933 0.0000 1.5937 0.0000
# 2 53.4280 101.3661 50.6228 0.0000 -1.2063 0.0000
# 3 52.9933 50.6228 150.5175 0.0000 7.4538 0.0000
# 4 0.0000 0.0000 0.0000 25.8803 0.0000 3.2796
# 5 1.5937 -1.2063 7.4538 0.0000 28.2609 0.0000
# 6 0.0000 0.0000 0.0000 3.2796 0.0000 12.4203
#
#
#
# Elastic Compliance Matrix: (Units=1/GPa)
#
#
# Indices 1 2 3 4 5 6 
#
# 1 0.011054 -0.004676 -0.002309 0.000000 -0.000214 0.000000
# 2 -0.004676 0.013905 -0.003113 0.000000 0.001678 0.000000
# 3 -0.002309 -0.003113 0.008616 0.000000 -0.002275 0.000000
# 4 0.000000 0.000000 0.000000 0.039977 0.000000 -0.010556
# 5 -0.000214 0.001678 -0.002275 0.000000 0.036068 0.000000
# 6 0.000000 0.000000 0.000000 -0.010556 0.000000 0.083301
#
#
# Mechanical properties :
#
#
# Convention : Reuss Voigt Hill
#
# Bulk Modulus (GPa) = 74.74293 76.68190 75.71241
# Shear Modulus (GPa) = 22.98043 27.91260 25.44652
#
# Velocity S-wave (km/s) = 3.46128 3.81467 3.64226
# Velocity P-wave (km/s) = 7.41214 7.70578 7.56038
#
# Compressibility (1/GPa) = 0.01337919
#
# Stress axis : x y z
#
# Youngs Moduli (GPa) = 90.46636 71.91874 116.05931
#
# Poissons Ratio (x) = 0.33628 0.26793
# Poissons Ratio (y) = 0.42301 0.36133
# Poissons Ratio (z) = 0.20885 0.22390
#
# Static dielectric constant tensor:
#      x y z
#    x 3.434670 0.000000 0.108700 
#    y 0.000000 3.495190 0.000000 
#    z 0.108700 0.000000 3.847800 
# 
# 
# High freq. dielectric constant tensor:
#      x y z
#    x 1.748250 0.000000 0.008610 
#    y 0.000000 1.727720 0.000000 
#    z 0.008610 0.000000 1.760240 
# 
# From -- ./inp_files/148093.got.cif
#   From: 2010.06.25/outbox.cif.g09.slc.cpg/sg12_75_cif.got.tgz:148093.got - 2010.06.28 00:19:55.
