data_PCOD8084057
_publ_section_title
;
Structure prediction by ZEFSAII (Michael W. Deem and Ramdas Pophale) SiO2 
 PCOD8084057
Probable space group: C 2/M
;
_chemical_formula_sum "Si O2"
_cell_formula_units_Z 64
_cell_length_a 20.030342
_cell_length_b 9.207087
_cell_length_c 21.757007
_cell_angle_alpha 90.000000
_cell_angle_beta 119.718824
_cell_angle_gamma 90.000000
_cell_volume 3484.688230
_symmetry_space_group_name_H-M "C 2/M"
_symmetry_group_IT_number 12
_symmetry_cell_setting 'monoclinic'
loop_
_space_group_symop_operation_xyz
x,y,z
-x,y,-z
-x,-y,-z
x,-y,z
1/2+x,1/2+y,z
1/2-x,1/2+y,-z
1/2-x,1/2-y,-z
1/2+x,1/2-y,z
loop_
_atom_site_type_symbol
_atom_site_label
_atom_site_fract_x
_atom_site_fract_y
_atom_site_fract_z
Si Si1 0.771179 0.327818 0.774140
Si Si2 0.613878 0.829562 0.711969
Si Si3 0.548993 0.668698 0.931654
Si Si4 0.545031 0.830155 0.810755
Si Si5 0.981253 0.672173 0.559003
Si Si6 0.672587 0.172603 0.445784
Si Si7 0.375988 0.828388 0.709429
Si Si8 0.885199 0.169508 0.908928
O O1 0.766297 0.500000 0.778858
O O2 0.687386 0.262448 0.726712
O O3 0.818045 0.277928 0.735653
O O4 0.812932 0.262509 0.852999
O O5 0.596155 0.795375 0.774821
O O6 0.543998 0.774593 0.637230
O O7 0.629600 0.000000 0.709085
O O8 0.549751 0.500000 0.916416
O O9 0.580950 0.754482 0.887240
O O10 0.462283 0.718400 0.908484
O O11 0.604846 0.702229 0.014290
O O12 0.460170 0.764004 0.761245
O O13 0.541590 0.000000 0.822423
O O14 0.983342 0.500000 0.558089
O O15 0.896471 0.723364 0.540854
O O16 0.000000 0.736974 0.500000
O O17 0.750000 0.250000 0.500000
O O18 0.653594 0.230131 0.369081
O O19 0.683887 0.000000 0.453108
O O20 0.383353 0.000000 0.709008
O O21 0.868716 0.000000 0.890300
#
# Coordination Sequence:
#
# PCOD8084057 Si02
#       8
#     8   8   8   8   8   8   8   8
#     4  11  22  35  54  80 110 143 180 224 271 320
#     4  10  21  37  57  78 107 145 183 223 268 319
#     4   9  18  32  54  82 111 140 172 222 275 315
#     4  10  18  34  57  79 103 142 185 219 264 323
#     4   9  18  34  56  79 104 140 183 220 258 314
#     4  10  20  36  56  80 110 140 177 223 269 316
#     4   9  18  34  54  76 107 142 176 219 270 318
#     4   9  18  34  53  79 113 143 174 217 273 322
#
# _framework density 18.366061999999999
#
# number of rings (size 3 to 8) (size 9 to 14) (size 15 to 20)
#    0.000    2.375    2.500    1.125    1.750    1.000 
#    0.000    3.750    0.000    0.750    0.000    0.000 
#    0.000    0.000    0.000    0.000    0.000    0.000 
#
# Total GULP energy -396804.116302 kJ/mol
# GULP energy per Si atom -12400.128634 kJ/mol
# Density = 1.832426 g / cm^3
# Si number density = 18.366062 Si / 1000 Ang^3
#
#
#
# Elastic Constant Matrix: (Units=GPa)
#
#
# Indices 1 2 3 4 5 6 
#
# 1 109.3425 35.9366 51.0807 0.0000 2.6993 0.0000
# 2 35.9366 39.3305 32.9653 0.0000 -1.8287 0.0000
# 3 51.0807 32.9653 115.2788 0.0000 -11.4737 0.0000
# 4 0.0000 0.0000 0.0000 25.8517 0.0000 5.4296
# 5 2.6993 -1.8287 -11.4737 0.0000 33.1076 0.0000
# 6 0.0000 0.0000 0.0000 5.4296 0.0000 26.8623
#
#
#
# Elastic Compliance Matrix: (Units=1/GPa)
#
#
# Indices 1 2 3 4 5 6 
#
# 1 0.014272 -0.010033 -0.003755 0.000000 -0.003019 0.000000
# 2 -0.010033 0.040568 -0.007095 0.000000 0.000600 0.000000
# 3 -0.003755 -0.007095 0.012801 0.000000 0.004350 0.000000
# 4 0.000000 0.000000 0.000000 0.040397 0.000000 -0.008165
# 5 -0.003019 0.000600 0.004350 0.000000 0.031991 0.000000
# 6 0.000000 0.000000 0.000000 -0.008165 0.000000 0.038877
#
#
# Mechanical properties :
#
#
# Convention : Reuss Voigt Hill
#
# Bulk Modulus (GPa) = 38.65092 55.99078 47.32085
# Shear Modulus (GPa) = 21.80561 26.76227 24.28394
#
# Velocity S-wave (km/s) = 3.44943 3.82142 3.64018
# Velocity P-wave (km/s) = 6.07908 7.07270 6.59463
#
# Compressibility (1/GPa) = 0.02587260
#
# Stress axis : x y z
#
# Youngs Moduli (GPa) = 70.06725 24.65002 78.12081
#
# Poissons Ratio (x) = 0.24732 0.29338
# Poissons Ratio (y) = 0.70300 0.55430
# Poissons Ratio (z) = 0.26313 0.17490
#
# Static dielectric constant tensor:
#      x y z
#    x 3.363810 0.000000 -0.125740 
#    y 0.000000 3.033770 0.000000 
#    z -0.125740 0.000000 3.555300 
# 
# 
# High freq. dielectric constant tensor:
#      x y z
#    x 1.707530 0.000000 -0.005920 
#    y 0.000000 1.680440 0.000000 
#    z -0.005920 0.000000 1.724660 
# 
# From -- ./inp_files/319816.got.cif
#   From: 2010.06.25/outbox.cif.g09.slc.cpg/sg12_160_cif.got.tgz:319816.got - 2010.06.28 00:19:55.
