data_PCOD8084535
_publ_section_title
;
Structure prediction by ZEFSAII (Michael W. Deem and Ramdas Pophale) SiO2 
 PCOD8084535
Probable space group: C 2/M
;
_chemical_formula_sum "Si O2"
_cell_formula_units_Z 56
_cell_length_a 10.300667
_cell_length_b 25.746263
_cell_length_c 12.299131
_cell_angle_alpha 90.000000
_cell_angle_beta 117.821321
_cell_angle_gamma 90.000000
_cell_volume 2884.737664
_symmetry_space_group_name_H-M "C 2/M"
_symmetry_group_IT_number 12
_symmetry_cell_setting 'monoclinic'
loop_
_space_group_symop_operation_xyz
x,y,z
-x,y,-z
-x,-y,-z
x,-y,z
1/2+x,1/2+y,z
1/2-x,1/2+y,-z
1/2-x,1/2-y,-z
1/2+x,1/2-y,z
loop_
_atom_site_type_symbol
_atom_site_label
_atom_site_fract_x
_atom_site_fract_y
_atom_site_fract_z
Si Si1 0.682217 0.344648 0.860475
Si Si2 0.635744 0.176931 0.270159
Si Si3 0.133840 0.139563 0.484370
Si Si4 0.371508 0.704416 0.722083
Si Si5 0.492735 0.558573 0.283225
Si Si6 0.859314 0.942960 0.880466
Si Si7 0.702670 0.845326 0.856037
O O1 0.817645 0.330073 0.836176
O O2 0.545900 0.305802 0.791243
O O3 0.636728 0.404209 0.813899
O O4 0.738515 0.332793 0.002125
O O5 0.727538 0.136440 0.380619
O O6 0.667001 0.236112 0.315958
O O7 0.466294 0.166694 0.221680
O O8 0.190542 0.172552 0.404206
O O9 0.000000 0.166354 0.500000
O O10 0.072603 0.083397 0.420142
O O11 0.298201 0.685987 0.805545
O O12 0.434214 0.500000 0.287418
O O13 0.613982 0.554738 0.237160
O O14 0.719627 0.906937 0.844955
O O15 0.824639 0.000000 0.914728
O O16 0.000000 0.919408 0.000000
#
# Coordination Sequence:
#
# PCOD8084535 Si02
#       7
#     8   8   8   8   8   8   8
#     4  11  22  42  61  94 128 159 203 255 302 378
#     4  12  26  40  59  91 130 167 198 258 319 355
#     4  11  22  43  64  87 124 160 213 261 297 370
#     4  11  23  42  65  86 120 172 217 244 296 371
#     4  10  20  38  69  92 112 159 214 254 297 364
#     4  10  18  36  66  94 120 159 208 252 303 373
#     4  12  23  38  64  96 128 156 205 258 312 366
#
# _framework density 19.412512
#
# number of rings (size 3 to 8) (size 9 to 14) (size 15 to 20)
#    0.000    1.000    7.143    2.143    0.000    4.286 
#    0.000    1.429    0.000    3.429    0.000    0.000 
#    0.000    0.000    0.000    0.000    0.000    0.000 
#
# Total GULP energy -347088.385041 kJ/mol
# GULP energy per Si atom -12396.013751 kJ/mol
# Density = 1.936833 g / cm^3
# Si number density = 19.412512 Si / 1000 Ang^3
#
#
#
# Elastic Constant Matrix: (Units=GPa)
#
#
# Indices 1 2 3 4 5 6 
#
# 1 78.8780 29.7267 26.5911 0.0000 -12.6732 0.0000
# 2 29.7267 94.3185 25.3899 0.0000 -1.4106 0.0000
# 3 26.5911 25.3899 104.6176 0.0000 -12.0948 0.0000
# 4 0.0000 0.0000 0.0000 15.3059 0.0000 -5.0003
# 5 -12.6732 -1.4106 -12.0948 0.0000 30.5540 0.0000
# 6 0.0000 0.0000 0.0000 -5.0003 0.0000 12.0479
#
#
#
# Elastic Compliance Matrix: (Units=1/GPa)
#
#
# Indices 1 2 3 4 5 6 
#
# 1 0.015989 -0.004316 -0.002382 0.000000 0.005490 0.000000
# 2 -0.004316 0.012519 -0.002181 0.000000 -0.002076 0.000000
# 3 -0.002382 -0.002181 0.011074 0.000000 0.003295 0.000000
# 4 0.000000 0.000000 0.000000 0.075582 0.000000 0.031369
# 5 0.005490 -0.002076 0.003295 0.000000 0.036215 0.000000
# 6 0.000000 0.000000 0.000000 0.031369 0.000000 0.096021
#
#
# Mechanical properties :
#
#
# Convention : Reuss Voigt Hill
#
# Bulk Modulus (GPa) = 45.82073 49.02554 47.42313
# Shear Modulus (GPa) = 18.35305 24.65532 21.50419
#
# Velocity S-wave (km/s) = 3.07811 3.56768 3.33190
# Velocity P-wave (km/s) = 6.02395 6.50235 6.26771
#
# Compressibility (1/GPa) = 0.02182418
#
# Stress axis : x y z
#
# Youngs Moduli (GPa) = 62.54110 79.87974 90.29882
#
# Poissons Ratio (x) = 0.34477 0.21509
# Poissons Ratio (y) = 0.26994 0.19695
# Poissons Ratio (z) = 0.14897 0.17423
#
# Static dielectric constant tensor:
#      x y z
#    x 3.527160 0.000000 -0.242560 
#    y 0.000000 3.772730 0.000000 
#    z -0.242560 0.000000 3.667180 
# 
# 
# High freq. dielectric constant tensor:
#      x y z
#    x 1.745780 0.000000 -0.025130 
#    y 0.000000 1.752440 0.000000 
#    z -0.025130 0.000000 1.759410 
# 
# From -- ./inp_files/125830.got.cif
#   From: 2010.06.25/outbox.cif.g09.slc.cpg/sg12_63_cif.got.tgz:125830.got - 2010.06.28 00:19:55.
