data_PCOD8084738
_publ_section_title
;
Structure prediction by ZEFSAII (Michael W. Deem and Ramdas Pophale) SiO2 
 PCOD8084738
Probable space group: C 2/M
;
_chemical_formula_sum "Si O2"
_cell_formula_units_Z 56
_cell_length_a 23.562187
_cell_length_b 26.011704
_cell_length_c 14.449195
_cell_angle_alpha 90.000000
_cell_angle_beta 159.141983
_cell_angle_gamma 90.000000
_cell_volume 3153.139306
_symmetry_space_group_name_H-M "C 2/M"
_symmetry_group_IT_number 12
_symmetry_cell_setting 'monoclinic'
loop_
_space_group_symop_operation_xyz
x,y,z
-x,y,-z
-x,-y,-z
x,-y,z
1/2+x,1/2+y,z
1/2-x,1/2+y,-z
1/2-x,1/2-y,-z
1/2+x,1/2-y,z
loop_
_atom_site_type_symbol
_atom_site_label
_atom_site_fract_x
_atom_site_fract_y
_atom_site_fract_z
Si Si1 0.519914 0.908075 0.250949
Si Si2 0.172967 0.942345 0.387464
Si Si3 0.603916 0.059071 0.569730
Si Si4 0.800671 0.310048 0.477087
Si Si5 0.665623 0.107538 0.201758
Si Si6 0.106791 0.867179 0.031759
Si Si7 0.143765 0.194764 0.438942
O O1 0.682014 0.934358 0.461911
O O2 0.489969 0.932106 0.306317
O O3 0.545190 0.846605 0.294476
O O4 0.369731 0.917207 0.953425
O O5 0.229165 0.932230 0.578605
O O6 0.109127 0.000000 0.282876
O O7 0.031489 0.904790 0.141601
O O8 0.500000 0.073054 0.500000
O O9 0.752560 0.097944 0.795471
O O10 0.663257 0.000000 0.663875
O O11 0.663570 0.330329 0.200456
O O12 0.859264 0.253775 0.534624
O O13 0.734240 0.311269 0.479240
O O14 0.759059 0.161803 0.336646
O O15 0.500000 0.118701 0.000000
O O16 0.033936 0.829104 0.842116
#
# Coordination Sequence:
#
# PCOD8084738 Si02
#       7
#     8   8   8   8   8   8   8
#     4  10  19  33  48  77 106 137 174 213 255 318
#     4  10  19  31  49  76 107 140 165 206 263 315
#     4  10  22  38  57  77  99 136 180 226 273 305
#     4  10  19  28  46  75 109 139 171 200 253 305
#     4   9  17  30  44  71 109 137 171 196 245 317
#     4  10  20  34  51  78 107 131 177 218 256 311
#     4  10  19  29  48  75 109 145 169 201 251 315
#
# _framework density 17.760078
#
# number of rings (size 3 to 8) (size 9 to 14) (size 15 to 20)
#    0.000    2.143    4.286    1.286    4.000    3.143 
#    0.000    2.143    0.000    6.857    0.000    9.000 
#    0.000    0.000    0.000    0.000    0.000    0.000 
#
# Total GULP energy -347081.546098 kJ/mol
# GULP energy per Si atom -12395.769504 kJ/mol
# Density = 1.771966 g / cm^3
# Si number density = 17.760078 Si / 1000 Ang^3
#
#
#
# Elastic Constant Matrix: (Units=GPa)
#
#
# Indices 1 2 3 4 5 6 
#
# 1 80.8123 26.8100 36.1127 0.0000 -15.7842 0.0000
# 2 26.8100 127.6155 35.7867 0.0000 -5.3811 0.0000
# 3 36.1127 35.7867 83.5778 0.0000 -22.2268 0.0000
# 4 0.0000 0.0000 0.0000 20.0168 0.0000 -0.4568
# 5 -15.7842 -5.3811 -22.2268 0.0000 17.7355 0.0000
# 6 0.0000 0.0000 0.0000 -0.4568 0.0000 17.0765
#
#
#
# Elastic Compliance Matrix: (Units=1/GPa)
#
#
# Indices 1 2 3 4 5 6 
#
# 1 0.016575 -0.002020 -0.003805 0.000000 0.009370 0.000000
# 2 -0.002020 0.009268 -0.004238 0.000000 -0.004298 0.000000
# 3 -0.003805 -0.004238 0.021270 0.000000 0.021985 0.000000
# 4 0.000000 0.000000 0.000000 0.049989 0.000000 0.001337
# 5 0.009370 -0.004298 0.021985 0.000000 0.090971 0.000000
# 6 0.000000 0.000000 0.000000 0.001337 0.000000 0.058596
#
#
# Mechanical properties :
#
#
# Convention : Reuss Voigt Hill
#
# Bulk Modulus (GPa) = 37.05583 54.38049 45.71816
# Shear Modulus (GPa) = 18.12969 23.85217 20.99093
#
# Velocity S-wave (km/s) = 3.19848 3.66870 3.44163
# Velocity P-wave (km/s) = 5.87795 6.97365 6.44911
#
# Compressibility (1/GPa) = 0.02698630
#
# Stress axis : x y z
#
# Youngs Moduli (GPa) = 60.33193 107.90093 47.01363
#
# Poissons Ratio (x) = 0.21796 0.17889
# Poissons Ratio (y) = 0.12187 0.19926
# Poissons Ratio (z) = 0.22956 0.45733
#
# Static dielectric constant tensor:
#      x y z
#    x 2.922030 0.000000 -0.385790 
#    y 0.000000 3.583750 0.000000 
#    z -0.385790 0.000000 3.478090 
# 
# 
# High freq. dielectric constant tensor:
#      x y z
#    x 1.628400 0.000000 -0.035920 
#    y 0.000000 1.701400 0.000000 
#    z -0.035920 0.000000 1.684770 
# 
# From -- ./inp_files/136332.got.cif
#   From: 2010.06.25/outbox.cif.g09.slc.cpg/sg12_69_cif.got.tgz:136332.got - 2010.06.28 00:19:55.
