data_PCOD8084033
_publ_section_title
;
Structure prediction by ZEFSAII (Michael W. Deem and Ramdas Pophale) SiO2 
 PCOD8084033
Probable space group: C 2/M
;
_chemical_formula_sum "Si O2"
_cell_formula_units_Z 64
_cell_length_a 20.775422
_cell_length_b 8.674829
_cell_length_c 25.066037
_cell_angle_alpha 90.000000
_cell_angle_beta 50.011709
_cell_angle_gamma 90.000000
_cell_volume 3461.185508
_symmetry_space_group_name_H-M "C 2/M"
_symmetry_group_IT_number 12
_symmetry_cell_setting 'monoclinic'
loop_
_space_group_symop_operation_xyz
x,y,z
-x,y,-z
-x,-y,-z
x,-y,z
1/2+x,1/2+y,z
1/2-x,1/2+y,-z
1/2-x,1/2-y,-z
1/2+x,1/2-y,z
loop_
_atom_site_type_symbol
_atom_site_label
_atom_site_fract_x
_atom_site_fract_y
_atom_site_fract_z
Si Si1 0.530938 0.681462 0.297094
Si Si2 0.626682 0.821267 0.072255
Si Si3 0.533841 0.819210 0.775891
Si Si4 0.221874 0.817600 0.203533
Si Si5 0.713704 0.817725 0.718633
Si Si6 0.724121 0.320017 0.931019
Si Si7 0.985925 0.318884 0.428073
Si Si8 0.875704 0.181543 0.571170
O O1 0.526237 0.500000 0.309849
O O2 0.489211 0.721867 0.263442
O O3 0.626686 0.742841 0.247118
O O4 0.478315 0.769288 0.370751
O O5 0.532861 0.786384 0.141754
O O6 0.691654 0.765304 0.083158
O O7 0.641429 0.000000 0.052120
O O8 0.642951 0.728468 0.008957
O O9 0.622905 0.756030 0.749387
O O10 0.535622 0.000000 0.760235
O O11 0.260258 0.748190 0.237754
O O12 0.279486 0.761660 0.124190
O O13 0.222347 0.000000 0.204612
O O14 0.781612 0.769586 0.637718
O O15 0.710894 0.000000 0.725738
O O16 0.723525 0.500000 0.921197
O O17 0.001225 0.500000 0.425613
O O18 0.900118 0.272429 0.504334
O O19 0.062924 0.226462 0.413153
O O20 0.883326 0.000000 0.556961
#
# Coordination Sequence:
#
# PCOD8084033 Si02
#       8
#     8   8   8   8   8   8   8   8
#     4  11  21  35  56  82 110 142 181 224 271 321
#     4   9  18  32  51  77 107 140 175 218 269 320
#     4  10  20  37  58  81 110 141 180 224 271 323
#     4  10  19  34  55  80 107 139 181 221 265 320
#     4   9  19  36  58  81 108 145 180 218 269 327
#     4  10  19  31  51  80 107 137 177 224 271 311
#     4  11  21  33  53  83 112 142 181 227 272 313
#     4  10  18  34  56  81 111 144 181 221 273 324
#
# _framework density 18.490773999999998
#
# number of rings (size 3 to 8) (size 9 to 14) (size 15 to 20)
#    0.000    2.000    2.500    3.000    0.000    1.500 
#    0.000    3.125    0.000    3.750    0.000    0.000 
#    0.000    0.000    0.000    0.000    0.000    0.000 
#
# Total GULP energy -396868.004895 kJ/mol
# GULP energy per Si atom -12402.125153 kJ/mol
# Density = 1.844869 g / cm^3
# Si number density = 18.490774 Si / 1000 Ang^3
#
#
#
# Elastic Constant Matrix: (Units=GPa)
#
#
# Indices 1 2 3 4 5 6 
#
# 1 103.7182 19.3661 63.1555 0.0002 -3.2713 0.0015
# 2 19.3661 43.5843 29.5799 0.0001 2.8037 0.0020
# 3 63.1555 29.5799 135.7920 0.0000 -0.3808 0.0001
# 4 0.0002 0.0001 0.0000 27.1045 -0.0002 6.9842
# 5 -3.2713 2.8037 -0.3808 -0.0002 30.3475 0.0001
# 6 0.0015 0.0020 0.0001 6.9842 0.0001 20.5428
#
#
#
# Elastic Compliance Matrix: (Units=1/GPa)
#
#
# Indices 1 2 3 4 5 6 
#
# 1 0.013683 -0.002191 -0.005882 0.000000 0.001604 -0.000001
# 2 -0.002191 0.027476 -0.004974 0.000001 -0.002837 -0.000003
# 3 -0.005882 -0.004974 0.011183 0.000000 -0.000034 0.000001
# 4 0.000000 0.000001 0.000000 0.040437 0.000000 -0.013748
# 5 0.001604 -0.002837 -0.000034 0.000000 0.033386 0.000000
# 6 -0.000001 -0.000003 0.000001 -0.013748 0.000000 0.053353
#
#
# Mechanical properties :
#
#
# Convention : Reuss Voigt Hill
#
# Bulk Modulus (GPa) = 38.09824 56.36640 47.23232
# Shear Modulus (GPa) = 23.32510 26.99848 25.16179
#
# Velocity S-wave (km/s) = 3.55554 3.82528 3.69287
# Velocity P-wave (km/s) = 6.12409 7.07531 6.61681
#
# Compressibility (1/GPa) = 0.02624793
#
# Stress axis : x y z
#
# Youngs Moduli (GPa) = 73.08450 36.39549 89.41914
#
# Poissons Ratio (x) = 0.07974 0.52596
# Poissons Ratio (y) = 0.16012 0.44478
# Poissons Ratio (z) = 0.42988 0.18104
#
# Static dielectric constant tensor:
#      x y z
#    x 3.272580 0.000000 -0.012580 
#    y 0.000000 3.211200 0.000000 
#    z -0.012580 0.000000 3.620490 
# 
# 
# High freq. dielectric constant tensor:
#      x y z
#    x 1.685750 0.000000 0.007980 
#    y 0.000000 1.707130 0.000000 
#    z 0.007980 0.000000 1.733270 
# 
# From -- ./inp_files/365193.got.cif
#   From: 2010.06.25/outbox.cif.g09.slc.cpg/sg12_183_cif.got.tgz:365193.got - 2010.06.28 00:19:55.
