data_PCOD8084503
_publ_section_title
;
Structure prediction by ZEFSAII (Michael W. Deem and Ramdas Pophale) SiO2 
 PCOD8084503
Probable space group: C 2/M
;
_chemical_formula_sum "Si O2"
_cell_formula_units_Z 64
_cell_length_a 14.672051
_cell_length_b 17.907930
_cell_length_c 15.634499
_cell_angle_alpha 90.000000
_cell_angle_beta 130.018455
_cell_angle_gamma 90.000000
_cell_volume 3145.985630
_symmetry_space_group_name_H-M "C 2/M"
_symmetry_group_IT_number 12
_symmetry_cell_setting 'monoclinic'
loop_
_space_group_symop_operation_xyz
x,y,z
-x,y,-z
-x,-y,-z
x,-y,z
1/2+x,1/2+y,z
1/2-x,1/2+y,-z
1/2-x,1/2-y,-z
1/2+x,1/2-y,z
loop_
_atom_site_type_symbol
_atom_site_label
_atom_site_fract_x
_atom_site_fract_y
_atom_site_fract_z
Si Si1 0.399440 0.326751 0.769776
Si Si2 0.208492 0.413880 0.404488
Si Si3 0.899241 0.340034 0.819598
Si Si4 0.869074 0.797197 0.561674
Si Si5 0.653855 0.345063 0.995546
Si Si6 0.485066 0.848227 0.588779
Si Si7 0.772739 0.586551 0.224306
Si Si8 0.162792 0.674133 0.031657
O O1 0.360950 0.242964 0.770058
O O2 0.419932 0.329877 0.680998
O O3 0.515609 0.354217 0.890687
O O4 0.292823 0.381604 0.731313
O O5 0.240388 0.500000 0.431641
O O6 0.142790 0.399465 0.275287
O O7 0.333518 0.367937 0.481214
O O8 0.126291 0.389708 0.434868
O O9 0.839364 0.359850 0.874435
O O10 0.041506 0.345111 0.909410
O O11 0.750000 0.750000 0.500000
O O12 0.968215 0.742032 0.581373
O O13 0.729075 0.362025 0.955333
O O14 0.691033 0.402938 0.091237
O O15 0.679964 0.263054 0.048367
O O16 0.500000 0.875002 0.500000
O O17 0.602884 0.869943 0.712790
O O18 0.799238 0.500000 0.254680
#
# Coordination Sequence:
#
# PCOD8084503 Si02
#       8
#     8   8   8   8   8   8   8   8
#     4  11  21  37  61  89 121 166 214 251 308 369
#     4  11  23  41  64  91 128 165 201 259 326 373
#     4  10  18  36  60  90 120 160 213 262 299 366
#     4  10  21  39  60  90 121 159 210 259 304 369
#     4  10  21  35  56  91 122 164 207 259 307 362
#     4  11  24  39  64  97 125 162 210 261 310 372
#     4  12  25  39  60  94 135 167 199 255 325 380
#     4   9  19  33  59  89 121 157 217 262 292 355
#
# _framework density 20.343385000000001
#
# number of rings (size 3 to 8) (size 9 to 14) (size 15 to 20)
#    0.000    1.500    3.750    3.000    3.500    3.500 
#    0.000    1.875    0.000    0.375    0.000    0.000 
#    0.000    0.000    0.000    0.000    0.000    0.000 
#
# Total GULP energy -396853.635781 kJ/mol
# GULP energy per Si atom -12401.676118 kJ/mol
# Density = 2.029708 g / cm^3
# Si number density = 20.343385 Si / 1000 Ang^3
#
#
#
# Elastic Constant Matrix: (Units=GPa)
#
#
# Indices 1 2 3 4 5 6 
#
# 1 67.7108 35.1380 7.4733 0.0000 -5.2415 0.0000
# 2 35.1380 118.9549 42.3299 0.0000 7.2327 0.0000
# 3 7.4733 42.3299 89.2325 0.0000 -7.7838 0.0000
# 4 0.0000 0.0000 0.0000 29.3023 0.0000 0.0106
# 5 -5.2415 7.2327 -7.7838 0.0000 33.9627 0.0000
# 6 0.0000 0.0000 0.0000 0.0106 0.0000 21.8043
#
#
#
# Elastic Compliance Matrix: (Units=1/GPa)
#
#
# Indices 1 2 3 4 5 6 
#
# 1 0.018197 -0.006321 0.001874 0.000000 0.004584 0.000000
# 2 -0.006321 0.012690 -0.005930 0.000000 -0.005037 0.000000
# 3 0.001874 -0.005930 0.014284 0.000000 0.004826 0.000000
# 4 0.000000 0.000000 0.000000 0.034127 0.000000 -0.000017
# 5 0.004584 -0.005037 0.004826 0.000000 0.032330 0.000000
# 6 0.000000 0.000000 0.000000 -0.000017 0.000000 0.045862
#
#
# Mechanical properties :
#
#
# Convention : Reuss Voigt Hill
#
# Bulk Modulus (GPa) = 40.95383 49.53119 45.24251
# Shear Modulus (GPa) = 26.82659 29.74434 28.28547
#
# Velocity S-wave (km/s) = 3.63531 3.82791 3.73285
# Velocity P-wave (km/s) = 6.14782 6.62854 6.39270
#
# Compressibility (1/GPa) = 0.02441774
#
# Stress axis : x y z
#
# Youngs Moduli (GPa) = 54.95468 78.80187 70.01012
#
# Poissons Ratio (x) = 0.49809 -0.13122
# Poissons Ratio (y) = 0.34736 0.41515
# Poissons Ratio (z) = -0.10300 0.46729
#
# Static dielectric constant tensor:
#      x y z
#    x 3.693630 0.000000 0.014540 
#    y 0.000000 3.521650 0.000000 
#    z 0.014540 0.000000 3.871440 
# 
# 
# High freq. dielectric constant tensor:
#      x y z
#    x 1.786080 0.000000 -0.004500 
#    y 0.000000 1.762160 0.000000 
#    z -0.004500 0.000000 1.806210 
# 
# From -- ./inp_files/216819.got.cif
#   From: 2010.06.25/outbox.cif.g09.slc.cpg/sg12_109_cif.got.tgz:216819.got - 2010.06.28 00:19:55.
