data_PCOD8084914
_publ_section_title
;
Structure prediction by ZEFSAII (Michael W. Deem and Ramdas Pophale) SiO2 
 PCOD8084914
Probable space group: C 2/M
;
_chemical_formula_sum "Si O2"
_cell_formula_units_Z 48
_cell_length_a 25.918299
_cell_length_b 8.986079
_cell_length_c 29.244475
_cell_angle_alpha 90.000000
_cell_angle_beta 152.120581
_cell_angle_gamma 90.000000
_cell_volume 3184.978547
_symmetry_space_group_name_H-M "C 2/M"
_symmetry_group_IT_number 12
_symmetry_cell_setting 'monoclinic'
loop_
_space_group_symop_operation_xyz
x,y,z
-x,y,-z
-x,-y,-z
x,-y,z
1/2+x,1/2+y,z
1/2-x,1/2+y,-z
1/2-x,1/2-y,-z
1/2+x,1/2-y,z
loop_
_atom_site_type_symbol
_atom_site_label
_atom_site_fract_x
_atom_site_fract_y
_atom_site_fract_z
Si Si1 0.342129 0.831863 0.600896
Si Si2 0.084431 0.668170 0.781218
Si Si3 0.723852 0.823646 0.118120
Si Si4 0.017948 0.826170 0.910855
Si Si5 0.520238 0.324927 0.223583
Si Si6 0.892144 0.663840 0.884769
O O1 0.250000 0.750000 0.500000
O O2 0.458029 0.832366 0.663308
O O3 0.365168 0.744963 0.666871
O O4 0.303530 0.000000 0.581301
O O5 0.128916 0.500000 0.822530
O O6 0.159123 0.755665 0.803832
O O7 0.083173 0.751417 0.829778
O O8 0.704281 0.781009 0.156289
O O9 0.724267 0.000000 0.112046
O O10 0.628800 0.758839 0.011234
O O11 0.989417 0.783748 0.836818
O O12 0.912986 0.777111 0.859491
O O13 0.038044 0.000000 0.933366
O O14 0.519875 0.500000 0.231828
O O15 0.864537 0.500000 0.843109
O O16 0.000000 0.652653 0.000000
#
# Coordination Sequence:
#
# PCOD8084914 Si02
#       6
#     8   8   8   8   8   8
#     4   9  18  31  49  69  89 114 144 180 223 267
#     4   9  19  31  45  67  90 115 150 183 220 267
#     4  10  19  30  45  63  89 124 154 186 223 259
#     4  10  19  29  44  65  90 122 154 187 222 256
#     4   9  18  31  45  65  92 118 149 182 219 267
#     4   8  16  29  43  61  84 116 156 188 219 258
#
# _framework density 15.070745000000001
#
# number of rings (size 3 to 8) (size 9 to 14) (size 15 to 20)
#    1.000    1.833    0.000    3.000    0.000    7.000 
#    0.000    0.000    0.000    0.000    0.000    1.167 
#    0.000    9.333    0.000    0.000    0.000    0.000 
#
# Total GULP energy -297349.718254 kJ/mol
# GULP energy per Si atom -12389.571594 kJ/mol
# Density = 1.503644 g / cm^3
# Si number density = 15.070745 Si / 1000 Ang^3
#
#
#
# Elastic Constant Matrix: (Units=GPa)
#
#
# Indices 1 2 3 4 5 6 
#
# 1 111.2442 53.6809 34.4935 0.0000 -3.2555 0.0000
# 2 53.6809 98.5377 33.0914 -0.0001 1.9931 0.0014
# 3 34.4935 33.0914 49.1695 0.0000 5.9637 -0.0001
# 4 0.0000 -0.0001 0.0000 24.1211 -0.0001 0.0329
# 5 -3.2555 1.9931 5.9637 -0.0001 4.3140 0.0000
# 6 0.0000 0.0014 -0.0001 0.0329 0.0000 29.1057
#
#
#
# Elastic Compliance Matrix: (Units=1/GPa)
#
#
# Indices 1 2 3 4 5 6 
#
# 1 0.016015 -0.005602 -0.011107 0.000000 0.030028 0.000000
# 2 -0.005602 0.015270 -0.005981 0.000000 -0.003014 -0.000001
# 3 -0.011107 -0.005981 0.039451 0.000000 -0.060157 0.000000
# 4 0.000000 0.000000 0.000000 0.041458 0.000002 -0.000047
# 5 0.030028 -0.003014 -0.060157 0.000002 0.339020 0.000000
# 6 0.000000 -0.000001 0.000000 -0.000047 0.000000 0.034358
#
#
# Mechanical properties :
#
#
# Convention : Reuss Voigt Hill
#
# Bulk Modulus (GPa) = 39.43829 55.72033 47.57931
# Shear Modulus (GPa) = 9.26948 20.68720 14.97834
#
# Velocity S-wave (km/s) = 2.48274 3.70898 3.15599
# Velocity P-wave (km/s) = 5.86892 7.44277 6.70220
#
# Compressibility (1/GPa) = 0.02535607
#
# Stress axis : x y z
#
# Youngs Moduli (GPa) = 62.44063 65.48842 25.34770
#
# Poissons Ratio (x) = 0.36687 0.28153
# Poissons Ratio (y) = 0.34980 0.15161
# Poissons Ratio (z) = 0.69352 0.39170
#
# Static dielectric constant tensor:
#      x y z
#    x 3.102950 0.000000 -0.020920 
#    y 0.000000 3.047300 0.000000 
#    z -0.020920 0.000000 2.525410 
# 
# 
# High freq. dielectric constant tensor:
#      x y z
#    x 1.571230 0.000000 -0.003180 
#    y 0.000000 1.597660 0.000000 
#    z -0.003180 0.000000 1.532240 
# 
# From -- ./inp_files/348347.got.cif
#   From: 2010.06.25/outbox.cif.g09.slc.cpg/sg12_175_cif.got.tgz:348347.got - 2010.06.28 00:19:55.
