data_PCOD8084155
_publ_section_title
;
Structure prediction by ZEFSAII (Michael W. Deem and Ramdas Pophale) SiO2 
 PCOD8084155
Probable space group: C 2/M
;
_chemical_formula_sum "Si O2"
_cell_formula_units_Z 64
_cell_length_a 20.249964
_cell_length_b 8.948520
_cell_length_c 21.295357
_cell_angle_alpha 90.000000
_cell_angle_beta 117.241800
_cell_angle_gamma 90.000000
_cell_volume 3430.856352
_symmetry_space_group_name_H-M "C 2/M"
_symmetry_group_IT_number 12
_symmetry_cell_setting 'monoclinic'
loop_
_space_group_symop_operation_xyz
x,y,z
-x,y,-z
-x,-y,-z
x,-y,z
1/2+x,1/2+y,z
1/2-x,1/2+y,-z
1/2-x,1/2-y,-z
1/2+x,1/2-y,z
loop_
_atom_site_type_symbol
_atom_site_label
_atom_site_fract_x
_atom_site_fract_y
_atom_site_fract_z
Si Si1 0.913730 0.670673 0.838004
Si Si2 0.154823 0.177157 0.704448
Si Si3 0.776473 0.329218 0.449326
Si Si4 0.334175 0.171347 0.933605
Si Si5 0.297729 0.673238 0.710753
Si Si6 0.569211 0.323000 0.921575
Si Si7 0.831907 0.823273 0.149791
Si Si8 0.420331 0.176847 0.439308
O O1 0.927638 0.500000 0.824153
O O2 0.858180 0.681913 0.872049
O O3 0.877615 0.758830 0.763643
O O4 0.990266 0.745391 0.890672
O O5 0.235007 0.237326 0.720368
O O6 0.139250 0.228225 0.769263
O O7 0.090450 0.246827 0.633085
O O8 0.154803 0.000000 0.696918
O O9 0.787273 0.500000 0.472064
O O10 0.750000 0.250000 0.500000
O O11 0.713764 0.307182 0.368825
O O12 0.855722 0.266624 0.458594
O O13 0.250682 0.236358 0.901469
O O14 0.340408 0.000000 0.960157
O O15 0.385321 0.277549 0.997331
O O16 0.293368 0.500000 0.728094
O O17 0.558731 0.500000 0.916005
O O18 0.611486 0.263561 0.877948
O O19 0.826773 0.000000 0.146271
O O20 0.500000 0.226490 0.500000
O O21 0.414080 0.000000 0.426966
#
# Coordination Sequence:
#
# PCOD8084155 Si02
#       8
#     8   8   8   8   8   8   8   8
#     4  11  22  38  59  81 109 147 187 228 275 327
#     4  10  18  34  59  84 109 144 189 227 268 326
#     4   9  19  35  56  82 111 144 178 220 271 321
#     4  10  20  38  60  79 105 143 188 229 274 329
#     4  10  20  36  58  84 112 144 184 229 275 321
#     4  11  23  37  54  81 116 146 179 228 282 329
#     4   9  19  37  57  79 111 147 180 226 279 324
#     4   9  19  37  57  80 114 147 181 228 276 317
#
# _framework density 18.654233999999999
#
# number of rings (size 3 to 8) (size 9 to 14) (size 15 to 20)
#    0.000    2.125    1.250    3.000    0.000    5.250 
#    2.250    3.125    0.000    0.000    0.000    0.000 
#    0.000    0.000    0.000    0.000    0.000    0.000 
#
# Total GULP energy -396838.030327 kJ/mol
# GULP energy per Si atom -12401.188448 kJ/mol
# Density = 1.861178 g / cm^3
# Si number density = 18.654234 Si / 1000 Ang^3
#
#
#
# Elastic Constant Matrix: (Units=GPa)
#
#
# Indices 1 2 3 4 5 6 
#
# 1 53.3835 21.8839 30.8482 0.0000 1.9409 0.0000
# 2 21.8839 60.2398 42.2876 0.0000 2.1838 0.0000
# 3 30.8482 42.2876 119.1180 0.0000 10.1399 0.0000
# 4 0.0000 0.0000 0.0000 36.0497 0.0000 1.5808
# 5 1.9409 2.1838 10.1399 0.0000 28.3355 0.0000
# 6 0.0000 0.0000 0.0000 1.5808 0.0000 24.7397
#
#
#
# Elastic Compliance Matrix: (Units=1/GPa)
#
#
# Indices 1 2 3 4 5 6 
#
# 1 0.023393 -0.005646 -0.004079 0.000000 0.000292 0.000000
# 2 -0.005646 0.023509 -0.006975 0.000000 0.001071 0.000000
# 3 -0.004079 -0.006975 0.012230 0.000000 -0.003560 0.000000
# 4 0.000000 0.000000 0.000000 0.027817 0.000000 -0.001777
# 5 0.000292 0.001071 -0.003560 0.000000 0.036463 0.000000
# 6 0.000000 0.000000 0.000000 -0.001777 0.000000 0.040534
#
#
# Mechanical properties :
#
#
# Convention : Reuss Voigt Hill
#
# Bulk Modulus (GPa) = 38.85944 46.97564 42.91754
# Shear Modulus (GPa) = 24.28091 27.00642 25.64367
#
# Velocity S-wave (km/s) = 3.61172 3.80904 3.71169
# Velocity P-wave (km/s) = 6.18623 6.67698 6.43628
#
# Compressibility (1/GPa) = 0.02573378
#
# Stress axis : x y z
#
# Youngs Moduli (GPa) = 42.74771 42.53755 81.76303
#
# Poissons Ratio (x) = 0.24015 0.33350
# Poissons Ratio (y) = 0.24133 0.57028
# Poissons Ratio (z) = 0.17436 0.29669
#
# Static dielectric constant tensor:
#      x y z
#    x 3.489360 0.000000 0.008820 
#    y 0.000000 3.364440 0.000000 
#    z 0.008820 0.000000 3.560720 
# 
# 
# High freq. dielectric constant tensor:
#      x y z
#    x 1.714330 0.000000 0.004410 
#    y 0.000000 1.718580 0.000000 
#    z 0.004410 0.000000 1.734410 
# 
# From -- ./inp_files/320097.got.cif
#   From: 2010.06.25/outbox.cif.g09.slc.cpg/sg12_161_cif.got.tgz:320097.got - 2010.06.28 00:19:55.
