data_PCOD8084430
_publ_section_title
;
Structure prediction by ZEFSAII (Michael W. Deem and Ramdas Pophale) SiO2 
 PCOD8084430
Probable space group: C 2/M
;
_chemical_formula_sum "Si O2"
_cell_formula_units_Z 48
_cell_length_a 10.792858
_cell_length_b 16.874244
_cell_length_c 12.785373
_cell_angle_alpha 90.000000
_cell_angle_beta 114.817074
_cell_angle_gamma 90.000000
_cell_volume 2113.458728
_symmetry_space_group_name_H-M "C 2/M"
_symmetry_group_IT_number 12
_symmetry_cell_setting 'monoclinic'
loop_
_space_group_symop_operation_xyz
x,y,z
-x,y,-z
-x,-y,-z
x,-y,z
1/2+x,1/2+y,z
1/2-x,1/2+y,-z
1/2-x,1/2-y,-z
1/2+x,1/2-y,z
loop_
_atom_site_type_symbol
_atom_site_label
_atom_site_fract_x
_atom_site_fract_y
_atom_site_fract_z
Si Si1 0.849910 0.908437 0.460231
Si Si2 0.349909 0.090241 0.438176
Si Si3 0.269302 0.292441 0.118954
Si Si4 0.117030 0.088867 0.970787
Si Si5 0.130937 0.591001 0.208623
Si Si6 0.348142 0.129789 0.208051
O O1 0.762476 0.869018 0.525067
O O2 0.768443 0.897680 0.323573
O O3 0.000000 0.868097 0.500000
O O4 0.872345 0.000000 0.496375
O O5 0.500000 0.131693 0.500000
O O6 0.300690 0.092575 0.300639
O O7 0.365684 0.000000 0.482654
O O8 0.138627 0.341425 0.119692
O O9 0.325909 0.224644 0.214941
O O10 0.250000 0.250000 0.000000
O O11 0.379402 0.361917 0.135770
O O12 0.259647 0.092235 0.083427
O O13 0.078017 0.000000 0.926133
O O14 0.000000 0.128211 0.000000
O O15 0.121996 0.500000 0.161494
O O16 0.004055 0.608601 0.238982
#
# Coordination Sequence:
#
# PCOD8084430 Si02
#       6
#     8   8   8   8   8   8
#     4   9  19  36  62  98 134 167 211 273 330 381
#     4  10  18  35  64  97 130 169 220 273 322 390
#     4  10  25  41  61  88 133 168 206 274 345 383
#     4  10  22  40  63  91 123 164 217 266 321 396
#     4  11  22  42  70  97 125 172 232 270 317 400
#     4  11  23  39  67  97 130 170 219 272 328 394
#
# _framework density 22.711586
#
# number of rings (size 3 to 8) (size 9 to 14) (size 15 to 20)
#    0.000    1.833    1.667    2.000    4.667    3.333 
#    0.000    9.167    0.000    0.000    0.000    0.000 
#    0.000    0.000    0.000    0.000    0.000    0.000 
#
# Total GULP energy -297397.333306 kJ/mol
# GULP energy per Si atom -12391.555554 kJ/mol
# Density = 2.265989 g / cm^3
# Si number density = 22.711586 Si / 1000 Ang^3
#
#
#
# Elastic Constant Matrix: (Units=GPa)
#
#
# Indices 1 2 3 4 5 6 
#
# 1 165.6671 28.6973 34.2198 0.0000 -14.4852 0.0000
# 2 28.6973 95.9648 13.4454 0.0000 -12.1817 0.0000
# 3 34.2198 13.4454 56.2721 0.0000 -14.1265 0.0000
# 4 0.0000 0.0000 0.0000 26.3070 0.0000 -6.3201
# 5 -14.4852 -12.1817 -14.1265 0.0000 43.2469 0.0000
# 6 0.0000 0.0000 0.0000 -6.3201 0.0000 18.5699
#
#
#
# Elastic Compliance Matrix: (Units=1/GPa)
#
#
# Indices 1 2 3 4 5 6 
#
# 1 0.007147 -0.001512 -0.003803 0.000000 0.000726 0.000000
# 2 -0.001512 0.011333 -0.001214 0.000000 0.002289 0.000000
# 3 -0.003803 -0.001214 0.021751 0.000000 0.005489 0.000000
# 4 0.000000 0.000000 0.000000 0.041398 0.000000 0.014089
# 5 0.000726 0.002289 0.005489 0.000000 0.025804 0.000000
# 6 0.000000 0.000000 0.000000 0.014089 0.000000 0.058646
#
#
# Mechanical properties :
#
#
# Convention : Reuss Voigt Hill
#
# Bulk Modulus (GPa) = 36.79909 52.29211 44.54560
# Shear Modulus (GPa) = 26.56820 33.72752 30.14786
#
# Velocity S-wave (km/s) = 3.42396 3.85780 3.64733
# Velocity P-wave (km/s) = 5.64529 6.55117 6.11503
#
# Compressibility (1/GPa) = 0.02717459
#
# Stress axis : x y z
#
# Youngs Moduli (GPa) = 139.91676 88.23492 45.97428
#
# Poissons Ratio (x) = 0.13344 0.17483
# Poissons Ratio (y) = 0.21160 0.05579
# Poissons Ratio (z) = 0.53206 0.10708
#
# Static dielectric constant tensor:
#      x y z
#    x 4.391190 0.000000 -0.241280 
#    y 0.000000 4.414310 0.000000 
#    z -0.241280 0.000000 3.778070 
# 
# 
# High freq. dielectric constant tensor:
#      x y z
#    x 1.907390 0.000000 -0.019670 
#    y 0.000000 1.878880 0.000000 
#    z -0.019670 0.000000 1.873330 
# 
# From -- ./inp_files/131769.got.cif
#   From: 2010.06.25/outbox.cif.g09.slc.cpg/sg12_66_cif.got.tgz:131769.got - 2010.06.28 00:19:55.
