data_PCOD8084294
_publ_section_title
;
Structure prediction by ZEFSAII (Michael W. Deem and Ramdas Pophale) SiO2 
 PCOD8084294
Probable space group: C 2/M
;
_chemical_formula_sum "Si O2"
_cell_formula_units_Z 56
_cell_length_a 5.263254
_cell_length_b 17.711424
_cell_length_c 32.210946
_cell_angle_alpha 90.000000
_cell_angle_beta 76.050648
_cell_angle_gamma 90.000000
_cell_volume 2914.143579
_symmetry_space_group_name_H-M "C 2/M"
_symmetry_group_IT_number 12
_symmetry_cell_setting 'monoclinic'
loop_
_space_group_symop_operation_xyz
x,y,z
-x,y,-z
-x,-y,-z
x,-y,z
1/2+x,1/2+y,z
1/2-x,1/2+y,-z
1/2-x,1/2-y,-z
1/2+x,1/2-y,z
loop_
_atom_site_type_symbol
_atom_site_label
_atom_site_fract_x
_atom_site_fract_y
_atom_site_fract_z
Si Si1 0.305176 0.588525 0.123139
Si Si2 0.377282 0.704045 0.752841
Si Si3 0.270988 0.411644 0.825186
Si Si4 0.578679 0.838668 0.616771
Si Si5 0.064344 0.202682 0.950838
Si Si6 0.290099 0.913183 0.472803
Si Si7 0.025169 0.828372 0.653022
O O1 0.318878 0.500000 0.114061
O O2 0.515449 0.613575 0.149326
O O3 0.373373 0.627862 0.077260
O O4 0.016316 0.613680 0.148671
O O5 0.609278 0.749557 0.765667
O O6 0.337448 0.626562 0.778881
O O7 0.449984 0.686514 0.702964
O O8 0.283324 0.500000 0.816194
O O9 0.651236 0.856249 0.566797
O O10 0.296225 0.874970 0.639405
O O11 0.566322 0.749231 0.625899
O O12 0.795626 0.875087 0.639085
O O13 0.315361 0.256974 0.940022
O O14 0.000000 0.176597 0.000000
O O15 0.500000 0.895569 0.500000
O O16 0.000000 0.895482 0.500000
O O17 0.313353 0.000000 0.456913
#
# Coordination Sequence:
#
# PCOD8084294 Si02
#       7
#     8   8   8   8   8   8   8
#     4  10  21  39  58  80 115 153 194 238 284 346
#     4  12  21  37  60  84 112 150 189 233 289 339
#     4  10  23  39  56  83 117 151 189 242 290 335
#     4  10  18  35  56  76 105 141 168 218 262 314
#     4  10  21  36  57  85 119 150 188 245 292 337
#     4  10  21  37  55  78 109 142 178 219 262 318
#     4  10  19  35  54  76 107 133 172 221 266 317
#
# _framework density 19.216622000000001
#
# number of rings (size 3 to 8) (size 9 to 14) (size 15 to 20)
#    0.000    1.714    2.857    2.571    0.000    3.714 
#    0.000   10.000    0.000    5.143    0.000    0.000 
#    0.000    0.000    0.000    0.000    0.000    0.000 
#
# Total GULP energy -347176.926610 kJ/mol
# GULP energy per Si atom -12399.175950 kJ/mol
# Density = 1.917288 g / cm^3
# Si number density = 19.216622 Si / 1000 Ang^3
#
#
#
# Elastic Constant Matrix: (Units=GPa)
#
#
# Indices 1 2 3 4 5 6 
#
# 1 194.0894 30.6617 57.3124 0.0000 -15.5957 0.0000
# 2 30.6617 50.1558 75.4194 0.0000 -6.7299 0.0000
# 3 57.3124 75.4194 137.0110 0.0000 -9.1515 0.0000
# 4 0.0000 0.0000 0.0000 -6.2979 0.0000 -1.1773
# 5 -15.5957 -6.7299 -9.1515 0.0000 51.8353 0.0000
# 6 0.0000 0.0000 0.0000 -1.1773 0.0000 15.0044
#
#
#
# Elastic Compliance Matrix: (Units=1/GPa)
#
#
# Indices 1 2 3 4 5 6 
#
# 1 0.005980 0.000888 -0.002897 0.000000 0.001403 0.000000
# 2 0.000888 0.116623 -0.064297 0.000000 0.004057 0.000000
# 3 -0.002897 -0.064297 0.043804 0.000000 -0.001486 0.000000
# 4 0.000000 0.000000 0.000000 -0.156489 0.000000 -0.012279
# 5 0.001403 0.004057 -0.001486 0.000000 0.019978 0.000000
# 6 0.000000 0.000000 0.000000 -0.012279 0.000000 0.065684
#
#
# Mechanical properties :
#
#
# Convention : Reuss Voigt Hill
#
# Bulk Modulus (GPa) = 29.58905 78.67144 54.13024
# Shear Modulus (GPa) = 20.88056 26.63255 23.75655
#
# Velocity S-wave (km/s) = 3.29992 3.72682 3.51985
# Velocity P-wave (km/s) = 5.47269 7.71668 6.68945
#
# Compressibility (1/GPa) = 0.03379629
#
# Stress axis : x y z
#
# Youngs Moduli (GPa) = 167.22247 8.57464 22.82876
#
# Poissons Ratio (x) = -0.00762 0.06613
# Poissons Ratio (y) = -0.14857 1.46783
# Poissons Ratio (z) = 0.48442 0.55133
#
# Static dielectric constant tensor:
#      x y z
#    x 5.472860 0.000000 -0.040010 
#    y 0.000000 3.153880 0.000000 
#    z -0.040010 0.000000 3.405150 
# 
# 
# High freq. dielectric constant tensor:
#      x y z
#    x 1.786370 0.000000 -0.001590 
#    y 0.000000 1.711850 0.000000 
#    z -0.001590 0.000000 1.749850 
# 
# From -- ./inp_files/371546.got.cif
#   From: 2010.06.25/outbox.cif.g09.slc.cpg/sg12_186_cif.got.tgz:371546.got - 2010.06.28 00:19:55.
