data_PCOD8084372
_publ_section_title
;
Structure prediction by ZEFSAII (Michael W. Deem and Ramdas Pophale) SiO2 
 PCOD8084372
Probable space group: C 2/M
;
_chemical_formula_sum "Si O2"
_cell_formula_units_Z 56
_cell_length_a 18.161754
_cell_length_b 19.816836
_cell_length_c 15.698047
_cell_angle_alpha 90.000000
_cell_angle_beta 30.568932
_cell_angle_gamma 90.000000
_cell_volume 2873.375647
_symmetry_space_group_name_H-M "C 2/M"
_symmetry_group_IT_number 12
_symmetry_cell_setting 'monoclinic'
loop_
_space_group_symop_operation_xyz
x,y,z
-x,y,-z
-x,-y,-z
x,-y,z
1/2+x,1/2+y,z
1/2-x,1/2+y,-z
1/2-x,1/2-y,-z
1/2+x,1/2-y,z
loop_
_atom_site_type_symbol
_atom_site_label
_atom_site_fract_x
_atom_site_fract_y
_atom_site_fract_z
Si Si1 0.721820 0.425551 0.881516
Si Si2 0.915530 0.692205 0.167096
Si Si3 0.080953 0.258654 0.161396
Si Si4 0.974162 0.376784 0.372676
Si Si5 0.712220 0.074919 0.598645
Si Si6 0.205874 0.838640 0.738619
Si Si7 0.524127 0.383173 0.763626
O O1 0.692615 0.500000 0.871827
O O2 0.670299 0.366589 0.868299
O O3 0.891806 0.422453 0.732738
O O4 0.630220 0.417626 0.060736
O O5 0.814148 0.631586 0.302780
O O6 0.818225 0.757917 0.241398
O O7 0.038532 0.709564 0.113127
O O8 0.000000 0.666150 0.000000
O O9 0.030782 0.304164 0.288685
O O10 0.998507 0.188871 0.257251
O O11 0.250000 0.250000 0.000000
O O12 0.891444 0.413379 0.378502
O O13 0.870375 0.360691 0.555652
O O14 0.878837 0.075877 0.400309
O O15 0.682592 0.000000 0.665618
O O16 0.105345 0.876957 0.772329
#
# Coordination Sequence:
#
# PCOD8084372 Si02
#       7
#     8   8   8   8   8   8   8
#     4  12  23  34  52  83 121 160 191 227 283 347
#     4  10  21  37  60  87 113 145 192 245 288 341
#     4  10  18  35  60  85 111 144 193 242 286 332
#     4  10  21  35  55  83 114 151 192 236 285 339
#     4  10  21  38  59  83 112 150 194 241 292 343
#     4  10  21  36  53  79 117 151 190 236 279 338
#     4  10  20  36  57  80 110 149 197 238 281 337
#
# _framework density 19.489273000000001
#
# number of rings (size 3 to 8) (size 9 to 14) (size 15 to 20)
#    0.000    1.714    1.429    4.286    0.000    8.286 
#    0.000    0.000    0.000    0.000    0.000    1.000 
#    0.000    0.000    0.000    0.000    0.000    0.000 
#
# Total GULP energy -347158.425709 kJ/mol
# GULP energy per Si atom -12398.515204 kJ/mol
# Density = 1.944491 g / cm^3
# Si number density = 19.489273 Si / 1000 Ang^3
#
#
#
# Elastic Constant Matrix: (Units=GPa)
#
#
# Indices 1 2 3 4 5 6 
#
# 1 36.8787 26.1917 23.1056 0.0071 -0.6658 -0.0048
# 2 26.1917 134.8185 47.4833 0.0019 10.5309 -0.0013
# 3 23.1056 47.4833 134.8816 0.0041 -0.8965 -0.0031
# 4 0.0071 0.0019 0.0041 21.1103 -0.0043 1.0707
# 5 -0.6658 10.5309 -0.8965 -0.0043 29.1423 0.0027
# 6 -0.0048 -0.0013 -0.0031 1.0707 0.0027 24.5204
#
#
#
# Elastic Compliance Matrix: (Units=1/GPa)
#
#
# Indices 1 2 3 4 5 6 
#
# 1 0.033342 -0.005334 -0.003817 -0.000010 0.002572 0.000006
# 2 -0.005334 0.009620 -0.002497 0.000001 -0.003675 0.000000
# 3 -0.003817 -0.002497 0.008954 0.000000 0.001091 0.000000
# 4 -0.000010 0.000001 0.000000 0.047475 0.000007 -0.002073
# 5 0.002572 -0.003675 0.001091 0.000007 0.035735 -0.000004
# 6 0.000006 0.000000 0.000000 -0.002073 -0.000004 0.040873
#
#
# Mechanical properties :
#
#
# Convention : Reuss Voigt Hill
#
# Bulk Modulus (GPa) = 34.94050 55.57114 45.25582
# Shear Modulus (GPa) = 23.94224 28.94115 26.44170
#
# Velocity S-wave (km/s) = 3.50877 3.85772 3.68738
# Velocity P-wave (km/s) = 5.86364 6.95833 6.43431
#
# Compressibility (1/GPa) = 0.02862008
#
# Stress axis : x y z
#
# Youngs Moduli (GPa) = 29.99217 103.94676 111.68023
#
# Poissons Ratio (x) = 0.55447 0.42625
# Poissons Ratio (y) = 0.15998 0.27891
# Poissons Ratio (z) = 0.11447 0.25959
#
# Static dielectric constant tensor:
#      x y z
#    x 3.418150 -0.000020 -0.304370 
#    y -0.000020 3.537820 -0.000010 
#    z -0.304370 -0.000010 3.716730 
# 
# 
# High freq. dielectric constant tensor:
#      x y z
#    x 1.729020 0.000000 -0.009900 
#    y 0.000000 1.759040 0.000000 
#    z -0.009900 0.000000 1.773200 
# 
# From -- ./inp_files/75968.got.cif
#   From: 2010.06.25/outbox.cif.g09.slc.cpg/sg12_38_cif.got.tgz:75968.got - 2010.06.28 00:19:55.
