data_PCOD8084370
_publ_section_title
;
Structure prediction by ZEFSAII (Michael W. Deem and Ramdas Pophale) SiO2 
 PCOD8084370
Probable space group: C 2/M
;
_chemical_formula_sum "Si O2"
_cell_formula_units_Z 48
_cell_length_a 29.410184
_cell_length_b 8.501209
_cell_length_c 15.092801
_cell_angle_alpha 90.000000
_cell_angle_beta 139.878874
_cell_angle_gamma 90.000000
_cell_volume 2431.686616
_symmetry_space_group_name_H-M "C 2/M"
_symmetry_group_IT_number 12
_symmetry_cell_setting 'monoclinic'
loop_
_space_group_symop_operation_xyz
x,y,z
-x,y,-z
-x,-y,-z
x,-y,z
1/2+x,1/2+y,z
1/2-x,1/2+y,-z
1/2-x,1/2-y,-z
1/2+x,1/2-y,z
loop_
_atom_site_type_symbol
_atom_site_label
_atom_site_fract_x
_atom_site_fract_y
_atom_site_fract_z
Si Si1 0.410879 0.186017 0.734438
Si Si2 0.548086 0.682071 0.687536
Si Si3 0.149391 0.815243 0.180246
Si Si4 0.435444 0.183366 0.104543
Si Si5 0.596617 0.183955 0.587841
Si Si6 0.808845 0.313649 0.429141
O O1 0.399729 0.272777 0.810512
O O2 0.487758 0.235421 0.815161
O O3 0.353274 0.251274 0.578789
O O4 0.405026 0.000000 0.740966
O O5 0.527694 0.500000 0.652232
O O6 0.583326 0.723269 0.833783
O O7 0.478161 0.786355 0.571095
O O8 0.602616 0.723105 0.689617
O O9 0.228721 0.754990 0.317876
O O10 0.147396 0.000000 0.159020
O O11 0.123093 0.725751 0.054463
O O12 0.433363 0.000000 0.122366
O O13 0.657812 0.246823 0.613568
O O14 0.604604 0.000000 0.618895
O O15 0.814704 0.500000 0.439825
#
# Coordination Sequence:
#
# PCOD8084370 Si02
#       6
#     8   8   8   8   8   8
#     4  10  20  38  60  81 107 149 199 233 268 331
#     4  11  21  34  55  88 118 140 179 239 289 323
#     4  11  23  37  55  84 119 148 182 235 289 328
#     4  11  22  39  60  81 110 153 195 228 273 339
#     4  10  18  35  60  84 111 150 190 223 271 338
#     4   9  19  37  59  83 113 150 189 229 274 330
#
# _framework density 19.739386
#
# number of rings (size 3 to 8) (size 9 to 14) (size 15 to 20)
#    0.000    1.667    1.667    5.000    0.000    3.333 
#    0.000    5.000    0.000    0.000    0.000    0.000 
#    0.000    0.000    0.000    0.000    0.000    0.000 
#
# Total GULP energy -297694.994125 kJ/mol
# GULP energy per Si atom -12403.958089 kJ/mol
# Density = 1.969446 g / cm^3
# Si number density = 19.739386 Si / 1000 Ang^3
#
#
#
# Elastic Constant Matrix: (Units=GPa)
#
#
# Indices 1 2 3 4 5 6 
#
# 1 77.2795 19.2967 22.4755 0.0000 -29.7653 0.0000
# 2 19.2967 50.5555 11.2062 0.0000 -5.0301 0.0000
# 3 22.4755 11.2062 98.9404 0.0000 -18.1592 0.0000
# 4 0.0000 0.0000 0.0000 26.2879 0.0000 -2.8684
# 5 -29.7653 -5.0301 -18.1592 0.0000 33.8444 0.0000
# 6 0.0000 0.0000 0.0000 -2.8684 0.0000 20.4269
#
#
#
# Elastic Compliance Matrix: (Units=1/GPa)
#
#
# Indices 1 2 3 4 5 6 
#
# 1 0.021514 -0.006258 -0.000972 0.000000 0.017469 0.000000
# 2 -0.006258 0.022230 -0.001664 0.000000 -0.003093 0.000000
# 3 -0.000972 -0.001664 0.011441 0.000000 0.005036 0.000000
# 4 0.000000 0.000000 0.000000 0.038632 0.000000 0.005425
# 5 0.017469 -0.003093 0.005036 0.000000 0.047153 0.000000
# 6 0.000000 0.000000 0.000000 0.005425 0.000000 0.049717
#
#
# Mechanical properties :
#
#
# Convention : Reuss Voigt Hill
#
# Bulk Modulus (GPa) = 26.74038 36.97024 31.85531
# Shear Modulus (GPa) = 22.63050 27.69831 25.16440
#
# Velocity S-wave (km/s) = 3.38962 3.75000 3.57435
# Velocity P-wave (km/s) = 5.37545 6.12534 5.76261
#
# Compressibility (1/GPa) = 0.03739663
#
# Stress axis : x y z
#
# Youngs Moduli (GPa) = 46.48140 44.98419 87.40719
#
# Poissons Ratio (x) = 0.28152 0.08497
# Poissons Ratio (y) = 0.29089 0.14543
# Poissons Ratio (z) = 0.04518 0.07485
#
# Static dielectric constant tensor:
#      x y z
#    x 3.792620 0.000000 -0.113490 
#    y 0.000000 3.368840 0.000000 
#    z -0.113490 0.000000 3.553510 
# 
# 
# High freq. dielectric constant tensor:
#      x y z
#    x 1.776630 0.000000 -0.017780 
#    y 0.000000 1.758670 0.000000 
#    z -0.017780 0.000000 1.758990 
# 
# From -- ./inp_files/249372.got.cif
#   From: 2010.06.25/outbox.cif.g09.slc.cpg/sg12_125_cif.got.tgz:249372.got - 2010.06.28 00:19:55.
