data_PCOD8084099
_publ_section_title
;
Structure prediction by ZEFSAII (Michael W. Deem and Ramdas Pophale) SiO2 
 PCOD8084099
Probable space group: C 2/M
;
_chemical_formula_sum "Si O2"
_cell_formula_units_Z 48
_cell_length_a 16.489216
_cell_length_b 18.179598
_cell_length_c 8.675799
_cell_angle_alpha 90.000000
_cell_angle_beta 85.972209
_cell_angle_gamma 90.000000
_cell_volume 2594.297473
_symmetry_space_group_name_H-M "C 2/M"
_symmetry_group_IT_number 12
_symmetry_cell_setting 'monoclinic'
loop_
_space_group_symop_operation_xyz
x,y,z
-x,y,-z
-x,-y,-z
x,-y,z
1/2+x,1/2+y,z
1/2-x,1/2+y,-z
1/2-x,1/2-y,-z
1/2+x,1/2-y,z
loop_
_atom_site_type_symbol
_atom_site_label
_atom_site_fract_x
_atom_site_fract_y
_atom_site_fract_z
Si Si1 0.219584 0.365946 0.080038
Si Si2 0.768274 0.084552 0.399838
Si Si3 0.592916 0.679136 0.483204
Si Si4 0.078076 0.416677 0.898545
Si Si5 0.693382 0.290744 0.189435
Si Si6 0.154374 0.677019 0.629301
O O1 0.254684 0.410146 0.219160
O O2 0.173450 0.290779 0.132879
O O3 0.155552 0.416856 0.000546
O O4 0.294028 0.346225 0.954977
O O5 0.854533 0.120652 0.428564
O O6 0.694114 0.123298 0.498367
O O7 0.770417 0.000000 0.450886
O O8 0.500000 0.654007 0.500000
O O9 0.619711 0.678655 0.300868
O O10 0.603131 0.760582 0.550808
O O11 0.061881 0.500000 0.845884
O O12 0.092571 0.367442 0.745757
O O13 0.000000 0.385519 0.000000
O O14 0.775058 0.284156 0.281339
#
# Coordination Sequence:
#
# PCOD8084099 Si02
#       6
#     8   8   8   8   8   8
#     4  10  18  34  58  80 107 146 186 232 266 332
#     4  11  21  37  61  84 110 148 194 232 275 334
#     4  11  22  37  57  86 116 145 185 238 283 330
#     4  10  22  35  50  82 122 151 178 223 288 340
#     4   9  18  35  57  79 108 139 189 229 274 321
#     4  10  19  37  57  80 109 149 193 229 270 328
#
# _framework density 18.502119
#
# number of rings (size 3 to 8) (size 9 to 14) (size 15 to 20)
#    0.000    1.833    3.333    2.000    2.333    0.333 
#    0.000    1.667    0.000    5.000    0.000    0.000 
#    0.000    0.000    0.000    0.000    0.000    0.000 
#
# Total GULP energy -297687.658799 kJ/mol
# GULP energy per Si atom -12403.652450 kJ/mol
# Density = 1.846001 g / cm^3
# Si number density = 18.502119 Si / 1000 Ang^3
#
#
#
# Elastic Constant Matrix: (Units=GPa)
#
#
# Indices 1 2 3 4 5 6 
#
# 1 74.0148 22.0759 29.4755 0.0000 -17.0375 0.0000
# 2 22.0759 84.6626 27.2808 0.0000 -1.2344 0.0000
# 3 29.4755 27.2808 109.1411 0.0000 -12.7543 0.0000
# 4 0.0000 0.0000 0.0000 14.9567 0.0000 -0.4329
# 5 -17.0375 -1.2344 -12.7543 0.0000 24.7348 0.0000
# 6 0.0000 0.0000 0.0000 -0.4329 0.0000 19.9240
#
#
#
# Elastic Compliance Matrix: (Units=1/GPa)
#
#
# Indices 1 2 3 4 5 6 
#
# 1 0.018225 -0.003719 -0.002710 0.000000 0.010970 0.000000
# 2 -0.003719 0.013632 -0.002791 0.000000 -0.003320 0.000000
# 3 -0.002710 -0.002791 0.011022 0.000000 0.003677 0.000000
# 4 0.000000 0.000000 0.000000 0.066902 0.000000 0.001454
# 5 0.010970 -0.003320 0.003677 0.000000 0.049715 0.000000
# 6 0.000000 0.000000 0.000000 0.001454 0.000000 0.050222
#
#
# Mechanical properties :
#
#
# Convention : Reuss Voigt Hill
#
# Bulk Modulus (GPa) = 40.92000 47.27588 44.09794
# Shear Modulus (GPa) = 21.15909 24.52217 22.84063
#
# Velocity S-wave (km/s) = 3.38539 3.64451 3.51734
# Velocity P-wave (km/s) = 6.11928 6.58157 6.35463
#
# Compressibility (1/GPa) = 0.02443793
#
# Stress axis : x y z
#
# Youngs Moduli (GPa) = 54.87105 73.35535 90.72907
#
# Poissons Ratio (x) = 0.27279 0.24591
# Poissons Ratio (y) = 0.20405 0.25324
# Poissons Ratio (z) = 0.14872 0.20475
#
# Static dielectric constant tensor:
#      x y z
#    x 3.147280 0.000000 -0.160300 
#    y 0.000000 3.271720 0.000000 
#    z -0.160300 0.000000 3.629320 
# 
# 
# High freq. dielectric constant tensor:
#      x y z
#    x 1.691260 0.000000 -0.010430 
#    y 0.000000 1.713430 0.000000 
#    z -0.010430 0.000000 1.732980 
# 
# From -- ./inp_files/61715.got.cif
#   From: 2010.06.25/outbox.cif.g09.slc.cpg/sg12_31_cif.got.tgz:61715.got - 2010.06.28 00:19:55.
