data_PCOD8084516
_publ_section_title
;
Structure prediction by ZEFSAII (Michael W. Deem and Ramdas Pophale) SiO2 
 PCOD8084516
Probable space group: C 2/M
;
_chemical_formula_sum "Si O2"
_cell_formula_units_Z 36
_cell_length_a 19.856924
_cell_length_b 15.515238
_cell_length_c 8.988608
_cell_angle_alpha 90.000000
_cell_angle_beta 137.765297
_cell_angle_gamma 90.000000
_cell_volume 1861.407407
_symmetry_space_group_name_H-M "C 2/M"
_symmetry_group_IT_number 12
_symmetry_cell_setting 'monoclinic'
loop_
_space_group_symop_operation_xyz
x,y,z
-x,y,-z
-x,-y,-z
x,-y,z
1/2+x,1/2+y,z
1/2-x,1/2+y,-z
1/2-x,1/2-y,-z
1/2+x,1/2-y,z
loop_
_atom_site_type_symbol
_atom_site_label
_atom_site_fract_x
_atom_site_fract_y
_atom_site_fract_z
Si Si1 0.440257 0.327127 0.055291
Si Si2 0.761812 0.500000 0.596475
Si Si3 0.028413 0.000000 0.220062
Si Si4 0.983215 0.330129 0.645981
Si Si5 0.729732 0.170343 0.574015
Si Si6 0.551096 0.000000 0.923413
O O1 0.482046 0.412019 0.209666
O O2 0.449985 0.246913 0.180162
O O3 0.500000 0.308635 0.000000
O O4 0.323891 0.343827 0.834830
O O5 0.645530 0.500000 0.446980
O O6 0.791263 0.584283 0.552387
O O7 0.828303 0.500000 0.855515
O O8 0.000000 0.000000 0.000000
O O9 0.866869 0.309897 0.484682
O O10 0.000000 0.338042 0.500000
O O11 0.018786 0.417259 0.779520
O O12 0.750000 0.250000 0.500000
O O13 0.500000 0.000000 0.000000
#
# Coordination Sequence:
#
# PCOD8084516 Si02
#       6
#     8   4   4   8   8   4
#     4  11  20  38  65  92 122 158 212 258 303 373
#     4  12  20  34  64  99 116 152 211 267 303 352
#     4  10  18  36  62  98 119 147 202 272 304 352
#     4  12  26  42  59  92 135 166 202 262 319 366
#     4  12  21  36  65  92 118 164 213 253 306 372
#     4  12  23  40  66  91 119 167 219 256 299 374
#
# _framework density 19.340205999999998
#
# number of rings (size 3 to 8) (size 9 to 14) (size 15 to 20)
#    0.000    0.444    8.889    2.333    0.000    0.889 
#    0.000    0.556    0.000    0.000    0.000    0.000 
#    0.000    0.000    0.000    0.000    0.000    0.000 
#
# Total GULP energy -223257.020999 kJ/mol
# GULP energy per Si atom -12403.167833 kJ/mol
# Density = 1.929619 g / cm^3
# Si number density = 19.340206 Si / 1000 Ang^3
#
#
#
# Elastic Constant Matrix: (Units=GPa)
#
#
# Indices 1 2 3 4 5 6 
#
# 1 102.9720 47.1043 65.8357 0.0000 2.6535 0.0000
# 2 47.1043 165.3075 42.0039 0.0000 -19.5586 0.0000
# 3 65.8357 42.0039 124.6685 0.0000 13.8713 0.0000
# 4 0.0000 0.0000 0.0000 28.2996 0.0000 20.6469
# 5 2.6535 -19.5586 13.8713 0.0000 40.2198 0.0000
# 6 0.0000 0.0000 0.0000 20.6469 0.0000 -14.1762
#
#
#
# Elastic Compliance Matrix: (Units=1/GPa)
#
#
# Indices 1 2 3 4 5 6 
#
# 1 0.015605 -0.002524 -0.007424 0.000000 0.000303 0.000000
# 2 -0.002524 0.007763 -0.001790 0.000000 0.004559 0.000000
# 3 -0.007424 -0.001790 0.013089 0.000000 -0.004895 0.000000
# 4 0.000000 0.000000 0.000000 0.017132 0.000000 0.024952
# 5 0.000303 0.004559 -0.004895 0.000000 0.028748 0.000000
# 6 0.000000 0.000000 0.000000 0.024952 0.000000 -0.034200
#
#
# Mechanical properties :
#
#
# Convention : Reuss Voigt Hill
#
# Bulk Modulus (GPa) = 77.03478 78.09287 77.56382
# Shear Modulus (GPa) = 65.84143 26.73560 46.28852
#
# Velocity S-wave (km/s) = 5.84104 3.72208 4.89753
# Velocity P-wave (km/s) = 9.24165 7.67711 8.49547
#
# Compressibility (1/GPa) = 0.01298115
#
# Stress axis : x y z
#
# Youngs Moduli (GPa) = 64.08276 128.82036 76.39800
#
# Poissons Ratio (x) = 0.32518 0.56717
# Poissons Ratio (y) = 0.16176 0.13673
# Poissons Ratio (z) = 0.47575 0.23054
#
# Static dielectric constant tensor:
#      x y z
#    x 3.392450 0.000000 0.417560 
#    y 0.000000 4.012940 0.000000 
#    z 0.417560 0.000000 3.913130 
# 
# 
# High freq. dielectric constant tensor:
#      x y z
#    x 1.715970 0.000000 0.031570 
#    y 0.000000 1.782990 0.000000 
#    z 0.031570 0.000000 1.762170 
# 
# From -- ./inp_files/86265.got.cif
#   From: 2010.06.25/outbox.cif.g09.slc.cpg/sg12_44_cif.got.tgz:86265.got - 2010.06.28 00:19:55.
