data_PCOD8084918
_publ_section_title
;
Structure prediction by ZEFSAII (Michael W. Deem and Ramdas Pophale) SiO2 
 PCOD8084918
Probable space group: C 2/M
;
_chemical_formula_sum "Si O2"
_cell_formula_units_Z 48
_cell_length_a 25.903346
_cell_length_b 10.377456
_cell_length_c 17.243271
_cell_angle_alpha 90.000000
_cell_angle_beta 37.362201
_cell_angle_gamma 90.000000
_cell_volume 2812.865301
_symmetry_space_group_name_H-M "C 2/M"
_symmetry_group_IT_number 12
_symmetry_cell_setting 'monoclinic'
loop_
_space_group_symop_operation_xyz
x,y,z
-x,y,-z
-x,-y,-z
x,-y,z
1/2+x,1/2+y,z
1/2-x,1/2+y,-z
1/2-x,1/2-y,-z
1/2+x,1/2-y,z
loop_
_atom_site_type_symbol
_atom_site_label
_atom_site_fract_x
_atom_site_fract_y
_atom_site_fract_z
Si Si1 0.337670 0.281986 0.496883
Si Si2 0.326699 0.640787 0.340474
Si Si3 0.742040 0.358326 0.252402
Si Si4 0.864371 0.644823 0.690174
Si Si5 0.520875 0.857106 0.598572
Si Si6 0.091942 0.647891 0.857644
O O1 0.333449 0.368080 0.425341
O O2 0.270962 0.163971 0.568144
O O3 0.311385 0.363172 0.603809
O O4 0.435045 0.232194 0.389423
O O5 0.353334 0.500000 0.275844
O O6 0.387627 0.754301 0.236695
O O7 0.731737 0.500000 0.226143
O O8 0.711135 0.248792 0.228916
O O9 0.840744 0.330726 0.153370
O O10 0.828652 0.500000 0.749646
O O11 0.927064 0.691607 0.684812
O O12 0.917151 0.640238 0.548675
O O13 0.511188 0.000000 0.644633
O O14 0.096321 0.500000 0.821732
O O15 0.000000 0.682316 0.000000
#
# Coordination Sequence:
#
# PCOD8084918 Si02
#       6
#     8   8   8   8   8   8
#     4   9  17  27  41  62  92 120 142 168 207 255
#     4  10  19  29  44  66  90 115 145 180 216 253
#     4   9  16  27  43  62  86 113 140 171 210 254
#     4   8  14  24  38  58  83 111 143 174 203 239
#     4   8  13  23  38  56  82 116 147 169 194 242
#     4   9  19  34  48  62  83 113 147 180 215 259
#
# _framework density 17.064450000000001
#
# number of rings (size 3 to 8) (size 9 to 14) (size 15 to 20)
#    0.000    3.167    0.000    2.000    0.000    9.000 
#    0.000    7.500    0.000    0.000    0.000    1.167 
#    0.000    0.000    0.000    0.000    0.000    0.000 
#
# Total GULP energy -297378.512570 kJ/mol
# GULP energy per Si atom -12390.771357 kJ/mol
# Density = 1.702561 g / cm^3
# Si number density = 17.064450 Si / 1000 Ang^3
#
#
#
# Elastic Constant Matrix: (Units=GPa)
#
#
# Indices 1 2 3 4 5 6 
#
# 1 75.8079 41.3352 28.3164 -0.0002 -26.1729 0.0002
# 2 41.3352 111.5989 40.1784 -0.0003 -18.2400 0.0009
# 3 28.3164 40.1784 59.9554 0.0006 -19.0739 0.0002
# 4 -0.0002 -0.0003 0.0006 16.2378 0.0000 -4.6792
# 5 -26.1729 -18.2400 -19.0739 0.0000 21.9754 0.0000
# 6 0.0002 0.0009 0.0002 -4.6792 0.0000 14.1284
#
#
#
# Elastic Compliance Matrix: (Units=1/GPa)
#
#
# Indices 1 2 3 4 5 6 
#
# 1 0.024608 -0.004895 -0.000429 0.000000 0.024873 0.000000
# 2 -0.004895 0.013051 -0.006690 0.000000 -0.000804 -0.000001
# 3 -0.000429 -0.006690 0.026850 -0.000001 0.017241 0.000000
# 4 0.000000 0.000000 -0.000001 0.068082 0.000000 0.022548
# 5 0.024873 -0.000804 0.017241 0.000000 0.089427 0.000000
# 6 0.000000 -0.000001 0.000000 0.022548 0.000000 0.078247
#
#
# Mechanical properties :
#
#
# Convention : Reuss Voigt Hill
#
# Bulk Modulus (GPa) = 24.70271 51.89135 38.29703
# Shear Modulus (GPa) = 14.80230 19.63715 17.21973
#
# Velocity S-wave (km/s) = 2.94842 3.39597 3.18008
# Velocity P-wave (km/s) = 5.10867 6.77140 5.99793
#
# Compressibility (1/GPa) = 0.04048139
#
# Stress axis : x y z
#
# Youngs Moduli (GPa) = 40.63729 76.62392 37.24445
#
# Poissons Ratio (x) = 0.37506 0.01597
# Poissons Ratio (y) = 0.19891 0.24916
# Poissons Ratio (z) = 0.01743 0.51259
#
# Static dielectric constant tensor:
#      x y z
#    x 3.304400 0.000000 -0.363250 
#    y 0.000000 3.268800 0.000000 
#    z -0.363250 0.000000 2.772760 
# 
# 
# High freq. dielectric constant tensor:
#      x y z
#    x 1.650190 0.000000 -0.031800 
#    y 0.000000 1.660830 0.000000 
#    z -0.031800 0.000000 1.599380 
# 
# From -- ./inp_files/231488.got.cif
#   From: 2010.06.25/outbox.cif.g09.slc.cpg/sg12_116_cif.got.tgz:231488.got - 2010.06.28 00:19:55.
