data_PCOD8084585
_publ_section_title
;
Structure prediction by ZEFSAII (Michael W. Deem and Ramdas Pophale) SiO2 
 PCOD8084585
Probable space group: C 2/M
;
_chemical_formula_sum "Si O2"
_cell_formula_units_Z 36
_cell_length_a 14.934801
_cell_length_b 13.718391
_cell_length_c 24.027854
_cell_angle_alpha 90.000000
_cell_angle_beta 157.163680
_cell_angle_gamma 90.000000
_cell_volume 1910.561891
_symmetry_space_group_name_H-M "C 2/M"
_symmetry_group_IT_number 12
_symmetry_cell_setting 'monoclinic'
loop_
_space_group_symop_operation_xyz
x,y,z
-x,y,-z
-x,-y,-z
x,-y,z
1/2+x,1/2+y,z
1/2-x,1/2+y,-z
1/2-x,1/2-y,-z
1/2+x,1/2-y,z
loop_
_atom_site_type_symbol
_atom_site_label
_atom_site_fract_x
_atom_site_fract_y
_atom_site_fract_z
Si Si1 0.164273 0.289310 0.339089
Si Si2 0.027489 0.000000 0.679486
Si Si3 0.244273 0.797952 0.831123
Si Si4 0.885277 0.709947 0.356419
Si Si5 0.816202 0.500000 0.609347
Si Si6 0.025599 0.500000 0.418510
O O1 0.225456 0.255552 0.312252
O O2 0.358145 0.255634 0.494446
O O3 0.147183 0.406312 0.330736
O O4 0.922599 0.241321 0.216371
O O5 0.185897 0.907701 0.781451
O O6 0.941356 0.000000 0.565564
O O7 0.801125 0.000000 0.589984
O O8 0.224432 0.729610 0.765999
O O9 0.500000 0.791867 0.000000
O O10 0.903921 0.593742 0.375893
O O11 0.001640 0.500000 0.664663
#
# Coordination Sequence:
#
# PCOD8084585 Si02
#       6
#     8   4   8   8   4   4
#     4  11  22  38  65  94 120 159 213 259 305 354
#     4  10  19  36  64  86 121 162 214 234 315 374
#     4  12  23  40  59  89 133 166 199 252 313 376
#     4  11  22  38  65  94 120 159 213 259 305 354
#     4  10  18  37  70  88 124 154 214 261 296 362
#     4  10  18  37  70  88 124 154 214 261 296 362
#
# _framework density 18.842624000000001
#
# number of rings (size 3 to 8) (size 9 to 14) (size 15 to 20)
#    0.667    0.444    6.667    1.000    0.000    6.222 
#    0.000    2.222    0.000    0.000    0.000    0.000 
#    0.000    0.000    0.000    0.000    0.000    0.000 
#
# Total GULP energy -223224.086537 kJ/mol
# GULP energy per Si atom -12401.338141 kJ/mol
# Density = 1.879974 g / cm^3
# Si number density = 18.842624 Si / 1000 Ang^3
#
#
#
# Elastic Constant Matrix: (Units=GPa)
#
#
# Indices 1 2 3 4 5 6 
#
# 1 77.9400 15.4557 29.8192 -0.0003 21.3093 -0.0065
# 2 15.4557 130.3507 19.4638 0.0090 17.0761 -0.0096
# 3 29.8192 19.4638 102.0107 0.0021 14.6313 0.0150
# 4 -0.0003 0.0090 0.0021 14.3897 -0.0021 15.1666
# 5 21.3093 17.0761 14.6313 -0.0021 20.3701 0.0014
# 6 -0.0065 -0.0096 0.0150 15.1666 0.0014 9.3457
#
#
#
# Elastic Compliance Matrix: (Units=1/GPa)
#
#
# Indices 1 2 3 4 5 6 
#
# 1 0.018784 0.000577 -0.003025 0.000035 -0.017961 -0.000035
# 2 0.000577 0.008678 -0.000774 0.000026 -0.007323 -0.000031
# 3 -0.003025 -0.000774 0.011469 -0.000028 -0.004425 0.000025
# 4 0.000035 0.000026 -0.000028 -0.097817 -0.000059 0.158741
# 5 -0.017961 -0.007323 -0.004425 -0.000059 0.077198 0.000071
# 6 -0.000035 -0.000031 0.000025 0.158741 0.000071 -0.150610
#
#
# Mechanical properties :
#
#
# Convention : Reuss Voigt Hill
#
# Bulk Modulus (GPa) = 30.78055 48.86430 39.82243
# Shear Modulus (GPa) = -43.46904 25.19194 -9.13855
#
# Velocity S-wave (km/s) = -4.80829 3.66042 -2.20465
# Velocity P-wave (km/s) = 3.80198 6.62224 3.83399
#
# Compressibility (1/GPa) = 0.03248805
#
# Stress axis : x y z
#
# Youngs Moduli (GPa) = 53.23713 115.23351 87.18794
#
# Poissons Ratio (x) = -0.06654 0.26372
# Poissons Ratio (y) = -0.03074 0.06751
# Poissons Ratio (z) = 0.16103 0.08922
#
# Static dielectric constant tensor:
#      x y z
#    x 3.249220 0.000000 0.067210 
#    y 0.000000 3.533650 -0.000010 
#    z 0.067210 -0.000010 3.176010 
# 
# 
# High freq. dielectric constant tensor:
#      x y z
#    x 1.725470 0.000000 0.008400 
#    y 0.000000 1.752940 0.000000 
#    z 0.008400 0.000000 1.695950 
# 
# From -- ./inp_files/361326.got.cif
#   From: 2010.06.25/outbox.cif.g09.slc.cpg/sg12_181_cif.got.tgz:361326.got - 2010.06.28 00:19:55.
