data_PCOD8084677
_publ_section_title
;
Structure prediction by ZEFSAII (Michael W. Deem and Ramdas Pophale) SiO2 
 PCOD8084677
Probable space group: C 2/M
;
_chemical_formula_sum "Si O2"
_cell_formula_units_Z 64
_cell_length_a 13.897209
_cell_length_b 28.076762
_cell_length_c 9.038638
_cell_angle_alpha 90.000000
_cell_angle_beta 77.752946
_cell_angle_gamma 90.000000
_cell_volume 3446.511509
_symmetry_space_group_name_H-M "C 2/M"
_symmetry_group_IT_number 12
_symmetry_cell_setting 'monoclinic'
loop_
_space_group_symop_operation_xyz
x,y,z
-x,y,-z
-x,-y,-z
x,-y,z
1/2+x,1/2+y,z
1/2-x,1/2+y,-z
1/2-x,1/2-y,-z
1/2+x,1/2-y,z
loop_
_atom_site_type_symbol
_atom_site_label
_atom_site_fract_x
_atom_site_fract_y
_atom_site_fract_z
Si Si1 0.748706 0.552901 0.507132
Si Si2 0.240946 0.141729 0.353044
Si Si3 0.637954 0.118275 0.950996
Si Si4 0.943423 0.447535 0.252849
Si Si5 0.796180 0.238739 0.743314
Si Si6 0.355089 0.085504 0.737806
Si Si7 0.608903 0.773132 0.991086
Si Si8 0.615338 0.822894 0.454631
O O1 0.702769 0.500000 0.491289
O O2 0.686103 0.598399 0.463186
O O3 0.853224 0.560088 0.393151
O O4 0.768475 0.558382 0.676219
O O5 0.266066 0.121582 0.183045
O O6 0.174305 0.188321 0.344665
O O7 0.342216 0.158034 0.403535
O O8 0.554208 0.091032 0.881198
O O9 0.602134 0.170015 0.015379
O O10 0.672159 0.086924 0.080013
O O11 0.937517 0.500000 0.183818
O O12 0.042058 0.442109 0.317081
O O13 0.680526 0.239187 0.829115
O O14 0.819186 0.277632 0.612059
O O15 0.858154 0.246815 0.870957
O O16 0.367880 0.138883 0.677870
O O17 0.500000 0.752829 0.000000
O O18 0.500000 0.809564 0.500000
#
# Coordination Sequence:
#
# PCOD8084677 Si02
#       8
#     8   8   8   8   8   8   8   8
#     4   9  18  31  45  61  89 129 163 205 260 304
#     4   9  20  35  48  69 102 128 173 216 252 308
#     4  10  19  30  46  64  91 133 172 210 250 294
#     4  10  19  28  39  61  92 128 172 214 246 289
#     4  10  21  34  53  77  99 139 180 213 261 305
#     4  11  18  27  43  65  92 130 174 208 245 294
#     4  10  20  35  54  75 104 137 178 216 260 308
#     4  11  21  32  50  74 102 141 176 214 254 304
#
# _framework density 18.569502
#
# number of rings (size 3 to 8) (size 9 to 14) (size 15 to 20)
#    0.000    2.000    1.250    4.500    3.500    2.500 
#    0.000    0.000    0.000    0.000    0.000    0.000 
#    0.000    1.000    0.000    0.375    0.000    8.250 
#
# Total GULP energy -396532.266620 kJ/mol
# GULP energy per Si atom -12391.633332 kJ/mol
# Density = 1.852724 g / cm^3
# Si number density = 18.569502 Si / 1000 Ang^3
#
#
#
# Elastic Constant Matrix: (Units=GPa)
#
#
# Indices 1 2 3 4 5 6 
#
# 1 36.9534 24.3639 7.3272 0.0000 4.9799 0.0000
# 2 24.3639 137.3828 31.9234 0.0000 12.5588 0.0000
# 3 7.3272 31.9234 80.5831 0.0000 12.8404 0.0000
# 4 0.0000 0.0000 0.0000 26.5816 0.0000 3.5609
# 5 4.9799 12.5588 12.8404 0.0000 16.9853 0.0000
# 6 0.0000 0.0000 0.0000 3.5609 0.0000 19.7669
#
#
#
# Elastic Compliance Matrix: (Units=1/GPa)
#
#
# Indices 1 2 3 4 5 6 
#
# 1 0.031100 -0.005026 0.000027 0.000000 -0.005423 0.000000
# 2 -0.005026 0.009077 -0.002620 0.000000 -0.003257 0.000000
# 3 0.000027 -0.002620 0.014937 0.000000 -0.009363 0.000000
# 4 0.000000 0.000000 0.000000 0.038550 0.000000 -0.006945
# 5 -0.005423 -0.003257 -0.009363 0.000000 0.069951 0.000000
# 6 0.000000 0.000000 0.000000 -0.006945 0.000000 0.051841
#
#
# Mechanical properties :
#
#
# Convention : Reuss Voigt Hill
#
# Bulk Modulus (GPa) = 25.07729 42.46093 33.76911
# Shear Modulus (GPa) = 20.49308 25.42041 22.95675
#
# Velocity S-wave (km/s) = 3.32563 3.70392 3.51986
# Velocity P-wave (km/s) = 5.31793 6.41932 5.89440
#
# Compressibility (1/GPa) = 0.03987671
#
# Stress axis : x y z
#
# Youngs Moduli (GPa) = 32.15417 110.17139 66.94869
#
# Poissons Ratio (x) = 0.55372 -0.00183
# Poissons Ratio (y) = 0.16161 0.17539
# Poissons Ratio (z) = -0.00088 0.28863
#
# Static dielectric constant tensor:
#      x y z
#    x 2.885750 0.000000 0.160790 
#    y 0.000000 3.806880 0.000000 
#    z 0.160790 0.000000 3.536970 
# 
# 
# High freq. dielectric constant tensor:
#      x y z
#    x 1.640270 0.000000 0.014820 
#    y 0.000000 1.733180 0.000000 
#    z 0.014820 0.000000 1.736420 
# 
# From -- ./inp_files/67861.got.cif
#   From: 2010.06.25/outbox.cif.g09.slc.cpg/sg12_34_cif.got.tgz:67861.got - 2010.06.28 00:19:55.
