data_PCOD8084288
_publ_section_title
;
Structure prediction by ZEFSAII (Michael W. Deem and Ramdas Pophale) SiO2 
 PCOD8084288
Probable space group: C 2/M
;
_chemical_formula_sum "Si O2"
_cell_formula_units_Z 64
_cell_length_a 17.899408
_cell_length_b 21.401429
_cell_length_c 9.666649
_cell_angle_alpha 90.000000
_cell_angle_beta 111.400879
_cell_angle_gamma 90.000000
_cell_volume 3447.708152
_symmetry_space_group_name_H-M "C 2/M"
_symmetry_group_IT_number 12
_symmetry_cell_setting 'monoclinic'
loop_
_space_group_symop_operation_xyz
x,y,z
-x,y,-z
-x,-y,-z
x,-y,z
1/2+x,1/2+y,z
1/2-x,1/2+y,-z
1/2-x,1/2-y,-z
1/2+x,1/2-y,z
loop_
_atom_site_type_symbol
_atom_site_label
_atom_site_fract_x
_atom_site_fract_y
_atom_site_fract_z
Si Si1 0.783855 0.356313 0.825818
Si Si2 0.697460 0.428841 0.001844
Si Si3 0.516432 0.858342 0.657696
Si Si4 0.925760 0.294802 0.052644
Si Si5 0.095937 0.828378 0.068574
Si Si6 0.642197 0.929981 0.369840
Si Si7 0.319340 0.103639 0.311860
Si Si8 0.732724 0.727284 0.330206
O O1 0.800986 0.397677 0.703257
O O2 0.755161 0.288076 0.757436
O O3 0.718564 0.391626 0.875805
O O4 0.864489 0.350124 0.972095
O O5 0.673418 0.500000 0.948248
O O6 0.624267 0.394396 0.028668
O O7 0.768133 0.430196 0.160926
O O8 0.500000 0.825618 0.500000
O O9 0.541265 0.802184 0.772248
O O10 0.441683 0.894199 0.673026
O O11 0.589982 0.905622 0.681306
O O12 0.881161 0.227968 0.020078
O O13 0.000000 0.296154 0.000000
O O14 0.143742 0.806129 0.243704
O O15 0.000000 0.832934 0.000000
O O16 0.690107 0.930706 0.547335
O O17 0.624342 0.000000 0.308442
O O18 0.297871 0.176936 0.321363
O O19 0.750000 0.750000 0.500000
#
# Coordination Sequence:
#
# PCOD8084288 Si02
#       8
#     8   8   8   8   8   8   8   8
#     4  11  21  35  57  84 113 149 189 241 289 336
#     4  11  23  38  57  84 111 149 198 240 286 348
#     4  10  21  33  52  80 114 154 192 228 278 335
#     4  10  18  35  55  79 114 145 186 235 288 341
#     4   9  22  37  62  87 114 150 187 241 304 340
#     4  11  22  36  52  79 119 163 192 222 279 347
#     4  10  21  36  56  82 112 152 193 243 287 333
#     4  10  20  37  63  90 118 145 195 245 294 345
#
# _framework density 18.563056
#
# number of rings (size 3 to 8) (size 9 to 14) (size 15 to 20)
#    0.000    1.750    3.750    0.750    1.750    4.500 
#    0.000    0.625    0.000    0.000    0.000    0.875 
#    0.000    0.000    0.000    0.000    0.000    0.000 
#
# Total GULP energy -396426.155970 kJ/mol
# GULP energy per Si atom -12388.317374 kJ/mol
# Density = 1.852081 g / cm^3
# Si number density = 18.563056 Si / 1000 Ang^3
#
#
#
# Elastic Constant Matrix: (Units=GPa)
#
#
# Indices 1 2 3 4 5 6 
#
# 1 62.1928 14.9638 39.7003 0.0000 3.9750 0.0000
# 2 14.9638 100.1400 40.6223 0.0000 -6.2421 0.0000
# 3 39.7003 40.6223 85.2367 0.0000 -1.9265 0.0000
# 4 0.0000 0.0000 0.0000 -18.7637 0.0000 -36.0832
# 5 3.9750 -6.2421 -1.9265 0.0000 23.0913 0.0000
# 6 0.0000 0.0000 0.0000 -36.0832 0.0000 -14.9866
#
#
#
# Elastic Compliance Matrix: (Units=1/GPa)
#
#
# Indices 1 2 3 4 5 6 
#
# 1 0.023490 0.000836 -0.011447 0.000000 -0.004773 0.000000
# 2 0.000836 0.012600 -0.006333 0.000000 0.002734 0.000000
# 3 -0.011447 -0.006333 0.020126 0.000000 0.001938 0.000000
# 4 0.000000 0.000000 0.000000 0.014681 0.000000 -0.035348
# 5 -0.004773 0.002734 0.001938 0.000000 0.045029 0.000000
# 6 0.000000 0.000000 0.000000 -0.035348 0.000000 0.018382
#
#
# Mechanical properties :
#
#
# Convention : Reuss Voigt Hill
#
# Bulk Modulus (GPa) = 44.78612 48.68247 46.73429
# Shear Modulus (GPa) = 28.46762 8.02041 18.24401
#
# Velocity S-wave (km/s) = 3.92032 2.08087 3.13839
# Velocity P-wave (km/s) = 6.68362 5.66178 6.19381
#
# Compressibility (1/GPa) = 0.02232835
#
# Stress axis : x y z
#
# Youngs Moduli (GPa) = 42.57098 79.36256 49.68793
#
# Poissons Ratio (x) = -0.06635 0.56879
# Poissons Ratio (y) = -0.03559 0.31466
# Poissons Ratio (z) = 0.48732 0.50258
#
# Static dielectric constant tensor:
#      x y z
#    x 3.367430 0.000000 0.037090 
#    y 0.000000 3.449010 0.000000 
#    z 0.037090 0.000000 3.878580 
# 
# 
# High freq. dielectric constant tensor:
#      x y z
#    x 1.704770 0.000000 0.004010 
#    y 0.000000 1.712950 0.000000 
#    z 0.004010 0.000000 1.728080 
# 
# From -- ./inp_files/78805.got.cif
#   From: 2010.06.25/outbox.cif.g09.slc.cpg/sg12_40_cif.got.tgz:78805.got - 2010.06.28 00:19:55.
