data_PCOD8084821
_publ_section_title
;
Structure prediction by ZEFSAII (Michael W. Deem and Ramdas Pophale) SiO2 
 PCOD8084821
Probable space group: C 2/M
;
_chemical_formula_sum "Si O2"
_cell_formula_units_Z 56
_cell_length_a 28.682379
_cell_length_b 8.996595
_cell_length_c 13.351968
_cell_angle_alpha 90.000000
_cell_angle_beta 77.889206
_cell_angle_gamma 90.000000
_cell_volume 3368.710285
_symmetry_space_group_name_H-M "C 2/M"
_symmetry_group_IT_number 12
_symmetry_cell_setting 'monoclinic'
loop_
_space_group_symop_operation_xyz
x,y,z
-x,y,-z
-x,-y,-z
x,-y,z
1/2+x,1/2+y,z
1/2-x,1/2+y,-z
1/2-x,1/2-y,-z
1/2+x,1/2-y,z
loop_
_atom_site_type_symbol
_atom_site_label
_atom_site_fract_x
_atom_site_fract_y
_atom_site_fract_z
Si Si1 0.193712 0.172661 0.129779
Si Si2 0.302104 0.172122 0.083071
Si Si3 0.056195 0.668684 0.069699
Si Si4 0.976303 0.174377 0.612719
Si Si5 0.109030 0.668420 0.255718
Si Si6 0.886418 0.171238 0.125670
Si Si7 0.474463 0.328910 0.206231
O O1 0.247919 0.198500 0.142040
O O2 0.159654 0.246858 0.227964
O O3 0.181296 0.000000 0.125764
O O4 0.185946 0.245269 0.025255
O O5 0.337206 0.235558 0.153275
O O6 0.313262 0.000000 0.059783
O O7 0.053946 0.500000 0.030096
O O8 0.085036 0.677946 0.159016
O O9 0.002755 0.727174 0.113868
O O10 0.082079 0.776279 0.981492
O O11 0.012733 0.215977 0.686001
O O12 0.000000 0.232592 0.500000
O O13 0.925489 0.254586 0.648035
O O14 0.966147 0.000000 0.612806
O O15 0.118303 0.500000 0.285576
O O16 0.917884 0.195463 0.212330
O O17 0.872920 0.000000 0.117082
O O18 0.488744 0.500000 0.179749
#
# Coordination Sequence:
#
# PCOD8084821 Si02
#       7
#     8   8   8   8   8   8   8
#     4  10  19  31  47  66  91 125 161 195 231 271
#     4  10  20  31  44  65  93 125 162 198 228 266
#     4  10  19  29  42  63  91 124 159 191 224 268
#     4   9  18  34  54  72  92 120 154 194 238 284
#     4  10  19  30  47  70  97 125 154 193 234 276
#     4  11  20  29  43  63  91 128 159 189 228 270
#     4   9  19  32  45  65  91 119 156 192 229 281
#
# _framework density 16.623573
#
# number of rings (size 3 to 8) (size 9 to 14) (size 15 to 20)
#    0.000    2.143    1.429    2.571    0.000    6.000 
#    0.000    0.000    0.000    0.000    0.000    1.000 
#    0.000    0.000    0.000    0.000    0.000    0.000 
#
# Total GULP energy -347201.919068 kJ/mol
# GULP energy per Si atom -12400.068538 kJ/mol
# Density = 1.658574 g / cm^3
# Si number density = 16.623573 Si / 1000 Ang^3
#
#
#
# Elastic Constant Matrix: (Units=GPa)
#
#
# Indices 1 2 3 4 5 6 
#
# 1 116.1209 55.7045 39.3166 0.0000 -17.0331 0.0000
# 2 55.7045 95.4641 38.2922 0.0000 -14.0038 0.0000
# 3 39.3166 38.2922 70.3475 0.0000 -17.7376 0.0000
# 4 0.0000 0.0000 0.0000 16.4651 0.0000 -5.3870
# 5 -17.0331 -14.0038 -17.7376 0.0000 19.8726 0.0000
# 6 0.0000 0.0000 0.0000 -5.3870 0.0000 29.5344
#
#
#
# Elastic Compliance Matrix: (Units=1/GPa)
#
#
# Indices 1 2 3 4 5 6 
#
# 1 0.013047 -0.005741 -0.003055 0.000000 0.004411 0.000000
# 2 -0.005741 0.016151 -0.005102 0.000000 0.001907 0.000000
# 3 -0.003055 -0.005102 0.022109 0.000000 0.013519 0.000000
# 4 0.000000 0.000000 0.000000 0.064589 0.000000 0.011781
# 5 0.004411 0.001907 0.013519 0.000000 0.067512 0.000000
# 6 0.000000 0.000000 0.000000 0.011781 0.000000 0.036008
#
#
# Mechanical properties :
#
#
# Convention : Reuss Voigt Hill
#
# Bulk Modulus (GPa) = 42.53326 60.95101 51.74213
# Shear Modulus (GPa) = 19.60417 23.08237 21.34327
#
# Velocity S-wave (km/s) = 3.43782 3.73034 3.58706
# Velocity P-wave (km/s) = 6.43427 7.43633 6.95337
#
# Compressibility (1/GPa) = 0.02351101
#
# Stress axis : x y z
#
# Youngs Moduli (GPa) = 76.64674 61.91468 45.23108
#
# Poissons Ratio (x) = 0.35543 0.13817
# Poissons Ratio (y) = 0.44000 0.23079
# Poissons Ratio (z) = 0.23414 0.31591
#
# Static dielectric constant tensor:
#      x y z
#    x 3.379380 0.000000 -0.053780 
#    y 0.000000 3.277670 0.000000 
#    z -0.053780 0.000000 2.805320 
# 
# 
# High freq. dielectric constant tensor:
#      x y z
#    x 1.645790 0.000000 -0.009510 
#    y 0.000000 1.655070 0.000000 
#    z -0.009510 0.000000 1.586240 
# 
# From -- ./inp_files/243028.got.cif
#   From: 2010.06.25/outbox.cif.g09.slc.cpg/sg12_122_cif.got.tgz:243028.got - 2010.06.28 00:19:55.
