data_PCOD8084554
_publ_section_title
;
Structure prediction by ZEFSAII (Michael W. Deem and Ramdas Pophale) SiO2 
 PCOD8084554
Probable space group: C 2/M
;
_chemical_formula_sum "Si O2"
_cell_formula_units_Z 64
_cell_length_a 27.229424
_cell_length_b 15.462182
_cell_length_c 7.890994
_cell_angle_alpha 90.000000
_cell_angle_beta 75.653745
_cell_angle_gamma 90.000000
_cell_volume 3218.713021
_symmetry_space_group_name_H-M "C 2/M"
_symmetry_group_IT_number 12
_symmetry_cell_setting 'monoclinic'
loop_
_space_group_symop_operation_xyz
x,y,z
-x,y,-z
-x,-y,-z
x,-y,z
1/2+x,1/2+y,z
1/2-x,1/2+y,-z
1/2-x,1/2-y,-z
1/2+x,1/2-y,z
loop_
_atom_site_type_symbol
_atom_site_label
_atom_site_fract_x
_atom_site_fract_y
_atom_site_fract_z
Si Si1 0.294971 0.163050 0.318112
Si Si2 0.110065 0.263055 0.603952
Si Si3 0.105760 0.727268 0.225455
Si Si4 0.422773 0.599512 0.886959
Si Si5 0.635617 0.593297 0.726959
Si Si6 0.998548 0.778754 0.697811
Si Si7 0.685854 0.902614 0.047410
Si Si8 0.243597 0.148762 0.703710
O O1 0.354924 0.182309 0.298945
O O2 0.271800 0.118678 0.506361
O O3 0.263422 0.248423 0.297877
O O4 0.289586 0.100041 0.161388
O O5 0.118794 0.297200 0.407660
O O6 0.128855 0.163721 0.586671
O O7 0.051282 0.263349 0.714770
O O8 0.113567 0.831001 0.182808
O O9 0.139685 0.665684 0.080559
O O10 0.046087 0.706804 0.240316
O O11 0.416939 0.500000 0.826271
O O12 0.481225 0.633809 0.814372
O O13 0.407846 0.605651 0.095669
O O14 0.629960 0.500000 0.644838
O O15 0.690489 0.599950 0.767733
O O16 0.000000 0.806326 0.500000
O O17 0.725335 0.875046 0.156404
O O18 0.666761 0.000000 0.099631
#
# Coordination Sequence:
#
# PCOD8084554 Si02
#       8
#     8   8   8   8   8   8   8   8
#     4  10  22  39  65  92 119 155 213 252 316 372
#     4  10  18  37  59  85 115 163 196 254 307 366
#     4   9  19  38  58  85 119 159 204 249 308 362
#     4   9  19  35  56  84 122 161 200 248 301 372
#     4  10  21  35  52  85 125 158 200 249 300 365
#     4   8  18  34  58  84 117 155 204 248 313 373
#     4  12  24  40  64  91 123 165 211 261 313 366
#     4  10  21  42  65  85 123 164 201 259 312 367
#
# _framework density 19.883721999999999
#
# number of rings (size 3 to 8) (size 9 to 14) (size 15 to 20)
#    0.750    1.500    1.250    2.250    0.000    2.750 
#    0.000    1.250    0.000    4.875    0.000    0.000 
#    0.000    0.000    0.000    0.000    0.000    0.000 
#
# Total GULP energy -396443.489140 kJ/mol
# GULP energy per Si atom -12388.859036 kJ/mol
# Density = 1.983847 g / cm^3
# Si number density = 19.883722 Si / 1000 Ang^3
#
#
#
# Elastic Constant Matrix: (Units=GPa)
#
#
# Indices 1 2 3 4 5 6 
#
# 1 81.3774 18.9053 39.3287 0.0000 -5.2456 0.0000
# 2 18.9053 54.4218 19.2767 0.0000 0.1551 0.0000
# 3 39.3287 19.2767 89.8737 0.0000 -1.8397 0.0000
# 4 0.0000 0.0000 0.0000 9.7677 0.0000 -0.1473
# 5 -5.2456 0.1551 -1.8397 0.0000 29.2983 0.0000
# 6 0.0000 0.0000 0.0000 -0.1473 0.0000 0.6103
#
#
#
# Elastic Compliance Matrix: (Units=1/GPa)
#
#
# Indices 1 2 3 4 5 6 
#
# 1 0.016319 -0.003425 -0.006354 0.000000 0.002541 0.000000
# 2 -0.003425 0.020609 -0.002940 0.000000 -0.000907 0.000000
# 3 -0.006354 -0.002940 0.014534 0.000000 -0.000210 0.000000
# 4 0.000000 0.000000 0.000000 0.102752 0.000000 0.024807
# 5 0.002541 -0.000907 -0.000210 0.000000 0.034578 0.000000
# 6 0.000000 0.000000 0.000000 0.024807 0.000000 1.644619
#
#
# Mechanical properties :
#
#
# Convention : Reuss Voigt Hill
#
# Bulk Modulus (GPa) = 38.42908 42.29939 40.36424
# Shear Modulus (GPa) = 2.67734 17.81275 10.24505
#
# Velocity S-wave (km/s) = 1.16165 2.99632 2.27237
# Velocity P-wave (km/s) = 4.60088 5.76976 5.21815
#
# Compressibility (1/GPa) = 0.02602196
#
# Stress axis : x y z
#
# Youngs Moduli (GPa) = 61.27816 48.52285 68.80545
#
# Poissons Ratio (x) = 0.16621 0.43722
# Poissons Ratio (y) = 0.20990 0.20228
# Poissons Ratio (z) = 0.38939 0.14265
#
# Static dielectric constant tensor:
#      x y z
#    x 3.675500 0.000000 -0.227320 
#    y 0.000000 3.376240 0.000000 
#    z -0.227320 0.000000 3.628290 
# 
# 
# High freq. dielectric constant tensor:
#      x y z
#    x 1.771890 0.000000 -0.008290 
#    y 0.000000 1.739710 0.000000 
#    z -0.008290 0.000000 1.780300 
# 
# From -- ./inp_files/112326.got.cif
#   From: 2010.06.25/outbox.cif.g09.slc.cpg/sg12_57_cif.got.tgz:112326.got - 2010.06.28 00:19:55.
