data_PCOD8084011
_publ_section_title
;
Structure prediction by ZEFSAII (Michael W. Deem and Ramdas Pophale) SiO2 
 PCOD8084011
Probable space group: C 2/M
;
_chemical_formula_sum "Si O2"
_cell_formula_units_Z 56
_cell_length_a 31.580806
_cell_length_b 16.234200
_cell_length_c 9.329842
_cell_angle_alpha 90.000000
_cell_angle_beta 140.472303
_cell_angle_gamma 90.000000
_cell_volume 3044.342201
_symmetry_space_group_name_H-M "C 2/M"
_symmetry_group_IT_number 12
_symmetry_cell_setting 'monoclinic'
loop_
_space_group_symop_operation_xyz
x,y,z
-x,y,-z
-x,-y,-z
x,-y,z
1/2+x,1/2+y,z
1/2-x,1/2+y,-z
1/2-x,1/2-y,-z
1/2+x,1/2-y,z
loop_
_atom_site_type_symbol
_atom_site_label
_atom_site_fract_x
_atom_site_fract_y
_atom_site_fract_z
Si Si1 0.706274 0.689193 0.794940
Si Si2 0.511286 0.903129 0.364168
Si Si3 0.634105 0.158235 0.518086
Si Si4 0.720192 0.405809 0.092367
Si Si5 0.763743 0.407116 0.692670
Si Si6 0.309149 0.688505 0.704038
Si Si7 0.890978 0.663454 0.873401
O O1 0.646583 0.742826 0.569525
O O2 0.755603 0.652603 0.805486
O O3 0.750000 0.750000 0.000000
O O4 0.683243 0.617348 0.845340
O O5 0.500000 0.878884 0.500000
O O6 0.584238 0.873608 0.509333
O O7 0.502844 0.000000 0.318585
O O8 0.460060 0.855941 0.128683
O O9 0.700524 0.104789 0.713250
O O10 0.604643 0.141830 0.283196
O O11 0.702847 0.500000 0.086423
O O12 0.694210 0.341088 0.141842
O O13 0.761662 0.500000 0.742098
O O14 0.700741 0.391811 0.421712
O O15 0.833338 0.390932 0.795554
O O16 0.250000 0.750000 0.500000
O O17 0.377328 0.738461 0.858392
#
# Coordination Sequence:
#
# PCOD8084011 Si02
#       7
#     8   8   8   8   8   8   8
#     4  10  21  35  54  82 114 151 185 229 279 336
#     4  11  27  41  55  82 112 147 191 232 272 324
#     4  11  21  39  58  77 113 155 190 225 271 334
#     4  11  21  33  56  88 119 148 183 230 286 330
#     4  11  20  33  57  87 117 144 180 231 284 329
#     4  10  18  34  55  83 113 147 185 229 275 336
#     4  11  21  38  57  80 112 154 189 224 271 334
#
# _framework density 18.394777999999999
#
# number of rings (size 3 to 8) (size 9 to 14) (size 15 to 20)
#    0.000    1.286    4.286    4.714    6.000    2.286 
#    0.000    0.000    0.000    0.000    0.000    6.000 
#    0.000    0.000    0.000    0.000    0.000    0.000 
#
# Total GULP energy -347086.251025 kJ/mol
# GULP energy per Si atom -12395.937537 kJ/mol
# Density = 1.835291 g / cm^3
# Si number density = 18.394778 Si / 1000 Ang^3
#
#
#
# Elastic Constant Matrix: (Units=GPa)
#
#
# Indices 1 2 3 4 5 6 
#
# 1 100.3415 23.0740 17.3883 0.0000 -22.2585 0.0000
# 2 23.0740 76.2243 14.7068 0.0000 -3.2458 0.0000
# 3 17.3883 14.7068 65.4361 0.0000 -15.9310 0.0000
# 4 0.0000 0.0000 0.0000 26.8468 0.0000 -6.3075
# 5 -22.2585 -3.2458 -15.9310 0.0000 29.7187 0.0000
# 6 0.0000 0.0000 0.0000 -6.3075 0.0000 29.4080
#
#
#
# Elastic Compliance Matrix: (Units=1/GPa)
#
#
# Indices 1 2 3 4 5 6 
#
# 1 0.012823 -0.003412 -0.000452 0.000000 0.008989 0.000000
# 2 -0.003412 0.014622 -0.003005 0.000000 -0.002569 0.000000
# 3 -0.000452 -0.003005 0.018304 0.000000 0.009145 0.000000
# 4 0.000000 0.000000 0.000000 0.039225 0.000000 0.008413
# 5 0.008989 -0.002569 0.009145 0.000000 0.045003 0.000000
# 6 0.000000 0.000000 0.000000 0.008413 0.000000 0.035809
#
#
# Mechanical properties :
#
#
# Convention : Reuss Voigt Hill
#
# Bulk Modulus (GPa) = 31.23915 39.14889 35.19402
# Shear Modulus (GPa) = 26.28881 29.65021 27.96951
#
# Velocity S-wave (km/s) = 3.78450 4.01918 3.90361
# Velocity P-wave (km/s) = 6.00967 6.54731 6.28424
#
# Compressibility (1/GPa) = 0.03201112
#
# Stress axis : x y z
#
# Youngs Moduli (GPa) = 77.98592 68.38844 54.63228
#
# Poissons Ratio (x) = 0.23331 0.02470
# Poissons Ratio (y) = 0.26606 0.16419
# Poissons Ratio (z) = 0.03527 0.20553
#
# Static dielectric constant tensor:
#      x y z
#    x 3.455000 0.000000 -0.368230 
#    y 0.000000 4.121360 0.000000 
#    z -0.368230 0.000000 3.534870 
# 
# 
# High freq. dielectric constant tensor:
#      x y z
#    x 1.709670 0.000000 -0.039500 
#    y 0.000000 1.715650 0.000000 
#    z -0.039500 0.000000 1.691150 
# 
# From -- ./inp_files/97654.got.cif
#   From: 2010.06.25/outbox.cif.g09.slc.cpg/sg12_49_cif.got.tgz:97654.got - 2010.06.28 00:19:55.
