data_PCOD8084960
_publ_section_title
;
Structure prediction by ZEFSAII (Michael W. Deem and Ramdas Pophale) SiO2 
 PCOD8084960
Probable space group: C 2/M
;
_chemical_formula_sum "Si O2"
_cell_formula_units_Z 64
_cell_length_a 11.469996
_cell_length_b 21.883163
_cell_length_c 15.471584
_cell_angle_alpha 90.000000
_cell_angle_beta 104.756062
_cell_angle_gamma 90.000000
_cell_volume 3755.287112
_symmetry_space_group_name_H-M "C 2/M"
_symmetry_group_IT_number 12
_symmetry_cell_setting 'monoclinic'
loop_
_space_group_symop_operation_xyz
x,y,z
-x,y,-z
-x,-y,-z
x,-y,z
1/2+x,1/2+y,z
1/2-x,1/2+y,-z
1/2-x,1/2-y,-z
1/2+x,1/2-y,z
loop_
_atom_site_type_symbol
_atom_site_label
_atom_site_fract_x
_atom_site_fract_y
_atom_site_fract_z
Si Si1 0.123134 0.626132 0.378931
Si Si2 0.700510 0.069270 0.564611
Si Si3 0.608811 0.072800 0.911467
Si Si4 0.311141 0.572317 0.293273
Si Si5 0.953881 0.114791 0.587970
Si Si6 0.387340 0.928197 0.273296
Si Si7 0.893331 0.751377 0.552319
Si Si8 0.659267 0.927624 0.104450
O O1 0.125227 0.607004 0.480046
O O2 0.250726 0.611027 0.359253
O O3 0.091629 0.698094 0.373308
O O4 0.028159 0.587684 0.305856
O O5 0.841529 0.069787 0.573394
O O6 0.678861 0.099897 0.655372
O O7 0.652733 0.000000 0.552347
O O8 0.662076 0.096849 0.829162
O O9 0.471749 0.097292 0.892998
O O10 0.605060 0.000000 0.909128
O O11 0.685695 0.094937 0.010048
O O12 0.291106 0.500000 0.303983
O O13 0.450842 0.590391 0.323715
O O14 0.260441 0.595264 0.190871
O O15 0.915796 0.184042 0.603181
O O16 0.000000 0.109204 0.500000
O O17 0.369642 0.000000 0.271467
O O18 0.750000 0.750000 0.500000
O O19 0.000000 0.743296 0.500000
O O20 0.658314 0.000000 0.105243
#
# Coordination Sequence:
#
# PCOD8084960 Si02
#       8
#     8   8   8   8   8   8   8   8
#     4  12  20  31  50  73 101 136 165 206 258 306
#     4  11  21  31  45  69 102 136 165 197 251 312
#     4   8  13  25  44  68 101 131 158 199 254 313
#     4  11  20  32  52  80 110 133 167 215 264 318
#     4  11  22  36  50  68  95 142 181 214 250 291
#     4  10  19  29  44  72 104 129 159 200 254 316
#     4  11  22  39  54  69  99 142 193 227 250 293
#     4   8  14  25  45  71 100 131 158 200 257 308
#
# _framework density 17.042636999999999
#
# number of rings (size 3 to 8) (size 9 to 14) (size 15 to 20)
#    0.000    1.750    3.750    4.125    0.000    1.500 
#    0.000    0.000    0.000    0.750    0.000    5.250 
#    3.750    0.000    0.000    0.000    0.000    0.000 
#
# Total GULP energy -396435.465550 kJ/mol
# GULP energy per Si atom -12388.608298 kJ/mol
# Density = 1.700385 g / cm^3
# Si number density = 17.042637 Si / 1000 Ang^3
#
#
#
# Elastic Constant Matrix: (Units=GPa)
#
#
# Indices 1 2 3 4 5 6 
#
# 1 50.9022 8.9113 23.3233 0.0000 3.1546 0.0000
# 2 8.9113 37.3620 22.8926 0.0000 -3.4111 0.0000
# 3 23.3233 22.8926 139.6368 0.0000 -4.9451 0.0000
# 4 0.0000 0.0000 0.0000 5.9444 0.0000 2.0151
# 5 3.1546 -3.4111 -4.9451 0.0000 24.8343 0.0000
# 6 0.0000 0.0000 0.0000 2.0151 0.0000 22.3203
#
#
#
# Elastic Compliance Matrix: (Units=1/GPa)
#
#
# Indices 1 2 3 4 5 6 
#
# 1 0.022000 -0.003635 -0.003218 0.000000 -0.003935 0.000000
# 2 -0.003635 0.030599 -0.004274 0.000000 0.003814 0.000000
# 3 -0.003218 -0.004274 0.008453 0.000000 0.001505 0.000000
# 4 0.000000 0.000000 0.000000 0.173538 0.000000 -0.015667
# 5 -0.003935 0.003814 0.001505 0.000000 0.041590 0.000000
# 6 0.000000 0.000000 0.000000 -0.015667 0.000000 0.046217
#
#
# Mechanical properties :
#
#
# Convention : Reuss Voigt Hill
#
# Bulk Modulus (GPa) = 25.77453 37.57283 31.67368
# Shear Modulus (GPa) = 13.98273 22.13805 18.06039
#
# Velocity S-wave (km/s) = 2.86747 3.60805 3.25886
# Velocity P-wave (km/s) = 5.11073 6.28105 5.72587
#
# Compressibility (1/GPa) = 0.03879799
#
# Stress axis : x y z
#
# Youngs Moduli (GPa) = 45.45411 32.68052 118.30111
#
# Poissons Ratio (x) = 0.11878 0.38071
# Poissons Ratio (y) = 0.16521 0.50567
# Poissons Ratio (z) = 0.14628 0.13969
#
# Static dielectric constant tensor:
#      x y z
#    x 3.233410 0.000000 -0.105740 
#    y 0.000000 2.973500 0.000000 
#    z -0.105740 0.000000 3.656790 
# 
# 
# High freq. dielectric constant tensor:
#      x y z
#    x 1.646370 0.000000 -0.001720 
#    y 0.000000 1.621150 0.000000 
#    z -0.001720 0.000000 1.653900 
# 
# From -- ./inp_files/208419.got.cif
#   From: 2010.06.25/outbox.cif.g09.slc.cpg/sg12_105_cif.got.tgz:208419.got - 2010.06.28 00:19:55.
