data_PCOD8084636
_publ_section_title
;
Structure prediction by ZEFSAII (Michael W. Deem and Ramdas Pophale) SiO2 
 PCOD8084636
Probable space group: C 2/M
;
_chemical_formula_sum "Si O2"
_cell_formula_units_Z 48
_cell_length_a 18.551249
_cell_length_b 26.354929
_cell_length_c 5.816542
_cell_angle_alpha 90.000000
_cell_angle_beta 48.139433
_cell_angle_gamma 90.000000
_cell_volume 2117.983776
_symmetry_space_group_name_H-M "C 2/M"
_symmetry_group_IT_number 12
_symmetry_cell_setting 'monoclinic'
loop_
_space_group_symop_operation_xyz
x,y,z
-x,y,-z
-x,-y,-z
x,-y,z
1/2+x,1/2+y,z
1/2-x,1/2+y,-z
1/2-x,1/2-y,-z
1/2+x,1/2-y,z
loop_
_atom_site_type_symbol
_atom_site_label
_atom_site_fract_x
_atom_site_fract_y
_atom_site_fract_z
Si Si1 0.148104 0.444396 0.864005
Si Si2 0.238606 0.388767 0.290811
Si Si3 0.262370 0.304082 0.585766
Si Si4 0.398073 0.849708 0.791886
Si Si5 0.949889 0.155936 0.357522
Si Si6 0.352037 0.442804 0.683779
O O1 0.100171 0.500000 0.978698
O O2 0.164087 0.428234 0.566830
O O3 0.253855 0.443122 0.749755
O O4 0.079162 0.404654 0.141140
O O5 0.289237 0.349177 0.352877
O O6 0.174878 0.354333 0.261566
O O7 0.325701 0.420268 0.990425
O O8 0.250000 0.250000 0.500000
O O9 0.351079 0.309617 0.577850
O O10 0.155546 0.313343 0.915178
O O11 0.500000 0.825169 0.500000
O O12 0.929008 0.095110 0.403744
O O13 0.000000 0.170016 0.500000
O O14 0.000000 0.168600 0.000000
O O15 0.394973 0.500000 0.611593
#
# Coordination Sequence:
#
# PCOD8084636 Si02
#       6
#     8   8   8   8   8   8
#     4   9  18  33  61  94 133 180 228 276 352 428
#     4  10  18  40  66  90 139 175 234 289 359 417
#     4  11  25  48  70  97 135 188 233 301 371 431
#     4  10  22  41  66  96 131 173 235 301 357 434
#     4  12  26  47  72 107 151 186 243 303 357 429
#     4  10  20  38  65  98 137 189 233 281 351 431
#
# _framework density 22.663060999999999
#
# number of rings (size 3 to 8) (size 9 to 14) (size 15 to 20)
#    0.000    1.667    5.000    1.500    0.000    5.000 
#    3.000    0.833    0.000    0.000    0.000    0.000 
#    0.000    0.000    0.000    0.000    0.000    0.000 
#
# Total GULP energy -297364.172863 kJ/mol
# GULP energy per Si atom -12390.173869 kJ/mol
# Density = 2.261148 g / cm^3
# Si number density = 22.663061 Si / 1000 Ang^3
#
#
#
# Elastic Constant Matrix: (Units=GPa)
#
#
# Indices 1 2 3 4 5 6 
#
# 1 71.1297 49.9954 36.1351 0.0000 1.5084 0.0000
# 2 49.9954 131.5302 39.6659 0.0000 -1.5413 0.0000
# 3 36.1351 39.6659 111.8165 0.0000 5.1716 0.0000
# 4 0.0000 0.0000 0.0000 17.6799 0.0000 -0.9252
# 5 1.5084 -1.5413 5.1716 0.0000 35.4040 0.0000
# 6 0.0000 0.0000 0.0000 -0.9252 0.0000 15.3337
#
#
#
# Elastic Compliance Matrix: (Units=1/GPa)
#
#
# Indices 1 2 3 4 5 6 
#
# 1 0.020981 -0.006656 -0.004394 0.000000 -0.000542 0.000000
# 2 -0.006656 0.010649 -0.001672 0.000000 0.000991 0.000000
# 3 -0.004394 -0.001672 0.011026 0.000000 -0.001496 0.000000
# 4 0.000000 0.000000 0.000000 0.056741 0.000000 0.003424
# 5 -0.000542 0.000991 -0.001496 0.000000 0.028530 0.000000
# 6 0.000000 0.000000 0.000000 0.003424 0.000000 0.065423
#
#
# Mechanical properties :
#
#
# Convention : Reuss Voigt Hill
#
# Bulk Modulus (GPa) = 58.10475 62.89655 60.50065
# Shear Modulus (GPa) = 22.26864 26.26218 24.26541
#
# Velocity S-wave (km/s) = 3.13804 3.40782 3.27571
# Velocity P-wave (km/s) = 6.23088 6.58008 6.40786
#
# Compressibility (1/GPa) = 0.01721030
#
# Stress axis : x y z
#
# Youngs Moduli (GPa) = 47.66198 93.90677 90.69739
#
# Poissons Ratio (x) = 0.62507 0.39853
# Poissons Ratio (y) = 0.31725 0.15168
# Poissons Ratio (z) = 0.20943 0.15705
#
# Static dielectric constant tensor:
#      x y z
#    x 4.088170 0.000000 0.375840 
#    y 0.000000 4.144820 0.000000 
#    z 0.375840 0.000000 4.397370 
# 
# 
# High freq. dielectric constant tensor:
#      x y z
#    x 1.886710 0.000000 0.013600 
#    y 0.000000 1.879300 0.000000 
#    z 0.013600 0.000000 1.894270 
# 
# From -- ./inp_files/22261.got.cif
#   From: 2010.06.25/outbox.cif.g09.slc.cpg/sg12_12_cif.got.tgz:22261.got - 2010.06.28 00:19:55.
