data_PCOD8084080
_publ_section_title
;
Structure prediction by ZEFSAII (Michael W. Deem and Ramdas Pophale) SiO2 
 PCOD8084080
Probable space group: C 2/M
;
_chemical_formula_sum "Si O2"
_cell_formula_units_Z 36
_cell_length_a 17.495667
_cell_length_b 20.240738
_cell_length_c 9.151713
_cell_angle_alpha 90.000000
_cell_angle_beta 36.089458
_cell_angle_gamma 90.000000
_cell_volume 1909.016542
_symmetry_space_group_name_H-M "C 2/M"
_symmetry_group_IT_number 12
_symmetry_cell_setting 'monoclinic'
loop_
_space_group_symop_operation_xyz
x,y,z
-x,y,-z
-x,-y,-z
x,-y,z
1/2+x,1/2+y,z
1/2-x,1/2+y,-z
1/2-x,1/2-y,-z
1/2+x,1/2-y,z
loop_
_atom_site_type_symbol
_atom_site_label
_atom_site_fract_x
_atom_site_fract_y
_atom_site_fract_z
Si Si1 0.230425 0.191539 0.323877
Si Si2 0.500000 0.259583 0.500000
Si Si3 0.825744 0.577445 0.656004
Si Si4 0.652675 0.328790 0.764115
Si Si5 0.910563 0.639591 0.813433
O O1 0.284216 0.265178 0.258358
O O2 0.203004 0.159705 0.522619
O O3 0.099275 0.193271 0.431701
O O4 0.333526 0.143594 0.084377
O O5 0.421220 0.214018 0.735358
O O6 0.824611 0.500000 0.632546
O O7 0.693414 0.607713 0.796208
O O8 0.835941 0.593336 0.812484
O O9 0.946363 0.609802 0.381316
O O10 0.500000 0.320029 0.000000
#
# Coordination Sequence:
#
# PCOD8084080 Si02
#       5
#     8   4   8   8   8
#     4  11  22  35  60  91 122 144 196 241 299 349
#     4  10  18  34  57  88 119 148 180 236 298 352
#     4  10  22  42  61  83 117 160 200 236 287 344
#     4  11  24  37  56  89 123 158 182 243 300 350
#     4  10  19  36  62  89 111 152 198 243 284 339
#
# _framework density 18.857876999999998
#
# number of rings (size 3 to 8) (size 9 to 14) (size 15 to 20)
#    0.000    1.778    4.444    3.333    6.222    0.444 
#    0.000    3.333    0.000    1.333    0.000    0.000 
#    0.000    0.000    0.000    0.000    0.000    0.000 
#
# Total GULP energy -223252.420877 kJ/mol
# GULP energy per Si atom -12402.912271 kJ/mol
# Density = 1.881496 g / cm^3
# Si number density = 18.857877 Si / 1000 Ang^3
#
#
#
# Elastic Constant Matrix: (Units=GPa)
#
#
# Indices 1 2 3 4 5 6 
#
# 1 80.5205 11.7589 39.3221 0.0002 -7.1783 -0.0001
# 2 11.7589 51.1554 18.7554 0.0002 10.2345 -0.0001
# 3 39.3221 18.7554 97.5098 0.0006 17.6378 -0.0001
# 4 0.0002 0.0002 0.0006 13.5321 -0.0003 -5.2997
# 5 -7.1783 10.2345 17.6378 -0.0003 27.8796 0.0001
# 6 -0.0001 -0.0001 -0.0001 -5.2997 0.0001 16.3667
#
#
#
# Elastic Compliance Matrix: (Units=1/GPa)
#
#
# Indices 1 2 3 4 5 6 
#
# 1 0.018204 -0.003252 -0.008784 0.000000 0.011438 0.000000
# 2 -0.003252 0.022486 -0.001546 0.000000 -0.008114 0.000000
# 3 -0.008784 -0.001546 0.016263 -0.000001 -0.011983 0.000000
# 4 0.000000 0.000000 -0.000001 0.084631 0.000002 0.027404
# 5 0.011438 -0.008114 -0.011983 0.000002 0.049373 0.000000
# 6 0.000000 0.000000 0.000000 0.027404 0.000000 0.069973
#
#
# Mechanical properties :
#
#
# Convention : Reuss Voigt Hill
#
# Bulk Modulus (GPa) = 33.57121 40.98428 37.27774
# Shear Modulus (GPa) = 16.77724 22.17897 19.47810
#
# Velocity S-wave (km/s) = 2.98597 3.43317 3.21735
# Velocity P-wave (km/s) = 5.45242 6.12339 5.79762
#
# Compressibility (1/GPa) = 0.02978743
#
# Stress axis : x y z
#
# Youngs Moduli (GPa) = 54.93419 44.47223 61.49109
#
# Poissons Ratio (x) = 0.14463 0.54015
# Poissons Ratio (y) = 0.17865 0.09506
# Poissons Ratio (z) = 0.48256 0.06875
#
# Static dielectric constant tensor:
#      x y z
#    x 3.573030 0.000000 -0.006100 
#    y 0.000000 3.104050 0.000000 
#    z -0.006100 0.000000 3.427260 
# 
# 
# High freq. dielectric constant tensor:
#      x y z
#    x 1.743930 0.000000 -0.004460 
#    y 0.000000 1.695590 0.000000 
#    z -0.004460 0.000000 1.727230 
# 
# From -- ./inp_files/50152.got.cif
#   From: 2010.06.25/outbox.cif.g09.slc.cpg/sg12_26_cif.got.tgz:50152.got - 2010.06.28 00:19:55.
