data_PCOD8084921
_publ_section_title
;
Structure prediction by ZEFSAII (Michael W. Deem and Ramdas Pophale) SiO2 
 PCOD8084921
Probable space group: C 2/M
;
_chemical_formula_sum "Si O2"
_cell_formula_units_Z 64
_cell_length_a 27.554171
_cell_length_b 9.259496
_cell_length_c 20.568410
_cell_angle_alpha 90.000000
_cell_angle_beta 134.834696
_cell_angle_gamma 90.000000
_cell_volume 3721.429493
_symmetry_space_group_name_H-M "C 2/M"
_symmetry_group_IT_number 12
_symmetry_cell_setting 'monoclinic'
loop_
_space_group_symop_operation_xyz
x,y,z
-x,y,-z
-x,-y,-z
x,-y,z
1/2+x,1/2+y,z
1/2-x,1/2+y,-z
1/2-x,1/2-y,-z
1/2+x,1/2-y,z
loop_
_atom_site_type_symbol
_atom_site_label
_atom_site_fract_x
_atom_site_fract_y
_atom_site_fract_z
Si Si1 0.552909 0.833831 0.605352
Si Si2 0.143280 0.160302 0.477612
Si Si3 0.826229 0.661886 0.370178
Si Si4 0.821975 0.167249 0.736912
Si Si5 0.484194 0.339540 0.303381
Si Si6 0.831845 0.336921 0.617535
Si Si7 0.454914 0.830139 0.895737
Si Si8 0.007457 0.340177 0.208186
O O1 0.500000 0.778516 0.500000
O O2 0.631008 0.811636 0.655203
O O3 0.546661 0.744296 0.664975
O O4 0.536286 0.000000 0.605966
O O5 0.145860 0.228779 0.550554
O O6 0.188065 0.251322 0.467581
O O7 0.065279 0.154000 0.382883
O O8 0.174662 0.000000 0.509986
O O9 0.841137 0.500000 0.410247
O O10 0.745105 0.680988 0.280581
O O11 0.802946 0.250492 0.652334
O O12 0.884609 0.241051 0.833689
O O13 0.839714 0.000000 0.738330
O O14 0.452623 0.500000 0.272974
O O15 0.464941 0.262357 0.216836
O O16 0.802109 0.500000 0.587540
O O17 0.913235 0.343359 0.698580
O O18 0.497676 0.786189 0.871511
O O19 0.436557 0.000000 0.876322
O O20 0.500000 0.787834 0.000000
O O21 0.975798 0.500000 0.184953
#
# Coordination Sequence:
#
# PCOD8084921 Si02
#       8
#     8   8   8   8   8   8   8   8
#     4  10  19  32  50  66  86 125 173 211 244 285
#     4  10  19  29  44  66  91 123 163 205 246 283
#     4  10  21  34  46  64  91 126 166 204 241 286
#     4  10  20  33  48  69  98 125 155 196 240 285
#     4  10  19  29  44  68  97 124 157 206 250 281
#     4   9  17  30  47  64  89 126 165 198 233 281
#     4   9  18  34  56  80 103 127 156 188 228 288
#     4   8  15  28  47  70  95 124 155 188 228 280
#
# _framework density 17.197693000000001
#
# number of rings (size 3 to 8) (size 9 to 14) (size 15 to 20)
#    0.000    2.500    1.250    2.250    0.000    6.500 
#    0.000    0.000    0.000    0.000    0.000    0.875 
#    0.000    0.000    0.000    0.000    0.000    0.000 
#
# Total GULP energy -396727.584268 kJ/mol
# GULP energy per Si atom -12397.737008 kJ/mol
# Density = 1.715855 g / cm^3
# Si number density = 17.197693 Si / 1000 Ang^3
#
#
#
# Elastic Constant Matrix: (Units=GPa)
#
#
# Indices 1 2 3 4 5 6 
#
# 1 113.0981 61.1048 40.2649 0.0000 -15.9700 0.0000
# 2 61.1048 119.3769 42.7076 0.0000 -13.6221 0.0000
# 3 40.2649 42.7076 61.4331 0.0000 -19.4958 0.0000
# 4 0.0000 0.0000 0.0000 16.6187 0.0000 -6.1708
# 5 -15.9700 -13.6221 -19.4958 0.0000 22.0556 0.0000
# 6 0.0000 0.0000 0.0000 -6.1708 0.0000 20.9652
#
#
#
# Elastic Compliance Matrix: (Units=1/GPa)
#
#
# Indices 1 2 3 4 5 6 
#
# 1 0.013541 -0.004997 -0.004544 0.000000 0.002702 0.000000
# 2 -0.004997 0.012994 -0.006059 0.000000 -0.000949 0.000000
# 3 -0.004544 -0.006059 0.029516 0.000000 0.019058 0.000000
# 4 0.000000 0.000000 0.000000 0.067557 0.000000 0.019884
# 5 0.002702 -0.000949 0.019058 0.000000 0.063557 0.000000
# 6 0.000000 0.000000 0.000000 0.019884 0.000000 0.053551
#
#
# Mechanical properties :
#
#
# Convention : Reuss Voigt Hill
#
# Bulk Modulus (GPa) = 40.23922 64.67365 52.45644
# Shear Modulus (GPa) = 17.84442 21.91661 19.88051
#
# Velocity S-wave (km/s) = 3.22468 3.57374 3.40369
# Velocity P-wave (km/s) = 6.10849 7.39706 6.78344
#
# Compressibility (1/GPa) = 0.02485137
#
# Stress axis : x y z
#
# Youngs Moduli (GPa) = 73.84991 76.95734 33.87964
#
# Poissons Ratio (x) = 0.38458 0.15393
# Poissons Ratio (y) = 0.36905 0.20528
# Poissons Ratio (z) = 0.33554 0.46630
#
# Static dielectric constant tensor:
#      x y z
#    x 3.240170 0.000000 -0.124110 
#    y 0.000000 3.481320 0.000000 
#    z -0.124110 0.000000 2.876700 
# 
# 
# High freq. dielectric constant tensor:
#      x y z
#    x 1.660470 0.000000 -0.011090 
#    y 0.000000 1.675830 0.000000 
#    z -0.011090 0.000000 1.615410 
# 
# From -- ./inp_files/326994.got.cif
#   From: 2010.06.25/outbox.cif.g09.slc.cpg/sg12_164_cif.got.tgz:326994.got - 2010.06.28 00:19:55.
