data_PCOD8084833
_publ_section_title
;
Structure prediction by ZEFSAII (Michael W. Deem and Ramdas Pophale) SiO2 
 PCOD8084833
Probable space group: C 2/M
;
_chemical_formula_sum "Si O2"
_cell_formula_units_Z 64
_cell_length_a 23.135166
_cell_length_b 9.539022
_cell_length_c 20.535920
_cell_angle_alpha 90.000000
_cell_angle_beta 120.223762
_cell_angle_gamma 90.000000
_cell_volume 3915.954232
_symmetry_space_group_name_H-M "C 2/M"
_symmetry_group_IT_number 12
_symmetry_cell_setting 'monoclinic'
loop_
_space_group_symop_operation_xyz
x,y,z
-x,y,-z
-x,-y,-z
x,-y,z
1/2+x,1/2+y,z
1/2-x,1/2+y,-z
1/2-x,1/2-y,-z
1/2+x,1/2-y,z
loop_
_atom_site_type_symbol
_atom_site_label
_atom_site_fract_x
_atom_site_fract_y
_atom_site_fract_z
Si Si1 0.608126 0.343191 0.567856
Si Si2 0.436895 0.659515 0.137450
Si Si3 0.563819 0.835947 0.734274
Si Si4 0.799270 0.840924 0.985860
Si Si5 0.684188 0.162632 0.704436
Si Si6 0.185041 0.166841 0.150156
Si Si7 0.514685 0.342148 0.403652
Si Si8 0.537064 0.666501 0.084964
O O1 0.637541 0.500000 0.580711
O O2 0.665840 0.241065 0.626912
O O3 0.581614 0.296474 0.481235
O O4 0.546685 0.338843 0.582057
O O5 0.446904 0.500000 0.168813
O O6 0.426259 0.764983 0.190574
O O7 0.373824 0.666913 0.054666
O O8 0.499913 0.710972 0.130282
O O9 0.630896 0.807671 0.731286
O O10 0.499302 0.766249 0.662646
O O11 0.549667 0.000000 0.734985
O O12 0.772527 0.000000 0.971157
O O13 0.750000 0.750000 0.000000
O O14 0.799275 0.777779 0.913258
O O15 0.756428 0.219525 0.768537
O O16 0.686442 0.000000 0.688370
O O17 0.112992 0.224850 0.132482
O O18 0.183977 0.000000 0.147600
O O19 0.523310 0.500000 0.380644
O O20 0.537198 0.500000 0.078657
O O21 0.500000 0.729211 0.000000
#
# Coordination Sequence:
#
# PCOD8084833 Si02
#       8
#     8   8   8   8   8   8   8   8
#     4   8  14  25  42  63  89 120 149 181 218 256
#     4  10  19  30  47  68  86 112 152 193 228 261
#     4  10  19  29  42  64  96 127 148 174 219 271
#     4  10  19  30  45  65  90 118 147 180 221 268
#     4   9  17  27  41  64  93 123 149 176 217 270
#     4   9  16  28  45  64  88 115 147 189 228 259
#     4   8  14  26  43  63  88 119 153 183 213 254
#     4   9  15  28  49  69  83 105 151 202 233 256
#
# _framework density 16.343398000000001
#
# number of rings (size 3 to 8) (size 9 to 14) (size 15 to 20)
#    0.000    2.875    1.250    1.875    0.000    2.500 
#    0.000    3.125    0.000    1.875    0.000    0.875 
#    0.000    0.000    0.000    0.000    0.000    0.000 
#
# Total GULP energy -396650.221281 kJ/mol
# GULP energy per Si atom -12395.319415 kJ/mol
# Density = 1.630620 g / cm^3
# Si number density = 16.343398 Si / 1000 Ang^3
#
#
#
# Elastic Constant Matrix: (Units=GPa)
#
#
# Indices 1 2 3 4 5 6 
#
# 1 68.1721 22.4748 22.0851 0.0000 18.3184 0.0000
# 2 22.4748 56.4723 37.2933 0.0000 8.9462 0.0000
# 3 22.0851 37.2933 95.1361 0.0000 28.0358 0.0000
# 4 0.0000 0.0000 0.0000 28.6492 0.0000 -0.4110
# 5 18.3184 8.9462 28.0358 0.0000 16.1430 0.0000
# 6 0.0000 0.0000 0.0000 -0.4110 0.0000 11.3860
#
#
#
# Elastic Compliance Matrix: (Units=1/GPa)
#
#
# Indices 1 2 3 4 5 6 
#
# 1 0.026006 -0.010623 0.010424 0.000000 -0.041726 0.000000
# 2 -0.010623 0.028539 -0.015593 0.000000 0.023320 0.000000
# 3 0.010424 -0.015593 0.031018 0.000000 -0.057056 0.000000
# 4 0.000000 0.000000 0.000000 0.034923 0.000000 0.001261
# 5 -0.041726 0.023320 -0.057056 0.000000 0.195461 0.000000
# 6 0.000000 0.000000 0.000000 0.001261 0.000000 0.087873
#
#
# Mechanical properties :
#
#
# Convention : Reuss Voigt Hill
#
# Bulk Modulus (GPa) = 18.52643 42.60964 30.56804
# Shear Modulus (GPa) = 11.02782 20.43080 15.72931
#
# Velocity S-wave (km/s) = 2.60043 3.53950 3.10566
# Velocity P-wave (km/s) = 4.51405 6.54463 5.62178
#
# Compressibility (1/GPa) = 0.05397694
#
# Stress axis : x y z
#
# Youngs Moduli (GPa) = 38.45209 35.03990 32.23940
#
# Poissons Ratio (x) = 0.37224 -0.33605
# Poissons Ratio (y) = 0.40849 0.50272
# Poissons Ratio (z) = -0.40081 0.54639
#
# Static dielectric constant tensor:
#      x y z
#    x 2.971890 0.000000 0.190840 
#    y 0.000000 3.007910 0.000000 
#    z 0.190840 0.000000 3.358160 
# 
# 
# High freq. dielectric constant tensor:
#      x y z
#    x 1.593600 0.000000 0.010730 
#    y 0.000000 1.603190 0.000000 
#    z 0.010730 0.000000 1.637750 
# 
# From -- ./inp_files/320004.got.cif
#   From: 2010.06.25/outbox.cif.g09.slc.cpg/sg12_161_cif.got.tgz:320004.got - 2010.06.28 00:19:55.
