data_PCOD8084412
_publ_section_title
;
Structure prediction by ZEFSAII (Michael W. Deem and Ramdas Pophale) SiO2 
 PCOD8084412
Probable space group: C 2/M
;
_chemical_formula_sum "Si O2"
_cell_formula_units_Z 48
_cell_length_a 20.022947
_cell_length_b 8.710530
_cell_length_c 16.537072
_cell_angle_alpha 90.000000
_cell_angle_beta 62.898310
_cell_angle_gamma 90.000000
_cell_volume 2567.547443
_symmetry_space_group_name_H-M "C 2/M"
_symmetry_group_IT_number 12
_symmetry_cell_setting 'monoclinic'
loop_
_space_group_symop_operation_xyz
x,y,z
-x,y,-z
-x,-y,-z
x,-y,z
1/2+x,1/2+y,z
1/2-x,1/2+y,-z
1/2-x,1/2-y,-z
1/2+x,1/2-y,z
loop_
_atom_site_type_symbol
_atom_site_label
_atom_site_fract_x
_atom_site_fract_y
_atom_site_fract_z
Si Si1 0.445866 0.817463 0.767277
Si Si2 0.831222 0.820211 0.946163
Si Si3 0.976330 0.820055 0.422369
Si Si4 0.588979 0.825294 0.950016
Si Si5 0.905418 0.680642 0.229708
Si Si6 0.671041 0.818635 0.567631
O O1 0.368909 0.751957 0.845539
O O2 0.459984 0.754586 0.669483
O O3 0.513820 0.755903 0.786211
O O4 0.441938 0.000000 0.766365
O O5 0.825023 0.000000 0.936814
O O6 0.750000 0.750000 0.000000
O O7 0.878930 0.784773 0.999601
O O8 0.894430 0.749115 0.451986
O O9 0.000000 0.781402 0.500000
O O10 0.972394 0.000000 0.407707
O O11 0.616670 0.759237 0.847370
O O12 0.617019 0.000000 0.950004
O O13 0.500000 0.820510 0.000000
O O14 0.914618 0.500000 0.217520
O O15 0.843023 0.725863 0.330468
O O16 0.750000 0.750000 0.500000
O O17 0.671416 0.000000 0.555462
#
# Coordination Sequence:
#
# PCOD8084412 Si02
#       6
#     8   8   8   8   8   8
#     4  10  19  37  62  86 113 150 193 235 285 342
#     4  12  25  40  57  83 118 155 194 237 289 339
#     4  10  21  38  60  87 117 152 193 235 284 344
#     4  10  18  35  62  86 112 147 187 231 283 342
#     4   8  16  32  57  85 110 144 185 227 281 339
#     4  10  20  36  58  84 116 153 191 237 289 338
#
# _framework density 18.694883999999998
#
# number of rings (size 3 to 8) (size 9 to 14) (size 15 to 20)
#    0.000    2.000    1.667    4.000    0.000    1.667 
#    3.000    1.667    0.000    0.000    0.000    0.000 
#    0.000    0.000    0.000    0.000    0.000    0.000 
#
# Total GULP energy -297580.805209 kJ/mol
# GULP energy per Si atom -12399.200217 kJ/mol
# Density = 1.865233 g / cm^3
# Si number density = 18.694884 Si / 1000 Ang^3
#
#
#
# Elastic Constant Matrix: (Units=GPa)
#
#
# Indices 1 2 3 4 5 6 
#
# 1 81.6268 46.6999 73.1858 0.0000 -7.0365 0.0000
# 2 46.6999 106.6720 68.0435 0.0000 -1.6033 0.0002
# 3 73.1858 68.0435 170.3410 0.0000 -9.5377 0.0000
# 4 0.0000 0.0000 0.0000 33.2015 0.0000 -2.1456
# 5 -7.0365 -1.6033 -9.5377 0.0000 35.3568 0.0000
# 6 0.0000 0.0002 0.0000 -2.1456 0.0000 29.5649
#
#
#
# Elastic Compliance Matrix: (Units=1/GPa)
#
#
# Indices 1 2 3 4 5 6 
#
# 1 0.021735 -0.004835 -0.007287 0.000000 0.002141 0.000000
# 2 -0.004835 0.013678 -0.003458 0.000000 -0.001275 0.000000
# 3 -0.007287 -0.003458 0.010450 0.000000 0.001212 0.000000
# 4 0.000000 0.000000 0.000000 0.030261 0.000000 0.002196
# 5 0.002141 -0.001275 0.001212 0.000000 0.028978 0.000000
# 6 0.000000 0.000000 0.000000 0.002196 0.000000 0.033983
#
#
# Mechanical properties :
#
#
# Convention : Reuss Voigt Hill
#
# Bulk Modulus (GPa) = 68.00989 81.61090 74.81040
# Shear Modulus (GPa) = 28.54751 31.00534 29.77642
#
# Velocity S-wave (km/s) = 3.91195 4.07688 3.99527
# Velocity P-wave (km/s) = 7.54071 8.11851 7.83494
#
# Compressibility (1/GPa) = 0.01470374
#
# Stress axis : x y z
#
# Youngs Moduli (GPa) = 46.00842 73.11212 95.68923
#
# Poissons Ratio (x) = 0.35349 0.69730
# Poissons Ratio (y) = 0.22245 0.33086
# Poissons Ratio (z) = 0.33527 0.25280
#
# Static dielectric constant tensor:
#      x y z
#    x 3.032110 0.000000 -0.014430 
#    y 0.000000 3.401440 0.000000 
#    z -0.014430 0.000000 3.772930 
# 
# 
# High freq. dielectric constant tensor:
#      x y z
#    x 1.706630 0.000000 0.001950 
#    y 0.000000 1.720620 0.000000 
#    z 0.001950 0.000000 1.744380 
# 
# From -- ./inp_files/280070.got.cif
#   From: 2010.06.25/outbox.cif.g09.slc.cpg/sg12_141_cif.got.tgz:280070.got - 2010.06.28 00:19:55.
