data_PCOD8084497
_publ_section_title
;
Structure prediction by ZEFSAII (Michael W. Deem and Ramdas Pophale) SiO2 
 PCOD8084497
Probable space group: C 2/M
;
_chemical_formula_sum "Si O2"
_cell_formula_units_Z 32
_cell_length_a 18.209335
_cell_length_b 14.283313
_cell_length_c 16.226281
_cell_angle_alpha 90.000000
_cell_angle_beta 21.440436
_cell_angle_gamma 90.000000
_cell_volume 1542.657613
_symmetry_space_group_name_H-M "C 2/M"
_symmetry_group_IT_number 12
_symmetry_cell_setting 'monoclinic'
loop_
_space_group_symop_operation_xyz
x,y,z
-x,y,-z
-x,-y,-z
x,-y,z
1/2+x,1/2+y,z
1/2-x,1/2+y,-z
1/2-x,1/2-y,-z
1/2+x,1/2-y,z
loop_
_atom_site_type_symbol
_atom_site_label
_atom_site_fract_x
_atom_site_fract_y
_atom_site_fract_z
Si Si1 0.851080 0.643564 0.807813
Si Si2 0.290272 0.500000 0.567030
Si Si3 0.164793 0.500000 0.523521
Si Si4 0.080866 0.000000 0.007195
Si Si5 0.641457 0.642859 0.202522
Si Si6 0.263941 0.500000 0.770753
O O1 0.887510 0.749477 0.741698
O O2 0.065770 0.592474 0.587879
O O3 0.712601 0.592883 0.884684
O O4 0.749983 0.634348 0.002210
O O5 0.135348 0.500000 0.653336
O O6 0.425318 0.593591 0.421746
O O7 0.155067 0.500000 0.793764
O O8 0.399764 0.500000 0.260766
O O9 0.000000 0.000000 0.000000
O O10 0.777155 0.592638 0.131257
O O11 0.500000 0.500000 0.500000
#
# Coordination Sequence:
#
# PCOD8084497 Si02
#       6
#     8   4   4   4   8   4
#     4  10  21  37  63  84 114 158 189 238 289 344
#     4  10  18  36  60  85 119 152 186 244 288 344
#     4  11  21  39  60  85 112 156 201 228 297 355
#     4  11  23  44  54  81 120 148 193 253 286 333
#     4   9  17  38  58  84 121 149 189 238 287 340
#     4   8  16  32  58  84 114 151 181 239 294 327
#
# _framework density 20.743423
#
# number of rings (size 3 to 8) (size 9 to 14) (size 15 to 20)
#    0.000    2.500    2.500    2.250    0.000    3.000 
#   13.500    2.500    0.000    0.000    0.000    0.000 
#    0.000    0.000    0.000    0.000    0.000    0.000 
#
# Total GULP energy -198368.834470 kJ/mol
# GULP energy per Si atom -12398.052154 kJ/mol
# Density = 2.069621 g / cm^3
# Si number density = 20.743423 Si / 1000 Ang^3
#
#
#
# Elastic Constant Matrix: (Units=GPa)
#
#
# Indices 1 2 3 4 5 6 
#
# 1 153.7051 67.1406 15.9058 0.0029 -1.9745 -0.0017
# 2 67.1406 209.2651 31.3757 0.0029 -7.5203 0.0038
# 3 15.9058 31.3757 39.3142 -0.0077 0.3536 0.0096
# 4 0.0029 0.0029 -0.0077 15.1703 0.0052 7.1492
# 5 -1.9745 -7.5203 0.3536 0.0052 31.1414 -0.0071
# 6 -0.0017 0.0038 0.0096 7.1492 -0.0071 18.3694
#
#
#
# Elastic Compliance Matrix: (Units=1/GPa)
#
#
# Indices 1 2 3 4 5 6 
#
# 1 0.007623 -0.002255 -0.001284 -0.000003 -0.000047 0.000003
# 2 -0.002255 0.006153 -0.004011 -0.000005 0.001389 0.000003
# 3 -0.001284 -0.004011 0.029169 0.000029 -0.001381 -0.000026
# 4 -0.000003 -0.000005 0.000029 0.080724 -0.000022 -0.031417
# 5 -0.000047 0.001389 -0.001381 -0.000022 0.032460 0.000022
# 6 0.000003 0.000003 -0.000026 -0.031417 0.000022 0.066666
#
#
# Mechanical properties :
#
#
# Convention : Reuss Voigt Hill
#
# Bulk Modulus (GPa) = 35.91250 70.12540 53.01895
# Shear Modulus (GPa) = 20.22834 32.12702 26.17768
#
# Velocity S-wave (km/s) = 3.12616 3.93973 3.55628
# Velocity P-wave (km/s) = 5.51188 7.38747 6.51750
#
# Compressibility (1/GPa) = 0.02784546
#
# Stress axis : x y z
#
# Youngs Moduli (GPa) = 131.17742 162.51157 34.28277
#
# Poissons Ratio (x) = 0.36646 0.04402
# Poissons Ratio (y) = 0.29580 0.13751
# Poissons Ratio (z) = 0.16845 0.65184
#
# Static dielectric constant tensor:
#      x y z
#    x 4.162290 -0.000040 0.202640 
#    y -0.000040 3.890260 0.000070 
#    z 0.202640 0.000070 3.613940 
# 
# 
# High freq. dielectric constant tensor:
#      x y z
#    x 1.820380 0.000000 0.008290 
#    y 0.000000 1.807170 0.000010 
#    z 0.008290 0.000010 1.802830 
# 
# From -- ./inp_files/283946.got.cif
#   From: 2010.06.25/outbox.cif.g09.slc.cpg/sg12_142_cif.got.tgz:283946.got - 2010.06.28 00:19:55.
