data_PCOD8084236
_publ_section_title
;
Structure prediction by ZEFSAII (Michael W. Deem and Ramdas Pophale) SiO2 
 PCOD8084236
Probable space group: C 2/M
;
_chemical_formula_sum "Si O2"
_cell_formula_units_Z 64
_cell_length_a 27.450100
_cell_length_b 22.113783
_cell_length_c 8.159211
_cell_angle_alpha 90.000000
_cell_angle_beta 142.104542
_cell_angle_gamma 90.000000
_cell_volume 3042.152373
_symmetry_space_group_name_H-M "C 2/M"
_symmetry_group_IT_number 12
_symmetry_cell_setting 'monoclinic'
loop_
_space_group_symop_operation_xyz
x,y,z
-x,y,-z
-x,-y,-z
x,-y,z
1/2+x,1/2+y,z
1/2-x,1/2+y,-z
1/2-x,1/2-y,-z
1/2+x,1/2-y,z
loop_
_atom_site_type_symbol
_atom_site_label
_atom_site_fract_x
_atom_site_fract_y
_atom_site_fract_z
Si Si1 0.593196 0.179640 0.248979
Si Si2 0.904920 0.679536 0.390853
Si Si3 0.006528 0.862741 0.703777
Si Si4 0.182856 0.431240 0.980544
Si Si5 0.932781 0.270240 0.140216
Si Si6 0.325771 0.931223 0.664357
Si Si7 0.343003 0.430414 0.907996
Si Si8 0.354407 0.430198 0.318991
O O1 0.628814 0.201834 0.519679
O O2 0.613913 0.109426 0.278933
O O3 0.500000 0.189973 0.000000
O O4 0.623290 0.218155 0.168419
O O5 0.871318 0.612621 0.271612
O O6 0.882402 0.725016 0.178065
O O7 0.000780 0.676640 0.666473
O O8 0.016679 0.790981 0.743524
O O9 0.000000 0.885017 0.500000
O O10 0.925920 0.887043 0.575775
O O11 0.085261 0.893584 0.986378
O O12 0.169734 0.500000 0.883111
O O13 0.156233 0.424027 0.096661
O O14 0.275841 0.414489 0.213251
O O15 0.236760 0.908767 0.392049
O O16 0.336783 0.000000 0.633587
O O17 0.360402 0.500000 0.919224
O O18 0.334407 0.416202 0.077176
O O19 0.380024 0.500000 0.411003
#
# Coordination Sequence:
#
# PCOD8084236 Si02
#       8
#     8   8   8   8   8   8   8   8
#     4  10  21  36  60  84 114 155 200 240 296 349
#     4  10  19  36  61  81 116 158 190 245 294 341
#     4  10  18  34  62  82 114 156 196 243 301 348
#     4  10  20  36  59  86 120 157 193 243 303 355
#     4  10  20  38  58  83 117 153 196 247 286 343
#     4  10  20  36  56  83 119 153 192 246 301 356
#     4   9  18  33  57  86 115 148 191 245 300 352
#     4   9  18  33  57  89 117 149 197 244 295 361
#
# _framework density 21.037735999999999
#
# number of rings (size 3 to 8) (size 9 to 14) (size 15 to 20)
#    0.000    2.250    2.500    1.125    0.000    3.250 
#    0.000    8.750    5.500    3.000    0.000    0.000 
#    0.000    0.000    0.000    0.000    0.000    0.000 
#
# Total GULP energy -396495.922049 kJ/mol
# GULP energy per Si atom -12390.497564 kJ/mol
# Density = 2.098985 g / cm^3
# Si number density = 21.037736 Si / 1000 Ang^3
#
#
#
# Elastic Constant Matrix: (Units=GPa)
#
#
# Indices 1 2 3 4 5 6 
#
# 1 86.6703 34.0912 19.4633 0.0000 -26.9156 0.0000
# 2 34.0912 89.2970 31.4170 0.0000 -3.0780 0.0000
# 3 19.4633 31.4170 45.6935 0.0000 -22.2934 0.0000
# 4 0.0000 0.0000 0.0000 15.5899 0.0000 1.1717
# 5 -26.9156 -3.0780 -22.2934 0.0000 34.2913 0.0000
# 6 0.0000 0.0000 0.0000 1.1717 0.0000 17.9327
#
#
#
# Elastic Compliance Matrix: (Units=1/GPa)
#
#
# Indices 1 2 3 4 5 6 
#
# 1 0.019643 -0.009558 0.007775 0.000000 0.019615 0.000000
# 2 -0.009558 0.020968 -0.019167 0.000000 -0.018081 0.000000
# 3 0.007775 -0.019167 0.049632 0.000000 0.036649 0.000000
# 4 0.000000 0.000000 0.000000 0.064460 0.000000 -0.004212
# 5 0.019615 -0.018081 0.036649 0.000000 0.066761 0.000000
# 6 0.000000 0.000000 0.000000 -0.004212 0.000000 0.056039
#
#
# Mechanical properties :
#
#
# Convention : Reuss Voigt Hill
#
# Bulk Modulus (GPa) = 20.68588 43.51153 32.09870
# Shear Modulus (GPa) = 14.90229 22.67541 18.78885
#
# Velocity S-wave (km/s) = 2.66439 3.28662 2.99172
# Velocity P-wave (km/s) = 4.39538 5.92705 5.21773
#
# Compressibility (1/GPa) = 0.04834217
#
# Stress axis : x y z
#
# Youngs Moduli (GPa) = 50.90829 47.69199 20.14821
#
# Poissons Ratio (x) = 0.45586 -0.15665
# Poissons Ratio (y) = 0.48661 0.38618
# Poissons Ratio (z) = -0.39580 0.91410
#
# Static dielectric constant tensor:
#      x y z
#    x 4.111100 0.000000 -0.289300 
#    y 0.000000 3.622780 0.000000 
#    z -0.289300 0.000000 3.812170 
# 
# 
# High freq. dielectric constant tensor:
#      x y z
#    x 1.818050 0.000000 -0.015490 
#    y 0.000000 1.806170 0.000000 
#    z -0.015490 0.000000 1.808480 
# 
# From -- ./inp_files/113643.got.cif
#   From: 2010.06.25/outbox.cif.g09.slc.cpg/sg12_57_cif.got.tgz:113643.got - 2010.06.28 00:19:55.
