data_PCOD8084740
_publ_section_title
;
Structure prediction by ZEFSAII (Michael W. Deem and Ramdas Pophale) SiO2 
 PCOD8084740
Probable space group: C 2/M
;
_chemical_formula_sum "Si O2"
_cell_formula_units_Z 64
_cell_length_a 19.551703
_cell_length_b 18.083378
_cell_length_c 22.071970
_cell_angle_alpha 90.000000
_cell_angle_beta 27.417584
_cell_angle_gamma 90.000000
_cell_volume 3593.425915
_symmetry_space_group_name_H-M "C 2/M"
_symmetry_group_IT_number 12
_symmetry_cell_setting 'monoclinic'
loop_
_space_group_symop_operation_xyz
x,y,z
-x,y,-z
-x,-y,-z
x,-y,z
1/2+x,1/2+y,z
1/2-x,1/2+y,-z
1/2-x,1/2-y,-z
1/2+x,1/2-y,z
loop_
_atom_site_type_symbol
_atom_site_label
_atom_site_fract_x
_atom_site_fract_y
_atom_site_fract_z
Si Si1 0.418018 0.418695 0.501697
Si Si2 0.351129 0.811911 0.267014
Si Si3 0.381920 0.082965 0.962788
Si Si4 0.833113 0.080875 0.110121
Si Si5 0.273413 0.357942 0.026038
Si Si6 0.458098 0.268691 0.794042
Si Si7 0.635814 0.652496 0.240743
Si Si8 0.167293 0.233036 0.841088
O O1 0.500000 0.418643 0.500000
O O2 0.348117 0.500000 0.543896
O O3 0.293934 0.356244 0.600361
O O4 0.542031 0.403818 0.354043
O O5 0.475344 0.865483 0.141200
O O6 0.400516 0.775220 0.291785
O O7 0.325588 0.749469 0.236150
O O8 0.321215 0.087107 0.941932
O O9 0.431877 0.000000 0.938202
O O10 0.256007 0.107213 0.108289
O O11 0.824597 0.099712 0.045603
O O12 0.766136 0.149909 0.200833
O O13 0.754298 0.000000 0.183122
O O14 0.000000 0.071729 0.000000
O O15 0.178506 0.285082 0.115226
O O16 0.417982 0.328822 0.877037
O O17 0.485357 0.309335 0.708812
O O18 0.721980 0.710594 0.214260
O O19 0.000000 0.238435 0.000000
#
# Coordination Sequence:
#
# PCOD8084740 Si02
#       8
#     8   8   8   8   8   8   8   8
#     4  11  24  39  54  78 114 145 178 221 271 326
#     4  11  21  36  56  80 108 146 180 224 268 312
#     4  10  20  33  54  82 111 141 178 218 272 323
#     4  10  19  28  46  76 112 144 172 219 278 322
#     4   9  16  30  49  77 113 137 172 220 273 309
#     4   9  18  31  54  80 100 140 181 224 257 315
#     4  11  20  36  56  79 107 146 181 222 266 311
#     4  11  19  33  54  81 109 140 183 226 259 319
#
# _framework density 17.810302
#
# number of rings (size 3 to 8) (size 9 to 14) (size 15 to 20)
#    0.000    1.750    3.750    3.375    0.000    0.500 
#    0.000    0.625    0.000    0.750    0.000    1.750 
#    0.000    0.000    0.000    0.000    0.000    0.000 
#
# Total GULP energy -396592.765273 kJ/mol
# GULP energy per Si atom -12393.523915 kJ/mol
# Density = 1.776977 g / cm^3
# Si number density = 17.810302 Si / 1000 Ang^3
#
#
#
# Elastic Constant Matrix: (Units=GPa)
#
#
# Indices 1 2 3 4 5 6 
#
# 1 93.0179 33.4635 18.4415 0.0096 10.6472 -0.0353
# 2 33.4635 92.6003 14.3853 -0.0320 3.9795 -0.0463
# 3 18.4415 14.3853 57.4078 -0.0488 3.5436 -0.1285
# 4 0.0096 -0.0320 -0.0488 118.7172 0.0234 126.9263
# 5 10.6472 3.9795 3.5436 0.0234 20.2657 0.0312
# 6 -0.0353 -0.0463 -0.1285 126.9263 0.0312 98.7699
#
#
#
# Elastic Compliance Matrix: (Units=1/GPa)
#
#
# Indices 1 2 3 4 5 6 
#
# 1 0.013492 -0.004173 -0.002933 0.000009 -0.005756 -0.000010
# 2 -0.004173 0.012588 -0.001816 -0.000002 0.000038 0.000005
# 3 -0.002933 -0.001816 0.018903 0.000045 -0.001408 -0.000035
# 4 0.000009 -0.000002 0.000045 -0.022526 -0.000031 0.028948
# 5 -0.005756 0.000038 -0.001408 -0.000031 0.052607 0.000019
# 6 -0.000010 0.000005 -0.000035 0.028948 0.000019 -0.027076
#
#
# Mechanical properties :
#
#
# Convention : Reuss Voigt Hill
#
# Bulk Modulus (GPa) = 36.84737 41.73405 39.29071
# Shear Modulus (GPa) = 66.77472 59.33294 63.05383
#
# Velocity S-wave (km/s) = 6.12973 5.77808 5.95650
# Velocity P-wave (km/s) = 8.41616 8.24611 8.33157
#
# Compressibility (1/GPa) = 0.02713898
#
# Stress axis : x y z
#
# Youngs Moduli (GPa) = 74.11698 79.44381 52.90038
#
# Poissons Ratio (x) = 0.33150 0.15517
# Poissons Ratio (y) = 0.30927 0.09607
# Poissons Ratio (z) = 0.21741 0.14428
#
# Static dielectric constant tensor:
#      x y z
#    x 4.531660 0.000660 0.106250 
#    y 0.000660 3.724280 0.000030 
#    z 0.106250 0.000030 2.919010 
# 
# 
# High freq. dielectric constant tensor:
#      x y z
#    x 1.704030 0.000000 0.010280 
#    y 0.000000 1.699150 0.000000 
#    z 0.010280 0.000000 1.642760 
# 
# From -- ./inp_files/322423.got.cif
#   From: 2010.06.25/outbox.cif.g09.slc.cpg/sg12_162_cif.got.tgz:322423.got - 2010.06.28 00:19:55.
