data_PCOD8084756
_publ_section_title
;
Structure prediction by ZEFSAII (Michael W. Deem and Ramdas Pophale) SiO2 
 PCOD8084756
Probable space group: C 2/M
;
_chemical_formula_sum "Si O2"
_cell_formula_units_Z 64
_cell_length_a 21.934087
_cell_length_b 12.534773
_cell_length_c 20.797729
_cell_angle_alpha 90.000000
_cell_angle_beta 130.679736
_cell_angle_gamma 90.000000
_cell_volume 4336.408478
_symmetry_space_group_name_H-M "C 2/M"
_symmetry_group_IT_number 12
_symmetry_cell_setting 'monoclinic'
loop_
_space_group_symop_operation_xyz
x,y,z
-x,y,-z
-x,-y,-z
x,-y,z
1/2+x,1/2+y,z
1/2-x,1/2+y,-z
1/2-x,1/2-y,-z
1/2+x,1/2-y,z
loop_
_atom_site_type_symbol
_atom_site_label
_atom_site_fract_x
_atom_site_fract_y
_atom_site_fract_z
Si Si1 0.585892 0.746965 0.035109
Si Si2 0.965918 0.877493 0.121194
Si Si3 0.086338 0.627454 0.701731
Si Si4 0.857396 0.261504 0.131988
Si Si5 0.297144 0.124690 0.967091
Si Si6 0.311036 0.873578 0.346972
Si Si7 0.944531 0.616860 0.524021
Si Si8 0.138273 0.123672 0.192775
O O1 0.635951 0.844370 0.039699
O O2 0.635000 0.694507 0.126739
O O3 0.500000 0.792160 0.000000
O O4 0.573108 0.654770 0.973545
O O5 0.929173 0.809766 0.153469
O O6 0.061605 0.856880 0.185558
O O7 0.944795 0.000000 0.118875
O O8 0.084491 0.500000 0.705627
O O9 0.106111 0.675483 0.783791
O O10 0.153968 0.665650 0.697412
O O11 0.998411 0.672155 0.617075
O O12 0.784507 0.187222 0.104930
O O13 0.826951 0.347095 0.059041
O O14 0.280019 0.000000 0.950856
O O15 0.362128 0.823866 0.442862
O O16 0.217415 0.841387 0.287135
O O17 0.322989 0.000000 0.359216
O O18 0.921163 0.500000 0.534171
O O19 0.000000 0.605013 0.500000
O O20 0.143380 0.000000 0.175090
#
# Coordination Sequence:
#
# PCOD8084756 Si02
#       8
#     8   8   8   8   8   8   8   8
#     4   9  17  28  42  60  79 101 131 162 193 232
#     4   9  17  28  40  55  79 108 134 163 193 219
#     4   9  15  24  40  60  82 104 125 154 193 236
#     4  10  19  29  41  56  76 105 138 162 183 224
#     4  10  20  31  41  55  78 105 131 162 195 223
#     4   8  13  21  36  60  84 101 119 150 197 242
#     4   7  11  20  34  55  82 104 119 145 192 240
#     4   9  15  24  41  62  82 103 127 158 196 234
#
# _framework density 14.758756999999999
#
# number of rings (size 3 to 8) (size 9 to 14) (size 15 to 20)
#    0.000    3.125    0.000    3.375    0.000    1.750 
#    0.000    3.750    0.000    0.750    0.000    0.000 
#    0.000   33.000    0.000    0.000    0.000    0.000 
#
# Total GULP energy -396500.565344 kJ/mol
# GULP energy per Si atom -12390.642667 kJ/mol
# Density = 1.472517 g / cm^3
# Si number density = 14.758757 Si / 1000 Ang^3
#
#
#
# Elastic Constant Matrix: (Units=GPa)
#
#
# Indices 1 2 3 4 5 6 
#
# 1 74.1520 25.5982 43.2098 0.0000 10.6467 0.0000
# 2 25.5982 47.7754 26.9740 0.0000 1.9868 0.0000
# 3 43.2098 26.9740 115.4430 0.0000 15.7429 0.0000
# 4 0.0000 0.0000 0.0000 14.7328 0.0000 -0.9650
# 5 10.6467 1.9868 15.7429 0.0000 21.4525 0.0000
# 6 0.0000 0.0000 0.0000 -0.9650 0.0000 15.3305
#
#
#
# Elastic Compliance Matrix: (Units=1/GPa)
#
#
# Indices 1 2 3 4 5 6 
#
# 1 0.019733 -0.007601 -0.004856 0.000000 -0.005526 0.000000
# 2 -0.007601 0.027127 -0.004073 0.000000 0.004249 0.000000
# 3 -0.004856 -0.004073 0.012280 0.000000 -0.006225 0.000000
# 4 0.000000 0.000000 0.000000 0.068157 0.000000 0.004290
# 5 -0.005526 0.004249 -0.006225 0.000000 0.053531 0.000000
# 6 0.000000 0.000000 0.000000 0.004290 0.000000 0.065499
#
#
# Mechanical properties :
#
#
# Convention : Reuss Voigt Hill
#
# Bulk Modulus (GPa) = 38.34406 47.65937 43.00171
# Shear Modulus (GPa) = 17.35617 19.74238 18.54927
#
# Velocity S-wave (km/s) = 3.43299 3.66139 3.54903
# Velocity P-wave (km/s) = 6.46149 7.08779 6.78187
#
# Compressibility (1/GPa) = 0.02607966
#
# Stress axis : x y z
#
# Youngs Moduli (GPa) = 50.67606 36.86391 81.43013
#
# Poissons Ratio (x) = 0.28022 0.39546
# Poissons Ratio (y) = 0.38521 0.33163
# Poissons Ratio (z) = 0.24610 0.15013
#
# Static dielectric constant tensor:
#      x y z
#    x 2.896800 0.000000 0.226360 
#    y 0.000000 2.488840 0.000000 
#    z 0.226360 0.000000 3.064210 
# 
# 
# High freq. dielectric constant tensor:
#      x y z
#    x 1.556290 0.000000 0.017340 
#    y 0.000000 1.522830 0.000000 
#    z 0.017340 0.000000 1.566850 
# 
# From -- ./inp_files/327506.got.cif
#   From: 2010.06.25/outbox.cif.g09.slc.cpg/sg12_164_cif.got.tgz:327506.got - 2010.06.28 00:19:55.
