data_PCOD8084824
_publ_section_title
;
Structure prediction by ZEFSAII (Michael W. Deem and Ramdas Pophale) SiO2 
 PCOD8084824
Probable space group: C 2/M
;
_chemical_formula_sum "Si O2"
_cell_formula_units_Z 56
_cell_length_a 22.603278
_cell_length_b 9.175879
_cell_length_c 18.671038
_cell_angle_alpha 90.000000
_cell_angle_beta 119.772515
_cell_angle_gamma 90.000000
_cell_volume 3361.314668
_symmetry_space_group_name_H-M "C 2/M"
_symmetry_group_IT_number 12
_symmetry_cell_setting 'monoclinic'
loop_
_space_group_symop_operation_xyz
x,y,z
-x,y,-z
-x,-y,-z
x,-y,z
1/2+x,1/2+y,z
1/2-x,1/2+y,-z
1/2-x,1/2-y,-z
1/2+x,1/2-y,z
loop_
_atom_site_type_symbol
_atom_site_label
_atom_site_fract_x
_atom_site_fract_y
_atom_site_fract_z
Si Si1 0.017800 0.673585 0.122675
Si Si2 0.640064 0.832275 0.764218
Si Si3 0.749566 0.174308 0.076069
Si Si4 0.945490 0.837119 0.567670
Si Si5 0.985645 0.333537 0.721072
Si Si6 0.600016 0.664756 0.609461
Si Si7 0.105091 0.672494 0.045694
O O1 0.013643 0.500000 0.125312
O O2 0.026930 0.737805 0.208121
O O3 0.080823 0.724272 0.110219
O O4 0.947218 0.733191 0.045849
O O5 0.687087 0.731464 0.840940
O O6 0.564582 0.815192 0.749502
O O7 0.644385 0.773641 0.685056
O O8 0.664201 0.000000 0.780558
O O9 0.681140 0.226667 0.075669
O O10 0.753290 0.000000 0.069781
O O11 0.750000 0.250000 0.000000
O O12 0.936153 0.741411 0.633221
O O13 0.899235 0.780670 0.473039
O O14 0.023331 0.834189 0.590838
O O15 0.922836 0.000000 0.573493
O O16 0.963322 0.500000 0.707558
O O17 0.629238 0.500000 0.632583
O O18 0.101846 0.500000 0.040896
#
# Coordination Sequence:
#
# PCOD8084824 Si02
#       7
#     8   8   8   8   8   8   8
#     4   8  13  25  44  64  84 107 138 180 217 247
#     4  10  19  29  42  64  91 118 145 174 210 254
#     4  11  21  32  46  65  88 115 145 176 210 252
#     4   8  14  24  39  59  86 116 144 173 211 256
#     4   9  16  25  41  65  90 113 142 177 214 254
#     4   8  14  26  41  58  83 117 149 175 206 251
#     4   8  15  27  44  63  83 109 143 178 213 249
#
# _framework density 16.660148
#
# number of rings (size 3 to 8) (size 9 to 14) (size 15 to 20)
#    0.000    3.143    0.000    3.429    0.000    3.429 
#    0.000    2.857    0.000    1.714    0.000    7.000 
#    0.000    0.000    0.000    0.000    0.000    0.000 
#
# Total GULP energy -346960.838531 kJ/mol
# GULP energy per Si atom -12391.458519 kJ/mol
# Density = 1.662223 g / cm^3
# Si number density = 16.660148 Si / 1000 Ang^3
#
#
#
# Elastic Constant Matrix: (Units=GPa)
#
#
# Indices 1 2 3 4 5 6 
#
# 1 45.6911 25.7016 37.1520 0.0000 -14.5993 0.0000
# 2 25.7016 61.0424 52.5676 0.0000 -6.8946 0.0000
# 3 37.1520 52.5676 151.2649 0.0000 -30.1853 0.0000
# 4 0.0000 0.0000 0.0000 31.9027 0.0000 -1.5967
# 5 -14.5993 -6.8946 -30.1853 0.0000 24.9834 0.0000
# 6 0.0000 0.0000 0.0000 -1.5967 0.0000 10.6921
#
#
#
# Elastic Compliance Matrix: (Units=1/GPa)
#
#
# Indices 1 2 3 4 5 6 
#
# 1 0.034383 -0.011561 -0.001389 0.000000 0.015223 0.000000
# 2 -0.011561 0.027645 -0.008688 0.000000 -0.009624 0.000000
# 3 -0.001389 -0.008688 0.012295 0.000000 0.011646 0.000000
# 4 0.000000 0.000000 0.000000 0.031581 0.000000 0.004716
# 5 0.015223 -0.009624 0.011646 0.000000 0.060337 0.000000
# 6 0.000000 0.000000 0.000000 0.004716 0.000000 0.094231
#
#
# Mechanical properties :
#
#
# Convention : Reuss Voigt Hill
#
# Bulk Modulus (GPa) = 32.20989 54.31566 43.26278
# Shear Modulus (GPa) = 15.91861 23.02080 19.46971
#
# Velocity S-wave (km/s) = 3.09445 3.72127 3.42225
# Velocity P-wave (km/s) = 5.66948 7.15100 6.45290
#
# Compressibility (1/GPa) = 0.03104636
#
# Stress axis : x y z
#
# Youngs Moduli (GPa) = 29.08425 36.17347 81.33116
#
# Poissons Ratio (x) = 0.41820 0.11299
# Poissons Ratio (y) = 0.33624 0.70661
# Poissons Ratio (z) = 0.04041 0.31428
#
# Static dielectric constant tensor:
#      x y z
#    x 2.999380 0.000000 -0.228080 
#    y 0.000000 2.993420 0.000000 
#    z -0.228080 0.000000 3.565180 
# 
# 
# High freq. dielectric constant tensor:
#      x y z
#    x 1.597980 0.000000 -0.017710 
#    y 0.000000 1.616760 0.000000 
#    z -0.017710 0.000000 1.655260 
# 
# From -- ./inp_files/287846.got.cif
#   From: 2010.06.25/outbox.cif.g09.slc.cpg/sg12_144_cif.got.tgz:287846.got - 2010.06.28 00:19:55.
