data_PCOD8084755
_publ_section_title
;
Structure prediction by ZEFSAII (Michael W. Deem and Ramdas Pophale) SiO2 
 PCOD8084755
Probable space group: C 2/M
;
_chemical_formula_sum "Si O2"
_cell_formula_units_Z 56
_cell_length_a 24.751923
_cell_length_b 8.863271
_cell_length_c 29.840609
_cell_angle_alpha 90.000000
_cell_angle_beta 151.610367
_cell_angle_gamma 90.000000
_cell_volume 3112.642512
_symmetry_space_group_name_H-M "C 2/M"
_symmetry_group_IT_number 12
_symmetry_cell_setting 'monoclinic'
loop_
_space_group_symop_operation_xyz
x,y,z
-x,y,-z
-x,-y,-z
x,-y,z
1/2+x,1/2+y,z
1/2-x,1/2+y,-z
1/2-x,1/2-y,-z
1/2+x,1/2-y,z
loop_
_atom_site_type_symbol
_atom_site_label
_atom_site_fract_x
_atom_site_fract_y
_atom_site_fract_z
Si Si1 0.825676 0.320519 0.158544
Si Si2 0.225177 0.821256 0.347238
Si Si3 0.358797 0.320475 0.808389
Si Si4 0.974665 0.679624 0.531413
Si Si5 0.510722 0.678192 0.789995
Si Si6 0.405528 0.678984 0.052272
Si Si7 0.826880 0.679885 0.260394
O O1 0.824845 0.500000 0.157375
O O2 0.936032 0.262549 0.213282
O O3 0.831133 0.257318 0.213097
O O4 0.712178 0.253547 0.052277
O O5 0.204581 0.758211 0.282132
O O6 0.348392 0.765056 0.454388
O O7 0.121904 0.770934 0.304356
O O8 0.223914 0.000000 0.343283
O O9 0.357178 0.500000 0.806372
O O10 0.489981 0.264150 0.903049
O O11 0.290360 0.262296 0.802029
O O12 0.982078 0.500000 0.536300
O O13 0.000000 0.741266 0.500000
O O14 0.065668 0.744348 0.633282
O O15 0.522762 0.500000 0.792149
O O16 0.574511 0.731198 0.881990
O O17 0.401286 0.500000 0.047526
O O18 0.830161 0.500000 0.262522
#
# Coordination Sequence:
#
# PCOD8084755 Si02
#       7
#     8   8   8   8   8   8   8
#     4  10  19  29  40  61  91 116 136 168 211 249
#     4   8  13  22  39  61  81 103 138 179 208 235
#     4   8  12  21  36  58  84 107 133 169 211 252
#     4   9  13  20  37  60  86 111 132 164 212 255
#     4   9  17  30  46  61  79 111 151 178 197 235
#     4   8  15  26  42  61  82 109 142 176 208 242
#     4   9  16  23  35  59  90 114 132 162 213 263
#
# _framework density 17.991143999999998
#
# number of rings (size 3 to 8) (size 9 to 14) (size 15 to 20)
#    0.000    3.286    1.429    2.143    0.000    0.571 
#    0.000    3.571    0.000    0.000    0.000    6.000 
#    0.000    1.143    0.000    0.000    0.000    0.000 
#
# Total GULP energy -346931.464429 kJ/mol
# GULP energy per Si atom -12390.409444 kJ/mol
# Density = 1.795020 g / cm^3
# Si number density = 17.991144 Si / 1000 Ang^3
#
#
#
# Elastic Constant Matrix: (Units=GPa)
#
#
# Indices 1 2 3 4 5 6 
#
# 1 160.7257 11.5581 66.5165 0.0000 17.1931 -0.0001
# 2 11.5581 4.8844 7.0835 -0.0003 0.6288 -0.0001
# 3 66.5165 7.0835 92.4214 0.0000 18.6020 0.0000
# 4 0.0000 -0.0003 0.0000 7.0816 0.0000 4.0027
# 5 17.1931 0.6288 18.6020 0.0000 29.1803 0.0000
# 6 -0.0001 -0.0001 0.0000 4.0027 0.0000 18.6603
#
#
#
# Elastic Compliance Matrix: (Units=1/GPa)
#
#
# Indices 1 2 3 4 5 6 
#
# 1 0.009779 -0.014906 -0.005507 -0.000001 -0.001930 0.000000
# 2 -0.014906 0.254388 -0.010822 0.000011 0.010199 -0.000001
# 3 -0.005507 -0.010822 0.017108 -0.000001 -0.007428 0.000000
# 4 -0.000001 0.000011 -0.000001 0.160695 0.000001 -0.034469
# 5 -0.001930 0.010199 -0.007428 0.000001 0.039922 0.000000
# 6 0.000000 -0.000001 0.000000 -0.034469 0.000000 0.060984
#
#
# Mechanical properties :
#
#
# Convention : Reuss Voigt Hill
#
# Bulk Modulus (GPa) = 4.57028 47.59421 26.08224
# Shear Modulus (GPa) = 7.37156 22.50932 14.94044
#
# Velocity S-wave (km/s) = 2.02638 3.54097 2.88485
# Velocity P-wave (km/s) = 2.83210 6.57493 5.06214
#
# Compressibility (1/GPa) = 0.21880492
#
# Stress axis : x y z
#
# Youngs Moduli (GPa) = 102.25572 3.93100 58.45119
#
# Poissons Ratio (x) = 0.05859 0.32192
# Poissons Ratio (y) = 1.52421 0.63257
# Poissons Ratio (z) = 0.56317 0.04254
#
# Static dielectric constant tensor:
#      x y z
#    x 3.469190 0.000000 0.207900 
#    y 0.000000 2.525710 0.000000 
#    z 0.207900 0.000000 3.754940 
# 
# 
# High freq. dielectric constant tensor:
#      x y z
#    x 1.697330 0.000000 0.019330 
#    y 0.000000 1.612610 0.000000 
#    z 0.019330 0.000000 1.701520 
# 
# From -- ./inp_files/365830.got.cif
#   From: 2010.06.25/outbox.cif.g09.slc.cpg/sg12_183_cif.got.tgz:365830.got - 2010.06.28 00:19:55.
