data_PCOD8084534
_publ_section_title
;
Structure prediction by ZEFSAII (Michael W. Deem and Ramdas Pophale) SiO2 
 PCOD8084534
Probable space group: C 2/M
;
_chemical_formula_sum "Si O2"
_cell_formula_units_Z 40
_cell_length_a 9.773821
_cell_length_b 27.462405
_cell_length_c 12.129777
_cell_angle_alpha 90.000000
_cell_angle_beta 146.847486
_cell_angle_gamma 90.000000
_cell_volume 1780.489826
_symmetry_space_group_name_H-M "C 2/M"
_symmetry_group_IT_number 12
_symmetry_cell_setting 'monoclinic'
loop_
_space_group_symop_operation_xyz
x,y,z
-x,y,-z
-x,-y,-z
x,-y,z
1/2+x,1/2+y,z
1/2-x,1/2+y,-z
1/2-x,1/2-y,-z
1/2+x,1/2-y,z
loop_
_atom_site_type_symbol
_atom_site_label
_atom_site_fract_x
_atom_site_fract_y
_atom_site_fract_z
Si Si1 0.493773 0.443375 0.152033
Si Si2 0.779366 0.191209 0.143928
Si Si3 0.055403 0.099322 0.412122
Si Si4 0.113290 0.600967 0.723345
Si Si5 0.731186 0.201796 0.861481
O O1 0.485452 0.500000 0.118794
O O2 0.413045 0.433561 0.224697
O O3 0.776606 0.422338 0.316332
O O4 0.301493 0.415158 0.945917
O O5 0.904028 0.245461 0.238494
O O6 0.971952 0.155338 0.336872
O O7 0.500000 0.184559 0.000000
O O8 0.752356 0.179235 0.997416
O O9 0.340638 0.085670 0.578256
O O10 0.000000 0.083220 0.500000
O O11 0.106283 0.659819 0.703227
O O12 0.000000 0.215253 0.000000
#
# Coordination Sequence:
#
# PCOD8084534 Si02
#       5
#     8   8   8   8   8
#     4  11  25  46  71  96 128 170 225 288 338 380
#     4  10  21  38  61  92 135 177 211 259 321 390
#     4  12  26  40  65  99 136 178 216 266 331 404
#     4  11  21  42  71  98 128 169 221 280 333 386
#     4  10  18  36  66  93 125 172 221 261 317 390
#
# _framework density 22.465727999999999
#
# number of rings (size 3 to 8) (size 9 to 14) (size 15 to 20)
#    0.000    1.200    4.000    3.000    0.000    3.600 
#    0.000    3.000    0.000    0.000    0.000    0.000 
#    0.000    0.000    0.000    0.000    0.000    0.000 
#
# Total GULP energy -247803.512271 kJ/mol
# GULP energy per Si atom -12390.175614 kJ/mol
# Density = 2.241460 g / cm^3
# Si number density = 22.465728 Si / 1000 Ang^3
#
#
#
# Elastic Constant Matrix: (Units=GPa)
#
#
# Indices 1 2 3 4 5 6 
#
# 1 161.2519 26.9342 45.9634 0.0000 -22.7758 0.0000
# 2 26.9342 113.4536 5.9103 0.0000 -3.9006 0.0000
# 3 45.9634 5.9103 44.6996 0.0000 1.7912 0.0000
# 4 0.0000 0.0000 0.0000 12.0198 0.0000 2.9677
# 5 -22.7758 -3.9006 1.7912 0.0000 32.6842 0.0000
# 6 0.0000 0.0000 0.0000 2.9677 0.0000 27.3274
#
#
#
# Elastic Compliance Matrix: (Units=1/GPa)
#
#
# Indices 1 2 3 4 5 6 
#
# 1 0.010799 -0.001708 -0.011196 0.000000 0.007935 0.000000
# 2 -0.001708 0.009187 0.000546 0.000000 -0.000123 0.000000
# 3 -0.011196 0.000546 0.034197 0.000000 -0.009611 0.000000
# 4 0.000000 0.000000 0.000000 0.085488 0.000000 -0.009284
# 5 0.007935 -0.000123 -0.009611 0.000000 0.036637 0.000000
# 6 0.000000 0.000000 0.000000 -0.009284 0.000000 0.037601
#
#
# Mechanical properties :
#
#
# Convention : Reuss Voigt Hill
#
# Bulk Modulus (GPa) = 33.93577 53.00231 43.46904
# Shear Modulus (GPa) = 20.12490 30.44610 25.28550
#
# Velocity S-wave (km/s) = 2.99625 3.68533 3.35851
# Velocity P-wave (km/s) = 5.20657 6.46163 5.86775
#
# Compressibility (1/GPa) = 0.02946743
#
# Stress axis : x y z
#
# Youngs Moduli (GPa) = 92.60217 108.85100 29.24200
#
# Poissons Ratio (x) = 0.18588 0.32740
# Poissons Ratio (y) = 0.15813 -0.01597
# Poissons Ratio (z) = 1.03681 -0.05945
#
# Static dielectric constant tensor:
#      x y z
#    x 4.275210 0.000000 -0.114270 
#    y 0.000000 4.074420 0.000000 
#    z -0.114270 0.000000 3.792560 
# 
# 
# High freq. dielectric constant tensor:
#      x y z
#    x 1.898160 0.000000 -0.009610 
#    y 0.000000 1.886030 0.000000 
#    z -0.009610 0.000000 1.864910 
# 
# From -- ./inp_files/125468.got.cif
#   From: 2010.06.25/outbox.cif.g09.slc.cpg/sg12_63_cif.got.tgz:125468.got - 2010.06.28 00:19:55.
