data_PCOD8084441
_publ_section_title
;
Structure prediction by ZEFSAII (Michael W. Deem and Ramdas Pophale) SiO2 
 PCOD8084441
Probable space group: C 2/M
;
_chemical_formula_sum "Si O2"
_cell_formula_units_Z 60
_cell_length_a 17.898352
_cell_length_b 13.460207
_cell_length_c 14.349782
_cell_angle_alpha 90.000000
_cell_angle_beta 114.386173
_cell_angle_gamma 90.000000
_cell_volume 3148.655592
_symmetry_space_group_name_H-M "C 2/M"
_symmetry_group_IT_number 12
_symmetry_cell_setting 'monoclinic'
loop_
_space_group_symop_operation_xyz
x,y,z
-x,y,-z
-x,-y,-z
x,-y,z
1/2+x,1/2+y,z
1/2-x,1/2+y,-z
1/2-x,1/2-y,-z
1/2+x,1/2-y,z
loop_
_atom_site_type_symbol
_atom_site_label
_atom_site_fract_x
_atom_site_fract_y
_atom_site_fract_z
Si Si1 0.837072 0.290272 0.710166
Si Si2 0.996820 0.613384 0.825503
Si Si3 0.325521 0.730178 0.908684
Si Si4 0.399398 0.614986 0.249913
Si Si5 0.828628 0.884736 0.412119
Si Si6 0.500000 0.739836 0.000000
Si Si7 0.909181 0.886478 0.644941
Si Si8 0.660066 0.199357 0.884445
O O1 0.818502 0.294541 0.811124
O O2 0.756863 0.328038 0.615805
O O3 0.855451 0.177961 0.688504
O O4 0.915330 0.360199 0.723861
O O5 0.992707 0.500000 0.856641
O O6 0.998231 0.689165 0.910885
O O7 0.082323 0.631987 0.812963
O O8 0.244664 0.660300 0.878191
O O9 0.415584 0.674279 0.956105
O O10 0.326050 0.806019 0.996931
O O11 0.376762 0.500000 0.217802
O O12 0.374051 0.647035 0.340971
O O13 0.495758 0.633492 0.287789
O O14 0.353181 0.685434 0.152673
O O15 0.888869 0.857736 0.527971
O O16 0.807279 0.000000 0.398564
O O17 0.885612 0.000000 0.653149
#
# Coordination Sequence:
#
# PCOD8084441 Si02
#       8
#     8   8   8   8   8   4   8   8
#     4  11  19  34  54  80 109 142 171 217 268 316
#     4  10  19  31  51  76 104 137 173 212 261 314
#     4   9  19  32  55  76 107 142 177 212 256 316
#     4  10  19  35  57  79 103 136 180 227 269 310
#     4  10  20  34  56  83 106 132 179 231 271 310
#     4   8  17  32  50  78 101 130 169 222 268 298
#     4  10  21  36  54  79 108 141 177 219 270 320
#     4  10  18  36  51  77 108 140 175 218 259 309
#
# _framework density 19.055751000000001
#
# number of rings (size 3 to 8) (size 9 to 14) (size 15 to 20)
#    0.000    2.133    2.667    1.400    0.000    1.600 
#    0.000    8.000    0.000    1.600    0.000    0.933 
#    0.000    0.000    0.000    0.000    0.000    0.000 
#
# Total GULP energy -371712.443525 kJ/mol
# GULP energy per Si atom -12390.414784 kJ/mol
# Density = 1.901238 g / cm^3
# Si number density = 19.055751 Si / 1000 Ang^3
#
#
#
# Elastic Constant Matrix: (Units=GPa)
#
#
# Indices 1 2 3 4 5 6 
#
# 1 123.7442 25.8500 15.7091 0.0000 9.0246 0.0000
# 2 25.8500 59.3792 29.9543 0.0000 -6.6011 0.0000
# 3 15.7091 29.9543 63.3685 0.0000 0.5802 0.0000
# 4 0.0000 0.0000 0.0000 -21.7443 0.0000 24.3408
# 5 9.0246 -6.6011 0.5802 0.0000 24.1622 0.0000
# 6 0.0000 0.0000 0.0000 24.3408 0.0000 10.2265
#
#
#
# Elastic Compliance Matrix: (Units=1/GPa)
#
#
# Indices 1 2 3 4 5 6 
#
# 1 0.009395 -0.004550 -0.000135 0.000000 -0.004749 0.000000
# 2 -0.004550 0.025318 -0.010921 0.000000 0.008878 0.000000
# 3 -0.000135 -0.010921 0.021008 0.000000 -0.003438 0.000000
# 4 0.000000 0.000000 0.000000 -0.012550 0.000000 0.029872
# 5 -0.004749 0.008878 -0.003438 0.000000 0.045669 0.000000
# 6 0.000000 0.000000 0.000000 0.029872 0.000000 0.026685
#
#
# Mechanical properties :
#
#
# Convention : Reuss Voigt Hill
#
# Bulk Modulus (GPa) = 40.80092 43.27986 42.04039
# Shear Modulus (GPa) = 32.27756 14.19414 23.23585
#
# Velocity S-wave (km/s) = 4.12010 2.73220 3.49572
# Velocity P-wave (km/s) = 6.64014 5.71968 6.19703
#
# Compressibility (1/GPa) = 0.02450925
#
# Stress axis : x y z
#
# Youngs Moduli (GPa) = 106.43831 39.49762 47.60084
#
# Poissons Ratio (x) = 0.17971 0.00642
# Poissons Ratio (y) = 0.48429 0.51986
# Poissons Ratio (z) = 0.01435 0.43136
#
# Static dielectric constant tensor:
#      x y z
#    x 4.207420 0.000000 0.257100 
#    y 0.000000 3.050230 0.000000 
#    z 0.257100 0.000000 3.492380 
# 
# 
# High freq. dielectric constant tensor:
#      x y z
#    x 1.767440 0.000000 0.017880 
#    y 0.000000 1.689320 0.000000 
#    z 0.017880 0.000000 1.734270 
# 
# From -- ./inp_files/224857.got.cif
#   From: 2010.06.25/outbox.cif.g09.slc.cpg/sg12_113_cif.got.tgz:224857.got - 2010.06.28 00:19:55.
