data_PCOD8084217
_publ_section_title
;
Structure prediction by ZEFSAII (Michael W. Deem and Ramdas Pophale) SiO2 
 PCOD8084217
Probable space group: C 2/M
;
_chemical_formula_sum "Si O2"
_cell_formula_units_Z 48
_cell_length_a 16.120793
_cell_length_b 17.990761
_cell_length_c 10.008155
_cell_angle_alpha 90.000000
_cell_angle_beta 113.477361
_cell_angle_gamma 90.000000
_cell_volume 2662.332651
_symmetry_space_group_name_H-M "C 2/M"
_symmetry_group_IT_number 12
_symmetry_cell_setting 'monoclinic'
loop_
_space_group_symop_operation_xyz
x,y,z
-x,y,-z
-x,-y,-z
x,-y,z
1/2+x,1/2+y,z
1/2-x,1/2+y,-z
1/2-x,1/2-y,-z
1/2+x,1/2-y,z
loop_
_atom_site_type_symbol
_atom_site_label
_atom_site_fract_x
_atom_site_fract_y
_atom_site_fract_z
Si Si1 0.758804 0.841320 0.674606
Si Si2 0.568817 0.147990 0.667948
Si Si3 0.327291 0.802301 0.642410
Si Si4 0.987956 0.795292 0.640816
Si Si5 0.463630 0.915493 0.834429
Si Si6 0.551765 0.413774 0.170617
O O1 0.671246 0.872240 0.695189
O O2 0.742086 0.843129 0.503013
O O3 0.779163 0.753637 0.717384
O O4 0.842286 0.893111 0.771608
O O5 0.500000 0.135872 0.500000
O O6 0.566144 0.233782 0.715891
O O7 0.539787 0.094324 0.769804
O O8 0.394697 0.750998 0.596429
O O9 0.376281 0.865708 0.755422
O O10 0.000000 0.828468 0.500000
O O11 0.996500 0.863381 0.748413
O O12 0.431023 0.000000 0.816179
O O13 0.500000 0.889736 0.000000
O O14 0.542536 0.500000 0.204527
O O15 0.500000 0.396992 0.000000
#
# Coordination Sequence:
#
# PCOD8084217 Si02
#       6
#     8   8   8   8   8   8
#     4  10  18  34  61  83 103 141 182 232 270 313
#     4  10  18  35  59  86 108 135 181 231 272 324
#     4   9  18  33  56  84 112 135 180 225 273 322
#     4   9  16  33  59  81 108 132 172 227 274 317
#     4  10  21  36  53  79 120 152 172 215 279 334
#     4  10  23  39  53  75 111 150 185 220 263 317
#
# _framework density 18.029304
#
# number of rings (size 3 to 8) (size 9 to 14) (size 15 to 20)
#    0.000    2.333    5.000    0.000    0.000    8.000 
#    0.000    3.333    0.000    2.000    0.000    0.000 
#    0.000    0.000    0.000    0.000    0.000    0.000 
#
# Total GULP energy -297416.023386 kJ/mol
# GULP energy per Si atom -12392.334308 kJ/mol
# Density = 1.798827 g / cm^3
# Si number density = 18.029304 Si / 1000 Ang^3
#
#
#
# Elastic Constant Matrix: (Units=GPa)
#
#
# Indices 1 2 3 4 5 6 
#
# 1 60.4867 14.3145 42.1737 0.0000 7.0673 0.0000
# 2 14.3145 79.6526 67.3292 0.0000 10.6440 0.0000
# 3 42.1737 67.3292 120.1223 0.0000 5.5843 0.0000
# 4 0.0000 0.0000 0.0000 30.4656 0.0000 6.6897
# 5 7.0673 10.6440 5.5843 0.0000 25.1292 0.0000
# 6 0.0000 0.0000 0.0000 6.6897 0.0000 11.8367
#
#
#
# Elastic Compliance Matrix: (Units=1/GPa)
#
#
# Indices 1 2 3 4 5 6 
#
# 1 0.024008 0.006581 -0.011796 0.000000 -0.006918 0.000000
# 2 0.006581 0.027028 -0.017018 0.000000 -0.009518 0.000000
# 3 -0.011796 -0.017018 0.021740 0.000000 0.005695 0.000000
# 4 0.000000 0.000000 0.000000 0.037475 0.000000 -0.021179
# 5 -0.006918 -0.009518 0.005695 0.000000 0.044506 0.000000
# 6 0.000000 0.000000 0.000000 -0.021179 0.000000 0.096453
#
#
# Mechanical properties :
#
#
# Convention : Reuss Voigt Hill
#
# Bulk Modulus (GPa) = 35.32175 56.43294 45.87735
# Shear Modulus (GPa) = 16.38738 22.58257 19.48498
#
# Velocity S-wave (km/s) = 3.01812 3.54297 3.29103
# Velocity P-wave (km/s) = 5.63731 6.93581 6.32000
#
# Compressibility (1/GPa) = 0.02831117
#
# Stress axis : x y z
#
# Youngs Moduli (GPa) = 41.65257 36.99803 45.99795
#
# Poissons Ratio (x) = -0.24348 0.54259
# Poissons Ratio (y) = -0.27411 0.78278
# Poissons Ratio (z) = 0.49134 0.62962
#
# Static dielectric constant tensor:
#      x y z
#    x 3.478950 0.000000 -0.013480 
#    y 0.000000 3.291710 0.000000 
#    z -0.013480 0.000000 3.214300 
# 
# 
# High freq. dielectric constant tensor:
#      x y z
#    x 1.691890 0.000000 0.003510 
#    y 0.000000 1.691150 0.000000 
#    z 0.003510 0.000000 1.685570 
# 
# From -- ./inp_files/77033.got.cif
#   From: 2010.06.25/outbox.cif.g09.slc.cpg/sg12_39_cif.got.tgz:77033.got - 2010.06.28 00:19:55.
