data_PCOD8084566
_publ_section_title
;
Structure prediction by ZEFSAII (Michael W. Deem and Ramdas Pophale) SiO2 
 PCOD8084566
Probable space group: C 2/M
;
_chemical_formula_sum "Si O2"
_cell_formula_units_Z 48
_cell_length_a 14.130893
_cell_length_b 20.057294
_cell_length_c 8.663743
_cell_angle_alpha 90.000000
_cell_angle_beta 70.653668
_cell_angle_gamma 90.000000
_cell_volume 2316.886588
_symmetry_space_group_name_H-M "C 2/M"
_symmetry_group_IT_number 12
_symmetry_cell_setting 'monoclinic'
loop_
_space_group_symop_operation_xyz
x,y,z
-x,y,-z
-x,-y,-z
x,-y,z
1/2+x,1/2+y,z
1/2-x,1/2+y,-z
1/2-x,1/2-y,-z
1/2+x,1/2-y,z
loop_
_atom_site_type_symbol
_atom_site_label
_atom_site_fract_x
_atom_site_fract_y
_atom_site_fract_z
Si Si1 0.592083 0.224505 0.844188
Si Si2 0.112199 0.925782 0.459368
Si Si3 0.755054 0.073940 0.328612
Si Si4 0.157642 0.706972 0.484938
Si Si5 0.106305 0.137332 0.957461
Si Si6 0.814645 0.188906 0.769848
O O1 0.579941 0.201232 0.670790
O O2 0.595003 0.304555 0.835632
O O3 0.697538 0.202717 0.865595
O O4 0.500000 0.197272 0.000000
O O5 0.146114 0.926620 0.617986
O O6 0.188028 0.878322 0.328769
O O7 0.000000 0.897555 0.500000
O O8 0.118209 0.000000 0.383670
O O9 0.677580 0.130773 0.422794
O O10 0.799802 0.089867 0.134286
O O11 0.703931 0.000000 0.356064
O O12 0.250000 0.750000 0.500000
O O13 0.126478 0.750231 0.350722
O O14 0.123819 0.174918 0.109046
O O15 0.000000 0.097753 0.000000
#
# Coordination Sequence:
#
# PCOD8084566 Si02
#       6
#     8   8   8   8   8   8
#     4  10  20  36  58  88 121 150 202 263 301 350
#     4  10  20  34  55  86 121 158 201 242 301 377
#     4  11  21  36  57  83 122 166 198 245 308 364
#     4  10  18  37  61  82 113 157 207 256 296 358
#     4  11  22  35  55  89 127 155 197 250 307 373
#     4  11  20  36  63  82 125 163 201 248 305 359
#
# _framework density 20.717459999999999
#
# number of rings (size 3 to 8) (size 9 to 14) (size 15 to 20)
#    0.000    1.500    6.667    1.500    0.000    2.333 
#    0.000    0.000    0.000    2.000    0.000    1.167 
#    0.000    0.667    0.000    0.000    0.000    0.000 
#
# Total GULP energy -297347.079231 kJ/mol
# GULP energy per Si atom -12389.461635 kJ/mol
# Density = 2.067031 g / cm^3
# Si number density = 20.717460 Si / 1000 Ang^3
#
#
#
# Elastic Constant Matrix: (Units=GPa)
#
#
# Indices 1 2 3 4 5 6 
#
# 1 52.0361 11.9846 27.5381 0.0000 -6.4744 0.0000
# 2 11.9846 130.8268 52.6737 0.0000 -5.6500 0.0000
# 3 27.5381 52.6737 140.5615 0.0000 -11.4379 0.0000
# 4 0.0000 0.0000 0.0000 24.1866 0.0000 -3.6670
# 5 -6.4744 -5.6500 -11.4379 0.0000 33.1672 0.0000
# 6 0.0000 0.0000 0.0000 -3.6670 0.0000 17.9203
#
#
#
# Elastic Compliance Matrix: (Units=1/GPa)
#
#
# Indices 1 2 3 4 5 6 
#
# 1 0.021708 -0.000291 -0.003913 0.000000 0.002839 0.000000
# 2 -0.000291 0.009010 -0.003292 0.000000 0.000343 0.000000
# 3 -0.003913 -0.003292 0.009267 0.000000 0.001871 0.000000
# 4 0.000000 0.000000 0.000000 0.042669 0.000000 0.008731
# 5 0.002839 0.000343 0.001871 0.000000 0.031408 0.000000
# 6 0.000000 0.000000 0.000000 0.008731 0.000000 0.057589
#
#
# Mechanical properties :
#
#
# Convention : Reuss Voigt Hill
#
# Bulk Modulus (GPa) = 40.00830 56.42412 48.21621
# Shear Modulus (GPa) = 25.64439 30.47002 28.05720
#
# Velocity S-wave (km/s) = 3.52208 3.83918 3.68404
# Velocity P-wave (km/s) = 5.99111 6.85176 6.43584
#
# Compressibility (1/GPa) = 0.02499481
#
# Stress axis : x y z
#
# Youngs Moduli (GPa) = 46.06516 110.98242 107.91268
#
# Poissons Ratio (x) = 0.03224 0.42228
# Poissons Ratio (y) = 0.01338 0.35522
# Poissons Ratio (z) = 0.18026 0.36532
#
# Static dielectric constant tensor:
#      x y z
#    x 3.534420 0.000000 -0.000110 
#    y 0.000000 3.806310 0.000000 
#    z -0.000110 0.000000 4.236530 
# 
# 
# High freq. dielectric constant tensor:
#      x y z
#    x 1.776910 0.000000 0.005200 
#    y 0.000000 1.796500 0.000000 
#    z 0.005200 0.000000 1.818980 
# 
# From -- ./inp_files/63350.got.cif
#   From: 2010.06.25/outbox.cif.g09.slc.cpg/sg12_32_cif.got.tgz:63350.got - 2010.06.28 00:19:55.
