data_PCOD8084782
_publ_section_title
;
Structure prediction by ZEFSAII (Michael W. Deem and Ramdas Pophale) SiO2 
 PCOD8084782
Probable space group: C 2/M
;
_chemical_formula_sum "Si O2"
_cell_formula_units_Z 64
_cell_length_a 26.852421
_cell_length_b 9.241927
_cell_length_c 23.443306
_cell_angle_alpha 90.000000
_cell_angle_beta 45.085738
_cell_angle_gamma 90.000000
_cell_volume 4120.014563
_symmetry_space_group_name_H-M "C 2/M"
_symmetry_group_IT_number 12
_symmetry_cell_setting 'monoclinic'
loop_
_space_group_symop_operation_xyz
x,y,z
-x,y,-z
-x,-y,-z
x,-y,z
1/2+x,1/2+y,z
1/2-x,1/2+y,-z
1/2-x,1/2-y,-z
1/2+x,1/2-y,z
loop_
_atom_site_type_symbol
_atom_site_label
_atom_site_fract_x
_atom_site_fract_y
_atom_site_fract_z
Si Si1 0.135823 0.329338 0.940586
Si Si2 0.903950 0.335055 0.348400
Si Si3 0.844960 0.834293 0.183304
Si Si4 0.995564 0.166152 0.913214
Si Si5 0.304077 0.333897 0.495477
Si Si6 0.967655 0.333586 0.825760
Si Si7 0.686281 0.165855 0.024595
Si Si8 0.302279 0.164737 0.326656
O O1 0.129043 0.500000 0.935936
O O2 0.178080 0.255853 0.854174
O O3 0.058218 0.260730 0.006330
O O4 0.176789 0.293170 0.965915
O O5 0.887174 0.500000 0.378222
O O6 0.880786 0.236944 0.421373
O O7 0.860554 0.292016 0.326616
O O8 0.987157 0.312054 0.268683
O O9 0.806424 0.769810 0.269578
O O10 0.928552 0.821297 0.120135
O O11 0.820825 0.000000 0.196288
O O12 0.000927 0.227563 0.845232
O O13 0.969738 0.000000 0.932847
O O14 0.306691 0.500000 0.474503
O O15 0.250000 0.250000 0.500000
O O16 0.276480 0.319227 0.582821
O O17 0.974223 0.500000 0.842431
O O18 0.885507 0.296795 0.882673
O O19 0.705780 0.000000 0.015432
O O20 0.750000 0.250000 0.000000
O O21 0.315543 0.000000 0.295855
#
# Coordination Sequence:
#
# PCOD8084782 Si02
#       8
#     8   8   8   8   8   8   8   8
#     4  10  21  34  47  62  82 114 149 177 215 267
#     4   9  16  27  43  61  84 115 151 187 217 253
#     4  11  21  29  41  63  89 115 147 187 219 249
#     4  10  19  29  41  62  89 114 145 185 221 249
#     4   9  17  27  39  57  82 115 153 187 219 254
#     4   9  17  30  46  65  88 117 152 180 216 268
#     4   9  19  34  51  68  86 111 142 180 223 267
#     4   9  17  28  41  57  82 121 155 179 214 256
#
# _framework density 15.533925
#
# number of rings (size 3 to 8) (size 9 to 14) (size 15 to 20)
#    0.000    2.500    1.250    3.375    0.000    8.500 
#    0.000    0.000    0.000    0.000    0.000    0.000 
#    0.000    1.000    0.000   11.250    0.000    5.000 
#
# Total GULP energy -396641.529026 kJ/mol
# GULP energy per Si atom -12395.047782 kJ/mol
# Density = 1.549857 g / cm^3
# Si number density = 15.533925 Si / 1000 Ang^3
#
#
#
# Elastic Constant Matrix: (Units=GPa)
#
#
# Indices 1 2 3 4 5 6 
#
# 1 51.5398 35.7543 37.7276 -0.0031 -5.2289 0.0079
# 2 35.7543 102.2386 64.2221 -0.0008 2.1903 0.0020
# 3 37.7276 64.2221 112.6248 0.0007 -2.0556 0.0020
# 4 -0.0031 -0.0008 0.0007 31.6070 -0.0025 0.3303
# 5 -5.2289 2.1903 -2.0556 -0.0025 12.4679 0.0003
# 6 0.0079 0.0020 0.0020 0.3303 0.0003 19.5440
#
#
#
# Elastic Compliance Matrix: (Units=1/GPa)
#
#
# Indices 1 2 3 4 5 6 
#
# 1 0.029811 -0.007126 -0.005688 0.000004 0.012816 -0.000011
# 2 -0.007126 0.017158 -0.007529 -0.000001 -0.007244 0.000002
# 3 -0.005688 -0.007529 0.015104 -0.000001 0.001427 0.000002
# 4 0.000004 -0.000001 -0.000001 0.031644 0.000008 -0.000535
# 5 0.012816 -0.007244 0.001427 0.000008 0.087089 -0.000006
# 6 -0.000011 0.000002 0.000002 -0.000535 -0.000006 0.051176
#
#
# Mechanical properties :
#
#
# Convention : Reuss Voigt Hill
#
# Bulk Modulus (GPa) = 46.76262 60.20122 53.48192
# Shear Modulus (GPa) = 17.87013 21.30372 19.58693
#
# Velocity S-wave (km/s) = 3.39542 3.70730 3.55479
# Velocity P-wave (km/s) = 6.74839 7.56071 7.16607
#
# Compressibility (1/GPa) = 0.02138460
#
# Stress axis : x y z
#
# Youngs Moduli (GPa) = 33.54519 58.28260 66.20851
#
# Poissons Ratio (x) = 0.41535 0.37662
# Poissons Ratio (y) = 0.23906 0.49847
# Poissons Ratio (z) = 0.19082 0.43880
#
# Static dielectric constant tensor:
#      x y z
#    x 2.504590 -0.000010 -0.087410 
#    y -0.000010 3.164730 0.000010 
#    z -0.087410 0.000010 3.385500 
# 
# 
# High freq. dielectric constant tensor:
#      x y z
#    x 1.528480 0.000000 -0.003490 
#    y 0.000000 1.609580 0.000000 
#    z -0.003490 0.000000 1.604070 
# 
# From -- ./inp_files/326790.got.cif
#   From: 2010.06.25/outbox.cif.g09.slc.cpg/sg12_164_cif.got.tgz:326790.got - 2010.06.28 00:19:55.
