data_PCOD8084320
_publ_section_title
;
Structure prediction by ZEFSAII (Michael W. Deem and Ramdas Pophale) SiO2 
 PCOD8084320
Probable space group: C 2/M
;
_chemical_formula_sum "Si O2"
_cell_formula_units_Z 64
_cell_length_a 25.408196
_cell_length_b 18.431169
_cell_length_c 17.406442
_cell_angle_alpha 90.000000
_cell_angle_beta 22.553145
_cell_angle_gamma 90.000000
_cell_volume 3126.422223
_symmetry_space_group_name_H-M "C 2/M"
_symmetry_group_IT_number 12
_symmetry_cell_setting 'monoclinic'
loop_
_space_group_symop_operation_xyz
x,y,z
-x,y,-z
-x,-y,-z
x,-y,z
1/2+x,1/2+y,z
1/2-x,1/2+y,-z
1/2-x,1/2-y,-z
1/2+x,1/2-y,z
loop_
_atom_site_type_symbol
_atom_site_label
_atom_site_fract_x
_atom_site_fract_y
_atom_site_fract_z
Si Si1 0.672100 0.417019 0.016996
Si Si2 0.829937 0.847604 0.819118
Si Si3 0.124393 0.131916 0.612936
Si Si4 0.124989 0.189861 0.455880
Si Si5 0.252431 0.283980 0.168970
Si Si6 0.418847 0.119564 0.184559
Si Si7 0.034408 0.218447 0.869991
Si Si8 0.188617 0.581170 0.874388
O O1 0.725385 0.500000 0.945853
O O2 0.753183 0.369653 0.843298
O O3 0.712874 0.373760 0.038869
O O4 0.508644 0.419179 0.219549
O O5 0.774773 0.767573 0.868744
O O6 0.770473 0.907780 0.842582
O O7 0.994303 0.847343 0.592439
O O8 0.108022 0.196786 0.570652
O O9 0.266631 0.086939 0.406880
O O10 0.130689 0.164736 0.690516
O O11 0.149072 0.266476 0.379313
O O12 0.255288 0.136648 0.266229
O O13 0.403218 0.264695 0.994957
O O14 0.389111 0.205761 0.218093
O O15 0.500000 0.088824 0.000000
O O16 0.525870 0.097490 0.107672
O O17 0.000000 0.183060 0.000000
O O18 0.214246 0.500000 0.811051
#
# Coordination Sequence:
#
# PCOD8084320 Si02
#       8
#     8   8   8   8   8   8   8   8
#     4  10  22  37  58  85 116 155 199 248 295 349
#     4  10  20  36  57  82 115 151 195 247 293 343
#     4  10  21  35  57  87 115 153 195 243 291 349
#     4  10  19  36  56  83 116 147 193 241 292 347
#     4  10  18  35  58  83 116 150 195 245 294 347
#     4  11  19  35  50  76 120 154 188 233 284 357
#     4  10  19  34  60  85 117 144 193 249 295 338
#     4  11  21  32  51  78 116 161 187 227 295 356
#
# _framework density 20.470683000000001
#
# number of rings (size 3 to 8) (size 9 to 14) (size 15 to 20)
#    0.000    1.750    3.750    3.375    0.000    3.750 
#    0.000    0.000    2.750    7.500    0.000    4.375 
#    0.000    0.000    0.000    0.000    0.000    0.000 
#
# Total GULP energy -396437.660496 kJ/mol
# GULP energy per Si atom -12388.676890 kJ/mol
# Density = 2.042409 g / cm^3
# Si number density = 20.470683 Si / 1000 Ang^3
#
#
#
# Elastic Constant Matrix: (Units=GPa)
#
#
# Indices 1 2 3 4 5 6 
#
# 1 78.0794 27.5366 47.0007 -0.0018 5.9853 0.0018
# 2 27.5366 102.9787 28.7699 -0.0006 13.6623 0.0008
# 3 47.0007 28.7699 78.3195 -0.0013 2.0925 0.0016
# 4 -0.0018 -0.0006 -0.0013 13.0264 0.0014 -2.0509
# 5 5.9853 13.6623 2.0925 0.0014 34.8729 -0.0014
# 6 0.0018 0.0008 0.0016 -2.0509 -0.0014 16.2965
#
#
#
# Elastic Compliance Matrix: (Units=1/GPa)
#
#
# Indices 1 2 3 4 5 6 
#
# 1 0.020660 -0.002009 -0.011605 0.000002 -0.002063 -0.000001
# 2 -0.002009 0.011606 -0.002951 0.000000 -0.004025 0.000000
# 3 -0.011605 -0.002951 0.020766 0.000000 0.001902 0.000000
# 4 0.000002 0.000000 0.000000 0.078319 -0.000003 0.009856
# 5 -0.002063 -0.004025 0.001902 -0.000003 0.030492 0.000002
# 6 -0.000001 0.000000 0.000000 0.009856 0.000002 0.062603
#
#
# Mechanical properties :
#
#
# Convention : Reuss Voigt Hill
#
# Bulk Modulus (GPa) = 50.24367 51.77688 51.01028
# Shear Modulus (GPa) = 18.92434 23.24385 21.08409
#
# Velocity S-wave (km/s) = 3.04379 3.37333 3.21279
# Velocity P-wave (km/s) = 6.07868 6.36558 6.22378
#
# Compressibility (1/GPa) = 0.01990300
#
# Stress axis : x y z
#
# Youngs Moduli (GPa) = 48.40275 86.16110 48.15599
#
# Poissons Ratio (x) = 0.17306 0.55887
# Poissons Ratio (y) = 0.09722 0.14208
# Poissons Ratio (z) = 0.56174 0.25422
#
# Static dielectric constant tensor:
#      x y z
#    x 3.976270 0.000000 -0.066930 
#    y 0.000000 3.349140 0.000000 
#    z -0.066930 0.000000 3.779560 
# 
# 
# High freq. dielectric constant tensor:
#      x y z
#    x 1.815010 0.000000 -0.019550 
#    y 0.000000 1.755490 0.000000 
#    z -0.019550 0.000000 1.784960 
# 
# From -- ./inp_files/294129.got.cif
#   From: 2010.06.25/outbox.cif.g09.slc.cpg/sg12_148_cif.got.tgz:294129.got - 2010.06.28 00:19:55.
