data_PCOD8084339
_publ_section_title
;
Structure prediction by ZEFSAII (Michael W. Deem and Ramdas Pophale) SiO2 
 PCOD8084339
Probable space group: C 2/M
;
_chemical_formula_sum "Si O2"
_cell_formula_units_Z 48
_cell_length_a 14.743147
_cell_length_b 8.472573
_cell_length_c 18.853605
_cell_angle_alpha 90.000000
_cell_angle_beta 92.025006
_cell_angle_gamma 90.000000
_cell_volume 2353.578119
_symmetry_space_group_name_H-M "C 2/M"
_symmetry_group_IT_number 12
_symmetry_cell_setting 'monoclinic'
loop_
_space_group_symop_operation_xyz
x,y,z
-x,y,-z
-x,-y,-z
x,-y,z
1/2+x,1/2+y,z
1/2-x,1/2+y,-z
1/2-x,1/2-y,-z
1/2+x,1/2-y,z
loop_
_atom_site_type_symbol
_atom_site_label
_atom_site_fract_x
_atom_site_fract_y
_atom_site_fract_z
Si Si1 0.163464 0.818032 0.652370
Si Si2 0.006797 0.316143 0.101555
Si Si3 0.365536 0.179416 0.646061
Si Si4 0.147283 0.186326 0.998107
Si Si5 0.607120 0.321187 0.500729
Si Si6 0.489963 0.682313 0.252513
O O1 0.266967 0.796465 0.678326
O O2 0.143848 0.741733 0.574644
O O3 0.101477 0.748299 0.713745
O O4 0.134403 0.000000 0.643397
O O5 0.013254 0.500000 0.084795
O O6 0.012201 0.287028 0.185162
O O7 0.910774 0.251753 0.069771
O O8 0.094103 0.233499 0.068263
O O9 0.356943 0.215303 0.562584
O O10 0.431119 0.300705 0.687141
O O11 0.399175 0.000000 0.657483
O O12 0.151992 0.000000 0.992106
O O13 0.250000 0.250000 0.000000
O O14 0.500000 0.317220 0.500000
O O15 0.643118 0.500000 0.491725
O O16 0.481029 0.500000 0.229474
#
# Coordination Sequence:
#
# PCOD8084339 Si02
#       6
#     8   8   8   8   8   8
#     4   9  20  37  57  79 110 151 194 240 296 358
#     4  11  23  41  63  94 129 161 200 252 300 356
#     4  11  22  36  55  84 114 145 192 252 305 351
#     4  11  22  41  68  98 127 164 204 244 293 352
#     4  10  18  35  59  79 105 149 196 239 295 365
#     4  11  22  41  61  81 115 161 200 237 293 364
#
# _framework density 20.394479
#
# number of rings (size 3 to 8) (size 9 to 14) (size 15 to 20)
#    0.000    1.500    1.667    5.500    0.000    1.667 
#    0.000    9.167    0.000    0.000    0.000    0.000 
#    0.000    0.000    0.000    0.000    0.000    0.000 
#
# Total GULP energy -297635.614161 kJ/mol
# GULP energy per Si atom -12401.483923 kJ/mol
# Density = 2.034806 g / cm^3
# Si number density = 20.394479 Si / 1000 Ang^3
#
#
#
# Elastic Constant Matrix: (Units=GPa)
#
#
# Indices 1 2 3 4 5 6 
#
# 1 110.6810 14.7291 20.7921 0.0000 -13.9058 0.0000
# 2 14.7291 62.6481 5.2131 0.0000 1.8554 0.0000
# 3 20.7921 5.2131 98.0777 0.0000 -19.2864 0.0000
# 4 0.0000 0.0000 0.0000 28.6745 0.0000 3.6039
# 5 -13.9058 1.8554 -19.2864 0.0000 16.6000 0.0000
# 6 0.0000 0.0000 0.0000 3.6039 0.0000 27.7758
#
#
#
# Elastic Compliance Matrix: (Units=1/GPa)
#
#
# Indices 1 2 3 4 5 6 
#
# 1 0.010561 -0.002709 -0.000383 0.000000 0.008705 0.000000
# 2 -0.002709 0.016896 -0.001479 0.000000 -0.005877 0.000000
# 3 -0.000383 -0.001479 0.013383 0.000000 0.015393 0.000000
# 4 0.000000 0.000000 0.000000 0.035452 0.000000 -0.004600
# 5 0.008705 -0.005877 0.015393 0.000000 0.086073 0.000000
# 6 0.000000 0.000000 0.000000 -0.004600 0.000000 0.036599
#
#
# Mechanical properties :
#
#
# Convention : Reuss Voigt Hill
#
# Bulk Modulus (GPa) = 31.54870 39.20838 35.37854
# Shear Modulus (GPa) = 22.86512 29.98823 26.42668
#
# Velocity S-wave (km/s) = 3.35198 3.83875 3.60359
# Velocity P-wave (km/s) = 5.52122 6.23817 5.89061
#
# Compressibility (1/GPa) = 0.03169703
#
# Stress axis : x y z
#
# Youngs Moduli (GPa) = 94.68722 59.18486 74.72290
#
# Poissons Ratio (x) = 0.16033 0.02864
# Poissons Ratio (y) = 0.25650 0.11054
# Poissons Ratio (z) = 0.03629 0.08756
#
# Static dielectric constant tensor:
#      x y z
#    x 3.852570 0.000000 -0.124060 
#    y 0.000000 3.577270 0.000000 
#    z -0.124060 0.000000 3.687790 
# 
# 
# High freq. dielectric constant tensor:
#      x y z
#    x 1.804980 0.000000 -0.006000 
#    y 0.000000 1.787530 0.000000 
#    z -0.006000 0.000000 1.795420 
# 
# From -- ./inp_files/267714.got.cif
#   From: 2010.06.25/outbox.cif.g09.slc.cpg/sg12_134_cif.got.tgz:267714.got - 2010.06.28 00:19:55.
