data_PCOD8084902
_publ_section_title
;
Structure prediction by ZEFSAII (Michael W. Deem and Ramdas Pophale) SiO2 
 PCOD8084902
Probable space group: C 2/M
;
_chemical_formula_sum "Si O2"
_cell_formula_units_Z 64
_cell_length_a 30.458938
_cell_length_b 9.387767
_cell_length_c 15.276127
_cell_angle_alpha 90.000000
_cell_angle_beta 122.459569
_cell_angle_gamma 90.000000
_cell_volume 3685.654292
_symmetry_space_group_name_H-M "C 2/M"
_symmetry_group_IT_number 12
_symmetry_cell_setting 'monoclinic'
loop_
_space_group_symop_operation_xyz
x,y,z
-x,y,-z
-x,-y,-z
x,-y,z
1/2+x,1/2+y,z
1/2-x,1/2+y,-z
1/2-x,1/2-y,-z
1/2+x,1/2-y,z
loop_
_atom_site_type_symbol
_atom_site_label
_atom_site_fract_x
_atom_site_fract_y
_atom_site_fract_z
Si Si1 0.626367 0.662395 0.415277
Si Si2 0.173550 0.166220 0.961870
Si Si3 0.189849 0.833927 0.310087
Si Si4 0.959151 0.334335 0.758933
Si Si5 0.262098 0.663157 0.139732
Si Si6 0.075784 0.334992 0.910869
Si Si7 0.602460 0.163871 0.135906
Si Si8 0.787116 0.164415 0.362155
O O1 0.608025 0.500000 0.391498
O O2 0.666450 0.696865 0.380274
O O3 0.574239 0.755432 0.351364
O O4 0.655674 0.697359 0.537590
O O5 0.194939 0.195319 0.887640
O O6 0.117102 0.237111 0.905543
O O7 0.169386 0.000000 0.979231
O O8 0.211643 0.238096 0.073658
O O9 0.153917 0.760211 0.198009
O O10 0.246483 0.764516 0.368191
O O11 0.194051 0.000000 0.293079
O O12 0.952096 0.500000 0.734565
O O13 0.938947 0.292553 0.834035
O O14 0.019227 0.289631 0.814920
O O15 0.242867 0.500000 0.113895
O O16 0.288592 0.698068 0.260660
O O17 0.087837 0.500000 0.903408
O O18 0.075915 0.307110 0.014728
O O19 0.619803 0.000000 0.164415
O O20 0.772166 0.000000 0.364670
#
# Coordination Sequence:
#
# PCOD8084902 Si02
#       8
#     8   8   8   8   8   8   8   8
#     4   9  19  33  47  66  94 125 156 193 232 268
#     4  10  20  33  50  73  98 121 148 187 235 280
#     4  10  19  29  43  69 101 125 150 188 232 274
#     4   9  18  32  49  68  92 124 160 194 226 265
#     4   9  19  35  52  70  94 123 154 188 227 275
#     4  10  19  31  49  71  94 123 158 191 226 273
#     4   9  17  30  47  67  94 127 159 188 221 268
#     4  10  19  32  50  68  89 123 162 192 224 272
#
# _framework density 17.364623000000002
#
# number of rings (size 3 to 8) (size 9 to 14) (size 15 to 20)
#    0.000    2.500    0.000    2.250    0.000    7.500 
#    0.000    0.000    0.000    4.500    0.000    5.250 
#    0.000    0.000    0.000    0.000    0.000    0.000 
#
# Total GULP energy -396877.834326 kJ/mol
# GULP energy per Si atom -12402.432323 kJ/mol
# Density = 1.732510 g / cm^3
# Si number density = 17.364623 Si / 1000 Ang^3
#
#
#
# Elastic Constant Matrix: (Units=GPa)
#
#
# Indices 1 2 3 4 5 6 
#
# 1 87.9005 53.5538 52.8388 0.0000 22.0700 0.0000
# 2 53.5538 82.7367 56.8165 0.0000 16.0601 0.0000
# 3 52.8388 56.8165 124.4631 0.0000 19.2418 0.0000
# 4 0.0000 0.0000 0.0000 25.9556 0.0000 5.9059
# 5 22.0700 16.0601 19.2418 0.0000 23.9482 0.0000
# 6 0.0000 0.0000 0.0000 5.9059 0.0000 29.9672
#
#
#
# Elastic Compliance Matrix: (Units=1/GPa)
#
#
# Indices 1 2 3 4 5 6 
#
# 1 0.022175 -0.010055 -0.003091 0.000000 -0.011209 0.000000
# 2 -0.010055 0.022984 -0.006021 0.000000 -0.001309 0.000000
# 3 -0.003091 -0.006021 0.012595 0.000000 -0.003234 0.000000
# 4 0.000000 0.000000 0.000000 0.040336 0.000000 -0.007949
# 5 -0.011209 -0.001309 -0.003234 0.000000 0.055563 0.000000
# 6 0.000000 0.000000 0.000000 -0.007949 0.000000 0.034936
#
#
# Mechanical properties :
#
#
# Convention : Reuss Voigt Hill
#
# Bulk Modulus (GPa) = 51.49287 69.05762 60.27525
# Shear Modulus (GPa) = 21.42277 24.76693 23.09485
#
# Velocity S-wave (km/s) = 3.51622 3.78072 3.65087
# Velocity P-wave (km/s) = 6.79730 7.67554 7.24973
#
# Compressibility (1/GPa) = 0.01942016
#
# Stress axis : x y z
#
# Youngs Moduli (GPa) = 45.09575 43.50933 79.39565
#
# Poissons Ratio (x) = 0.43748 0.24542
# Poissons Ratio (y) = 0.45343 0.47802
# Poissons Ratio (z) = 0.13940 0.26196
#
# Static dielectric constant tensor:
#      x y z
#    x 3.108120 0.000000 0.071350 
#    y 0.000000 3.263570 0.000000 
#    z 0.071350 0.000000 3.262970 
# 
# 
# High freq. dielectric constant tensor:
#      x y z
#    x 1.650950 0.000000 0.008350 
#    y 0.000000 1.672020 0.000000 
#    z 0.008350 0.000000 1.665260 
# 
# From -- ./inp_files/249030.got.cif
#   From: 2010.06.25/outbox.cif.g09.slc.cpg/sg12_125_cif.got.tgz:249030.got - 2010.06.28 00:19:55.
