data_PCOD8084122
_publ_section_title
;
Structure prediction by ZEFSAII (Michael W. Deem and Ramdas Pophale) SiO2 
 PCOD8084122
Probable space group: C 2/M
;
_chemical_formula_sum "Si O2"
_cell_formula_units_Z 56
_cell_length_a 24.887814
_cell_length_b 8.782983
_cell_length_c 12.269265
_cell_angle_alpha 90.000000
_cell_angle_beta 103.625905
_cell_angle_gamma 90.000000
_cell_volume 2606.445390
_symmetry_space_group_name_H-M "C 2/M"
_symmetry_group_IT_number 12
_symmetry_cell_setting 'monoclinic'
loop_
_space_group_symop_operation_xyz
x,y,z
-x,y,-z
-x,-y,-z
x,-y,z
1/2+x,1/2+y,z
1/2-x,1/2+y,-z
1/2-x,1/2-y,-z
1/2+x,1/2-y,z
loop_
_atom_site_type_symbol
_atom_site_label
_atom_site_fract_x
_atom_site_fract_y
_atom_site_fract_z
Si Si1 0.519454 0.831556 0.301901
Si Si2 0.676733 0.324375 0.630742
Si Si3 0.651973 0.676668 0.014799
Si Si4 0.894426 0.320922 0.223800
Si Si5 0.202987 0.320829 0.233587
Si Si6 0.872779 0.175665 0.622823
Si Si7 0.555492 0.831373 0.077180
O O1 0.457973 0.758878 0.262055
O O2 0.565089 0.728722 0.385798
O O3 0.548623 0.845424 0.200710
O O4 0.515142 0.000000 0.354059
O O5 0.666652 0.500000 0.658231
O O6 0.634934 0.219425 0.677765
O O7 0.739061 0.273349 0.685929
O O8 0.667118 0.296069 0.498780
O O9 0.664435 0.500000 0.004528
O O10 0.640891 0.748004 0.891127
O O11 0.701716 0.752025 0.109308
O O12 0.599726 0.705296 0.067095
O O13 0.896243 0.500000 0.205203
O O14 0.195376 0.500000 0.218968
O O15 0.153148 0.262955 0.286308
O O16 0.876083 0.000000 0.656861
O O17 0.570445 0.000000 0.035546
O O18 0.500000 0.767642 0.000000
#
# Coordination Sequence:
#
# PCOD8084122 Si02
#       7
#     8   8   8   8   8   8   8
#     4  10  21  37  61  92 126 163 203 247 301 366
#     4  10  25  46  64  88 123 164 208 257 308 360
#     4  12  24  37  60  94 128 158 200 253 310 367
#     4  11  24  43  65  90 124 168 210 247 297 369
#     4  11  23  42  67  91 122 162 206 255 308 365
#     4  11  23  40  65  96 126 156 202 260 313 359
#     4  10  18  34  58  85 123 162 200 247 302 364
#
# _framework density 21.485199000000001
#
# number of rings (size 3 to 8) (size 9 to 14) (size 15 to 20)
#    0.000    1.286    2.857    3.000    0.000    4.857 
#    0.000    2.857    0.000    0.000    0.000    0.000 
#    0.000    0.000    0.000    0.000    0.000    0.000 
#
# Total GULP energy -347074.464621 kJ/mol
# GULP energy per Si atom -12395.516594 kJ/mol
# Density = 2.143630 g / cm^3
# Si number density = 21.485199 Si / 1000 Ang^3
#
#
#
# Elastic Constant Matrix: (Units=GPa)
#
#
# Indices 1 2 3 4 5 6 
#
# 1 76.0459 24.5371 24.9721 0.0000 14.8296 0.0000
# 2 24.5371 88.8506 20.7010 0.0000 7.0814 0.0000
# 3 24.9721 20.7010 67.2470 0.0000 19.6955 0.0000
# 4 0.0000 0.0000 0.0000 33.0639 0.0000 0.4219
# 5 14.8296 7.0814 19.6955 0.0000 42.7815 0.0000
# 6 0.0000 0.0000 0.0000 0.4219 0.0000 29.8932
#
#
#
# Elastic Compliance Matrix: (Units=1/GPa)
#
#
# Indices 1 2 3 4 5 6 
#
# 1 0.016159 -0.003262 -0.004062 0.000000 -0.003191 0.000000
# 2 -0.003262 0.012787 -0.002816 0.000000 0.000310 0.000000
# 3 -0.004062 -0.002816 0.019299 0.000000 -0.007011 0.000000
# 4 0.000000 0.000000 0.000000 0.030250 0.000000 -0.000427
# 5 -0.003191 0.000310 -0.007011 0.000000 0.027657 0.000000
# 6 0.000000 0.000000 0.000000 -0.000427 0.000000 0.033458
#
#
# Mechanical properties :
#
#
# Convention : Reuss Voigt Hill
#
# Bulk Modulus (GPa) = 35.75800 41.39598 38.57699
# Shear Modulus (GPa) = 29.54901 31.94328 30.74615
#
# Velocity S-wave (km/s) = 3.71255 3.86003 3.78701
# Velocity P-wave (km/s) = 5.92086 6.25903 6.09230
#
# Compressibility (1/GPa) = 0.02796577
#
# Stress axis : x y z
#
# Youngs Moduli (GPa) = 61.88690 78.20475 51.81611
#
# Poissons Ratio (x) = 0.25508 0.21046
# Poissons Ratio (y) = 0.20186 0.14591
# Poissons Ratio (z) = 0.25136 0.22022
#
# Static dielectric constant tensor:
#      x y z
#    x 3.853520 0.000000 0.367000 
#    y 0.000000 4.013900 0.000000 
#    z 0.367000 0.000000 4.011960 
# 
# 
# High freq. dielectric constant tensor:
#      x y z
#    x 1.841230 0.000000 0.020580 
#    y 0.000000 1.832750 0.000000 
#    z 0.020580 0.000000 1.853260 
# 
# From -- ./inp_files/181131.got.cif
#   From: 2010.06.25/outbox.cif.g09.slc.cpg/sg12_91_cif.got.tgz:181131.got - 2010.06.28 00:19:55.
