data_PCOD8084180
_publ_section_title
;
Structure prediction by ZEFSAII (Michael W. Deem and Ramdas Pophale) SiO2 
 PCOD8084180
Probable space group: C 2/M
;
_chemical_formula_sum "Si O2"
_cell_formula_units_Z 56
_cell_length_a 15.271974
_cell_length_b 8.743782
_cell_length_c 29.067032
_cell_angle_alpha 90.000000
_cell_angle_beta 131.809868
_cell_angle_gamma 90.000000
_cell_volume 2893.090127
_symmetry_space_group_name_H-M "C 2/M"
_symmetry_group_IT_number 12
_symmetry_cell_setting 'monoclinic'
loop_
_space_group_symop_operation_xyz
x,y,z
-x,y,-z
-x,-y,-z
x,-y,z
1/2+x,1/2+y,z
1/2-x,1/2+y,-z
1/2-x,1/2-y,-z
1/2+x,1/2-y,z
loop_
_atom_site_type_symbol
_atom_site_label
_atom_site_fract_x
_atom_site_fract_y
_atom_site_fract_z
Si Si1 0.887583 0.826590 0.492705
Si Si2 0.191558 0.818775 0.934418
Si Si3 0.737104 0.819173 0.290065
Si Si4 0.001550 0.820173 0.624539
Si Si5 0.316868 0.677464 0.633541
Si Si6 0.062235 0.682018 0.150614
Si Si7 0.888136 0.681029 0.933806
O O1 0.789049 0.717820 0.437438
O O2 0.000000 0.824021 0.500000
O O3 0.924147 0.756111 0.554994
O O4 0.838638 0.000000 0.479406
O O5 0.268556 0.767854 0.917137
O O6 0.062512 0.754684 0.881322
O O7 0.188323 0.000000 0.938584
O O8 0.250000 0.750000 0.000000
O O9 0.867672 0.748123 0.329506
O O10 0.684126 0.774200 0.320482
O O11 0.653961 0.756397 0.220529
O O12 0.743338 0.000000 0.289190
O O13 0.938964 0.782552 0.650768
O O14 0.012487 0.000000 0.619780
O O15 0.309111 0.500000 0.643457
O O16 0.048847 0.500000 0.146879
O O17 0.109428 0.740711 0.117759
O O18 0.898477 0.500000 0.937503
O O19 0.000000 0.750995 0.000000
#
# Coordination Sequence:
#
# PCOD8084180 Si02
#       7
#     8   8   8   8   8   8   8
#     4  10  18  34  60  82 107 146 191 230 275 336
#     4  11  21  35  59  87 116 145 179 225 277 331
#     4  10  21  40  60  77 107 153 195 224 269 339
#     4   9  19  36  57  81 109 148 190 229 274 334
#     4  11  22  35  56  86 117 142 181 238 287 325
#     4  10  21  38  60  83 109 146 191 234 273 326
#     4   9  17  33  57  83 110 143 183 221 267 330
#
# _framework density 19.356466000000001
#
# number of rings (size 3 to 8) (size 9 to 14) (size 15 to 20)
#    0.000    2.000    2.857    1.286    0.000    2.000 
#    0.000    7.143    0.000    0.000    0.000    0.000 
#    0.000    0.000    0.000    0.000    0.000    0.000 
#
# Total GULP energy -347208.583343 kJ/mol
# GULP energy per Si atom -12400.306548 kJ/mol
# Density = 1.931241 g / cm^3
# Si number density = 19.356466 Si / 1000 Ang^3
#
#
#
# Elastic Constant Matrix: (Units=GPa)
#
#
# Indices 1 2 3 4 5 6 
#
# 1 147.0776 16.4652 77.0166 0.0000 -5.7655 0.0000
# 2 16.4652 19.7335 16.9313 0.0000 6.6290 0.0000
# 3 77.0166 16.9313 164.4668 0.0000 -8.9327 0.0000
# 4 0.0000 0.0000 0.0000 16.0368 0.0000 1.4782
# 5 -5.7655 6.6290 -8.9327 0.0000 18.7022 0.0000
# 6 0.0000 0.0000 0.0000 1.4782 0.0000 27.1484
#
#
#
# Elastic Compliance Matrix: (Units=1/GPa)
#
#
# Indices 1 2 3 4 5 6 
#
# 1 0.009507 -0.005880 -0.003669 0.000000 0.003262 0.000000
# 2 -0.005880 0.070920 -0.006171 0.000000 -0.029898 0.000000
# 3 -0.003669 -0.006171 0.008717 0.000000 0.005220 0.000000
# 4 0.000000 0.000000 0.000000 0.062671 0.000000 -0.003412
# 5 0.003262 -0.029898 0.005220 0.000000 0.067566 0.000000
# 6 0.000000 0.000000 0.000000 -0.003412 0.000000 0.037020
#
#
# Mechanical properties :
#
#
# Convention : Reuss Voigt Hill
#
# Bulk Modulus (GPa) = 17.33021 61.34489 39.33755
# Shear Modulus (GPa) = 16.28260 27.10180 21.69220
#
# Velocity S-wave (km/s) = 2.90349 3.74591 3.35127
# Velocity P-wave (km/s) = 4.49588 7.10423 5.94487
#
# Compressibility (1/GPa) = 0.05770271
#
# Stress axis : x y z
#
# Youngs Moduli (GPa) = 105.18941 14.10048 114.71384
#
# Poissons Ratio (x) = 0.08291 0.42092
# Poissons Ratio (y) = 0.61849 0.70794
# Poissons Ratio (z) = 0.38597 0.08702
#
# Static dielectric constant tensor:
#      x y z
#    x 3.847140 0.000000 0.055380 
#    y 0.000000 3.219430 0.000000 
#    z 0.055380 0.000000 3.789590 
# 
# 
# High freq. dielectric constant tensor:
#      x y z
#    x 1.769880 0.000000 -0.002420 
#    y 0.000000 1.719110 0.000000 
#    z -0.002420 0.000000 1.755370 
# 
# From -- ./inp_files/375127.got.cif
#   From: 2010.06.25/outbox.cif.g09.slc.cpg/sg12_188_cif.got.tgz:375127.got - 2010.06.28 00:19:55.
