data_PCOD8084055
_publ_section_title
;
Structure prediction by ZEFSAII (Michael W. Deem and Ramdas Pophale) SiO2 
 PCOD8084055
Probable space group: C 2/M
;
_chemical_formula_sum "Si O2"
_cell_formula_units_Z 64
_cell_length_a 24.812375
_cell_length_b 9.114019
_cell_length_c 15.541476
_cell_angle_alpha 90.000000
_cell_angle_beta 72.975818
_cell_angle_gamma 90.000000
_cell_volume 3360.553099
_symmetry_space_group_name_H-M "C 2/M"
_symmetry_group_IT_number 12
_symmetry_cell_setting 'monoclinic'
loop_
_space_group_symop_operation_xyz
x,y,z
-x,y,-z
-x,-y,-z
x,-y,z
1/2+x,1/2+y,z
1/2-x,1/2+y,-z
1/2-x,1/2-y,-z
1/2+x,1/2-y,z
loop_
_atom_site_type_symbol
_atom_site_label
_atom_site_fract_x
_atom_site_fract_y
_atom_site_fract_z
Si Si1 0.984395 0.173133 0.642378
Si Si2 0.619569 0.830589 0.378021
Si Si3 0.598161 0.832433 0.572444
Si Si4 0.376265 0.830907 0.948189
Si Si5 0.807999 0.673675 0.813165
Si Si6 0.010436 0.332990 0.188456
Si Si7 0.681259 0.326128 0.869598
Si Si8 0.881920 0.331828 0.245952
O O1 0.937899 0.240685 0.601707
O O2 0.971143 0.223601 0.745247
O O3 0.045234 0.227290 0.584181
O O4 0.981989 0.000000 0.636731
O O5 0.638909 0.813384 0.469614
O O6 0.665950 0.767888 0.289451
O O7 0.607345 0.000000 0.361515
O O8 0.629028 0.794548 0.648044
O O9 0.576138 0.000000 0.589063
O O10 0.345373 0.772402 0.876266
O O11 0.444001 0.811650 0.908802
O O12 0.360259 0.000000 0.972711
O O13 0.357567 0.735303 0.037044
O O14 0.806383 0.500000 0.811624
O O15 0.744692 0.734975 0.852125
O O16 0.013835 0.500000 0.222032
O O17 0.946791 0.299367 0.187865
O O18 0.679257 0.500000 0.873221
O O19 0.658575 0.273540 0.788287
O O20 0.866655 0.500000 0.232280
#
# Coordination Sequence:
#
# PCOD8084055 Si02
#       8
#     8   8   8   8   8   8   8   8
#     4  11  20  29  47  80 120 147 167 209 273 330
#     4  10  18  34  57  78 103 140 186 226 259 310
#     4   9  19  34  56  79 102 141 188 224 257 308
#     4  10  19  36  61  83 104 135 178 230 273 314
#     4   9  19  36  58  81 107 139 181 224 267 317
#     4   9  18  35  59  81 105 141 185 223 262 314
#     4  11  23  37  54  79 109 145 180 219 274 329
#     4   9  19  37  56  78 106 140 184 225 261 311
#
# _framework density 19.044485000000002
#
# number of rings (size 3 to 8) (size 9 to 14) (size 15 to 20)
#    0.000    2.250    1.250    3.000    0.000    5.000 
#    0.000    5.000    0.000    0.000    0.000    0.000 
#    0.000    0.000    0.000    0.000    0.000    0.000 
#
# Total GULP energy -396688.148327 kJ/mol
# GULP energy per Si atom -12396.504635 kJ/mol
# Density = 1.900114 g / cm^3
# Si number density = 19.044485 Si / 1000 Ang^3
#
#
#
# Elastic Constant Matrix: (Units=GPa)
#
#
# Indices 1 2 3 4 5 6 
#
# 1 43.4048 13.0782 8.6462 0.0000 13.0634 0.0000
# 2 13.0782 64.9687 22.5209 0.0000 5.3762 0.0000
# 3 8.6462 22.5209 98.5888 0.0000 8.6471 0.0000
# 4 0.0000 0.0000 0.0000 19.3148 0.0000 2.9349
# 5 13.0634 5.3762 8.6471 0.0000 17.3883 0.0000
# 6 0.0000 0.0000 0.0000 2.9349 0.0000 22.0243
#
#
#
# Elastic Compliance Matrix: (Units=1/GPa)
#
#
# Indices 1 2 3 4 5 6 
#
# 1 0.030965 -0.004497 0.000241 0.000000 -0.021992 0.000000
# 2 -0.004497 0.017565 -0.003595 0.000000 -0.000265 0.000000
# 3 0.000241 -0.003595 0.011357 0.000000 -0.004717 0.000000
# 4 0.000000 0.000000 0.000000 0.052844 0.000000 -0.007042
# 5 -0.021992 -0.000265 -0.004717 0.000000 0.076460 0.000000
# 6 0.000000 0.000000 0.000000 -0.007042 0.000000 0.046343
#
#
# Mechanical properties :
#
#
# Convention : Reuss Voigt Hill
#
# Bulk Modulus (GPa) = 22.63213 32.82809 27.73011
# Shear Modulus (GPa) = 18.79951 22.59327 20.69639
#
# Velocity S-wave (km/s) = 3.14528 3.44807 3.30015
# Velocity P-wave (km/s) = 5.00999 5.75563 5.39570
#
# Compressibility (1/GPa) = 0.04418497
#
# Stress axis : x y z
#
# Youngs Moduli (GPa) = 32.29461 56.93044 88.05180
#
# Poissons Ratio (x) = 0.25600 -0.02118
# Poissons Ratio (y) = 0.14522 0.31654
# Poissons Ratio (z) = -0.00777 0.20466
#
# Static dielectric constant tensor:
#      x y z
#    x 3.423900 0.000000 -0.063730 
#    y 0.000000 3.233780 0.000000 
#    z -0.063730 0.000000 3.630500 
# 
# 
# High freq. dielectric constant tensor:
#      x y z
#    x 1.717700 0.000000 -0.000290 
#    y 0.000000 1.717940 0.000000 
#    z -0.000290 0.000000 1.751830 
# 
# From -- ./inp_files/243839.got.cif
#   From: 2010.06.25/outbox.cif.g09.slc.cpg/sg12_122_cif.got.tgz:243839.got - 2010.06.28 00:19:55.
