data_PCOD8084256
_publ_section_title
;
Structure prediction by ZEFSAII (Michael W. Deem and Ramdas Pophale) SiO2 
 PCOD8084256
Probable space group: C 2/M
;
_chemical_formula_sum "Si O2"
_cell_formula_units_Z 56
_cell_length_a 20.658481
_cell_length_b 15.235565
_cell_length_c 17.870010
_cell_angle_alpha 90.000000
_cell_angle_beta 150.934950
_cell_angle_gamma 90.000000
_cell_volume 2732.381319
_symmetry_space_group_name_H-M "C 2/M"
_symmetry_group_IT_number 12
_symmetry_cell_setting 'monoclinic'
loop_
_space_group_symop_operation_xyz
x,y,z
-x,y,-z
-x,-y,-z
x,-y,z
1/2+x,1/2+y,z
1/2-x,1/2+y,-z
1/2-x,1/2-y,-z
1/2+x,1/2-y,z
loop_
_atom_site_type_symbol
_atom_site_label
_atom_site_fract_x
_atom_site_fract_y
_atom_site_fract_z
Si Si1 0.977250 0.728453 0.164336
Si Si2 0.884486 0.192135 0.821425
Si Si3 0.763452 0.400704 0.886979
Si Si4 0.386223 0.500000 0.823690
Si Si5 0.833315 0.905205 0.053890
Si Si6 0.085505 0.500000 0.512990
Si Si7 0.941905 0.644478 0.278025
Si Si8 0.147025 0.758086 0.678282
O O1 0.898289 0.821074 0.081153
O O2 0.016300 0.702219 0.288633
O O3 0.103225 0.741301 0.236405
O O4 0.894009 0.651172 0.043424
O O5 0.898883 0.094895 0.796955
O O6 0.740618 0.206460 0.713991
O O7 0.000000 0.207555 0.000000
O O8 0.802265 0.500000 0.904822
O O9 0.654210 0.397966 0.843480
O O10 0.704066 0.354737 0.752933
O O11 0.232808 0.500000 0.696329
O O12 0.500000 0.500000 0.000000
O O13 0.896082 0.000000 0.090340
O O14 0.675099 0.912442 0.877455
O O15 0.000000 0.500000 0.500000
O O16 0.054058 0.585715 0.431230
O O17 0.860656 0.705362 0.252568
O O18 0.000000 0.768404 0.500000
#
# Coordination Sequence:
#
# PCOD8084256 Si02
#       8
#     8   8   8   4   8   4   8   8
#     4  11  21  38  65  97 128 166 217 272 330 394
#     4  11  22  41  63  94 128 165 215 272 331 394
#     4  10  20  37  63  91 123 164 220 268 317 383
#     4  10  24  42  60  90 136 172 204 259 338 403
#     4  10  18  34  64  97 126 164 211 272 325 385
#     4  12  24  40  66 102 131 166 219 273 319 379
#     4  11  20  38  62  95 128 167 217 267 324 390
#     4  12  23  40  62  88 127 171 214 268 328 390
#
# _framework density 20.494944
#
# number of rings (size 3 to 8) (size 9 to 14) (size 15 to 20)
#    0.000    1.143    5.000    3.000    2.000    1.429 
#    2.571    4.286    0.000    0.000    0.000    0.000 
#    0.000    0.000    0.000    0.000    0.000    0.000 
#
# Total GULP energy -346890.426961 kJ/mol
# GULP energy per Si atom -12388.943820 kJ/mol
# Density = 2.044830 g / cm^3
# Si number density = 20.494944 Si / 1000 Ang^3
#
#
#
# Elastic Constant Matrix: (Units=GPa)
#
#
# Indices 1 2 3 4 5 6 
#
# 1 118.7718 53.0814 33.7426 0.0008 -6.7493 0.0004
# 2 53.0814 157.7350 34.3261 0.0007 -5.1501 0.0004
# 3 33.7426 34.3261 91.2622 0.0007 4.3210 0.0004
# 4 0.0008 0.0007 0.0007 20.3122 0.0008 -2.4357
# 5 -6.7493 -5.1501 4.3210 0.0008 19.9085 0.0004
# 6 0.0004 0.0004 0.0004 -2.4357 0.0004 29.0930
#
#
#
# Elastic Compliance Matrix: (Units=1/GPa)
#
#
# Indices 1 2 3 4 5 6 
#
# 1 0.010766 -0.002835 -0.003084 0.000000 0.003586 0.000000
# 2 -0.002835 0.007764 -0.001942 0.000000 0.001469 0.000000
# 3 -0.003084 -0.001942 0.013035 0.000000 -0.004377 0.000000
# 4 0.000000 0.000000 0.000000 0.049731 -0.000002 0.004164
# 5 0.003586 0.001469 -0.004377 -0.000002 0.052776 -0.000001
# 6 0.000000 0.000000 0.000000 0.004164 -0.000001 0.034721
#
#
# Mechanical properties :
#
#
# Convention : Reuss Voigt Hill
#
# Bulk Modulus (GPa) = 63.11385 67.78548 65.44967
# Shear Modulus (GPa) = 26.34399 30.30401 28.32400
#
# Velocity S-wave (km/s) = 3.58912 3.84944 3.72156
# Velocity P-wave (km/s) = 6.93090 7.27349 7.10426
#
# Compressibility (1/GPa) = 0.01584438
#
# Stress axis : x y z
#
# Youngs Moduli (GPa) = 92.88090 128.79510 76.71441
#
# Poissons Ratio (x) = 0.36512 0.23661
# Poissons Ratio (y) = 0.26331 0.14896
# Poissons Ratio (z) = 0.28647 0.25009
#
# Static dielectric constant tensor:
#      x y z
#    x 3.617120 0.000000 -0.230040 
#    y 0.000000 4.048150 0.000000 
#    z -0.230040 0.000000 3.511770 
# 
# 
# High freq. dielectric constant tensor:
#      x y z
#    x 1.787480 0.000000 -0.006850 
#    y 0.000000 1.814180 0.000000 
#    z -0.006850 0.000000 1.774170 
# 
# From -- ./inp_files/284631.got.cif
#   From: 2010.06.25/outbox.cif.g09.slc.cpg/sg12_143_cif.got.tgz:284631.got - 2010.06.28 00:19:55.
