data_PCOD8084164
_publ_section_title
;
Structure prediction by ZEFSAII (Michael W. Deem and Ramdas Pophale) SiO2 
 PCOD8084164
Probable space group: C 2/M
;
_chemical_formula_sum "Si O2"
_cell_formula_units_Z 48
_cell_length_a 23.236043
_cell_length_b 8.899939
_cell_length_c 12.015022
_cell_angle_alpha 90.000000
_cell_angle_beta 110.319121
_cell_angle_gamma 90.000000
_cell_volume 2330.083816
_symmetry_space_group_name_H-M "C 2/M"
_symmetry_group_IT_number 12
_symmetry_cell_setting 'monoclinic'
loop_
_space_group_symop_operation_xyz
x,y,z
-x,y,-z
-x,-y,-z
x,-y,z
1/2+x,1/2+y,z
1/2-x,1/2+y,-z
1/2-x,1/2-y,-z
1/2+x,1/2-y,z
loop_
_atom_site_type_symbol
_atom_site_label
_atom_site_fract_x
_atom_site_fract_y
_atom_site_fract_z
Si Si1 0.490948 0.331124 0.124270
Si Si2 0.102788 0.673786 0.309442
Si Si3 0.355374 0.676497 0.040327
Si Si4 0.798514 0.821728 0.774212
Si Si5 0.823996 0.824025 0.261382
Si Si6 0.929773 0.325263 0.461107
O O1 0.498495 0.500000 0.179052
O O2 0.539111 0.220029 0.211401
O O3 0.424066 0.260410 0.103079
O O4 0.500000 0.337815 0.000000
O O5 0.114901 0.500000 0.292119
O O6 0.158910 0.769183 0.298236
O O7 0.098424 0.706239 0.437012
O O8 0.361818 0.500000 0.025198
O O9 0.316805 0.714707 0.125084
O O10 0.323777 0.744817 0.908696
O O11 0.730185 0.759331 0.708979
O O12 0.795974 0.000000 0.772468
O O13 0.890064 0.767964 0.346582
O O14 0.818900 0.000000 0.280001
O O15 0.926340 0.500000 0.427114
O O16 0.000000 0.268597 0.500000
#
# Coordination Sequence:
#
# PCOD8084164 Si02
#       6
#     8   8   8   8   8   8
#     4  10  18  34  59  86 119 157 193 232 289 356
#     4  11  23  38  59  90 122 153 198 250 293 342
#     4   9  19  36  59  88 121 157 196 241 291 350
#     4  11  22  40  62  85 120 162 198 237 298 359
#     4  11  23  39  61  90 120 152 200 250 292 345
#     4  10  23  44  65  86 118 157 197 241 294 354
#
# _framework density 20.600117999999998
#
# number of rings (size 3 to 8) (size 9 to 14) (size 15 to 20)
#    0.000    1.667    1.667    3.000    0.000    2.667 
#    0.000    3.333    0.000    0.000    0.000    0.000 
#    0.000    0.000    0.000    0.000    0.000    0.000 
#
# Total GULP energy -297673.184553 kJ/mol
# GULP energy per Si atom -12403.049356 kJ/mol
# Density = 2.055323 g / cm^3
# Si number density = 20.600118 Si / 1000 Ang^3
#
#
#
# Elastic Constant Matrix: (Units=GPa)
#
#
# Indices 1 2 3 4 5 6 
#
# 1 138.1265 44.5191 29.1651 0.0000 5.5043 0.0000
# 2 44.5191 78.9372 40.0527 0.0000 -3.3570 0.0000
# 3 29.1651 40.0527 75.2477 0.0000 -0.6980 0.0000
# 4 0.0000 0.0000 0.0000 32.2722 0.0000 4.9007
# 5 5.5043 -3.3570 -0.6980 0.0000 27.3580 0.0000
# 6 0.0000 0.0000 0.0000 4.9007 0.0000 36.0089
#
#
#
# Elastic Compliance Matrix: (Units=1/GPa)
#
#
# Indices 1 2 3 4 5 6 
#
# 1 0.009067 -0.004689 -0.001041 0.000000 -0.002426 0.000000
# 2 -0.004689 0.019879 -0.008735 0.000000 0.003160 0.000000
# 3 -0.001041 -0.008735 0.018339 0.000000 -0.000394 0.000000
# 4 0.000000 0.000000 0.000000 0.031640 0.000000 -0.004306
# 5 -0.002426 0.003160 -0.000394 0.000000 0.037418 0.000000
# 6 0.000000 0.000000 0.000000 -0.004306 0.000000 0.028357
#
#
# Mechanical properties :
#
#
# Convention : Reuss Voigt Hill
#
# Bulk Modulus (GPa) = 54.47820 57.75393 56.11606
# Shear Modulus (GPa) = 27.81670 31.03278 29.42474
#
# Velocity S-wave (km/s) = 3.67865 3.88550 3.78349
# Velocity P-wave (km/s) = 6.67430 6.94450 6.81074
#
# Compressibility (1/GPa) = 0.01835597
#
# Stress axis : x y z
#
# Youngs Moduli (GPa) = 110.28399 50.30453 54.52995
#
# Poissons Ratio (x) = 0.23587 0.05678
# Poissons Ratio (y) = 0.51709 0.47629
# Poissons Ratio (z) = 0.11483 0.43939
#
# Static dielectric constant tensor:
#      x y z
#    x 3.857210 0.000000 -0.052390 
#    y 0.000000 3.548440 0.000000 
#    z -0.052390 0.000000 3.523320 
# 
# 
# High freq. dielectric constant tensor:
#      x y z
#    x 1.822460 0.000000 -0.002530 
#    y 0.000000 1.789030 0.000000 
#    z -0.002530 0.000000 1.802600 
# 
# From -- ./inp_files/173034.got.cif
#   From: 2010.06.25/outbox.cif.g09.slc.cpg/sg12_87_cif.got.tgz:173034.got - 2010.06.28 00:19:55.
