data_PCOD8084964
_publ_section_title
;
Structure prediction by ZEFSAII (Michael W. Deem and Ramdas Pophale) SiO2 
 PCOD8084964
Probable space group: C 2/M
;
_chemical_formula_sum "Si O2"
_cell_formula_units_Z 44
_cell_length_a 14.684813
_cell_length_b 15.517273
_cell_length_c 8.985459
_cell_angle_alpha 90.000000
_cell_angle_beta 80.852631
_cell_angle_gamma 90.000000
_cell_volume 2021.462182
_symmetry_space_group_name_H-M "C 2/M"
_symmetry_group_IT_number 12
_symmetry_cell_setting 'monoclinic'
loop_
_space_group_symop_operation_xyz
x,y,z
-x,y,-z
-x,-y,-z
x,-y,z
1/2+x,1/2+y,z
1/2-x,1/2+y,-z
1/2-x,1/2-y,-z
1/2+x,1/2-y,z
loop_
_atom_site_type_symbol
_atom_site_label
_atom_site_fract_x
_atom_site_fract_y
_atom_site_fract_z
Si Si1 0.144263 0.500000 0.562996
Si Si2 0.659461 0.834735 0.404430
Si Si3 0.729283 0.154457 0.066769
Si Si4 0.370556 0.334889 0.447499
Si Si5 0.158834 0.000000 0.397089
Si Si6 0.196220 0.500000 0.870438
Si Si7 0.922736 0.099439 0.132286
O O1 0.104802 0.416089 0.488995
O O2 0.255211 0.500000 0.508668
O O3 0.125582 0.500000 0.746981
O O4 0.661319 0.838291 0.225174
O O5 0.601734 0.751734 0.473266
O O6 0.762337 0.831576 0.441733
O O7 0.823544 0.107374 0.083322
O O8 0.679356 0.089423 0.963618
O O9 0.750000 0.250000 0.000000
O O10 0.397775 0.413219 0.552216
O O11 0.428066 0.343544 0.280141
O O12 0.197343 0.000000 0.217840
O O13 0.941352 0.000000 0.169619
O O14 0.000000 0.134962 0.000000
#
# Coordination Sequence:
#
# PCOD8084964 Si02
#       7
#     4   8   8   8   4   4   8
#     4   8  17  27  44  68 100 131 167 210 263 322
#     4   9  17  28  47  71  96 138 177 217 266 310
#     4  11  21  32  50  80 109 139 174 232 278 303
#     4   9  15  27  47  70  92 133 182 212 239 307
#     4   8  14  24  40  63  92 134 162 207 237 306
#     4  10  19  29  44  75 113 129 163 225 279 304
#     4  10  20  34  53  76 110 153 183 207 259 335
#
# _framework density 21.766421999999999
#
# number of rings (size 3 to 8) (size 9 to 14) (size 15 to 20)
#    0.545    2.000    1.818    1.636    7.636    0.000 
#    0.000    0.000    0.000    5.455    0.000    2.545 
#    0.000    2.909    0.000    0.000    0.000    0.000 
#
# Total GULP energy -272635.820180 kJ/mol
# GULP energy per Si atom -12392.537281 kJ/mol
# Density = 2.171688 g / cm^3
# Si number density = 21.766422 Si / 1000 Ang^3
#
#
#
# Elastic Constant Matrix: (Units=GPa)
#
#
# Indices 1 2 3 4 5 6 
#
# 1 13.7219 -3.1115 11.9804 0.0000 -9.5201 0.0000
# 2 -3.1115 213.3071 106.9802 0.0000 -7.6424 0.0000
# 3 11.9804 106.9802 187.2274 0.0000 -13.9524 0.0000
# 4 0.0000 0.0000 0.0000 45.4412 0.0000 -1.0500
# 5 -9.5201 -7.6424 -13.9524 0.0000 21.3919 0.0000
# 6 0.0000 0.0000 0.0000 -1.0500 0.0000 4.9885
#
#
#
# Elastic Compliance Matrix: (Units=1/GPa)
#
#
# Indices 1 2 3 4 5 6 
#
# 1 0.115409 0.007445 -0.008002 0.000000 0.048801 0.000000
# 2 0.007445 0.007052 -0.004279 0.000000 0.003042 0.000000
# 3 -0.008002 -0.004279 0.008323 0.000000 0.000339 0.000000
# 4 0.000000 0.000000 0.000000 0.022114 0.000000 0.004655
# 5 0.048801 0.003042 0.000339 0.000000 0.069772 0.000000
# 6 0.000000 0.000000 0.000000 0.004655 0.000000 0.201440
#
#
# Mechanical properties :
#
#
# Convention : Reuss Voigt Hill
#
# Bulk Modulus (GPa) = 8.25683 71.77273 40.01478
# Shear Modulus (GPa) = 10.54512 34.25815 22.40163
#
# Velocity S-wave (km/s) = 2.20345 3.97154 3.21157
# Velocity P-wave (km/s) = 3.20550 7.35367 5.67238
#
# Compressibility (1/GPa) = 0.12111184
#
# Stress axis : x y z
#
# Youngs Moduli (GPa) = 8.66485 141.80897 120.14305
#
# Poissons Ratio (x) = -1.05582 0.96143
# Poissons Ratio (y) = -0.06451 0.51410
# Poissons Ratio (z) = 0.06934 0.60681
#
# Static dielectric constant tensor:
#      x y z
#    x 3.119950 0.000000 -0.072660 
#    y 0.000000 4.223480 0.000000 
#    z -0.072660 0.000000 3.991470 
# 
# 
# High freq. dielectric constant tensor:
#      x y z
#    x 1.786280 0.000000 -0.004400 
#    y 0.000000 1.868920 0.000000 
#    z -0.004400 0.000000 1.863760 
# 
# From -- ./inp_files/73093.got.cif
#   From: 2010.06.25/outbox.cif.g09.slc.cpg/sg12_37_cif.got.tgz:73093.got - 2010.06.28 00:19:55.
