data_PCOD8084875
_publ_section_title
;
Structure prediction by ZEFSAII (Michael W. Deem and Ramdas Pophale) SiO2 
 PCOD8084875
Probable space group: C 2/M
;
_chemical_formula_sum "Si O2"
_cell_formula_units_Z 64
_cell_length_a 19.039989
_cell_length_b 9.131708
_cell_length_c 23.249568
_cell_angle_alpha 90.000000
_cell_angle_beta 66.762039
_cell_angle_gamma 90.000000
_cell_volume 3714.408144
_symmetry_space_group_name_H-M "C 2/M"
_symmetry_group_IT_number 12
_symmetry_cell_setting 'monoclinic'
loop_
_space_group_symop_operation_xyz
x,y,z
-x,y,-z
-x,-y,-z
x,-y,z
1/2+x,1/2+y,z
1/2-x,1/2+y,-z
1/2-x,1/2-y,-z
1/2+x,1/2-y,z
loop_
_atom_site_type_symbol
_atom_site_label
_atom_site_fract_x
_atom_site_fract_y
_atom_site_fract_z
Si Si1 0.201045 0.170649 0.646297
Si Si2 0.163879 0.168838 0.457027
Si Si3 0.256480 0.674625 0.735447
Si Si4 0.684987 0.668074 0.053611
Si Si5 0.078370 0.829106 0.595684
Si Si6 0.584359 0.327553 0.986797
Si Si7 0.219236 0.328398 0.875100
Si Si8 0.587077 0.667242 0.364245
O O1 0.263519 0.233693 0.582408
O O2 0.199032 0.254035 0.707853
O O3 0.118686 0.197231 0.643722
O O4 0.217399 0.000000 0.651101
O O5 0.128507 0.235465 0.526951
O O6 0.100127 0.182364 0.428095
O O7 0.190566 0.000000 0.454952
O O8 0.252771 0.500000 0.729527
O O9 0.232159 0.727795 0.806360
O O10 0.341638 0.736212 0.693989
O O11 0.700656 0.500000 0.036873
O O12 0.700025 0.702984 0.116411
O O13 0.750000 0.750000 0.000000
O O14 0.604133 0.708228 0.048431
O O15 0.993806 0.755679 0.625231
O O16 0.068944 0.000000 0.584347
O O17 0.586508 0.500000 0.973681
O O18 0.646674 0.254016 0.925179
O O19 0.500000 0.264697 0.000000
O O20 0.200260 0.500000 0.882143
O O21 0.582665 0.500000 0.345906
#
# Coordination Sequence:
#
# PCOD8084875 Si02
#       8
#     8   8   8   8   8   8   8   8
#     4  10  19  29  43  65  93 119 144 180 225 273
#     4   9  16  28  47  66  85 113 147 182 222 270
#     4   9  18  33  50  64  82 115 157 191 217 253
#     4   8  14  26  44  66  91 116 144 177 210 248
#     4   9  16  26  43  68  90 109 142 187 230 269
#     4   9  17  29  46  72 103 125 140 169 219 268
#     4   9  17  30  49  69  87 116 157 189 212 248
#     4   8  14  26  45  66  85 108 144 188 223 253
#
# _framework density 17.230201000000001
#
# number of rings (size 3 to 8) (size 9 to 14) (size 15 to 20)
#    0.000    3.125    0.000    1.875    0.000    2.250 
#    0.000    1.875    0.000   16.500    0.000    0.000 
#    0.000    0.000    0.000    0.000    0.000    0.000 
#
# Total GULP energy -396419.066415 kJ/mol
# GULP energy per Si atom -12388.095825 kJ/mol
# Density = 1.719098 g / cm^3
# Si number density = 17.230201 Si / 1000 Ang^3
#
#
#
# Elastic Constant Matrix: (Units=GPa)
#
#
# Indices 1 2 3 4 5 6 
#
# 1 121.0264 26.5713 55.1085 0.0000 18.0465 0.0000
# 2 26.5713 29.8124 23.7085 0.0000 5.2192 0.0000
# 3 55.1085 23.7085 116.9390 0.0000 15.4830 0.0000
# 4 0.0000 0.0000 0.0000 20.3592 0.0000 2.8564
# 5 18.0465 5.2192 15.4830 0.0000 17.9170 0.0000
# 6 0.0000 0.0000 0.0000 2.8564 0.0000 17.8604
#
#
#
# Elastic Compliance Matrix: (Units=1/GPa)
#
#
# Indices 1 2 3 4 5 6 
#
# 1 0.012522 -0.007082 -0.003465 0.000000 -0.007555 0.000000
# 2 -0.007082 0.044438 -0.005536 0.000000 -0.001027 0.000000
# 3 -0.003465 -0.005536 0.012005 0.000000 -0.005271 0.000000
# 4 0.000000 0.000000 0.000000 0.050245 0.000000 -0.008036
# 5 -0.007555 -0.001027 -0.005271 0.000000 0.068277 0.000000
# 6 0.000000 0.000000 0.000000 -0.008036 0.000000 0.057275
#
#
# Mechanical properties :
#
#
# Convention : Reuss Voigt Hill
#
# Bulk Modulus (GPa) = 27.17527 53.17273 40.17400
# Shear Modulus (GPa) = 17.28947 22.05329 19.67138
#
# Velocity S-wave (km/s) = 3.17115 3.58148 3.38254
# Velocity P-wave (km/s) = 5.40503 6.93036 6.21467
#
# Compressibility (1/GPa) = 0.03679816
#
# Stress axis : x y z
#
# Youngs Moduli (GPa) = 79.86057 22.50341 83.30179
#
# Poissons Ratio (x) = 0.15938 0.28862
# Poissons Ratio (y) = 0.56561 0.46114
# Poissons Ratio (z) = 0.27670 0.12457
#
# Static dielectric constant tensor:
#      x y z
#    x 3.536280 0.000000 0.318470 
#    y 0.000000 3.015270 0.000000 
#    z 0.318470 0.000000 3.292680 
# 
# 
# High freq. dielectric constant tensor:
#      x y z
#    x 1.668120 0.000000 0.020920 
#    y 0.000000 1.636680 0.000000 
#    z 0.020920 0.000000 1.650060 
# 
# From -- ./inp_files/341963.got.cif
#   From: 2010.06.25/outbox.cif.g09.slc.cpg/sg12_171_cif.got.tgz:341963.got - 2010.06.28 00:19:55.
