data_PCOD8084762
_publ_section_title
;
Structure prediction by ZEFSAII (Michael W. Deem and Ramdas Pophale) SiO2 
 PCOD8084762
Probable space group: C 2/M
;
_chemical_formula_sum "Si O2"
_cell_formula_units_Z 64
_cell_length_a 27.442760
_cell_length_b 9.295599
_cell_length_c 20.714160
_cell_angle_alpha 90.000000
_cell_angle_beta 51.153830
_cell_angle_gamma 90.000000
_cell_volume 4115.444207
_symmetry_space_group_name_H-M "C 2/M"
_symmetry_group_IT_number 12
_symmetry_cell_setting 'monoclinic'
loop_
_space_group_symop_operation_xyz
x,y,z
-x,y,-z
-x,-y,-z
x,-y,z
1/2+x,1/2+y,z
1/2-x,1/2+y,-z
1/2-x,1/2-y,-z
1/2+x,1/2-y,z
loop_
_atom_site_type_symbol
_atom_site_label
_atom_site_fract_x
_atom_site_fract_y
_atom_site_fract_z
Si Si1 0.298424 0.841052 0.041923
Si Si2 0.379534 0.831150 0.745096
Si Si3 0.122418 0.836503 0.524840
Si Si4 0.247620 0.666855 0.648560
Si Si5 0.766380 0.832187 0.779160
Si Si6 0.159113 0.839046 0.103349
Si Si7 0.992656 0.332534 0.433943
Si Si8 0.197785 0.834200 0.582097
O O1 0.289702 0.794755 0.124051
O O2 0.229864 0.843281 0.068203
O O3 0.328412 0.000000 0.012051
O O4 0.343121 0.730982 0.966435
O O5 0.326765 0.764160 0.743023
O O6 0.381263 0.756726 0.813856
O O7 0.445263 0.799317 0.657430
O O8 0.366152 0.000000 0.764859
O O9 0.183373 0.788597 0.433345
O O10 0.134547 0.821147 0.592121
O O11 0.064850 0.738089 0.554725
O O12 0.105522 0.000000 0.521164
O O13 0.235294 0.500000 0.643957
O O14 0.241076 0.703023 0.729305
O O15 0.194195 0.759452 0.655632
O O16 0.785794 0.000000 0.770183
O O17 0.131033 0.000000 0.122825
O O18 0.977744 0.500000 0.450241
O O19 0.000000 0.268981 0.500000
O O20 0.250000 0.750000 0.500000
O O21 0.217203 0.000000 0.574157
#
# Coordination Sequence:
#
# PCOD8084762 Si02
#       8
#     8   8   8   8   8   8   8   8
#     4   8  14  24  38  57  80 106 134 166 203 241
#     4  10  19  29  41  58  81 110 144 178 209 243
#     4   9  18  30  44  61  81 108 142 176 206 240
#     4   9  17  29  44  64  87 110 138 170 207 250
#     4   9  17  28  42  61  86 113 140 169 203 247
#     4   9  16  26  40  56  76 105 139 172 205 243
#     4  10  21  33  43  59  83 110 142 177 210 243
#     4   9  17  29  44  63  83 105 137 173 210 250
#
# _framework density 15.551176
#
# number of rings (size 3 to 8) (size 9 to 14) (size 15 to 20)
#    0.000    2.875    0.000    3.375    0.000    7.250 
#    0.000    0.000    0.000    0.000    0.000    0.000 
#    0.000    1.000    0.000   11.250    0.000    5.875 
#
# Total GULP energy -396645.341905 kJ/mol
# GULP energy per Si atom -12395.166935 kJ/mol
# Density = 1.551578 g / cm^3
# Si number density = 15.551176 Si / 1000 Ang^3
#
#
#
# Elastic Constant Matrix: (Units=GPa)
#
#
# Indices 1 2 3 4 5 6 
#
# 1 75.1864 47.6422 48.7484 0.0000 20.1461 -0.0002
# 2 47.6422 90.4123 55.7381 0.0019 13.1065 0.0000
# 3 48.7484 55.7381 95.1766 -0.0026 27.3098 0.0009
# 4 0.0000 0.0019 -0.0026 22.4019 0.0006 3.8586
# 5 20.1461 13.1065 27.3098 0.0006 22.6596 0.0004
# 6 -0.0002 0.0000 0.0009 3.8586 0.0004 25.4288
#
#
#
# Elastic Compliance Matrix: (Units=1/GPa)
#
#
# Indices 1 2 3 4 5 6 
#
# 1 0.024715 -0.008767 -0.004088 0.000001 -0.011975 0.000000
# 2 -0.008767 0.020590 -0.009763 -0.000003 0.007652 0.000001
# 3 -0.004088 -0.009763 0.023931 0.000004 -0.019560 -0.000001
# 4 0.000001 -0.000003 0.000004 0.045837 -0.000005 -0.006955
# 5 -0.011975 0.007652 -0.019560 -0.000005 0.073926 0.000000
# 6 0.000000 0.000001 -0.000001 -0.006955 0.000000 0.040381
#
#
# Mechanical properties :
#
#
# Convention : Reuss Voigt Hill
#
# Bulk Modulus (GPa) = 41.66942 62.78139 52.22541
# Shear Modulus (GPa) = 17.69176 21.34117 19.51646
#
# Velocity S-wave (km/s) = 3.37656 3.70850 3.54642
# Velocity P-wave (km/s) = 6.48496 7.66784 7.10108
#
# Compressibility (1/GPa) = 0.02399841
#
# Stress axis : x y z
#
# Youngs Moduli (GPa) = 40.46116 48.56762 41.78667
#
# Poissons Ratio (x) = 0.42579 0.17084
# Poissons Ratio (y) = 0.35472 0.40798
# Poissons Ratio (z) = 0.16542 0.47418
#
# Static dielectric constant tensor:
#      x y z
#    x 2.914630 0.000000 0.439770 
#    y 0.000000 3.164710 0.000010 
#    z 0.439770 0.000010 3.093200 
# 
# 
# High freq. dielectric constant tensor:
#      x y z
#    x 1.558440 0.000000 0.032260 
#    y 0.000000 1.607400 0.000000 
#    z 0.032260 0.000000 1.582800 
# 
# From -- ./inp_files/326578.got.cif
#   From: 2010.06.25/outbox.cif.g09.slc.cpg/sg12_164_cif.got.tgz:326578.got - 2010.06.28 00:19:55.
