data_PCOD8084908
_publ_section_title
;
Structure prediction by ZEFSAII (Michael W. Deem and Ramdas Pophale) SiO2 
 PCOD8084908
Probable space group: C 2/M
;
_chemical_formula_sum "Si O2"
_cell_formula_units_Z 64
_cell_length_a 23.250532
_cell_length_b 21.540111
_cell_length_c 13.430031
_cell_angle_alpha 90.000000
_cell_angle_beta 148.126520
_cell_angle_gamma 90.000000
_cell_volume 3551.640880
_symmetry_space_group_name_H-M "C 2/M"
_symmetry_group_IT_number 12
_symmetry_cell_setting 'monoclinic'
loop_
_space_group_symop_operation_xyz
x,y,z
-x,y,-z
-x,-y,-z
x,-y,z
1/2+x,1/2+y,z
1/2-x,1/2+y,-z
1/2-x,1/2-y,-z
1/2+x,1/2-y,z
loop_
_atom_site_type_symbol
_atom_site_label
_atom_site_fract_x
_atom_site_fract_y
_atom_site_fract_z
Si Si1 0.732191 0.644221 0.127227
Si Si2 0.145833 0.696687 0.154152
Si Si3 0.585320 0.927387 0.710687
Si Si4 0.023497 0.337234 0.789962
Si Si5 0.879858 0.156981 0.847125
Si Si6 0.584598 0.280786 0.771985
Si Si7 0.300597 0.182960 0.555058
Si Si8 0.153003 0.231927 0.660856
O O1 0.796289 0.594497 0.154409
O O2 0.672157 0.617830 0.137582
O O3 0.818683 0.694966 0.295858
O O4 0.628638 0.668371 0.912273
O O5 0.111348 0.769179 0.113455
O O6 0.151041 0.660756 0.267826
O O7 0.263554 0.691202 0.278295
O O8 0.063151 0.658264 0.962893
O O9 0.500000 0.908940 0.500000
O O10 0.544671 0.898796 0.756105
O O11 0.591336 0.000000 0.738667
O O12 0.096580 0.285354 0.843395
O O13 0.895363 0.318509 0.609643
O O14 0.801202 0.143490 0.636709
O O15 0.000000 0.131439 0.000000
O O16 0.460237 0.286215 0.555804
O O17 0.660319 0.286655 0.787030
O O18 0.250000 0.250000 0.500000
#
# Coordination Sequence:
#
# PCOD8084908 Si02
#       8
#     8   8   8   8   8   8   8   8
#     4  11  20  34  52  79 112 145 177 227 272 332
#     4  10  19  29  47  72 112 149 176 204 267 335
#     4  11  24  40  58  79 106 147 192 237 282 319
#     4  12  19  33  54  78 112 146 180 227 275 338
#     4  10  19  30  46  75 114 148 177 211 268 335
#     4  11  19  28  50  75 113 138 174 216 279 336
#     4  10  20  30  47  75 116 151 176 210 262 337
#     4  10  19  29  43  77 109 145 173 207 268 340
#
# _framework density 18.019839999999999
#
# number of rings (size 3 to 8) (size 9 to 14) (size 15 to 20)
#    0.000    1.375    3.750    6.750    1.750    0.000 
#    0.000    0.000    0.000    1.875    0.000    7.000 
#    0.000    0.000    0.000    0.000    0.000    0.000 
#
# Total GULP energy -396476.878866 kJ/mol
# GULP energy per Si atom -12389.902465 kJ/mol
# Density = 1.797883 g / cm^3
# Si number density = 18.019840 Si / 1000 Ang^3
#
#
#
# Elastic Constant Matrix: (Units=GPa)
#
#
# Indices 1 2 3 4 5 6 
#
# 1 133.6552 26.6081 48.3984 0.0000 8.9141 0.0000
# 2 26.6081 36.0760 30.0752 0.0000 -0.3643 0.0000
# 3 48.3984 30.0752 100.6600 0.0000 -12.7508 0.0000
# 4 0.0000 0.0000 0.0000 12.0493 0.0000 -2.7089
# 5 8.9141 -0.3643 -12.7508 0.0000 35.9325 0.0000
# 6 0.0000 0.0000 0.0000 -2.7089 0.0000 12.9964
#
#
#
# Elastic Compliance Matrix: (Units=1/GPa)
#
#
# Indices 1 2 3 4 5 6 
#
# 1 0.010044 -0.003995 -0.004143 0.000000 -0.004002 0.000000
# 2 -0.003995 0.038980 -0.010000 0.000000 -0.002162 0.000000
# 3 -0.004143 -0.010000 0.015739 0.000000 0.006511 0.000000
# 4 0.000000 0.000000 0.000000 0.087073 0.000000 0.018149
# 5 -0.004002 -0.002162 0.006511 0.000000 0.031112 0.000000
# 6 0.000000 0.000000 0.000000 0.018149 0.000000 0.080727
#
#
# Mechanical properties :
#
#
# Convention : Reuss Voigt Hill
#
# Bulk Modulus (GPa) = 35.10164 53.39493 44.24829
# Shear Modulus (GPa) = 16.15791 23.21627 19.68709
#
# Velocity S-wave (km/s) = 2.99770 3.59329 3.30892
# Velocity P-wave (km/s) = 5.61278 6.84917 6.26157
#
# Compressibility (1/GPa) = 0.02848870
#
# Stress axis : x y z
#
# Youngs Moduli (GPa) = 99.55830 25.65402 63.53723
#
# Poissons Ratio (x) = 0.10249 0.26322
# Poissons Ratio (y) = 0.39774 0.63534
# Poissons Ratio (z) = 0.41245 0.25653
#
# Static dielectric constant tensor:
#      x y z
#    x 3.860690 0.000000 -0.160630 
#    y 0.000000 2.594230 0.000000 
#    z -0.160630 0.000000 3.759480 
# 
# 
# High freq. dielectric constant tensor:
#      x y z
#    x 1.728420 0.000000 -0.002640 
#    y 0.000000 1.594190 0.000000 
#    z -0.002640 0.000000 1.723040 
# 
# From -- ./inp_files/169707.got.cif
#   From: 2010.06.25/outbox.cif.g09.slc.cpg/sg12_85_cif.got.tgz:169707.got - 2010.06.28 00:19:55.
