data_PCOD8084371
_publ_section_title
;
Structure prediction by ZEFSAII (Michael W. Deem and Ramdas Pophale) SiO2 
 PCOD8084371
Probable space group: C 2/M
;
_chemical_formula_sum "Si O2"
_cell_formula_units_Z 48
_cell_length_a 14.993337
_cell_length_b 14.834138
_cell_length_c 18.467037
_cell_angle_alpha 90.000000
_cell_angle_beta 144.888267
_cell_angle_gamma 90.000000
_cell_volume 2362.414839
_symmetry_space_group_name_H-M "C 2/M"
_symmetry_group_IT_number 12
_symmetry_cell_setting 'monoclinic'
loop_
_space_group_symop_operation_xyz
x,y,z
-x,y,-z
-x,-y,-z
x,-y,z
1/2+x,1/2+y,z
1/2-x,1/2+y,-z
1/2-x,1/2-y,-z
1/2+x,1/2-y,z
loop_
_atom_site_type_symbol
_atom_site_label
_atom_site_fract_x
_atom_site_fract_y
_atom_site_fract_z
Si Si1 0.246947 0.599490 0.878100
Si Si2 0.673890 0.208710 0.113363
Si Si3 0.152595 0.819104 0.352423
Si Si4 0.040335 0.335175 0.379276
Si Si5 0.342761 0.399028 0.105405
Si Si6 0.355829 0.270545 0.367004
O O1 0.311020 0.500000 0.897729
O O2 0.324978 0.681255 0.885096
O O3 0.060205 0.599156 0.739034
O O4 0.281093 0.617150 0.984317
O O5 0.754338 0.173018 0.095114
O O6 0.765328 0.172539 0.245140
O O7 0.500000 0.172237 0.000000
O O8 0.064351 0.759039 0.353104
O O9 0.291478 0.874821 0.485316
O O10 0.228351 0.756808 0.341237
O O11 0.028638 0.885286 0.233101
O O12 0.939762 0.315576 0.384921
O O13 0.304804 0.500000 0.106481
O O14 0.500000 0.325947 0.500000
#
# Coordination Sequence:
#
# PCOD8084371 Si02
#       6
#     8   8   8   8   8   8
#     4  10  21  37  57  84 115 148 190 234 284 346
#     4  11  22  37  59  82 113 155 189 238 292 333
#     4  10  18  35  60  84 114 151 193 233 282 342
#     4   9  19  34  58  87 112 151 189 233 286 341
#     4  11  23  38  57  84 117 154 197 236 280 341
#     4   9  18  33  57  89 112 144 188 233 284 345
#
# _framework density 20.318193000000001
#
# number of rings (size 3 to 8) (size 9 to 14) (size 15 to 20)
#    0.000    2.000    3.333    1.500    2.333    1.333 
#    0.000    5.000    0.000   14.000    0.000    0.000 
#    0.000    0.000    0.000    0.000    0.000    0.000 
#
# Total GULP energy -297346.463482 kJ/mol
# GULP energy per Si atom -12389.435978 kJ/mol
# Density = 2.027195 g / cm^3
# Si number density = 20.318193 Si / 1000 Ang^3
#
#
#
# Elastic Constant Matrix: (Units=GPa)
#
#
# Indices 1 2 3 4 5 6 
#
# 1 70.3150 3.7277 26.8413 0.0001 3.1649 0.0001
# 2 3.7277 31.6809 8.6420 0.0004 1.2312 0.0003
# 3 26.8413 8.6420 181.9666 0.0011 1.1302 0.0005
# 4 0.0001 0.0004 0.0011 8.7145 0.0005 1.7480
# 5 3.1649 1.2312 1.1302 0.0005 31.9542 0.0003
# 6 0.0001 0.0003 0.0005 1.7480 0.0003 6.1563
#
#
#
# Elastic Compliance Matrix: (Units=1/GPa)
#
#
# Indices 1 2 3 4 5 6 
#
# 1 0.015175 -0.001138 -0.002176 0.000000 -0.001382 0.000000
# 2 -0.001138 0.032109 -0.001350 -0.000001 -0.001077 -0.000001
# 3 -0.002176 -0.001350 0.005880 -0.000001 0.000060 0.000000
# 4 0.000000 -0.000001 -0.000001 0.121682 -0.000001 -0.034550
# 5 -0.001382 -0.001077 0.000060 -0.000001 0.031471 -0.000001
# 6 0.000000 -0.000001 0.000000 -0.034550 -0.000001 0.172246
#
#
# Mechanical properties :
#
#
# Convention : Reuss Voigt Hill
#
# Bulk Modulus (GPa) = 22.81274 40.26495 31.53885
# Shear Modulus (GPa) = 12.42227 25.68178 19.05202
#
# Velocity S-wave (km/s) = 2.47531 3.55911 3.06548
# Velocity P-wave (km/s) = 4.40700 6.06217 5.29960
#
# Compressibility (1/GPa) = 0.04383515
#
# Stress axis : x y z
#
# Youngs Moduli (GPa) = 65.89869 31.14406 170.06196
#
# Poissons Ratio (x) = 0.03545 0.37001
# Poissons Ratio (y) = 0.07501 0.22964
# Poissons Ratio (z) = 0.14338 0.04205
#
# Static dielectric constant tensor:
#      x y z
#    x 3.474500 0.000000 0.020060 
#    y 0.000000 3.217290 0.000000 
#    z 0.020060 0.000000 4.536600 
# 
# 
# High freq. dielectric constant tensor:
#      x y z
#    x 1.786260 0.000000 -0.000810 
#    y 0.000000 1.728230 0.000000 
#    z -0.000810 0.000000 1.839110 
# 
# From -- ./inp_files/270435.got.cif
#   From: 2010.06.25/outbox.cif.g09.slc.cpg/sg12_136_cif.got.tgz:270435.got - 2010.06.28 00:19:55.
