data_PCOD8084633
_publ_section_title
;
Structure prediction by ZEFSAII (Michael W. Deem and Ramdas Pophale) SiO2 
 PCOD8084633
Probable space group: C 2/M
;
_chemical_formula_sum "Si O2"
_cell_formula_units_Z 52
_cell_length_a 21.813796
_cell_length_b 18.400605
_cell_length_c 15.699080
_cell_angle_alpha 90.000000
_cell_angle_beta 154.678035
_cell_angle_gamma 90.000000
_cell_volume 2695.139775
_symmetry_space_group_name_H-M "C 2/M"
_symmetry_group_IT_number 12
_symmetry_cell_setting 'monoclinic'
loop_
_space_group_symop_operation_xyz
x,y,z
-x,y,-z
-x,-y,-z
x,-y,z
1/2+x,1/2+y,z
1/2-x,1/2+y,-z
1/2-x,1/2-y,-z
1/2+x,1/2-y,z
loop_
_atom_site_type_symbol
_atom_site_label
_atom_site_fract_x
_atom_site_fract_y
_atom_site_fract_z
Si Si1 0.881946 0.798648 0.424349
Si Si2 0.263402 0.833668 0.045631
Si Si3 0.977758 0.084934 0.662673
Si Si4 0.697898 0.581495 0.389366
Si Si5 0.450453 0.810593 0.662616
Si Si6 0.366049 0.270685 0.969655
Si Si7 0.500000 0.370708 0.000000
O O1 0.886793 0.877942 0.473389
O O2 0.894484 0.738314 0.514591
O O3 0.726838 0.795579 0.184854
O O4 0.000000 0.786720 0.500000
O O5 0.138903 0.884932 0.853030
O O6 0.250000 0.750000 0.000000
O O7 0.419193 0.861264 0.210141
O O8 0.242355 0.828067 0.120526
O O9 0.909787 0.104423 0.669460
O O10 0.979472 0.000000 0.648407
O O11 0.757333 0.500000 0.480193
O O12 0.828075 0.638182 0.547691
O O13 0.611360 0.579665 0.191751
O O14 0.507780 0.759083 0.810756
O O15 0.425256 0.316176 0.968418
#
# Coordination Sequence:
#
# PCOD8084633 Si02
#       7
#     8   8   8   8   8   8   4
#     4  12  21  38  66  94 124 158 209 266 308 369
#     4  10  18  40  62  89 122 161 207 258 305 364
#     4  11  24  42  63  90 130 172 205 252 317 377
#     4  11  25  42  61  90 131 171 207 255 314 375
#     4  11  22  40  64  91 130 159 207 262 317 360
#     4  11  22  34  63  98 119 157 212 262 312 360
#     4  12  21  36  64  90 119 160 216 262 301 370
#
# _framework density 19.293990000000001
#
# number of rings (size 3 to 8) (size 9 to 14) (size 15 to 20)
#    0.000    0.923    7.692    1.154    2.154    2.154 
#    0.000    0.769    0.000    3.231    0.000    0.000 
#    0.000    0.000    0.000    0.000    0.000    0.000 
#
# Total GULP energy -322210.211286 kJ/mol
# GULP energy per Si atom -12392.700434 kJ/mol
# Density = 1.925008 g / cm^3
# Si number density = 19.293990 Si / 1000 Ang^3
#
#
#
# Elastic Constant Matrix: (Units=GPa)
#
#
# Indices 1 2 3 4 5 6 
#
# 1 73.8419 26.7429 7.3045 0.0000 5.6935 0.0000
# 2 26.7429 88.3411 21.9335 0.0000 7.4611 0.0000
# 3 7.3045 21.9335 71.3888 0.0000 -2.8483 0.0000
# 4 0.0000 0.0000 0.0000 26.7232 0.0000 0.9713
# 5 5.6935 7.4611 -2.8483 0.0000 37.2460 0.0000
# 6 0.0000 0.0000 0.0000 0.9713 0.0000 30.3180
#
#
#
# Elastic Compliance Matrix: (Units=1/GPa)
#
#
# Indices 1 2 3 4 5 6 
#
# 1 0.015289 -0.004440 -0.000259 0.000000 -0.001467 0.000000
# 2 -0.004440 0.013832 -0.003891 0.000000 -0.002390 0.000000
# 3 -0.000259 -0.003891 0.015309 0.000000 0.001990 0.000000
# 4 0.000000 0.000000 0.000000 0.037464 0.000000 -0.001200
# 5 -0.001467 -0.002390 0.001990 0.000000 0.027704 0.000000
# 6 0.000000 0.000000 0.000000 -0.001200 0.000000 0.033022
#
#
# Mechanical properties :
#
#
# Convention : Reuss Voigt Hill
#
# Bulk Modulus (GPa) = 36.69624 38.39261 37.54442
# Shear Modulus (GPa) = 29.60629 30.69684 30.15156
#
# Velocity S-wave (km/s) = 3.92150 3.99307 3.95744
# Velocity P-wave (km/s) = 6.29007 6.41883 6.35478
#
# Compressibility (1/GPa) = 0.02725075
#
# Stress axis : x y z
#
# Youngs Moduli (GPa) = 65.40533 72.29761 65.32092
#
# Poissons Ratio (x) = 0.32102 0.01690
# Poissons Ratio (y) = 0.29042 0.25414
# Poissons Ratio (z) = 0.01692 0.28129
#
# Static dielectric constant tensor:
#      x y z
#    x 3.897110 0.000000 0.072100 
#    y 0.000000 3.291270 0.000000 
#    z 0.072100 0.000000 3.763380 
# 
# 
# High freq. dielectric constant tensor:
#      x y z
#    x 1.774080 0.000000 -0.002210 
#    y 0.000000 1.725450 0.000000 
#    z -0.002210 0.000000 1.746720 
# 
# From -- ./inp_files/234495.got.cif
#   From: 2010.06.25/outbox.cif.g09.slc.cpg/sg12_118_cif.got.tgz:234495.got - 2010.06.28 00:19:55.
