data_PCOD8084558
_publ_section_title
;
Structure prediction by ZEFSAII (Michael W. Deem and Ramdas Pophale) SiO2 
 PCOD8084558
Probable space group: C 2/M
;
_chemical_formula_sum "Si O2"
_cell_formula_units_Z 48
_cell_length_a 20.922882
_cell_length_b 16.311770
_cell_length_c 9.007204
_cell_angle_alpha 90.000000
_cell_angle_beta 128.237802
_cell_angle_gamma 90.000000
_cell_volume 2414.517890
_symmetry_space_group_name_H-M "C 2/M"
_symmetry_group_IT_number 12
_symmetry_cell_setting 'monoclinic'
loop_
_space_group_symop_operation_xyz
x,y,z
-x,y,-z
-x,-y,-z
x,-y,z
1/2+x,1/2+y,z
1/2-x,1/2+y,-z
1/2-x,1/2-y,-z
1/2+x,1/2-y,z
loop_
_atom_site_type_symbol
_atom_site_label
_atom_site_fract_x
_atom_site_fract_y
_atom_site_fract_z
Si Si1 0.783759 0.589306 0.523826
Si Si2 0.520279 0.644572 0.197343
Si Si3 0.784199 0.217756 0.783727
Si Si4 0.423387 0.188185 0.820304
Si Si5 0.355081 0.407150 0.101002
Si Si6 0.324045 0.369411 0.388588
O O1 0.783292 0.500000 0.447293
O O2 0.723056 0.652726 0.359561
O O3 0.875221 0.624414 0.648771
O O4 0.753595 0.584218 0.651354
O O5 0.532382 0.742326 0.214204
O O6 0.446867 0.617917 0.196594
O O7 0.602209 0.611069 0.391533
O O8 0.500000 0.612005 0.000000
O O9 0.864689 0.269942 0.860499
O O10 0.702773 0.273553 0.673716
O O11 0.794525 0.161907 0.945760
O O12 0.500000 0.139014 0.000000
O O13 0.336565 0.500000 0.016374
O O14 0.344974 0.408459 0.262337
#
# Coordination Sequence:
#
# PCOD8084558 Si02
#       6
#     8   8   8   8   8   8
#     4  11  21  35  61  88 113 148 190 245 287 324
#     4  11  20  39  61  82 115 156 192 231 281 344
#     4  11  20  39  61  83 111 162 192 228 281 351
#     4  10  18  37  60  81 111 146 200 233 269 342
#     4  12  25  37  56  90 122 149 188 242 295 335
#     4  11  22  39  58  86 121 153 192 230 288 351
#
# _framework density 19.879746000000001
#
# number of rings (size 3 to 8) (size 9 to 14) (size 15 to 20)
#    0.000    1.000    6.667    3.000    0.000    2.667 
#    0.000    0.000    0.000    0.000    0.000    1.167 
#    0.000    0.000    0.000    0.000    0.000    0.000 
#
# Total GULP energy -297337.260675 kJ/mol
# GULP energy per Si atom -12389.052528 kJ/mol
# Density = 1.983450 g / cm^3
# Si number density = 19.879746 Si / 1000 Ang^3
#
#
#
# Elastic Constant Matrix: (Units=GPa)
#
#
# Indices 1 2 3 4 5 6 
#
# 1 68.0672 21.9924 33.7240 0.0000 1.0711 0.0000
# 2 21.9924 89.5239 28.1282 0.0000 4.9318 0.0000
# 3 33.7240 28.1282 109.0193 0.0000 14.4042 0.0000
# 4 0.0000 0.0000 0.0000 15.9411 0.0000 -3.5236
# 5 1.0711 4.9318 14.4042 0.0000 29.3997 0.0000
# 6 0.0000 0.0000 0.0000 -3.5236 0.0000 11.7111
#
#
#
# Elastic Compliance Matrix: (Units=1/GPa)
#
#
# Indices 1 2 3 4 5 6 
#
# 1 0.018175 -0.002971 -0.005169 0.000000 0.002369 0.000000
# 2 -0.002971 0.012649 -0.002222 0.000000 -0.000925 0.000000
# 3 -0.005169 -0.002222 0.012051 0.000000 -0.005343 0.000000
# 4 0.000000 0.000000 0.000000 0.067200 0.000000 0.020219
# 5 0.002369 -0.000925 -0.005343 0.000000 0.036701 0.000000
# 6 0.000000 0.000000 0.000000 0.020219 0.000000 0.091473
#
#
# Mechanical properties :
#
#
# Convention : Reuss Voigt Hill
#
# Bulk Modulus (GPa) = 45.14533 48.25551 46.70042
# Shear Modulus (GPa) = 18.77179 23.59474 21.18327
#
# Velocity S-wave (km/s) = 3.07623 3.44884 3.26785
# Velocity P-wave (km/s) = 5.94778 6.33922 6.14662
#
# Compressibility (1/GPa) = 0.02215068
#
# Stress axis : x y z
#
# Youngs Moduli (GPa) = 55.02093 79.05543 82.98163
#
# Poissons Ratio (x) = 0.23490 0.42889
# Poissons Ratio (y) = 0.16349 0.18441
# Poissons Ratio (z) = 0.28438 0.17569
#
# Static dielectric constant tensor:
#      x y z
#    x 3.446220 0.000000 0.220810 
#    y 0.000000 3.619220 0.000000 
#    z 0.220810 0.000000 3.859530 
# 
# 
# High freq. dielectric constant tensor:
#      x y z
#    x 1.757330 0.000000 0.015630 
#    y 0.000000 1.766620 0.000000 
#    z 0.015630 0.000000 1.775560 
# 
# From -- ./inp_files/97883.got.cif
#   From: 2010.06.25/outbox.cif.g09.slc.cpg/sg12_49_cif.got.tgz:97883.got - 2010.06.28 00:19:55.
