data_PCOD8084120
_publ_section_title
;
Structure prediction by ZEFSAII (Michael W. Deem and Ramdas Pophale) SiO2 
 PCOD8084120
Probable space group: C 2/M
;
_chemical_formula_sum "Si O2"
_cell_formula_units_Z 64
_cell_length_a 18.737230
_cell_length_b 15.952274
_cell_length_c 14.588587
_cell_angle_alpha 90.000000
_cell_angle_beta 133.483756
_cell_angle_gamma 90.000000
_cell_volume 3163.881692
_symmetry_space_group_name_H-M "C 2/M"
_symmetry_group_IT_number 12
_symmetry_cell_setting 'monoclinic'
loop_
_space_group_symop_operation_xyz
x,y,z
-x,y,-z
-x,-y,-z
x,-y,z
1/2+x,1/2+y,z
1/2-x,1/2+y,-z
1/2-x,1/2-y,-z
1/2+x,1/2-y,z
loop_
_atom_site_type_symbol
_atom_site_label
_atom_site_fract_x
_atom_site_fract_y
_atom_site_fract_z
Si Si1 0.407786 0.904825 0.764753
Si Si2 0.440273 0.264903 0.268235
Si Si3 0.151178 0.705497 0.446671
Si Si4 0.169767 0.909356 0.920283
Si Si5 0.393491 0.157808 0.391721
Si Si6 0.202340 0.905462 0.157135
Si Si7 0.374490 0.855079 0.055680
Si Si8 0.886125 0.737981 0.887956
O O1 0.370646 0.879177 0.630744
O O2 0.526256 0.905874 0.879511
O O3 0.362643 0.834697 0.792994
O O4 0.371558 0.000000 0.754796
O O5 0.557354 0.267113 0.351461
O O6 0.396754 0.354107 0.204604
O O7 0.415526 0.242074 0.351766
O O8 0.387038 0.196338 0.159323
O O9 0.250000 0.750000 0.500000
O O10 0.159757 0.680893 0.560349
O O11 0.121909 0.000000 0.867836
O O12 0.166825 0.882405 0.023780
O O13 0.282820 0.916134 0.987989
O O14 0.500000 0.112918 0.500000
O O15 0.321002 0.095789 0.272572
O O16 0.160188 0.828486 0.181913
O O17 0.166550 0.000000 0.153372
O O18 0.342860 0.792418 0.946245
O O19 0.000000 0.754597 0.000000
#
# Coordination Sequence:
#
# PCOD8084120 Si02
#       8
#     8   8   8   8   8   8   8   8
#     4  10  22  38  59  87 117 153 203 253 304 365
#     4  10  19  37  61  84 120 159 200 250 310 369
#     4  10  22  40  62  83 112 160 212 257 302 360
#     4  11  21  33  57  92 124 154 194 242 309 377
#     4  10  21  38  60  86 113 158 208 254 305 360
#     4  11  22  36  57  89 124 160 202 247 299 369
#     4  10  18  34  58  85 120 155 189 239 310 364
#     4  10  21  36  59  84 121 163 196 241 303 373
#
# _framework density 20.228314999999998
#
# number of rings (size 3 to 8) (size 9 to 14) (size 15 to 20)
#    0.000    1.750    2.500    2.250    0.000    3.750 
#    0.000    0.625    0.000    3.375    0.000    0.000 
#    0.000    0.000    0.000    0.000    0.000    0.000 
#
# Total GULP energy -396578.026039 kJ/mol
# GULP energy per Si atom -12393.063314 kJ/mol
# Density = 2.018227 g / cm^3
# Si number density = 20.228315 Si / 1000 Ang^3
#
#
#
# Elastic Constant Matrix: (Units=GPa)
#
#
# Indices 1 2 3 4 5 6 
#
# 1 85.3657 45.3937 28.9552 0.0000 -7.4780 0.0000
# 2 45.3937 144.3792 46.6179 0.0000 -3.7612 0.0000
# 3 28.9552 46.6179 86.9465 0.0000 -7.0043 0.0000
# 4 0.0000 0.0000 0.0000 20.6379 0.0000 -0.9058
# 5 -7.4780 -3.7612 -7.0043 0.0000 28.2137 0.0000
# 6 0.0000 0.0000 0.0000 -0.9058 0.0000 20.4601
#
#
#
# Elastic Compliance Matrix: (Units=1/GPa)
#
#
# Indices 1 2 3 4 5 6 
#
# 1 0.014860 -0.003718 -0.002733 0.000000 0.002765 0.000000
# 2 -0.003718 0.009306 -0.003807 0.000000 -0.000690 0.000000
# 3 -0.002733 -0.003807 0.014646 0.000000 0.002404 0.000000
# 4 0.000000 0.000000 0.000000 0.048549 0.000000 0.002149
# 5 0.002765 -0.000690 0.002404 0.000000 0.036681 0.000000
# 6 0.000000 0.000000 0.000000 0.002149 0.000000 0.048971
#
#
# Mechanical properties :
#
#
# Convention : Reuss Voigt Hill
#
# Bulk Modulus (GPa) = 54.65213 62.06944 58.36078
# Shear Modulus (GPa) = 25.04643 26.91065 25.97854
#
# Velocity S-wave (km/s) = 3.52261 3.65135 3.58755
# Velocity P-wave (km/s) = 6.60464 6.96617 6.78781
#
# Compressibility (1/GPa) = 0.01829755
#
# Stress axis : x y z
#
# Youngs Moduli (GPa) = 67.29307 107.45234 68.27606
#
# Poissons Ratio (x) = 0.39949 0.18658
# Poissons Ratio (y) = 0.25018 0.25995
# Poissons Ratio (z) = 0.18390 0.40910
#
# Static dielectric constant tensor:
#      x y z
#    x 3.710540 0.000000 -0.062130 
#    y 0.000000 3.431780 0.000000 
#    z -0.062130 0.000000 3.857040 
# 
# 
# High freq. dielectric constant tensor:
#      x y z
#    x 1.782230 0.000000 -0.003940 
#    y 0.000000 1.769470 0.000000 
#    z -0.003940 0.000000 1.794200 
# 
# From -- ./inp_files/225773.got.cif
#   From: 2010.06.25/outbox.cif.g09.slc.cpg/sg12_113_cif.got.tgz:225773.got - 2010.06.28 00:19:55.
