data_PCOD8084084
_publ_section_title
;
Structure prediction by ZEFSAII (Michael W. Deem and Ramdas Pophale) SiO2 
 PCOD8084084
Probable space group: C 2/M
;
_chemical_formula_sum "Si O2"
_cell_formula_units_Z 48
_cell_length_a 17.785310
_cell_length_b 18.304230
_cell_length_c 11.694383
_cell_angle_alpha 90.000000
_cell_angle_beta 142.139785
_cell_angle_gamma 90.000000
_cell_volume 2336.536737
_symmetry_space_group_name_H-M "C 2/M"
_symmetry_group_IT_number 12
_symmetry_cell_setting 'monoclinic'
loop_
_space_group_symop_operation_xyz
x,y,z
-x,y,-z
-x,-y,-z
x,-y,z
1/2+x,1/2+y,z
1/2-x,1/2+y,-z
1/2-x,1/2-y,-z
1/2+x,1/2-y,z
loop_
_atom_site_type_symbol
_atom_site_label
_atom_site_fract_x
_atom_site_fract_y
_atom_site_fract_z
Si Si1 0.271857 0.822938 0.228278
Si Si2 0.683860 0.916203 0.931240
Si Si3 0.526149 0.868904 0.157252
Si Si4 0.391228 0.678273 0.288789
Si Si5 0.014169 0.796531 0.838814
Si Si6 0.745470 0.333048 0.452854
O O1 0.338341 0.874809 0.215932
O O2 0.310985 0.739188 0.256273
O O3 0.303124 0.843737 0.395640
O O4 0.126198 0.832827 0.040221
O O5 0.562425 0.908846 0.860639
O O6 0.709970 0.000000 0.934509
O O7 0.800840 0.886118 0.141715
O O8 0.509122 0.782064 0.134721
O O9 0.668820 0.883608 0.363309
O O10 0.500000 0.900904 0.000000
O O11 0.500000 0.647548 0.500000
O O12 0.453308 0.716096 0.254294
O O13 0.898935 0.852489 0.714034
O O14 0.750000 0.250000 0.500000
#
# Coordination Sequence:
#
# PCOD8084084 Si02
#       6
#     8   8   8   8   8   8
#     4  11  20  39  63  93 125 157 211 267 315 368
#     4  11  25  42  60  87 128 177 211 252 317 381
#     4  11  21  36  59  85 127 162 205 255 315 374
#     4  11  21  35  66  92 121 161 211 271 315 362
#     4  10  18  34  57  95 120 149 196 266 323 360
#     4  10  21  32  60  95 121 155 199 263 320 369
#
# _framework density 20.543225
#
# number of rings (size 3 to 8) (size 9 to 14) (size 15 to 20)
#    0.000    1.333    3.333    5.500    2.333    0.667 
#    0.000    1.667    0.000    9.000    0.000    0.000 
#    0.000    0.000    0.000    0.000    0.000    0.000 
#
# Total GULP energy -297534.119337 kJ/mol
# GULP energy per Si atom -12397.254972 kJ/mol
# Density = 2.049647 g / cm^3
# Si number density = 20.543225 Si / 1000 Ang^3
#
#
#
# Elastic Constant Matrix: (Units=GPa)
#
#
# Indices 1 2 3 4 5 6 
#
# 1 102.6488 9.7531 49.1892 0.0000 2.4418 0.0000
# 2 9.7531 60.9140 16.3982 0.0000 4.0252 0.0000
# 3 49.1892 16.3982 117.8538 0.0000 -6.8137 0.0000
# 4 0.0000 0.0000 0.0000 8.6265 0.0000 1.3528
# 5 2.4418 4.0252 -6.8137 0.0000 36.7835 0.0000
# 6 0.0000 0.0000 0.0000 1.3528 0.0000 9.6463
#
#
#
# Elastic Compliance Matrix: (Units=1/GPa)
#
#
# Indices 1 2 3 4 5 6 
#
# 1 0.012305 -0.000464 -0.005171 0.000000 -0.001724 0.000000
# 2 -0.000464 0.017273 -0.002342 0.000000 -0.002293 0.000000
# 3 -0.005171 -0.002342 0.011123 0.000000 0.002660 0.000000
# 4 0.000000 0.000000 0.000000 0.118529 0.000000 -0.016623
# 5 -0.001724 -0.002293 0.002660 0.000000 0.028044 0.000000
# 6 0.000000 0.000000 0.000000 -0.016623 0.000000 0.105998
#
#
# Mechanical properties :
#
#
# Convention : Reuss Voigt Hill
#
# Bulk Modulus (GPa) = 40.41009 48.01087 44.21048
# Shear Modulus (GPa) = 15.74929 24.74967 20.24948
#
# Velocity S-wave (km/s) = 2.77183 3.47473 3.14299
# Velocity P-wave (km/s) = 5.47335 6.28647 5.89395
#
# Compressibility (1/GPa) = 0.02474630
#
# Stress axis : x y z
#
# Youngs Moduli (GPa) = 81.26818 57.89388 89.90425
#
# Poissons Ratio (x) = 0.02688 0.46488
# Poissons Ratio (y) = 0.03773 0.21057
# Poissons Ratio (z) = 0.42022 0.13560
#
# Static dielectric constant tensor:
#      x y z
#    x 4.113830 0.000000 0.241970 
#    y 0.000000 3.076650 0.000000 
#    z 0.241970 0.000000 4.336950 
# 
# 
# High freq. dielectric constant tensor:
#      x y z
#    x 1.820410 0.000000 0.001170 
#    y 0.000000 1.730420 0.000000 
#    z 0.001170 0.000000 1.824280 
# 
# From -- ./inp_files/159336.got.cif
#   From: 2010.06.25/outbox.cif.g09.slc.cpg/sg12_80_cif.got.tgz:159336.got - 2010.06.28 00:19:55.
