data_PCOD8084447
_publ_section_title
;
Structure prediction by ZEFSAII (Michael W. Deem and Ramdas Pophale) SiO2 
 PCOD8084447
Probable space group: C 2/M
;
_chemical_formula_sum "Si O2"
_cell_formula_units_Z 64
_cell_length_a 24.378050
_cell_length_b 17.397764
_cell_length_c 15.861363
_cell_angle_alpha 90.000000
_cell_angle_beta 29.360902
_cell_angle_gamma 90.000000
_cell_volume 3298.396690
_symmetry_space_group_name_H-M "C 2/M"
_symmetry_group_IT_number 12
_symmetry_cell_setting 'monoclinic'
loop_
_space_group_symop_operation_xyz
x,y,z
-x,y,-z
-x,-y,-z
x,-y,z
1/2+x,1/2+y,z
1/2-x,1/2+y,-z
1/2-x,1/2-y,-z
1/2+x,1/2-y,z
loop_
_atom_site_type_symbol
_atom_site_label
_atom_site_fract_x
_atom_site_fract_y
_atom_site_fract_z
Si Si1 0.520252 0.736299 0.354980
Si Si2 0.200805 0.636219 0.868431
Si Si3 0.867538 0.915467 0.781835
Si Si4 0.962750 0.669173 0.143075
Si Si5 0.243509 0.911125 0.391798
Si Si6 0.817255 0.711004 0.735801
Si Si7 0.156483 0.912981 0.990041
Si Si8 0.045503 0.809955 0.732171
O O1 0.535179 0.647236 0.367064
O O2 0.630389 0.780540 0.240334
O O3 0.411800 0.776197 0.539341
O O4 0.512656 0.739255 0.264886
O O5 0.258873 0.592912 0.868228
O O6 0.253594 0.603209 0.711923
O O7 0.220038 0.727404 0.850026
O O8 0.066339 0.626445 0.050934
O O9 0.920935 0.000000 0.697164
O O10 0.826431 0.906263 0.932718
O O11 0.862204 0.608280 0.275465
O O12 0.920638 0.747752 0.243314
O O13 0.000000 0.693756 0.000000
O O14 0.151984 0.855917 0.555735
O O15 0.213867 0.000000 0.449379
O O16 0.762052 0.627235 0.802778
O O17 0.152440 0.000000 0.963342
O O18 0.042282 0.871600 0.114018
#
# Coordination Sequence:
#
# PCOD8084447 Si02
#       8
#     8   8   8   8   8   8   8   8
#     4   9  20  32  57  83 111 154 186 223 266 333
#     4  10  19  35  56  83 112 156 181 224 284 335
#     4   9  19  33  52  86 121 147 183 225 276 335
#     4  10  23  38  60  85 107 149 196 238 279 335
#     4  11  23  38  57  85 117 146 187 238 289 333
#     4  10  18  36  53  85 118 144 188 222 268 341
#     4  10  21  35  58  86 114 147 185 232 281 334
#     4  11  20  38  62  83 110 150 192 230 283 334
#
# _framework density 19.403368
#
# number of rings (size 3 to 8) (size 9 to 14) (size 15 to 20)
#    0.000    2.000    2.500    1.125    1.750    4.750 
#    0.000    3.125    0.000    3.750    0.000    0.000 
#    0.000    0.000    0.000    0.000    0.000    0.000 
#
# Total GULP energy -396721.431887 kJ/mol
# GULP energy per Si atom -12397.544746 kJ/mol
# Density = 1.935920 g / cm^3
# Si number density = 19.403368 Si / 1000 Ang^3
#
#
#
# Elastic Constant Matrix: (Units=GPa)
#
#
# Indices 1 2 3 4 5 6 
#
# 1 58.2107 6.0406 5.4681 0.0000 -8.0349 0.0000
# 2 6.0406 88.9833 31.0965 0.0000 7.6392 0.0000
# 3 5.4681 31.0965 64.7384 0.0000 -11.9205 0.0000
# 4 0.0000 0.0000 0.0000 31.5110 0.0000 -0.4760
# 5 -8.0349 7.6392 -11.9205 0.0000 21.5497 0.0000
# 6 0.0000 0.0000 0.0000 -0.4760 0.0000 22.5463
#
#
#
# Elastic Compliance Matrix: (Units=1/GPa)
#
#
# Indices 1 2 3 4 5 6 
#
# 1 0.018470 -0.002356 0.001106 0.000000 0.008333 0.000000
# 2 -0.002356 0.015728 -0.009513 0.000000 -0.011716 0.000000
# 3 0.001106 -0.009513 0.022958 0.000000 0.016485 0.000000
# 4 0.000000 0.000000 0.000000 0.031745 0.000000 0.000670
# 5 0.008333 -0.011716 0.016485 0.000000 0.062783 0.000000
# 6 0.000000 0.000000 0.000000 0.000670 0.000000 0.044367
#
#
# Mechanical properties :
#
#
# Convention : Reuss Voigt Hill
#
# Bulk Modulus (GPa) = 28.06601 33.01585 30.54093
# Shear Modulus (GPa) = 21.79072 26.40990 24.10031
#
# Velocity S-wave (km/s) = 3.35481 3.69331 3.52812
# Velocity P-wave (km/s) = 5.43160 5.93632 5.68956
#
# Compressibility (1/GPa) = 0.03563029
#
# Stress axis : x y z
#
# Youngs Moduli (GPa) = 54.14242 63.57910 43.55703
#
# Poissons Ratio (x) = 0.14977 -0.04817
# Poissons Ratio (y) = 0.12754 0.41438
# Poissons Ratio (z) = -0.05988 0.60486
#
# Static dielectric constant tensor:
#      x y z
#    x 3.649150 0.000000 -0.155970 
#    y 0.000000 3.476820 0.000000 
#    z -0.155970 0.000000 3.337900 
# 
# 
# High freq. dielectric constant tensor:
#      x y z
#    x 1.751590 0.000000 -0.015370 
#    y 0.000000 1.744280 0.000000 
#    z -0.015370 0.000000 1.744970 
# 
# From -- ./inp_files/241476.got.cif
#   From: 2010.06.25/outbox.cif.g09.slc.cpg/sg12_121_cif.got.tgz:241476.got - 2010.06.28 00:19:55.
