data_PCOD8084068
_publ_section_title
;
Structure prediction by ZEFSAII (Michael W. Deem and Ramdas Pophale) SiO2 
 PCOD8084068
Probable space group: C 2/M
;
_chemical_formula_sum "Si O2"
_cell_formula_units_Z 56
_cell_length_a 23.882975
_cell_length_b 8.782427
_cell_length_c 15.274800
_cell_angle_alpha 90.000000
_cell_angle_beta 60.345675
_cell_angle_gamma 90.000000
_cell_volume 2784.270199
_symmetry_space_group_name_H-M "C 2/M"
_symmetry_group_IT_number 12
_symmetry_cell_setting 'monoclinic'
loop_
_space_group_symop_operation_xyz
x,y,z
-x,y,-z
-x,-y,-z
x,-y,z
1/2+x,1/2+y,z
1/2-x,1/2+y,-z
1/2-x,1/2-y,-z
1/2+x,1/2-y,z
loop_
_atom_site_type_symbol
_atom_site_label
_atom_site_fract_x
_atom_site_fract_y
_atom_site_fract_z
Si Si1 0.792541 0.679055 0.389033
Si Si2 0.730930 0.170366 0.788149
Si Si3 0.432259 0.680068 0.815802
Si Si4 0.376180 0.670831 0.682453
Si Si5 0.807990 0.179756 0.011638
Si Si6 0.438125 0.171897 0.488004
Si Si7 0.072307 0.176951 0.682734
O O1 0.784112 0.500000 0.405580
O O2 0.750000 0.750000 0.500000
O O3 0.769484 0.735205 0.310998
O O4 0.867665 0.722067 0.334828
O O5 0.802761 0.166189 0.770295
O O6 0.692005 0.275196 0.885941
O O7 0.701208 0.000000 0.811219
O O8 0.425699 0.500000 0.814186
O O9 0.417343 0.744340 0.730018
O O10 0.506038 0.723126 0.786150
O O11 0.377907 0.741135 0.924399
O O12 0.399910 0.500000 0.640158
O O13 0.379005 0.778778 0.595390
O O14 0.802061 0.000000 0.007298
O O15 0.750000 0.250000 0.000000
O O16 0.500000 0.188987 0.500000
O O17 0.442589 0.291638 0.406794
O O18 0.427660 0.000000 0.461324
O O19 0.089076 0.000000 0.683418
#
# Coordination Sequence:
#
# PCOD8084068 Si02
#       7
#     8   8   8   8   8   8   8
#     4  11  24  43  66  92 123 159 204 253 300 359
#     4  10  22  40  61  87 119 156 198 247 303 359
#     4   9  19  35  57  85 117 153 196 242 294 358
#     4  10  18  34  57  81 114 154 196 239 293 365
#     4  11  21  37  61  91 124 158 200 251 302 360
#     4  11  22  33  49  82 121 150 190 245 302 363
#     4  11  22  39  61  83 115 162 205 246 300 359
#
# _framework density 20.112991000000001
#
# number of rings (size 3 to 8) (size 9 to 14) (size 15 to 20)
#    0.000    1.571    2.857    2.571    0.000    3.429 
#    0.000    3.571    0.000    4.286    0.000    0.000 
#    0.000    0.000    0.000    0.000    0.000    0.000 
#
# Total GULP energy -347048.381249 kJ/mol
# GULP energy per Si atom -12394.585045 kJ/mol
# Density = 2.006721 g / cm^3
# Si number density = 20.112991 Si / 1000 Ang^3
#
#
#
# Elastic Constant Matrix: (Units=GPa)
#
#
# Indices 1 2 3 4 5 6 
#
# 1 95.9590 23.8354 48.0951 0.0000 -10.9507 0.0000
# 2 23.8354 50.5713 34.1134 0.0000 -1.9790 0.0002
# 3 48.0951 34.1134 131.3251 0.0000 -9.5791 0.0000
# 4 0.0000 0.0000 0.0000 31.1251 0.0000 0.8610
# 5 -10.9507 -1.9790 -9.5791 0.0000 33.4995 0.0000
# 6 0.0000 0.0002 0.0000 0.8610 0.0000 28.7629
#
#
#
# Elastic Compliance Matrix: (Units=1/GPa)
#
#
# Indices 1 2 3 4 5 6 
#
# 1 0.013604 -0.003738 -0.003782 0.000000 0.003145 0.000000
# 2 -0.003738 0.025007 -0.005217 0.000000 -0.001236 0.000000
# 3 -0.003782 -0.005217 0.010460 0.000000 0.001447 0.000000
# 4 0.000000 0.000000 0.000000 0.032155 0.000000 -0.000963
# 5 0.003145 -0.001236 0.001447 0.000000 0.031220 0.000000
# 6 0.000000 0.000000 0.000000 -0.000963 0.000000 0.034796
#
#
# Mechanical properties :
#
#
# Convention : Reuss Voigt Hill
#
# Bulk Modulus (GPa) = 42.37713 54.43815 48.40764
# Shear Modulus (GPa) = 27.68844 30.13159 28.91002
#
# Velocity S-wave (km/s) = 3.71434 3.87475 3.79539
# Velocity P-wave (km/s) = 6.28573 6.86609 6.58231
#
# Compressibility (1/GPa) = 0.02359763
#
# Stress axis : x y z
#
# Youngs Moduli (GPa) = 73.50841 39.98948 95.59808
#
# Poissons Ratio (x) = 0.14947 0.36154
# Poissons Ratio (y) = 0.27475 0.49875
# Poissons Ratio (z) = 0.27800 0.20863
#
# Static dielectric constant tensor:
#      x y z
#    x 3.697170 0.000000 -0.164270 
#    y 0.000000 3.519320 0.000000 
#    z -0.164270 0.000000 3.834380 
# 
# 
# High freq. dielectric constant tensor:
#      x y z
#    x 1.777390 0.000000 -0.012410 
#    y 0.000000 1.770110 0.000000 
#    z -0.012410 0.000000 1.786620 
# 
# From -- ./inp_files/238384.got.cif
#   From: 2010.06.25/outbox.cif.g09.slc.cpg/sg12_120_cif.got.tgz:238384.got - 2010.06.28 00:19:55.
