data_PCOD8084673
_publ_section_title
;
Structure prediction by ZEFSAII (Michael W. Deem and Ramdas Pophale) SiO2 
 PCOD8084673
Probable space group: C 2/M
;
_chemical_formula_sum "Si O2"
_cell_formula_units_Z 64
_cell_length_a 27.592307
_cell_length_b 8.902703
_cell_length_c 18.632716
_cell_angle_alpha 90.000000
_cell_angle_beta 67.987574
_cell_angle_gamma 90.000000
_cell_volume 4243.398882
_symmetry_space_group_name_H-M "C 2/M"
_symmetry_group_IT_number 12
_symmetry_cell_setting 'monoclinic'
loop_
_space_group_symop_operation_xyz
x,y,z
-x,y,-z
-x,-y,-z
x,-y,z
1/2+x,1/2+y,z
1/2-x,1/2+y,-z
1/2-x,1/2-y,-z
1/2+x,1/2-y,z
loop_
_atom_site_type_symbol
_atom_site_label
_atom_site_fract_x
_atom_site_fract_y
_atom_site_fract_z
Si Si1 0.198466 0.823764 0.616327
Si Si2 0.990372 0.321916 0.621534
Si Si3 0.990011 0.175925 0.241718
Si Si4 0.184888 0.676502 0.475274
Si Si5 0.067507 0.326999 0.925918
Si Si6 0.464086 0.326219 0.929503
Si Si7 0.579690 0.822928 0.466412
Si Si8 0.384888 0.173518 0.245076
O O1 0.175642 0.760623 0.555017
O O2 0.259548 0.780059 0.590406
O O3 0.167884 0.752884 0.699882
O O4 0.189922 0.000000 0.621857
O O5 0.989888 0.500000 0.635889
O O6 0.941512 0.267887 0.599044
O O7 0.985298 0.235521 0.698822
O O8 0.043196 0.267663 0.552149
O O9 0.935756 0.258633 0.255005
O O10 0.034607 0.208307 0.156435
O O11 0.977544 0.000000 0.253266
O O12 0.181572 0.500000 0.493148
O O13 0.139314 0.730048 0.446145
O O14 0.049772 0.500000 0.937919
O O15 0.114081 0.306147 0.842421
O O16 0.020972 0.221182 0.925531
O O17 0.079868 0.269011 0.000760
O O18 0.453703 0.500000 0.950316
O O19 0.575189 0.000000 0.468409
O O20 0.383000 0.000000 0.267972
#
# Coordination Sequence:
#
# PCOD8084673 Si02
#       8
#     8   8   8   8   8   8   8   8
#     4  10  19  28  41  62  83 106 138 171 202 238
#     4   9  16  27  44  62  79 104 137 168 199 236
#     4  10  19  28  39  59  85 109 135 166 199 238
#     4   9  17  30  45  59  81 111 138 167 202 239
#     4   9  16  25  38  55  74 100 135 167 193 229
#     4   9  16  25  37  53  77 107 131 156 194 236
#     4   8  15  28  44  60  78 104 138 169 198 236
#     4  10  19  29  41  57  80 110 139 169 203 236
#
# _framework density 15.08225
#
# number of rings (size 3 to 8) (size 9 to 14) (size 15 to 20)
#    0.000    2.750    0.000    4.125    0.000    4.500 
#    0.000    1.875    0.000    0.000    0.000    0.000 
#    0.000    1.000    0.000    2.250    0.000    4.000 
#
# Total GULP energy -396518.939984 kJ/mol
# GULP energy per Si atom -12391.216875 kJ/mol
# Density = 1.504792 g / cm^3
# Si number density = 15.082250 Si / 1000 Ang^3
#
#
#
# Elastic Constant Matrix: (Units=GPa)
#
#
# Indices 1 2 3 4 5 6 
#
# 1 77.8206 24.0226 47.5941 0.0000 0.9043 0.0000
# 2 24.0226 43.1151 40.0304 0.0000 -3.2839 0.0000
# 3 47.5941 40.0304 129.1542 0.0000 -2.0456 0.0000
# 4 0.0000 0.0000 0.0000 26.0741 0.0000 -0.3529
# 5 0.9043 -3.2839 -2.0456 0.0000 18.0931 0.0000
# 6 0.0000 0.0000 0.0000 -0.3529 0.0000 14.6866
#
#
#
# Elastic Compliance Matrix: (Units=1/GPa)
#
#
# Indices 1 2 3 4 5 6 
#
# 1 0.017500 -0.005492 -0.004785 0.000000 -0.002412 0.000000
# 2 -0.005492 0.034706 -0.008644 0.000000 0.005596 0.000000
# 3 -0.004785 -0.008644 0.012186 0.000000 0.000048 0.000000
# 4 0.000000 0.000000 0.000000 0.038365 0.000000 0.000922
# 5 -0.002412 0.005596 0.000048 0.000000 0.056411 0.000000
# 6 0.000000 0.000000 0.000000 0.000922 0.000000 0.068112
#
#
# Mechanical properties :
#
#
# Convention : Reuss Voigt Hill
#
# Bulk Modulus (GPa) = 37.66540 52.59825 45.13182
# Shear Modulus (GPa) = 18.25012 21.00027 19.62520
#
# Velocity S-wave (km/s) = 3.48234 3.73551 3.61114
# Velocity P-wave (km/s) = 6.41844 7.31816 6.88302
#
# Compressibility (1/GPa) = 0.02654957
#
# Stress axis : x y z
#
# Youngs Moduli (GPa) = 57.14393 28.81367 82.06152
#
# Poissons Ratio (x) = 0.15823 0.39265
# Poissons Ratio (y) = 0.31381 0.70938
# Poissons Ratio (z) = 0.27343 0.24908
#
# Static dielectric constant tensor:
#      x y z
#    x 2.762540 0.000000 0.015660 
#    y 0.000000 2.887080 0.000000 
#    z 0.015660 0.000000 3.448850 
# 
# 
# High freq. dielectric constant tensor:
#      x y z
#    x 1.526990 0.000000 -0.002310 
#    y 0.000000 1.581610 0.000000 
#    z -0.002310 0.000000 1.585910 
# 
# From -- ./inp_files/294572.got.cif
#   From: 2010.06.25/outbox.cif.g09.slc.cpg/sg12_148_cif.got.tgz:294572.got - 2010.06.28 00:19:55.
