data_PCOD8084772
_publ_section_title
;
Structure prediction by ZEFSAII (Michael W. Deem and Ramdas Pophale) SiO2 
 PCOD8084772
Probable space group: C 2/M
;
_chemical_formula_sum "Si O2"
_cell_formula_units_Z 56
_cell_length_a 33.775852
_cell_length_b 13.838962
_cell_length_c 8.942648
_cell_angle_alpha 90.000000
_cell_angle_beta 59.170081
_cell_angle_gamma 90.000000
_cell_volume 3589.331618
_symmetry_space_group_name_H-M "C 2/M"
_symmetry_group_IT_number 12
_symmetry_cell_setting 'monoclinic'
loop_
_space_group_symop_operation_xyz
x,y,z
-x,y,-z
-x,-y,-z
x,-y,z
1/2+x,1/2+y,z
1/2-x,1/2+y,-z
1/2-x,1/2-y,-z
1/2+x,1/2-y,z
loop_
_atom_site_type_symbol
_atom_site_label
_atom_site_fract_x
_atom_site_fract_y
_atom_site_fract_z
Si Si1 0.317904 0.207118 0.174749
Si Si2 0.325865 0.207277 0.512333
Si Si3 0.096315 0.388452 0.138543
Si Si4 0.766469 0.893671 0.286154
Si Si5 0.725547 0.393728 0.376036
Si Si6 0.588258 0.111223 0.505202
Si Si7 0.495726 0.114658 0.840733
O O1 0.330267 0.197835 0.325338
O O2 0.304599 0.317306 0.155310
O O3 0.274619 0.139728 0.214600
O O4 0.360758 0.176192 0.992413
O O5 0.285180 0.139610 0.655927
O O6 0.314714 0.317446 0.584332
O O7 0.373327 0.177421 0.494605
O O8 0.105662 0.500000 0.077093
O O9 0.088322 0.376502 0.328728
O O10 0.051307 0.346793 0.142057
O O11 0.768838 0.896843 0.458542
O O12 0.776094 0.000000 0.198112
O O13 0.712845 0.500000 0.336753
O O14 0.539235 0.149533 0.659633
O O15 0.596674 0.000000 0.536201
O O16 0.494064 0.000000 0.845078
O O17 0.500000 0.156358 0.000000
#
# Coordination Sequence:
#
# PCOD8084772 Si02
#       7
#     8   8   8   8   8   8   8
#     4   9  16  26  43  64  83 110 147 178 206 245
#     4   9  16  26  43  64  83 110 147 178 206 245
#     4  10  19  29  41  60  88 116 138 167 210 253
#     4   8  14  25  41  62  87 112 141 179 214 241
#     4   8  14  25  41  62  87 112 141 179 214 241
#     4  10  19  29  41  60  88 116 138 167 210 253
#     4   9  17  29  45  63  82 107 140 173 203 244
#
# _framework density 15.601789999999999
#
# number of rings (size 3 to 8) (size 9 to 14) (size 15 to 20)
#    0.000    3.000    0.000    3.857    0.000    4.571 
#    0.000    2.857    0.000    2.571    0.000    1.000 
#    0.000    8.000    0.000    0.000    0.000    0.000 
#
# Total GULP energy -347074.283538 kJ/mol
# GULP energy per Si atom -12395.510126 kJ/mol
# Density = 1.556628 g / cm^3
# Si number density = 15.601790 Si / 1000 Ang^3
#
#
#
# Elastic Constant Matrix: (Units=GPa)
#
#
# Indices 1 2 3 4 5 6 
#
# 1 33.6849 26.6293 42.5020 0.0000 -21.6250 0.0000
# 2 26.6293 100.6237 39.0321 0.0000 -16.2873 0.0000
# 3 42.5020 39.0321 89.2726 0.0000 -21.8811 0.0000
# 4 0.0000 0.0000 0.0000 16.5653 0.0000 -4.9122
# 5 -21.6250 -16.2873 -21.8811 0.0000 25.6548 0.0000
# 6 0.0000 0.0000 0.0000 -4.9122 0.0000 20.0117
#
#
#
# Elastic Compliance Matrix: (Units=1/GPa)
#
#
# Indices 1 2 3 4 5 6 
#
# 1 0.142272 -0.007582 -0.045775 0.000000 0.076069 0.000000
# 2 -0.007582 0.012699 -0.001938 0.000000 0.000018 0.000000
# 3 -0.045775 -0.001938 0.030448 0.000000 -0.013845 0.000000
# 4 0.000000 0.000000 0.000000 0.065106 0.000000 0.015981
# 5 0.076069 0.000018 -0.013845 0.000000 0.091302 0.000000
# 6 0.000000 0.000000 0.000000 0.015981 0.000000 0.053894
#
#
# Mechanical properties :
#
#
# Convention : Reuss Voigt Hill
#
# Bulk Modulus (GPa) = 13.36372 48.87868 31.12120
# Shear Modulus (GPa) = 9.41168 20.14088 14.77628
#
# Velocity S-wave (km/s) = 2.45877 3.59685 3.08082
# Velocity P-wave (km/s) = 4.07980 6.97472 5.71365
#
# Compressibility (1/GPa) = 0.07482948
#
# Stress axis : x y z
#
# Youngs Moduli (GPa) = 7.02880 78.74420 32.84243
#
# Poissons Ratio (x) = 0.59707 1.50335
# Poissons Ratio (y) = 0.05330 0.06365
# Poissons Ratio (z) = 0.32174 0.15262
#
# Static dielectric constant tensor:
#      x y z
#    x 2.901900 0.000000 -0.091280 
#    y 0.000000 3.214660 0.000000 
#    z -0.091280 0.000000 2.830370 
# 
# 
# High freq. dielectric constant tensor:
#      x y z
#    x 1.589820 0.000000 -0.007670 
#    y 0.000000 1.572920 0.000000 
#    z -0.007670 0.000000 1.586760 
# 
# From -- ./inp_files/104737.got.cif
#   From: 2010.06.25/outbox.cif.g09.slc.cpg/sg12_53_cif.got.tgz:104737.got - 2010.06.28 00:19:55.
