data_PCOD8084027
_publ_section_title
;
Structure prediction by ZEFSAII (Michael W. Deem and Ramdas Pophale) SiO2 
 PCOD8084027
Probable space group: C 2/M
;
_chemical_formula_sum "Si O2"
_cell_formula_units_Z 64
_cell_length_a 14.814829
_cell_length_b 8.496119
_cell_length_c 30.165585
_cell_angle_alpha 90.000000
_cell_angle_beta 60.574819
_cell_angle_gamma 90.000000
_cell_volume 3307.090875
_symmetry_space_group_name_H-M "C 2/M"
_symmetry_group_IT_number 12
_symmetry_cell_setting 'monoclinic'
loop_
_space_group_symop_operation_xyz
x,y,z
-x,y,-z
-x,-y,-z
x,-y,z
1/2+x,1/2+y,z
1/2-x,1/2+y,-z
1/2-x,1/2-y,-z
1/2+x,1/2-y,z
loop_
_atom_site_type_symbol
_atom_site_label
_atom_site_fract_x
_atom_site_fract_y
_atom_site_fract_z
Si Si1 0.789835 0.313348 0.123302
Si Si2 0.146599 0.687256 0.500598
Si Si3 0.067839 0.314501 0.756825
Si Si4 0.200488 0.185854 0.311060
Si Si5 0.074704 0.187895 0.425682
Si Si6 0.792640 0.314954 0.944231
Si Si7 0.518062 0.813427 0.866762
Si Si8 0.870086 0.815367 0.765501
O O1 0.782710 0.500000 0.119666
O O2 0.783109 0.233962 0.077090
O O3 0.899405 0.258166 0.116703
O O4 0.699483 0.247314 0.177481
O O5 0.148495 0.500000 0.501473
O O6 0.250000 0.750000 0.500000
O O7 0.139579 0.745579 0.451602
O O8 0.042756 0.749370 0.549728
O O9 0.047629 0.500000 0.759620
O O10 0.179995 0.268106 0.711220
O O11 0.053351 0.250227 0.810274
O O12 0.989157 0.225597 0.743837
O O13 0.133362 0.251740 0.367958
O O14 0.162524 0.259952 0.273687
O O15 0.187075 0.000000 0.312432
O O16 0.072523 0.000000 0.429855
O O17 0.799180 0.500000 0.946371
O O18 0.906499 0.242932 0.906938
O O19 0.750000 0.250000 0.000000
O O20 0.514274 0.000000 0.865714
O O21 0.850259 0.000000 0.768329
#
# Coordination Sequence:
#
# PCOD8084027 Si02
#       8
#     8   8   8   8   8   8   8   8
#     4  10  19  35  59  81 104 140 182 223 267 325
#     4  11  22  39  62  86 114 155 201 246 294 346
#     4  10  18  34  56  80 108 146 188 223 264 326
#     4   9  19  35  57  83 117 153 186 225 276 336
#     4  10  20  37  59  88 121 155 193 241 294 347
#     4  11  23  39  57  81 109 140 179 229 280 330
#     4   9  18  34  58  79 103 142 183 216 262 332
#     4  10  19  33  54  82 111 143 181 224 273 323
#
# _framework density 19.352354999999999
#
# number of rings (size 3 to 8) (size 9 to 14) (size 15 to 20)
#    0.000    2.000    2.500    2.625    0.000    1.500 
#    0.000   10.000    0.000    0.000    0.000    0.000 
#    0.000    0.000    0.000    0.000    0.000    0.000 
#
# Total GULP energy -396783.391254 kJ/mol
# GULP energy per Si atom -12399.480977 kJ/mol
# Density = 1.930831 g / cm^3
# Si number density = 19.352355 Si / 1000 Ang^3
#
#
#
# Elastic Constant Matrix: (Units=GPa)
#
#
# Indices 1 2 3 4 5 6 
#
# 1 122.9593 19.0137 39.3343 0.0000 1.6629 0.0000
# 2 19.0137 53.3434 21.9723 0.0000 1.2341 0.0000
# 3 39.3343 21.9723 132.5469 0.0000 -0.8187 0.0000
# 4 0.0000 0.0000 0.0000 20.6622 0.0000 -0.5599
# 5 1.6629 1.2341 -0.8187 0.0000 28.3265 0.0000
# 6 0.0000 0.0000 0.0000 -0.5599 0.0000 31.8614
#
#
#
# Elastic Compliance Matrix: (Units=1/GPa)
#
#
# Indices 1 2 3 4 5 6 
#
# 1 0.009254 -0.002312 -0.002366 0.000000 -0.000511 0.000000
# 2 -0.002312 0.020725 -0.002755 0.000000 -0.000847 0.000000
# 3 -0.002366 -0.002755 0.008706 0.000000 0.000511 0.000000
# 4 0.000000 0.000000 0.000000 0.048421 0.000000 0.000851
# 5 -0.000511 -0.000847 0.000511 0.000000 0.035384 0.000000
# 6 0.000000 0.000000 0.000000 0.000851 0.000000 0.031401
#
#
# Mechanical properties :
#
#
# Convention : Reuss Voigt Hill
#
# Bulk Modulus (GPa) = 41.98213 52.16559 47.07386
# Shear Modulus (GPa) = 28.29707 31.40531 29.85119
#
# Velocity S-wave (km/s) = 3.82802 4.03279 3.93174
# Velocity P-wave (km/s) = 6.42487 6.97845 6.70737
#
# Compressibility (1/GPa) = 0.02381966
#
# Stress axis : x y z
#
# Youngs Moduli (GPa) = 108.05997 48.25130 114.85734
#
# Poissons Ratio (x) = 0.11156 0.27176
# Poissons Ratio (y) = 0.24985 0.31639
# Poissons Ratio (z) = 0.25568 0.13292
#
# Static dielectric constant tensor:
#      x y z
#    x 3.608010 0.000000 0.073140 
#    y 0.000000 3.232300 0.000000 
#    z 0.073140 0.000000 3.634810 
# 
# 
# High freq. dielectric constant tensor:
#      x y z
#    x 1.765980 0.000000 0.000190 
#    y 0.000000 1.727320 0.000000 
#    z 0.000190 0.000000 1.756440 
# 
# From -- ./inp_files/375010.got.cif
#   From: 2010.06.25/outbox.cif.g09.slc.cpg/sg12_188_cif.got.tgz:375010.got - 2010.06.28 00:19:55.
