data_PCOD8084097
_publ_section_title
;
Structure prediction by ZEFSAII (Michael W. Deem and Ramdas Pophale) SiO2 
 PCOD8084097
Probable space group: C 2/M
;
_chemical_formula_sum "Si O2"
_cell_formula_units_Z 64
_cell_length_a 24.199211
_cell_length_b 9.099957
_cell_length_c 20.665909
_cell_angle_alpha 90.000000
_cell_angle_beta 127.925036
_cell_angle_gamma 90.000000
_cell_volume 3589.802412
_symmetry_space_group_name_H-M "C 2/M"
_symmetry_group_IT_number 12
_symmetry_cell_setting 'monoclinic'
loop_
_space_group_symop_operation_xyz
x,y,z
-x,y,-z
-x,-y,-z
x,-y,z
1/2+x,1/2+y,z
1/2-x,1/2+y,-z
1/2-x,1/2-y,-z
1/2+x,1/2-y,z
loop_
_atom_site_type_symbol
_atom_site_label
_atom_site_fract_x
_atom_site_fract_y
_atom_site_fract_z
Si Si1 0.540763 0.329973 0.212689
Si Si2 0.811351 0.170054 0.122040
Si Si3 0.322727 0.332800 0.617847
Si Si4 0.042249 0.826299 0.722425
Si Si5 0.466832 0.171166 0.045481
Si Si6 0.665216 0.829708 0.504442
Si Si7 0.171416 0.170648 0.015491
Si Si8 0.463730 0.325751 0.539499
O O1 0.520484 0.500000 0.185420
O O2 0.623988 0.310520 0.284275
O O3 0.500142 0.266763 0.246146
O O4 0.520410 0.235647 0.136261
O O5 0.876128 0.218984 0.213977
O O6 0.744819 0.266273 0.094614
O O7 0.791628 0.000000 0.117254
O O8 0.834945 0.200062 0.065463
O O9 0.328067 0.500000 0.595160
O O10 0.344222 0.225920 0.575446
O O11 0.244299 0.299301 0.586095
O O12 0.009348 0.763583 0.632574
O O13 0.034934 0.000000 0.717081
O O14 0.456008 0.000000 0.051316
O O15 0.500000 0.202035 0.000000
O O16 0.391718 0.248934 0.994067
O O17 0.613646 0.742832 0.514840
O O18 0.645898 0.000000 0.492369
O O19 0.167962 0.000000 0.030162
O O20 0.500000 0.272276 0.500000
O O21 0.456642 0.500000 0.536839
#
# Coordination Sequence:
#
# PCOD8084097 Si02
#       8
#     8   8   8   8   8   8   8   8
#     4  10  18  34  58  80 104 138 181 225 263 311
#     4   9  17  31  52  78 107 136 169 219 269 307
#     4   9  18  33  54  79 109 141 175 219 268 317
#     4   9  16  31  54  79 105 136 178 220 260 309
#     4  11  24  39  54  77 111 144 174 217 270 320
#     4  10  19  31  51  80 110 142 177 220 271 314
#     4  10  19  33  54  80 105 137 177 214 261 317
#     4  10  20  35  55  77 106 147 185 217 263 323
#
# _framework density 17.828278999999998
#
# number of rings (size 3 to 8) (size 9 to 14) (size 15 to 20)
#    0.000    2.250    2.500    1.125    0.000    2.750 
#    0.000    1.875    0.000    4.500    0.000    0.000 
#    0.000    0.000    0.000    0.000    0.000    0.000 
#
# Total GULP energy -396833.261782 kJ/mol
# GULP energy per Si atom -12401.039431 kJ/mol
# Density = 1.778770 g / cm^3
# Si number density = 17.828279 Si / 1000 Ang^3
#
#
#
# Elastic Constant Matrix: (Units=GPa)
#
#
# Indices 1 2 3 4 5 6 
#
# 1 129.0120 62.5968 69.0958 0.0000 12.9939 0.0000
# 2 62.5968 72.6326 43.0581 0.0000 4.2653 0.0000
# 3 69.0958 43.0581 112.2093 0.0000 8.9515 0.0000
# 4 0.0000 0.0000 0.0000 23.3500 0.0000 5.2322
# 5 12.9939 4.2653 8.9515 0.0000 27.9894 0.0000
# 6 0.0000 0.0000 0.0000 5.2322 0.0000 30.2768
#
#
#
# Elastic Compliance Matrix: (Units=1/GPa)
#
#
# Indices 1 2 3 4 5 6 
#
# 1 0.016263 -0.010397 -0.005694 0.000000 -0.004144 0.000000
# 2 -0.010397 0.024477 -0.003158 0.000000 0.002107 0.000000
# 3 -0.005694 -0.003158 0.013731 0.000000 -0.001267 0.000000
# 4 0.000000 0.000000 0.000000 0.044552 0.000000 -0.007699
# 5 -0.004144 0.002107 -0.001267 0.000000 0.037736 0.000000
# 6 0.000000 0.000000 0.000000 -0.007699 0.000000 0.034359
#
#
# Mechanical properties :
#
#
# Convention : Reuss Voigt Hill
#
# Bulk Modulus (GPa) = 62.60863 73.70614 68.15738
# Shear Modulus (GPa) = 23.26227 25.59679 24.42953
#
# Velocity S-wave (km/s) = 3.61612 3.79323 3.70573
# Velocity P-wave (km/s) = 7.25458 7.78568 7.52481
#
# Compressibility (1/GPa) = 0.01597224
#
# Stress axis : x y z
#
# Youngs Moduli (GPa) = 61.49020 40.85498 72.82674
#
# Poissons Ratio (x) = 0.42476 0.41468
# Poissons Ratio (y) = 0.63930 0.23002
# Poissons Ratio (z) = 0.35013 0.12904
#
# Static dielectric constant tensor:
#      x y z
#    x 3.245030 0.000000 0.220190 
#    y 0.000000 3.205170 0.000000 
#    z 0.220190 0.000000 3.378200 
# 
# 
# High freq. dielectric constant tensor:
#      x y z
#    x 1.680750 0.000000 0.025060 
#    y 0.000000 1.679440 0.000000 
#    z 0.025060 0.000000 1.684990 
# 
# From -- ./inp_files/324260.got.cif
#   From: 2010.06.25/outbox.cif.g09.slc.cpg/sg12_163_cif.got.tgz:324260.got - 2010.06.28 00:19:55.
