data_PCOD8084144
_publ_section_title
;
Structure prediction by ZEFSAII (Michael W. Deem and Ramdas Pophale) SiO2 
 PCOD8084144
Probable space group: C 2/M
;
_chemical_formula_sum "Si O2"
_cell_formula_units_Z 64
_cell_length_a 21.560634
_cell_length_b 16.316437
_cell_length_c 18.959425
_cell_angle_alpha 90.000000
_cell_angle_beta 29.462245
_cell_angle_gamma 90.000000
_cell_volume 3280.534689
_symmetry_space_group_name_H-M "C 2/M"
_symmetry_group_IT_number 12
_symmetry_cell_setting 'monoclinic'
loop_
_space_group_symop_operation_xyz
x,y,z
-x,y,-z
-x,-y,-z
x,-y,z
1/2+x,1/2+y,z
1/2-x,1/2+y,-z
1/2-x,1/2-y,-z
1/2+x,1/2-y,z
loop_
_atom_site_type_symbol
_atom_site_label
_atom_site_fract_x
_atom_site_fract_y
_atom_site_fract_z
Si Si1 0.602330 0.090063 0.336870
Si Si2 0.574284 0.856819 0.212872
Si Si3 0.432040 0.694686 0.322071
Si Si4 0.726062 0.784887 0.633877
Si Si5 0.248783 0.093623 0.166997
Si Si6 0.835359 0.906826 0.905272
Si Si7 0.018345 0.590732 0.842597
Si Si8 0.850636 0.752966 0.651303
O O1 0.500000 0.091397 0.500000
O O2 0.539905 0.100386 0.321251
O O3 0.689711 0.171207 0.263635
O O4 0.671013 0.000000 0.271336
O O5 0.521633 0.765179 0.264965
O O6 0.506912 0.905805 0.216395
O O7 0.725881 0.854414 0.051952
O O8 0.355111 0.718659 0.328658
O O9 0.330309 0.670189 0.482042
O O10 0.525000 0.620765 0.209135
O O11 0.631433 0.852960 0.757186
O O12 0.793544 0.738482 0.630657
O O13 0.169533 0.101935 0.173984
O O14 0.199696 0.161112 0.269569
O O15 0.234976 0.000000 0.210005
O O16 0.393700 0.115531 0.008336
O O17 0.813975 0.000000 0.950453
O O18 0.059991 0.500000 0.821366
O O19 0.000000 0.760508 0.500000
#
# Coordination Sequence:
#
# PCOD8084144 Si02
#       8
#     8   8   8   8   8   8   8   8
#     4  10  20  33  52  78 105 135 175 222 271 319
#     4  10  18  34  59  82 106 138 180 226 272 322
#     4  10  20  36  55  78 109 143 179 226 273 321
#     4  10  22  36  53  78 107 144 188 221 267 331
#     4   9  19  35  56  84 114 146 183 221 268 330
#     4  10  19  33  56  85 111 136 175 222 272 327
#     4   9  19  36  57  82 111 141 179 227 271 320
#     4  11  22  37  55  78 110 147 185 230 277 327
#
# _framework density 19.509014000000001
#
# number of rings (size 3 to 8) (size 9 to 14) (size 15 to 20)
#    0.000    2.125    0.000    5.250    0.000    3.750 
#    0.000    1.875    0.000    0.000    0.000    3.500 
#    0.000    0.000    0.000    0.000    0.000    0.000 
#
# Total GULP energy -396639.442291 kJ/mol
# GULP energy per Si atom -12394.982572 kJ/mol
# Density = 1.946461 g / cm^3
# Si number density = 19.509014 Si / 1000 Ang^3
#
#
#
# Elastic Constant Matrix: (Units=GPa)
#
#
# Indices 1 2 3 4 5 6 
#
# 1 97.8719 40.9226 39.5906 -0.0001 -6.2155 -0.0001
# 2 40.9226 112.4986 41.9786 0.0000 -2.8921 -0.0002
# 3 39.5906 41.9786 76.7620 -0.0006 -12.6711 0.0000
# 4 -0.0001 0.0000 -0.0006 25.4726 0.0004 1.5059
# 5 -6.2155 -2.8921 -12.6711 0.0004 30.2062 0.0000
# 6 -0.0001 -0.0002 0.0000 1.5059 0.0000 15.7235
#
#
#
# Elastic Compliance Matrix: (Units=1/GPa)
#
#
# Indices 1 2 3 4 5 6 
#
# 1 0.013644 -0.002949 -0.005380 0.000000 0.000268 0.000000
# 2 -0.002949 0.011878 -0.005251 0.000000 -0.001672 0.000000
# 3 -0.005380 -0.005251 0.019777 0.000000 0.006687 0.000000
# 4 0.000000 0.000000 0.000000 0.039481 0.000000 -0.003781
# 5 0.000268 -0.001672 0.006687 0.000000 0.035806 0.000000
# 6 0.000000 0.000000 0.000000 -0.003781 0.000000 0.063961
#
#
# Mechanical properties :
#
#
# Convention : Reuss Voigt Hill
#
# Bulk Modulus (GPa) = 55.12720 59.12402 57.12561
# Shear Modulus (GPa) = 22.96178 25.25651 24.10915
#
# Velocity S-wave (km/s) = 3.43444 3.60197 3.51920
# Velocity P-wave (km/s) = 6.63670 6.90440 6.77187
#
# Compressibility (1/GPa) = 0.01813987
#
# Stress axis : x y z
#
# Youngs Moduli (GPa) = 73.29416 84.18949 50.56267
#
# Poissons Ratio (x) = 0.24824 0.27203
# Poissons Ratio (y) = 0.21611 0.26550
# Poissons Ratio (z) = 0.39433 0.44208
#
# Static dielectric constant tensor:
#      x y z
#    x 3.493890 0.000000 0.003520 
#    y 0.000000 3.876510 0.000000 
#    z 0.003520 0.000000 3.493620 
# 
# 
# High freq. dielectric constant tensor:
#      x y z
#    x 1.750300 0.000000 0.007610 
#    y 0.000000 1.760180 0.000000 
#    z 0.007610 0.000000 1.750450 
# 
# From -- ./inp_files/285180.got.cif
#   From: 2010.06.25/outbox.cif.g09.slc.cpg/sg12_143_cif.got.tgz:285180.got - 2010.06.28 00:19:55.
