data_PCOD8084388
_publ_section_title
;
Structure prediction by ZEFSAII (Michael W. Deem and Ramdas Pophale) SiO2 
 PCOD8084388
Probable space group: C 2/M
;
_chemical_formula_sum "Si O2"
_cell_formula_units_Z 56
_cell_length_a 15.257388
_cell_length_b 8.698235
_cell_length_c 22.635239
_cell_angle_alpha 90.000000
_cell_angle_beta 109.355004
_cell_angle_gamma 90.000000
_cell_volume 2834.200652
_symmetry_space_group_name_H-M "C 2/M"
_symmetry_group_IT_number 12
_symmetry_cell_setting 'monoclinic'
loop_
_space_group_symop_operation_xyz
x,y,z
-x,y,-z
-x,-y,-z
x,-y,z
1/2+x,1/2+y,z
1/2-x,1/2+y,-z
1/2-x,1/2-y,-z
1/2+x,1/2-y,z
loop_
_atom_site_type_symbol
_atom_site_label
_atom_site_fract_x
_atom_site_fract_y
_atom_site_fract_z
Si Si1 0.892983 0.819554 0.785707
Si Si2 0.419767 0.822077 0.131842
Si Si3 0.373505 0.181921 0.422059
Si Si4 0.101765 0.175729 0.996186
Si Si5 0.721614 0.320681 0.129873
Si Si6 0.316099 0.818585 0.651430
Si Si7 0.576554 0.817596 0.438004
O O1 0.823583 0.752670 0.820477
O O2 0.872795 0.732451 0.720950
O O3 0.998202 0.787314 0.828340
O O4 0.879015 0.000000 0.772734
O O5 0.390165 0.783792 0.058732
O O6 0.331427 0.788361 0.154252
O O7 0.449688 0.000000 0.142715
O O8 0.288921 0.259016 0.368603
O O9 0.374833 0.238702 0.490555
O O10 0.469030 0.236340 0.412095
O O11 0.362040 0.000000 0.415615
O O12 0.126507 0.000000 0.984300
O O13 0.172707 0.247228 0.060289
O O14 0.000000 0.184580 0.000000
O O15 0.697779 0.500000 0.123618
O O16 0.367918 0.748530 0.605291
O O17 0.315534 0.000000 0.647860
O O18 0.577767 0.000000 0.437425
#
# Coordination Sequence:
#
# PCOD8084388 Si02
#       7
#     8   8   8   8   8   8   8
#     4  11  23  42  59  75 105 153 195 222 262 334
#     4  11  22  37  58  86 112 137 178 235 285 320
#     4   9  17  35  60  84 107 147 191 220 260 333
#     4  10  18  35  61  84 111 147 182 218 266 334
#     4   9  20  38  59  80 108 146 184 222 273 329
#     4  11  22  36  54  83 116 144 177 232 285 316
#     4   8  17  34  58  83 113 146 183 223 270 327
#
# _framework density 19.758658
#
# number of rings (size 3 to 8) (size 9 to 14) (size 15 to 20)
#    0.000    2.143    1.429    3.000    0.000    1.429 
#    0.000   12.857    0.000    0.000    0.000    0.000 
#    0.000    0.000    0.000    0.000    0.000    0.000 
#
# Total GULP energy -347222.956750 kJ/mol
# GULP energy per Si atom -12400.819884 kJ/mol
# Density = 1.971369 g / cm^3
# Si number density = 19.758658 Si / 1000 Ang^3
#
#
#
# Elastic Constant Matrix: (Units=GPa)
#
#
# Indices 1 2 3 4 5 6 
#
# 1 103.0403 20.6569 33.7371 0.0000 0.1039 0.0000
# 2 20.6569 38.1335 12.4889 0.0000 -1.7326 0.0000
# 3 33.7371 12.4889 86.9194 0.0000 -3.4774 0.0000
# 4 0.0000 0.0000 0.0000 31.7540 0.0000 3.8310
# 5 0.1039 -1.7326 -3.4774 0.0000 15.3382 0.0000
# 6 0.0000 0.0000 0.0000 3.8310 0.0000 24.3373
#
#
#
# Elastic Compliance Matrix: (Units=1/GPa)
#
#
# Indices 1 2 3 4 5 6 
#
# 1 0.012076 -0.005308 -0.003988 0.000000 -0.001586 0.000000
# 2 -0.005308 0.029927 -0.002123 0.000000 0.002935 0.000000
# 3 -0.003988 -0.002123 0.013472 0.000000 0.002841 0.000000
# 4 0.000000 0.000000 0.000000 0.032102 0.000000 -0.005053
# 5 -0.001586 0.002935 0.002841 0.000000 0.066183 0.000000
# 6 0.000000 0.000000 0.000000 -0.005053 0.000000 0.041885
#
#
# Mechanical properties :
#
#
# Convention : Reuss Voigt Hill
#
# Bulk Modulus (GPa) = 30.63863 40.20658 35.42260
# Shear Modulus (GPa) = 21.79970 25.03326 23.41648
#
# Velocity S-wave (km/s) = 3.32520 3.56329 3.44630
# Velocity P-wave (km/s) = 5.50297 6.10920 5.81399
#
# Compressibility (1/GPa) = 0.03263854
#
# Stress axis : x y z
#
# Youngs Moduli (GPa) = 82.80623 33.41430 74.23056
#
# Poissons Ratio (x) = 0.17735 0.29604
# Poissons Ratio (y) = 0.43951 0.15756
# Poissons Ratio (z) = 0.33024 0.07092
#
# Static dielectric constant tensor:
#      x y z
#    x 3.832430 0.000000 -0.146300 
#    y 0.000000 3.259300 0.000000 
#    z -0.146300 0.000000 3.661360 
# 
# 
# High freq. dielectric constant tensor:
#      x y z
#    x 1.783330 0.000000 0.001270 
#    y 0.000000 1.740610 0.000000 
#    z 0.001270 0.000000 1.769130 
# 
# From -- ./inp_files/338164.got.cif
#   From: 2010.06.25/outbox.cif.g09.slc.cpg/sg12_170_cif.got.tgz:338164.got - 2010.06.28 00:19:55.
