data_PCOD8084805
_publ_section_title
;
Structure prediction by ZEFSAII (Michael W. Deem and Ramdas Pophale) SiO2 
 PCOD8084805
Probable space group: C 2/M
;
_chemical_formula_sum "Si O2"
_cell_formula_units_Z 56
_cell_length_a 27.133358
_cell_length_b 9.162252
_cell_length_c 25.305225
_cell_angle_alpha 90.000000
_cell_angle_beta 144.415257
_cell_angle_gamma 90.000000
_cell_volume 3660.742144
_symmetry_space_group_name_H-M "C 2/M"
_symmetry_group_IT_number 12
_symmetry_cell_setting 'monoclinic'
loop_
_space_group_symop_operation_xyz
x,y,z
-x,y,-z
-x,-y,-z
x,-y,z
1/2+x,1/2+y,z
1/2-x,1/2+y,-z
1/2-x,1/2-y,-z
1/2+x,1/2-y,z
loop_
_atom_site_type_symbol
_atom_site_label
_atom_site_fract_x
_atom_site_fract_y
_atom_site_fract_z
Si Si1 0.418241 0.672846 0.363737
Si Si2 0.870738 0.831493 0.627368
Si Si3 0.192173 0.670779 0.992022
Si Si4 0.659662 0.669930 0.809667
Si Si5 0.890328 0.827604 0.455645
Si Si6 0.943777 0.170978 0.179643
Si Si7 0.303473 0.829823 0.470989
O O1 0.412411 0.500000 0.359821
O O2 0.365296 0.741909 0.268492
O O3 0.516220 0.717768 0.442955
O O4 0.379700 0.727726 0.385836
O O5 0.794220 0.796967 0.600400
O O6 0.864160 0.736650 0.568759
O O7 0.957010 0.791461 0.733010
O O8 0.870776 0.000000 0.609529
O O9 0.185597 0.500000 0.973490
O O10 0.098973 0.743991 0.907519
O O11 0.250000 0.750000 0.000000
O O12 0.240397 0.696462 0.090253
O O13 0.639539 0.500000 0.787637
O O14 0.599381 0.730238 0.803923
O O15 0.821131 0.744724 0.430300
O O16 0.875617 0.000000 0.448058
O O17 0.926647 0.000000 0.156889
O O18 0.322587 0.000000 0.483810
#
# Coordination Sequence:
#
# PCOD8084805 Si02
#       7
#     8   8   8   8   8   8   8
#     4   8  14  25  42  62  80 106 145 173 193 235
#     4   9  18  31  45  60  80 111 145 169 199 247
#     4   9  16  25  38  58  84 111 136 165 203 245
#     4   8  13  22  38  59  81 104 131 165 200 233
#     4   9  16  27  44  62  81 108 141 173 200 236
#     4   9  16  27  43  60  80 107 137 170 205 241
#     4  10  19  29  42  62  87 110 134 170 210 246
#
# _framework density 15.297444
#
# number of rings (size 3 to 8) (size 9 to 14) (size 15 to 20)
#    0.000    3.143    0.000    3.429    0.000    3.429 
#    0.000    1.429    0.000    5.143    0.000    1.000 
#    0.000    8.000    0.000    0.000    0.000    0.000 
#
# Total GULP energy -346983.498891 kJ/mol
# GULP energy per Si atom -12392.267818 kJ/mol
# Density = 1.526263 g / cm^3
# Si number density = 15.297444 Si / 1000 Ang^3
#
#
#
# Elastic Constant Matrix: (Units=GPa)
#
#
# Indices 1 2 3 4 5 6 
#
# 1 78.8755 29.3854 46.6673 0.0000 -5.0964 0.0000
# 2 29.3854 48.5415 38.4458 0.0000 0.4603 0.0000
# 3 46.6673 38.4458 131.9678 0.0000 -5.2190 0.0000
# 4 0.0000 0.0000 0.0000 21.9648 0.0000 2.0807
# 5 -5.0964 0.4603 -5.2190 0.0000 20.8770 0.0000
# 6 0.0000 0.0000 0.0000 2.0807 0.0000 20.3952
#
#
#
# Elastic Compliance Matrix: (Units=1/GPa)
#
#
# Indices 1 2 3 4 5 6 
#
# 1 0.018221 -0.007897 -0.003999 0.000000 0.003622 0.000000
# 2 -0.007897 0.030339 -0.006210 0.000000 -0.004149 0.000000
# 3 -0.003999 -0.006210 0.010875 0.000000 0.001879 0.000000
# 4 0.000000 0.000000 0.000000 0.045972 0.000000 -0.004690
# 5 0.003622 -0.004149 0.001879 0.000000 0.049345 0.000000
# 6 0.000000 0.000000 0.000000 -0.004690 0.000000 0.049510
#
#
# Mechanical properties :
#
#
# Convention : Reuss Voigt Hill
#
# Bulk Modulus (GPa) = 43.06198 54.26464 48.66331
# Shear Modulus (GPa) = 20.14377 22.30649 21.22513
#
# Velocity S-wave (km/s) = 3.63272 3.82276 3.72895
# Velocity P-wave (km/s) = 6.76805 7.41854 7.10074
#
# Compressibility (1/GPa) = 0.02322234
#
# Stress axis : x y z
#
# Youngs Moduli (GPa) = 54.88311 32.96042 91.95014
#
# Poissons Ratio (x) = 0.26028 0.36775
# Poissons Ratio (y) = 0.43340 0.57103
# Poissons Ratio (z) = 0.21950 0.20469
#
# Static dielectric constant tensor:
#      x y z
#    x 2.842790 0.000000 -0.108040 
#    y 0.000000 2.802130 0.000000 
#    z -0.108040 0.000000 3.409020 
# 
# 
# High freq. dielectric constant tensor:
#      x y z
#    x 1.554130 0.000000 -0.001770 
#    y 0.000000 1.567250 0.000000 
#    z -0.001770 0.000000 1.588940 
# 
# From -- ./inp_files/348634.got.cif
#   From: 2010.06.25/outbox.cif.g09.slc.cpg/sg12_175_cif.got.tgz:348634.got - 2010.06.28 00:19:55.
