data_PCOD8084629
_publ_section_title
;
Structure prediction by ZEFSAII (Michael W. Deem and Ramdas Pophale) SiO2 
 PCOD8084629
Probable space group: C 2/M
;
_chemical_formula_sum "Si O2"
_cell_formula_units_Z 44
_cell_length_a 10.508245
_cell_length_b 14.737163
_cell_length_c 22.168658
_cell_angle_alpha 90.000000
_cell_angle_beta 143.384131
_cell_angle_gamma 90.000000
_cell_volume 2047.648882
_symmetry_space_group_name_H-M "C 2/M"
_symmetry_group_IT_number 12
_symmetry_cell_setting 'monoclinic'
loop_
_space_group_symop_operation_xyz
x,y,z
-x,y,-z
-x,-y,-z
x,-y,z
1/2+x,1/2+y,z
1/2-x,1/2+y,-z
1/2-x,1/2-y,-z
1/2+x,1/2-y,z
loop_
_atom_site_type_symbol
_atom_site_label
_atom_site_fract_x
_atom_site_fract_y
_atom_site_fract_z
Si Si1 0.099999 0.827829 0.753577
Si Si2 0.267311 0.500000 0.381253
Si Si3 0.005047 0.000000 0.357404
Si Si4 0.965972 0.399651 0.058085
Si Si5 0.561204 0.135132 0.691971
Si Si6 0.523896 0.394895 0.853733
Si Si7 0.533402 0.000000 0.441842
O O1 0.983390 0.912519 0.679793
O O2 0.359125 0.833080 0.845509
O O3 0.017039 0.741604 0.683773
O O4 0.030469 0.828738 0.797469
O O5 0.500000 0.500000 0.500000
O O6 0.299229 0.500000 0.321694
O O7 0.124529 0.587589 0.340978
O O8 0.216860 0.000000 0.479581
O O9 0.006212 0.500000 0.100949
O O10 0.719119 0.368533 0.973672
O O11 0.000000 0.402885 0.000000
O O12 0.803415 0.116674 0.807055
O O13 0.561664 0.092641 0.624084
O O14 0.555947 0.500000 0.845210
O O15 0.500000 0.000000 0.500000
#
# Coordination Sequence:
#
# PCOD8084629 Si02
#       7
#     8   4   4   8   8   8   4
#     4  11  22  37  64 102 124 162 217 257 316 377
#     4  11  24  50  61  79 128 172 209 259 334 382
#     4  12  23  41  65  85 132 171 199 264 326 379
#     4   8  15  32  61  94 129 167 203 254 313 367
#     4  11  24  41  66  95 122 168 214 263 317 373
#     4  10  18  39  67  92 128 169 216 261 303 369
#     4  11  23  46  67  91 120 160 213 273 314 364
#
# _framework density 21.488057999999999
#
# number of rings (size 3 to 8) (size 9 to 14) (size 15 to 20)
#    0.000    1.636    5.455    2.182    2.545    1.455 
#    0.000    0.000    0.000    1.091    0.000    0.000 
#    0.000    0.000    0.000    0.000    0.000    0.000 
#
# Total GULP energy -272573.377450 kJ/mol
# GULP energy per Si atom -12389.698975 kJ/mol
# Density = 2.143915 g / cm^3
# Si number density = 21.488058 Si / 1000 Ang^3
#
#
#
# Elastic Constant Matrix: (Units=GPa)
#
#
# Indices 1 2 3 4 5 6 
#
# 1 69.2820 24.1986 18.6862 -0.0001 17.0844 0.0000
# 2 24.1986 152.3872 49.2194 0.0001 -5.4507 0.0000
# 3 18.6862 49.2194 108.5850 0.0002 33.3204 0.0001
# 4 -0.0001 0.0001 0.0002 19.4129 0.0001 -0.7495
# 5 17.0844 -5.4507 33.3204 0.0001 40.5643 0.0000
# 6 0.0000 0.0000 0.0001 -0.7495 0.0000 17.3222
#
#
#
# Elastic Compliance Matrix: (Units=1/GPa)
#
#
# Indices 1 2 3 4 5 6 
#
# 1 0.017514 -0.003531 0.001331 0.000000 -0.008944 0.000000
# 2 -0.003531 0.009321 -0.005961 0.000000 0.007636 0.000000
# 3 0.001331 -0.005961 0.016178 0.000000 -0.014650 0.000000
# 4 0.000000 0.000000 0.000000 0.051598 0.000000 0.002233
# 5 -0.008944 0.007636 -0.014650 0.000000 0.041479 0.000000
# 6 0.000000 0.000000 0.000000 0.002233 0.000000 0.057826
#
#
# Mechanical properties :
#
#
# Convention : Reuss Voigt Hill
#
# Bulk Modulus (GPa) = 37.46476 57.16251 47.31364
# Shear Modulus (GPa) = 22.81708 31.33656 27.07682
#
# Velocity S-wave (km/s) = 3.26214 3.82294 3.55362
# Velocity P-wave (km/s) = 5.62688 6.79311 6.23731
#
# Compressibility (1/GPa) = 0.02669175
#
# Stress axis : x y z
#
# Youngs Moduli (GPa) = 57.09869 107.28140 61.81341
#
# Poissons Ratio (x) = 0.37881 -0.08229
# Poissons Ratio (y) = 0.20161 0.36845
# Poissons Ratio (z) = -0.07601 0.63947
#
# Static dielectric constant tensor:
#      x y z
#    x 3.632180 0.000000 0.415250 
#    y 0.000000 3.712250 0.000000 
#    z 0.415250 0.000000 4.367890 
# 
# 
# High freq. dielectric constant tensor:
#      x y z
#    x 1.817350 0.000000 0.027910 
#    y 0.000000 1.824470 0.000000 
#    z 0.027910 0.000000 1.858320 
# 
# From -- ./inp_files/358289.got.cif
#   From: 2010.06.25/outbox.cif.g09.slc.cpg/sg12_180_cif.got.tgz:358289.got - 2010.06.28 00:19:55.
