data_PCOD8084063
_publ_section_title
;
Structure prediction by ZEFSAII (Michael W. Deem and Ramdas Pophale) SiO2 
 PCOD8084063
Probable space group: C 2/M
;
_chemical_formula_sum "Si O2"
_cell_formula_units_Z 40
_cell_length_a 23.136796
_cell_length_b 10.400959
_cell_length_c 8.803064
_cell_angle_alpha 90.000000
_cell_angle_beta 105.401647
_cell_angle_gamma 90.000000
_cell_volume 2042.335258
_symmetry_space_group_name_H-M "C 2/M"
_symmetry_group_IT_number 12
_symmetry_cell_setting 'monoclinic'
loop_
_space_group_symop_operation_xyz
x,y,z
-x,y,-z
-x,-y,-z
x,-y,z
1/2+x,1/2+y,z
1/2-x,1/2+y,-z
1/2-x,1/2-y,-z
1/2+x,1/2-y,z
loop_
_atom_site_type_symbol
_atom_site_label
_atom_site_fract_x
_atom_site_fract_y
_atom_site_fract_z
Si Si1 0.246299 0.777638 0.749883
Si Si2 0.675898 0.141285 0.458098
Si Si3 0.078633 0.151909 0.407686
Si Si4 0.333042 0.644232 0.036559
Si Si5 0.552377 0.349219 0.729104
O O1 0.272630 0.866185 0.634704
O O2 0.206544 0.666269 0.643235
O O3 0.204083 0.858795 0.831896
O O4 0.301884 0.724836 0.884640
O O5 0.630258 0.255730 0.378258
O O6 0.644983 0.000000 0.443967
O O7 0.067768 0.200013 0.571539
O O8 0.016492 0.180672 0.273101
O O9 0.096051 0.000000 0.406376
O O10 0.339178 0.500000 0.979532
O O11 0.399300 0.705694 0.115881
O O12 0.562199 0.500000 0.728082
#
# Coordination Sequence:
#
# PCOD8084063 Si02
#       5
#     8   8   8   8   8
#     4  10  22  34  52  77 111 145 179 215 266 324
#     4  11  22  36  53  80 114 147 178 215 265 324
#     4   9  17  32  56  81 105 137 180 224 264 312
#     4  10  18  34  57  80 103 136 180 228 269 311
#     4   8  15  30  55  81 103 132 178 227 268 308
#
# _framework density 19.585424
#
# number of rings (size 3 to 8) (size 9 to 14) (size 15 to 20)
#    0.000    2.400    2.000    2.400    0.000    4.000 
#    0.000    3.000    0.000    4.800    0.000    0.000 
#    0.000    0.000    0.000    0.000    0.000    0.000 
#
# Total GULP energy -247805.228043 kJ/mol
# GULP energy per Si atom -12390.261402 kJ/mol
# Density = 1.954085 g / cm^3
# Si number density = 19.585424 Si / 1000 Ang^3
#
#
#
# Elastic Constant Matrix: (Units=GPa)
#
#
# Indices 1 2 3 4 5 6 
#
# 1 91.5374 34.9581 31.6248 0.0000 33.5188 0.0000
# 2 34.9581 88.2697 12.6042 0.0000 13.0481 0.0000
# 3 31.6248 12.6042 72.0312 0.0000 24.2532 0.0000
# 4 0.0000 0.0000 0.0000 9.1430 0.0000 3.9829
# 5 33.5188 13.0481 24.2532 0.0000 42.8324 0.0000
# 6 0.0000 0.0000 0.0000 3.9829 0.0000 25.3693
#
#
#
# Elastic Compliance Matrix: (Units=1/GPa)
#
#
# Indices 1 2 3 4 5 6 
#
# 1 0.017886 -0.005039 -0.003429 0.000000 -0.010520 0.000000
# 2 -0.005039 0.013349 -0.000101 0.000000 -0.000066 0.000000
# 3 -0.003429 -0.000101 0.017906 0.000000 -0.007425 0.000000
# 4 0.000000 0.000000 0.000000 0.117402 0.000000 -0.018432
# 5 -0.010520 -0.000066 -0.007425 0.000000 0.035804 0.000000
# 6 0.000000 0.000000 0.000000 -0.018432 0.000000 0.042312
#
#
# Mechanical properties :
#
#
# Convention : Reuss Voigt Hill
#
# Bulk Modulus (GPa) = 31.24735 45.57915 38.41325
# Shear Modulus (GPa) = 18.35112 26.97901 22.66507
#
# Velocity S-wave (km/s) = 3.06433 3.71550 3.40552
# Velocity P-wave (km/s) = 5.33940 6.45981 5.92614
#
# Compressibility (1/GPa) = 0.03200272
#
# Stress axis : x y z
#
# Youngs Moduli (GPa) = 55.91112 74.91399 55.84725
#
# Poissons Ratio (x) = 0.37747 0.19148
# Poissons Ratio (y) = 0.28172 0.00566
# Poissons Ratio (z) = 0.19170 0.00759
#
# Static dielectric constant tensor:
#      x y z
#    x 3.778790 0.000000 0.367800 
#    y 0.000000 3.135360 0.000000 
#    z 0.367800 0.000000 3.643400 
# 
# 
# High freq. dielectric constant tensor:
#      x y z
#    x 1.765640 0.000000 0.018760 
#    y 0.000000 1.722220 0.000000 
#    z 0.018760 0.000000 1.756330 
# 
# From -- ./inp_files/83392.got.cif
#   From: 2010.06.25/outbox.cif.g09.slc.cpg/sg12_42_cif.got.tgz:83392.got - 2010.06.28 00:19:55.
