data_PCOD8084852
_publ_section_title
;
Structure prediction by ZEFSAII (Michael W. Deem and Ramdas Pophale) SiO2 
 PCOD8084852
Probable space group: C 2/M
;
_chemical_formula_sum "Si O2"
_cell_formula_units_Z 56
_cell_length_a 22.556644
_cell_length_b 9.290897
_cell_length_c 18.268224
_cell_angle_alpha 90.000000
_cell_angle_beta 116.063574
_cell_angle_gamma 90.000000
_cell_volume 3439.167159
_symmetry_space_group_name_H-M "C 2/M"
_symmetry_group_IT_number 12
_symmetry_cell_setting 'monoclinic'
loop_
_space_group_symop_operation_xyz
x,y,z
-x,y,-z
-x,-y,-z
x,-y,z
1/2+x,1/2+y,z
1/2-x,1/2+y,-z
1/2-x,1/2-y,-z
1/2+x,1/2-y,z
loop_
_atom_site_type_symbol
_atom_site_label
_atom_site_fract_x
_atom_site_fract_y
_atom_site_fract_z
Si Si1 0.493245 0.170261 0.077949
Si Si2 0.342093 0.335230 0.603823
Si Si3 0.891084 0.667523 0.757213
Si Si4 0.346796 0.166971 0.030880
Si Si5 0.785285 0.163736 0.428756
Si Si6 0.256015 0.832226 0.115843
Si Si7 0.752632 0.837437 0.255888
O O1 0.550931 0.233251 0.160816
O O2 0.422938 0.214210 0.074018
O O3 0.501731 0.000000 0.078358
O O4 0.500000 0.235578 0.000000
O O5 0.350685 0.500000 0.632095
O O6 0.394556 0.243397 0.679179
O O7 0.268441 0.283738 0.581902
O O8 0.348221 0.316591 0.517979
O O9 0.902072 0.500000 0.749185
O O10 0.821553 0.699912 0.758370
O O11 0.316287 0.200392 0.093640
O O12 0.339155 0.000000 0.005558
O O13 0.310358 0.256511 0.948248
O O14 0.802915 0.182029 0.352159
O O15 0.756446 0.000000 0.423498
O O16 0.275995 0.769881 0.205358
O O17 0.241626 0.000000 0.115127
O O18 0.755286 0.000000 0.226834
#
# Coordination Sequence:
#
# PCOD8084852 Si02
#       7
#     8   8   8   8   8   8   8
#     4   9  16  28  47  65  80 106 144 176 200 238
#     4   9  15  24  39  59  85 113 138 169 210 251
#     4   9  17  28  43  63  85 111 143 174 206 248
#     4   9  18  32  47  62  82 110 142 173 206 246
#     4   8  15  26  39  57  82 113 145 172 201 244
#     4  10  19  29  43  64  87 109 136 173 213 248
#     4   9  16  27  43  62  85 112 141 171 203 244
#
# _framework density 16.283011999999999
#
# number of rings (size 3 to 8) (size 9 to 14) (size 15 to 20)
#    0.000    3.000    0.000    2.571    0.000    5.714 
#    0.000    0.714    0.000    1.714    0.000    1.000 
#    0.000    8.000    0.000    0.000    0.000    0.000 
#
# Total GULP energy -346977.607401 kJ/mol
# GULP energy per Si atom -12392.057407 kJ/mol
# Density = 1.624595 g / cm^3
# Si number density = 16.283012 Si / 1000 Ang^3
#
#
#
# Elastic Constant Matrix: (Units=GPa)
#
#
# Indices 1 2 3 4 5 6 
#
# 1 51.2502 22.8139 46.2177 0.0000 -1.2364 0.0000
# 2 22.8139 56.0202 49.5404 0.0000 -7.7707 0.0000
# 3 46.2177 49.5404 167.1967 0.0000 -6.1180 0.0000
# 4 0.0000 0.0000 0.0000 30.0962 0.0000 -3.6937
# 5 -1.2364 -7.7707 -6.1180 0.0000 19.0713 0.0000
# 6 0.0000 0.0000 0.0000 -3.6937 0.0000 14.5681
#
#
#
# Elastic Compliance Matrix: (Units=1/GPa)
#
#
# Indices 1 2 3 4 5 6 
#
# 1 0.027557 -0.006469 -0.005800 0.000000 -0.002710 0.000000
# 2 -0.006469 0.026862 -0.005855 0.000000 0.008648 0.000000
# 3 -0.005800 -0.005855 0.009327 0.000000 0.000231 0.000000
# 4 0.000000 0.000000 0.000000 0.034294 0.000000 0.008695
# 5 -0.002710 0.008648 0.000231 0.000000 0.055857 0.000000
# 6 0.000000 0.000000 0.000000 0.008695 0.000000 0.070848
#
#
# Mechanical properties :
#
#
# Convention : Reuss Voigt Hill
#
# Bulk Modulus (GPa) = 36.36488 56.84565 46.60527
# Shear Modulus (GPa) = 18.50769 23.14015 20.82392
#
# Velocity S-wave (km/s) = 3.37505 3.77387 3.58001
# Velocity P-wave (km/s) = 6.12939 7.34685 6.76556
#
# Compressibility (1/GPa) = 0.02749906
#
# Stress axis : x y z
#
# Youngs Moduli (GPa) = 36.28876 37.22702 107.21198
#
# Poissons Ratio (x) = 0.24083 0.62180
# Poissons Ratio (y) = 0.23476 0.62768
# Poissons Ratio (z) = 0.21046 0.21795
#
# Static dielectric constant tensor:
#      x y z
#    x 2.705510 0.000000 -0.072770 
#    y 0.000000 2.994000 0.000000 
#    z -0.072770 0.000000 3.554050 
# 
# 
# High freq. dielectric constant tensor:
#      x y z
#    x 1.568320 0.000000 -0.011150 
#    y 0.000000 1.617760 0.000000 
#    z -0.011150 0.000000 1.645910 
# 
# From -- ./inp_files/287894.got.cif
#   From: 2010.06.25/outbox.cif.g09.slc.cpg/sg12_144_cif.got.tgz:287894.got - 2010.06.28 00:19:55.
