data_PCOD8084991
_publ_section_title
;
Structure prediction by ZEFSAII (Michael W. Deem and Ramdas Pophale) SiO2 
 PCOD8084991
Probable space group: C 2/M
;
_chemical_formula_sum "Si O2"
_cell_formula_units_Z 64
_cell_length_a 19.387287
_cell_length_b 20.937511
_cell_length_c 11.524351
_cell_angle_alpha 90.000000
_cell_angle_beta 126.086045
_cell_angle_gamma 90.000000
_cell_volume 3780.433534
_symmetry_space_group_name_H-M "C 2/M"
_symmetry_group_IT_number 12
_symmetry_cell_setting 'monoclinic'
loop_
_space_group_symop_operation_xyz
x,y,z
-x,y,-z
-x,-y,-z
x,-y,z
1/2+x,1/2+y,z
1/2-x,1/2+y,-z
1/2-x,1/2-y,-z
1/2+x,1/2-y,z
loop_
_atom_site_type_symbol
_atom_site_label
_atom_site_fract_x
_atom_site_fract_y
_atom_site_fract_z
Si Si1 0.180011 0.930485 0.425929
Si Si2 0.059998 0.295066 0.151360
Si Si3 0.842660 0.799901 0.914039
Si Si4 0.052615 0.236956 0.771564
Si Si5 0.695059 0.185355 0.461801
Si Si6 0.933007 0.142649 0.524236
Si Si7 0.597106 0.570604 0.103231
Si Si8 0.844809 0.261751 0.342698
O O1 0.248478 0.876620 0.465344
O O2 0.121233 0.914774 0.477531
O O3 0.116374 0.934358 0.256780
O O4 0.223744 0.000000 0.490044
O O5 0.090805 0.232099 0.111118
O O6 0.141194 0.329291 0.290858
O O7 0.001851 0.283940 0.204822
O O8 0.000000 0.335102 0.000000
O O9 0.842520 0.876481 0.896771
O O10 0.750173 0.770265 0.799677
O O11 0.868033 0.788238 0.072971
O O12 0.087432 0.276082 0.693527
O O13 0.988210 0.180196 0.674649
O O14 0.750000 0.250000 0.500000
O O15 0.640575 0.194500 0.527375
O O16 0.862682 0.188467 0.394597
O O17 0.000000 0.113101 0.500000
O O18 0.610702 0.500000 0.058768
O O19 0.500000 0.593538 0.000000
#
# Coordination Sequence:
#
# PCOD8084991 Si02
#       8
#     8   8   8   8   8   8   8   8
#     4  11  21  33  50  76 102 134 177 215 253 309
#     4  10  19  30  51  75 100 130 166 209 267 311
#     4  11  18  31  48  71 106 134 165 211 259 301
#     4  10  20  30  46  77 104 132 167 209 255 311
#     4  12  18  33  55  73 102 134 171 217 263 303
#     4  10  19  32  48  70 102 138 169 203 253 313
#     4  10  19  29  45  69  97 134 176 209 246 301
#     4  11  20  30  50  74 103 134 168 211 265 297
#
# _framework density 16.929275000000001
#
# number of rings (size 3 to 8) (size 9 to 14) (size 15 to 20)
#    0.000    1.375    5.000    3.000    0.000    0.250 
#    0.000    0.000    0.000    1.125    0.000    2.625 
#    0.000    0.000    0.000    0.000    0.000    0.000 
#
# Total GULP energy -396433.565420 kJ/mol
# GULP energy per Si atom -12388.548919 kJ/mol
# Density = 1.689074 g / cm^3
# Si number density = 16.929275 Si / 1000 Ang^3
#
#
#
# Elastic Constant Matrix: (Units=GPa)
#
#
# Indices 1 2 3 4 5 6 
#
# 1 86.6450 37.4834 17.8339 0.0000 -15.7816 0.0000
# 2 37.4834 82.5860 21.0516 0.0000 0.1744 0.0000
# 3 17.8339 21.0516 107.2690 0.0000 3.5003 0.0000
# 4 0.0000 0.0000 0.0000 14.9048 0.0000 -0.2984
# 5 -15.7816 0.1744 3.5003 0.0000 29.8265 0.0000
# 6 0.0000 0.0000 0.0000 -0.2984 0.0000 16.2864
#
#
#
# Elastic Compliance Matrix: (Units=1/GPa)
#
#
# Indices 1 2 3 4 5 6 
#
# 1 0.016614 -0.007138 -0.001656 0.000000 0.009027 0.000000
# 2 -0.007138 0.015814 -0.001797 0.000000 -0.003658 0.000000
# 3 -0.001656 -0.001797 0.010017 0.000000 -0.002041 0.000000
# 4 0.000000 0.000000 0.000000 0.067117 0.000000 0.001230
# 5 0.009027 -0.003658 -0.002041 0.000000 0.038564 0.000000
# 6 0.000000 0.000000 0.000000 0.001230 0.000000 0.061423
#
#
# Mechanical properties :
#
#
# Convention : Reuss Voigt Hill
#
# Bulk Modulus (GPa) = 47.02987 47.69309 47.36148
# Shear Modulus (GPa) = 21.02428 25.54560 23.28494
#
# Velocity S-wave (km/s) = 3.52787 3.88875 3.71269
# Velocity P-wave (km/s) = 6.66596 6.95674 6.81290
#
# Compressibility (1/GPa) = 0.02126308
#
# Stress axis : x y z
#
# Youngs Moduli (GPa) = 60.18965 63.23481 99.82997
#
# Poissons Ratio (x) = 0.45135 0.16532
# Poissons Ratio (y) = 0.42961 0.17944
# Poissons Ratio (z) = 0.09967 0.11366
#
# Static dielectric constant tensor:
#      x y z
#    x 3.234980 0.000000 -0.090260 
#    y 0.000000 2.917770 0.000000 
#    z -0.090260 0.000000 3.846050 
# 
# 
# High freq. dielectric constant tensor:
#      x y z
#    x 1.648650 0.000000 -0.003170 
#    y 0.000000 1.601580 0.000000 
#    z -0.003170 0.000000 1.676880 
# 
# From -- ./inp_files/169458.got.cif
#   From: 2010.06.25/outbox.cif.g09.slc.cpg/sg12_85_cif.got.tgz:169458.got - 2010.06.28 00:19:55.
