data_PCOD8084532
_publ_section_title
;
Structure prediction by ZEFSAII (Michael W. Deem and Ramdas Pophale) SiO2 
 PCOD8084532
Probable space group: C 2/M
;
_chemical_formula_sum "Si O2"
_cell_formula_units_Z 64
_cell_length_a 16.449923
_cell_length_b 18.285406
_cell_length_c 19.514757
_cell_angle_alpha 90.000000
_cell_angle_beta 31.482660
_cell_angle_gamma 90.000000
_cell_volume 3065.506007
_symmetry_space_group_name_H-M "C 2/M"
_symmetry_group_IT_number 12
_symmetry_cell_setting 'monoclinic'
loop_
_space_group_symop_operation_xyz
x,y,z
-x,y,-z
-x,-y,-z
x,-y,z
1/2+x,1/2+y,z
1/2-x,1/2+y,-z
1/2-x,1/2-y,-z
1/2+x,1/2-y,z
loop_
_atom_site_type_symbol
_atom_site_label
_atom_site_fract_x
_atom_site_fract_y
_atom_site_fract_z
Si Si1 0.359376 0.419167 0.652593
Si Si2 0.346403 0.843181 0.568634
Si Si3 0.088720 0.168715 0.251439
Si Si4 0.149018 0.304090 0.026789
Si Si5 0.212315 0.584419 0.087675
Si Si6 0.469727 0.584449 0.204597
Si Si7 0.967526 0.672934 0.337266
Si Si8 0.320824 0.804202 0.299302
O O1 0.500000 0.424312 0.500000
O O2 0.292909 0.500000 0.716137
O O3 0.423973 0.384862 0.675931
O O4 0.225209 0.371878 0.714769
O O5 0.500000 0.865210 0.500000
O O6 0.200675 0.891592 0.699622
O O7 0.375947 0.861122 0.467303
O O8 0.311316 0.757511 0.605953
O O9 0.010618 0.133529 0.240805
O O10 0.000481 0.243169 0.332475
O O11 0.271146 0.187265 0.104792
O O12 0.141895 0.384321 0.067293
O O13 0.975292 0.271242 0.151215
O O14 0.250000 0.250000 0.000000
O O15 0.166121 0.500000 0.128284
O O16 0.130751 0.629495 0.208161
O O17 0.400639 0.595472 0.948896
O O18 0.467323 0.500000 0.228754
O O19 0.856421 0.668322 0.350790
#
# Coordination Sequence:
#
# PCOD8084532 Si02
#       8
#     8   8   8   8   8   8   8   8
#     4  11  26  43  60  91 140 182 215 266 329 398
#     4  12  25  40  61  94 129 164 215 275 328 382
#     4  11  20  40  67  94 127 166 228 265 321 391
#     4  10  18  36  65  96 123 166 219 272 318 385
#     4   9  19  37  61  95 126 158 206 264 326 385
#     4  10  22  40  66  90 122 167 214 268 327 389
#     4  11  22  37  68  95 124 171 215 271 319 388
#     4  11  21  39  63  91 129 168 217 261 322 385
#
# _framework density 20.877466999999999
#
# number of rings (size 3 to 8) (size 9 to 14) (size 15 to 20)
#    0.000    1.375    3.750    3.375    1.750    3.750 
#    0.000    1.250    0.000    1.500    0.000    0.000 
#    0.000    0.000    0.000    0.000    0.000    0.000 
#
# Total GULP energy -396725.509450 kJ/mol
# GULP energy per Si atom -12397.672170 kJ/mol
# Density = 2.082995 g / cm^3
# Si number density = 20.877467 Si / 1000 Ang^3
#
#
#
# Elastic Constant Matrix: (Units=GPa)
#
#
# Indices 1 2 3 4 5 6 
#
# 1 67.6479 23.7711 20.9488 0.0163 -13.9763 -0.0102
# 2 23.7711 115.8430 30.7531 -0.0021 -2.6649 0.0016
# 3 20.9488 30.7531 91.6339 0.0089 -13.7609 -0.0108
# 4 0.0163 -0.0021 0.0089 26.1215 0.0023 -5.1751
# 5 -13.9763 -2.6649 -13.7609 0.0023 28.3533 -0.0010
# 6 -0.0102 0.0016 -0.0108 -5.1751 -0.0010 22.1068
#
#
#
# Elastic Compliance Matrix: (Units=1/GPa)
#
#
# Indices 1 2 3 4 5 6 
#
# 1 0.018026 -0.003001 -0.001965 -0.000010 0.007650 0.000005
# 2 -0.003001 0.009989 -0.002964 0.000003 -0.001979 -0.000003
# 3 -0.001965 -0.002964 0.013126 -0.000003 0.005124 0.000005
# 4 -0.000010 0.000003 -0.000003 0.040145 -0.000009 0.009398
# 5 0.007650 -0.001979 0.005124 -0.000009 0.041341 0.000006
# 6 0.000005 -0.000003 0.000005 0.009398 0.000006 0.047435
#
#
# Mechanical properties :
#
#
# Convention : Reuss Voigt Hill
#
# Bulk Modulus (GPa) = 39.55378 47.34122 43.44750
# Shear Modulus (GPa) = 25.72690 28.62644 27.17667
#
# Velocity S-wave (km/s) = 3.51419 3.70694 3.61185
# Velocity P-wave (km/s) = 5.95423 6.40678 6.18465
#
# Compressibility (1/GPa) = 0.02528204
#
# Stress axis : x y z
#
# Youngs Moduli (GPa) = 55.47524 100.10539 76.18344
#
# Poissons Ratio (x) = 0.30045 0.14970
# Poissons Ratio (y) = 0.16650 0.22577
# Poissons Ratio (z) = 0.10901 0.29667
#
# Static dielectric constant tensor:
#      x y z
#    x 3.525990 0.000020 -0.032710 
#    y 0.000020 4.020820 0.000020 
#    z -0.032710 0.000020 4.268340 
# 
# 
# High freq. dielectric constant tensor:
#      x y z
#    x 1.775470 0.000000 -0.004520 
#    y 0.000000 1.819540 0.000000 
#    z -0.004520 0.000000 1.838970 
# 
# From -- ./inp_files/317365.got.cif
#   From: 2010.06.25/outbox.cif.g09.slc.cpg/sg12_159_cif.got.tgz:317365.got - 2010.06.28 00:19:55.
