data_PCOD8084958
_publ_section_title
;
Structure prediction by ZEFSAII (Michael W. Deem and Ramdas Pophale) SiO2 
 PCOD8084958
Probable space group: C 2/M
;
_chemical_formula_sum "Si O2"
_cell_formula_units_Z 64
_cell_length_a 30.352900
_cell_length_b 9.750221
_cell_length_c 22.762994
_cell_angle_alpha 90.000000
_cell_angle_beta 32.331605
_cell_angle_gamma 90.000000
_cell_volume 3602.885627
_symmetry_space_group_name_H-M "C 2/M"
_symmetry_group_IT_number 12
_symmetry_cell_setting 'monoclinic'
loop_
_space_group_symop_operation_xyz
x,y,z
-x,y,-z
-x,-y,-z
x,-y,z
1/2+x,1/2+y,z
1/2-x,1/2+y,-z
1/2-x,1/2-y,-z
1/2+x,1/2-y,z
loop_
_atom_site_type_symbol
_atom_site_label
_atom_site_fract_x
_atom_site_fract_y
_atom_site_fract_z
Si Si1 0.606454 0.158975 0.011462
Si Si2 0.971818 0.657411 0.253747
Si Si3 0.702583 0.655481 0.381008
Si Si4 0.564555 0.842860 0.378862
Si Si5 0.495071 0.351449 0.071994
Si Si6 0.135891 0.656598 0.733459
Si Si7 0.217256 0.844696 0.230642
Si Si8 0.057285 0.341515 0.585581
O O1 0.704616 0.179986 0.900730
O O2 0.584311 0.000000 0.022801
O O3 0.556975 0.206912 0.126278
O O4 0.573275 0.257762 0.998464
O O5 0.983721 0.500000 0.255152
O O6 0.958379 0.727094 0.332491
O O7 0.890655 0.683101 0.304645
O O8 0.669524 0.500000 0.422977
O O9 0.768552 0.681657 0.359021
O O10 0.740781 0.680591 0.272776
O O11 0.628281 0.759405 0.472625
O O12 0.500000 0.787729 0.500000
O O13 0.647103 0.755831 0.287543
O O14 0.526406 0.827539 0.357119
O O15 0.587393 0.000000 0.367464
O O16 0.494185 0.500000 0.107052
O O17 0.412319 0.266244 0.174215
O O18 0.500000 0.390719 0.000000
O O19 0.111599 0.500000 0.777862
O O20 0.185661 0.000000 0.258386
O O21 0.085731 0.500000 0.556850
#
# Coordination Sequence:
#
# PCOD8084958 Si02
#       8
#     8   8   8   8   8   8   8   8
#     4   9  18  34  54  74  98 133 172 207 250 303
#     4   8  16  33  55  74  97 134 175 209 243 294
#     4  10  20  32  49  77 106 131 166 211 255 298
#     4  10  20  35  53  75 102 134 169 204 253 312
#     4  10  19  29  44  71 104 136 171 210 252 294
#     4   9  18  33  51  71  99 136 174 208 247 299
#     4  10  20  33  53  79 104 130 164 210 258 300
#     4  10  20  35  54  74  99 134 172 209 254 306
#
# _framework density 17.763539000000002
#
# number of rings (size 3 to 8) (size 9 to 14) (size 15 to 20)
#    0.000    2.500    1.250    1.875    0.000    4.250 
#    0.000    3.125    0.000    0.000    0.000    0.000 
#    0.000    0.000    0.000    0.000    0.000    0.000 
#
# Total GULP energy -396500.754915 kJ/mol
# GULP energy per Si atom -12390.648591 kJ/mol
# Density = 1.772311 g / cm^3
# Si number density = 17.763539 Si / 1000 Ang^3
#
#
#
# Elastic Constant Matrix: (Units=GPa)
#
#
# Indices 1 2 3 4 5 6 
#
# 1 82.9197 29.1467 31.9255 0.0009 -2.4436 -0.0009
# 2 29.1467 83.7954 37.8717 -0.0157 -12.0672 0.0115
# 3 31.9255 37.8717 75.9454 -0.0030 -10.9564 0.0027
# 4 0.0009 -0.0157 -0.0030 56.2767 0.0024 -21.1806
# 5 -2.4436 -12.0672 -10.9564 0.0024 28.2180 -0.0016
# 6 -0.0009 0.0115 0.0027 -21.1806 -0.0016 27.2074
#
#
#
# Elastic Compliance Matrix: (Units=1/GPa)
#
#
# Indices 1 2 3 4 5 6 
#
# 1 0.015076 -0.003279 -0.004996 -0.000001 -0.002037 0.000002
# 2 -0.003279 0.016518 -0.006229 0.000003 0.004361 -0.000004
# 3 -0.004996 -0.006229 0.018991 -0.000001 0.004277 0.000000
# 4 -0.000001 0.000003 -0.000001 0.025133 0.000000 0.019566
# 5 -0.002037 0.004361 0.004277 0.000000 0.038788 0.000000
# 6 0.000002 -0.000004 0.000000 0.019566 0.000000 0.051987
#
#
# Mechanical properties :
#
#
# Convention : Reuss Voigt Hill
#
# Bulk Modulus (GPa) = 46.34865 48.94981 47.64923
# Shear Modulus (GPa) = 24.66774 31.92153 28.29464
#
# Velocity S-wave (km/s) = 3.73053 4.24373 3.99538
# Velocity P-wave (km/s) = 6.68614 7.18530 6.94021
#
# Compressibility (1/GPa) = 0.02157560
#
# Stress axis : x y z
#
# Youngs Moduli (GPa) = 66.33015 60.54063 52.65634
#
# Poissons Ratio (x) = 0.19852 0.26308
# Poissons Ratio (y) = 0.21751 0.32801
# Poissons Ratio (z) = 0.33140 0.37713
#
# Static dielectric constant tensor:
#      x y z
#    x 3.368220 0.000000 0.070590 
#    y 0.000000 3.254340 0.000010 
#    z 0.070590 0.000010 3.226550 
# 
# 
# High freq. dielectric constant tensor:
#      x y z
#    x 1.676730 0.000000 -0.000040 
#    y 0.000000 1.683340 0.000000 
#    z -0.000040 0.000000 1.674000 
# 
# From -- ./inp_files/353343.got.cif
#   From: 2010.06.25/outbox.cif.g09.slc.cpg/sg12_177_cif.got.tgz:353343.got - 2010.06.28 00:19:55.
