data_PCOD8084857
_publ_section_title
;
Structure prediction by ZEFSAII (Michael W. Deem and Ramdas Pophale) SiO2 
 PCOD8084857
Probable space group: C 2/M
;
_chemical_formula_sum "Si O2"
_cell_formula_units_Z 56
_cell_length_a 22.409666
_cell_length_b 9.225044
_cell_length_c 21.007834
_cell_angle_alpha 90.000000
_cell_angle_beta 130.280031
_cell_angle_gamma 90.000000
_cell_volume 3313.211337
_symmetry_space_group_name_H-M "C 2/M"
_symmetry_group_IT_number 12
_symmetry_cell_setting 'monoclinic'
loop_
_space_group_symop_operation_xyz
x,y,z
-x,y,-z
-x,-y,-z
x,-y,z
1/2+x,1/2+y,z
1/2-x,1/2+y,-z
1/2-x,1/2-y,-z
1/2+x,1/2-y,z
loop_
_atom_site_type_symbol
_atom_site_label
_atom_site_fract_x
_atom_site_fract_y
_atom_site_fract_z
Si Si1 0.414664 0.667165 0.913411
Si Si2 0.482519 0.833128 0.717434
Si Si3 0.750556 0.164180 0.597761
Si Si4 0.144290 0.331024 0.884389
Si Si5 0.684146 0.668523 0.034260
Si Si6 0.133527 0.836379 0.441060
Si Si7 0.629515 0.831545 0.242130
O O1 0.404591 0.500000 0.885573
O O2 0.350491 0.712216 0.921582
O O3 0.403071 0.770630 0.845899
O O4 0.500000 0.695331 0.000000
O O5 0.572354 0.785628 0.789598
O O6 0.447728 0.736648 0.636510
O O7 0.437028 0.805287 0.751539
O O8 0.475008 0.000000 0.691434
O O9 0.806949 0.165331 0.576264
O O10 0.670114 0.246118 0.524760
O O11 0.791362 0.247409 0.684227
O O12 0.731170 0.000000 0.605284
O O13 0.139863 0.500000 0.897105
O O14 0.224252 0.288756 0.903351
O O15 0.137379 0.250635 0.946833
O O16 0.671353 0.500000 0.011979
O O17 0.117027 0.000000 0.452447
O O18 0.650154 0.000000 0.249142
#
# Coordination Sequence:
#
# PCOD8084857 Si02
#       7
#     8   8   8   8   8   8   8
#     4  10  20  32  45  63  89 119 149 181 218 261
#     4   9  17  28  42  63  90 117 145 179 220 262
#     4   9  16  27  42  60  87 120 148 176 214 259
#     4   9  17  30  47  65  86 113 146 184 222 260
#     4   9  18  31  46  64  86 114 148 184 221 260
#     4   9  16  25  40  63  89 116 146 179 214 256
#     4  10  19  29  43  64  89 117 149 182 216 258
#
# _framework density 16.90203
#
# number of rings (size 3 to 8) (size 9 to 14) (size 15 to 20)
#    0.000    2.714    0.000    2.143    0.000    5.429 
#    0.000    0.000    0.000    0.000    0.000    1.000 
#    0.000    8.000    0.000    0.000    0.000    0.000 
#
# Total GULP energy -347218.405686 kJ/mol
# GULP energy per Si atom -12400.657346 kJ/mol
# Density = 1.686356 g / cm^3
# Si number density = 16.902030 Si / 1000 Ang^3
#
#
#
# Elastic Constant Matrix: (Units=GPa)
#
#
# Indices 1 2 3 4 5 6 
#
# 1 43.0313 29.0112 33.8783 0.0000 9.7216 0.0000
# 2 29.0112 101.1072 64.1494 0.0000 8.4331 0.0000
# 3 33.8783 64.1494 114.3467 0.0000 20.3045 0.0000
# 4 0.0000 0.0000 0.0000 38.3954 0.0000 -0.0528
# 5 9.7216 8.4331 20.3045 0.0000 21.5098 0.0000
# 6 0.0000 0.0000 0.0000 -0.0528 0.0000 14.5902
#
#
#
# Elastic Compliance Matrix: (Units=1/GPa)
#
#
# Indices 1 2 3 4 5 6 
#
# 1 0.032806 -0.005389 -0.005332 0.000000 -0.007681 0.000000
# 2 -0.005389 0.016358 -0.008258 0.000000 0.003818 0.000000
# 3 -0.005332 -0.008258 0.016765 0.000000 -0.010178 0.000000
# 4 0.000000 0.000000 0.000000 0.026045 0.000000 0.000094
# 5 -0.007681 0.003818 -0.010178 0.000000 0.058073 0.000000
# 6 0.000000 0.000000 0.000000 0.000094 0.000000 0.068539
#
#
# Mechanical properties :
#
#
# Convention : Reuss Voigt Hill
#
# Bulk Modulus (GPa) = 35.75330 56.95145 46.35237
# Shear Modulus (GPa) = 18.80627 23.66216 21.23421
#
# Velocity S-wave (km/s) = 3.33928 3.74566 3.54829
# Velocity P-wave (km/s) = 6.00557 7.24395 6.65364
#
# Compressibility (1/GPa) = 0.02796945
#
# Stress axis : x y z
#
# Youngs Moduli (GPa) = 30.48265 61.13220 59.64659
#
# Poissons Ratio (x) = 0.32946 0.31805
# Poissons Ratio (y) = 0.16428 0.49257
# Poissons Ratio (z) = 0.16254 0.50484
#
# Static dielectric constant tensor:
#      x y z
#    x 2.922640 0.000000 0.215820 
#    y 0.000000 3.268910 0.000000 
#    z 0.215820 0.000000 3.220590 
# 
# 
# High freq. dielectric constant tensor:
#      x y z
#    x 1.605500 0.000000 0.019290 
#    y 0.000000 1.659980 0.000000 
#    z 0.019290 0.000000 1.656450 
# 
# From -- ./inp_files/287321.got.cif
#   From: 2010.06.25/outbox.cif.g09.slc.cpg/sg12_144_cif.got.tgz:287321.got - 2010.06.28 00:19:55.
