data_PCOD8084295
_publ_section_title
;
Structure prediction by ZEFSAII (Michael W. Deem and Ramdas Pophale) SiO2 
 PCOD8084295
Probable space group: C 2/M
;
_chemical_formula_sum "Si O2"
_cell_formula_units_Z 64
_cell_length_a 8.896045
_cell_length_b 33.217179
_cell_length_c 12.907030
_cell_angle_alpha 90.000000
_cell_angle_beta 63.961869
_cell_angle_gamma 90.000000
_cell_volume 3426.929238
_symmetry_space_group_name_H-M "C 2/M"
_symmetry_group_IT_number 12
_symmetry_cell_setting 'monoclinic'
loop_
_space_group_symop_operation_xyz
x,y,z
-x,y,-z
-x,-y,-z
x,-y,z
1/2+x,1/2+y,z
1/2-x,1/2+y,-z
1/2-x,1/2-y,-z
1/2+x,1/2-y,z
loop_
_atom_site_type_symbol
_atom_site_label
_atom_site_fract_x
_atom_site_fract_y
_atom_site_fract_z
Si Si1 0.184827 0.165973 0.469297
Si Si2 0.484828 0.222383 0.307286
Si Si3 0.013595 0.546357 0.874512
Si Si4 0.273070 0.389107 0.725762
Si Si5 0.255387 0.105997 0.909160
Si Si6 0.477977 0.829219 0.125917
Si Si7 0.672045 0.304454 0.688406
Si Si8 0.005120 0.874295 0.166581
O O1 0.330047 0.196421 0.393655
O O2 0.203228 0.122735 0.402968
O O3 0.206666 0.162467 0.587083
O O4 0.000000 0.183451 0.500000
O O5 0.506051 0.212281 0.178863
O O6 0.438118 0.269074 0.329918
O O7 0.655221 0.212901 0.317704
O O8 0.042210 0.500000 0.838435
O O9 0.162663 0.570969 0.773920
O O10 0.833181 0.561339 0.890749
O O11 0.000000 0.555047 0.000000
O O12 0.204252 0.348901 0.804413
O O13 0.447468 0.394357 0.736454
O O14 0.403551 0.138008 0.855461
O O15 0.151618 0.102483 0.835154
O O16 0.155903 0.120372 0.040371
O O17 0.500000 0.819357 0.000000
O O18 0.556469 0.327598 0.807091
#
# Coordination Sequence:
#
# PCOD8084295 Si02
#       8
#     8   8   8   8   8   8   8   8
#     4  11  22  38  62  81 107 148 198 245 295 337
#     4  11  25  39  55  79 115 147 198 256 306 332
#     4  10  19  36  63  93 123 153 180 221 287 349
#     4  10  19  35  59  85 112 151 190 233 273 353
#     4  10  19  35  56  85 115 157 185 231 271 350
#     4  10  18  35  56  77 110 153 193 228 287 352
#     4  12  24  40  54  81 111 155 200 256 296 340
#     4  11  20  34  57  80 118 153 199 233 282 334
#
# _framework density 18.675612000000001
#
# number of rings (size 3 to 8) (size 9 to 14) (size 15 to 20)
#    0.000    1.375    5.000    2.250    1.750    0.000 
#    2.250    3.125    0.000    0.375    0.000    0.875 
#    0.000    0.000    0.000    0.000    0.000    0.000 
#
# Total GULP energy -396465.643314 kJ/mol
# GULP energy per Si atom -12389.551354 kJ/mol
# Density = 1.863311 g / cm^3
# Si number density = 18.675612 Si / 1000 Ang^3
#
#
#
# Elastic Constant Matrix: (Units=GPa)
#
#
# Indices 1 2 3 4 5 6 
#
# 1 128.4027 52.7940 40.1965 0.0000 2.2711 0.0000
# 2 52.7940 97.3669 41.7915 0.0000 1.0355 0.0000
# 3 40.1965 41.7915 73.8197 0.0000 10.8500 0.0000
# 4 0.0000 0.0000 0.0000 21.2223 0.0000 -0.2900
# 5 2.2711 1.0355 10.8500 0.0000 32.4832 0.0000
# 6 0.0000 0.0000 0.0000 -0.2900 0.0000 20.8900
#
#
#
# Elastic Compliance Matrix: (Units=1/GPa)
#
#
# Indices 1 2 3 4 5 6 
#
# 1 0.010616 -0.004289 -0.003432 0.000000 0.000541 0.000000
# 2 -0.004289 0.015457 -0.006717 0.000000 0.002051 0.000000
# 3 -0.003432 -0.006717 0.020140 0.000000 -0.006273 0.000000
# 4 0.000000 0.000000 0.000000 0.047129 0.000000 0.000654
# 5 0.000541 0.002051 -0.006273 0.000000 0.032777 0.000000
# 6 0.000000 0.000000 0.000000 0.000654 0.000000 0.047879
#
#
# Mechanical properties :
#
#
# Convention : Reuss Voigt Hill
#
# Bulk Modulus (GPa) = 57.67793 63.23928 60.45860
# Shear Modulus (GPa) = 23.96316 25.90626 24.93471
#
# Velocity S-wave (km/s) = 3.58596 3.72851 3.65793
# Velocity P-wave (km/s) = 6.93517 7.24370 7.09112
#
# Compressibility (1/GPa) = 0.01733765
#
# Stress axis : x y z
#
# Youngs Moduli (GPa) = 94.19451 64.69529 49.65249
#
# Poissons Ratio (x) = 0.27747 0.17042
# Poissons Ratio (y) = 0.40399 0.33350
# Poissons Ratio (z) = 0.32330 0.43454
#
# Static dielectric constant tensor:
#      x y z
#    x 3.749300 0.000000 -0.020910 
#    y 0.000000 3.137900 0.000000 
#    z -0.020910 0.000000 3.585480 
# 
# 
# High freq. dielectric constant tensor:
#      x y z
#    x 1.747130 0.000000 -0.001290 
#    y 0.000000 1.682130 0.000000 
#    z -0.001290 0.000000 1.719730 
# 
# From -- ./inp_files/200910.got.cif
#   From: 2010.06.25/outbox.cif.g09.slc.cpg/sg12_101_cif.got.tgz:200910.got - 2010.06.28 00:19:55.
