data_PCOD8084847
_publ_section_title
;
Structure prediction by ZEFSAII (Michael W. Deem and Ramdas Pophale) SiO2 
 PCOD8084847
Probable space group: C 2/M
;
_chemical_formula_sum "Si O2"
_cell_formula_units_Z 64
_cell_length_a 27.696608
_cell_length_b 9.267049
_cell_length_c 20.423814
_cell_angle_alpha 90.000000
_cell_angle_beta 45.047259
_cell_angle_gamma 90.000000
_cell_volume 3709.777085
_symmetry_space_group_name_H-M "C 2/M"
_symmetry_group_IT_number 12
_symmetry_cell_setting 'monoclinic'
loop_
_space_group_symop_operation_xyz
x,y,z
-x,y,-z
-x,-y,-z
x,-y,z
1/2+x,1/2+y,z
1/2-x,1/2+y,-z
1/2-x,1/2-y,-z
1/2+x,1/2-y,z
loop_
_atom_site_type_symbol
_atom_site_label
_atom_site_fract_x
_atom_site_fract_y
_atom_site_fract_z
Si Si1 0.514017 0.161293 0.301577
Si Si2 0.829083 0.162818 0.630054
Si Si3 0.856425 0.340423 0.478548
Si Si4 0.447798 0.333618 0.607443
Si Si5 0.669734 0.337246 0.615613
Si Si6 0.990333 0.163372 0.203540
Si Si7 0.966088 0.669083 0.099840
Si Si8 0.814539 0.664583 0.274207
O O1 0.433172 0.150242 0.380727
O O2 0.543396 0.235675 0.337917
O O3 0.533417 0.254801 0.218776
O O4 0.545226 0.000000 0.266017
O O5 0.857833 0.265735 0.547035
O O6 0.870070 0.193237 0.657572
O O7 0.747446 0.184120 0.718389
O O8 0.844919 0.000000 0.591401
O O9 0.824687 0.500000 0.515227
O O10 0.811553 0.252862 0.467952
O O11 0.500000 0.287314 0.500000
O O12 0.460720 0.500000 0.614488
O O13 0.696671 0.500000 0.581549
O O14 0.588956 0.335499 0.703102
O O15 0.704495 0.264985 0.645799
O O16 0.002427 0.244901 0.123442
O O17 0.017727 0.000000 0.171518
O O18 0.977621 0.500000 0.101343
O O19 0.885646 0.708530 0.172371
O O20 0.000000 0.720182 0.000000
O O21 0.819440 0.500000 0.294908
#
# Coordination Sequence:
#
# PCOD8084847 Si02
#       8
#     8   8   8   8   8   8   8   8
#     4  10  19  30  46  67  93 123 158 200 239 273
#     4  10  20  32  45  62  87 121 158 194 230 268
#     4  10  19  29  43  63  87 119 158 196 231 267
#     4  10  19  31  47  65  88 121 162 203 238 271
#     4   9  17  29  45  63  87 120 156 190 226 267
#     4   9  17  29  47  71  97 123 153 189 229 275
#     4   9  17  31  52  76 100 123 147 180 226 280
#     4   9  18  32  47  65  91 120 151 185 223 272
#
# _framework density 17.251711
#
# number of rings (size 3 to 8) (size 9 to 14) (size 15 to 20)
#    0.000    2.500    1.250    1.500    0.000    6.000 
#    0.000    0.000    0.000    0.000    0.000    0.875 
#    0.000    0.000    0.000    0.000    0.000    0.000 
#
# Total GULP energy -396759.025834 kJ/mol
# GULP energy per Si atom -12398.719557 kJ/mol
# Density = 1.721245 g / cm^3
# Si number density = 17.251711 Si / 1000 Ang^3
#
#
#
# Elastic Constant Matrix: (Units=GPa)
#
#
# Indices 1 2 3 4 5 6 
#
# 1 118.6221 61.5955 35.7610 0.0094 18.1766 -0.0047
# 2 61.5955 118.9232 41.3928 0.0146 21.4819 -0.0087
# 3 35.7610 41.3928 62.6548 0.0142 18.9727 -0.0067
# 4 0.0094 0.0146 0.0142 16.5368 -0.0083 9.1634
# 5 18.1766 21.4819 18.9727 -0.0083 23.5358 0.0019
# 6 -0.0047 -0.0087 -0.0067 9.1634 0.0019 25.8928
#
#
#
# Elastic Compliance Matrix: (Units=1/GPa)
#
#
# Indices 1 2 3 4 5 6 
#
# 1 0.012242 -0.004819 -0.003007 -0.000002 -0.002633 0.000001
# 2 -0.004819 0.013381 -0.004654 -0.000011 -0.004740 0.000007
# 3 -0.003007 -0.004654 0.024821 -0.000031 -0.013438 0.000016
# 4 -0.000002 -0.000011 -0.000031 0.075222 0.000065 -0.026621
# 5 -0.002633 -0.004740 -0.013438 0.000065 0.059681 -0.000033
# 6 0.000001 0.000007 0.000016 -0.026621 -0.000033 0.048042
#
#
# Mechanical properties :
#
#
# Convention : Reuss Voigt Hill
#
# Bulk Modulus (GPa) = 39.24018 64.18874 51.71446
# Shear Modulus (GPa) = 18.73762 23.95646 21.34704
#
# Velocity S-wave (km/s) = 3.29923 3.73049 3.52147
# Velocity P-wave (km/s) = 6.10805 7.47284 6.82465
#
# Compressibility (1/GPa) = 0.02548409
#
# Stress axis : x y z
#
# Youngs Moduli (GPa) = 81.68546 74.73411 40.28866
#
# Poissons Ratio (x) = 0.36012 0.12114
# Poissons Ratio (y) = 0.39361 0.18752
# Poissons Ratio (z) = 0.24560 0.34785
#
# Static dielectric constant tensor:
#      x y z
#    x 3.254650 -0.000010 0.016310 
#    y -0.000010 3.433760 0.000010 
#    z 0.016310 0.000010 2.868330 
# 
# 
# High freq. dielectric constant tensor:
#      x y z
#    x 1.663830 0.000000 0.006730 
#    y 0.000000 1.677240 0.000000 
#    z 0.006730 0.000000 1.616670 
# 
# From -- ./inp_files/326861.got.cif
#   From: 2010.06.25/outbox.cif.g09.slc.cpg/sg12_164_cif.got.tgz:326861.got - 2010.06.28 00:19:55.
