data_PCOD8084659
_publ_section_title
;
Structure prediction by ZEFSAII (Michael W. Deem and Ramdas Pophale) SiO2 
 PCOD8084659
Probable space group: C 2/M
;
_chemical_formula_sum "Si O2"
_cell_formula_units_Z 56
_cell_length_a 31.895806
_cell_length_b 25.309760
_cell_length_c 5.016190
_cell_angle_alpha 90.000000
_cell_angle_beta 98.523515
_cell_angle_gamma 90.000000
_cell_volume 4004.720105
_symmetry_space_group_name_H-M "C 2/M"
_symmetry_group_IT_number 12
_symmetry_cell_setting 'monoclinic'
loop_
_space_group_symop_operation_xyz
x,y,z
-x,y,-z
-x,-y,-z
x,-y,z
1/2+x,1/2+y,z
1/2-x,1/2+y,-z
1/2-x,1/2-y,-z
1/2+x,1/2-y,z
loop_
_atom_site_type_symbol
_atom_site_label
_atom_site_fract_x
_atom_site_fract_y
_atom_site_fract_z
Si Si1 0.659953 0.000000 0.088490
Si Si2 0.816324 0.729626 0.071910
Si Si3 0.271012 0.667976 0.023430
Si Si4 0.158382 0.673513 0.403937
Si Si5 0.596731 0.088494 0.144560
Si Si6 0.283323 0.000000 0.370733
Si Si7 0.245695 0.388326 0.506248
Si Si8 0.046698 0.439664 0.614109
O O1 0.632173 0.052583 0.031139
O O2 0.675882 0.000000 0.404812
O O3 0.699052 0.000000 0.916204
O O4 0.810237 0.792371 0.119017
O O5 0.847518 0.702532 0.317717
O O6 0.771229 0.701862 0.038644
O O7 0.834871 0.721012 0.796722
O O8 0.267173 0.622043 0.240795
O O9 0.276544 0.640667 0.743497
O O10 0.116415 0.642853 0.271813
O O11 0.197495 0.632784 0.457152
O O12 0.575500 0.060736 0.377467
O O13 0.563403 0.097523 0.871775
O O14 0.254566 0.949464 0.411360
O O15 0.044903 0.500000 0.718245
O O16 0.000000 0.418548 0.500000
#
# Coordination Sequence:
#
# PCOD8084659 Si02
#       8
#     4   8   8   8   8   4   8   8
#     4  12  22  30  43  58  76 106 118 158 202 246
#     4   9  17  29  41  58  74  95 122 152 183 231
#     4   9  17  29  42  53  74 100 125 149 182 226
#     4  10  19  27  43  60  77  93 119 154 197 239
#     4  12  21  33  46  62  77  97 126 157 203 243
#     4  12  22  30  40  58  85 100 128 158 196 242
#     4  10  19  28  40  57  76 101 125 152 188 233
#     4  11  22  35  47  59  75 100 130 157 187 238
#
# _framework density 13.983499
#
# number of rings (size 3 to 8) (size 9 to 14) (size 15 to 20)
#    0.000    1.571    2.857    3.857    4.000    4.571 
#    0.000    0.000    0.000    0.000    0.000    0.000 
#    0.000    0.000    0.000    0.000    0.000    0.000 
#
# Total GULP energy -347099.799379 kJ/mol
# GULP energy per Si atom -12396.421406 kJ/mol
# Density = 1.395167 g / cm^3
# Si number density = 13.983499 Si / 1000 Ang^3
#
#
#
# Elastic Constant Matrix: (Units=GPa)
#
#
# Indices 1 2 3 4 5 6 
#
# 1 23.9266 31.3625 18.2698 0.0000 3.2932 0.0000
# 2 31.3625 60.9787 28.6310 0.0000 4.2714 0.0000
# 3 18.2698 28.6310 94.3976 0.0000 2.1582 0.0000
# 4 0.0000 0.0000 0.0000 18.7671 0.0000 5.4000
# 5 3.2932 4.2714 2.1582 0.0000 21.3574 0.0000
# 6 0.0000 0.0000 0.0000 5.4000 0.0000 8.4909
#
#
#
# Elastic Compliance Matrix: (Units=1/GPa)
#
#
# Indices 1 2 3 4 5 6 
#
# 1 0.131844 -0.064628 -0.005759 0.000000 -0.006822 0.000000
# 2 -0.064628 0.051029 -0.002971 0.000000 0.000060 0.000000
# 3 -0.005759 -0.002971 0.012604 0.000000 0.000208 0.000000
# 4 0.000000 0.000000 0.000000 0.065219 0.000000 -0.041477
# 5 -0.006822 0.000060 0.000208 0.000000 0.047841 0.000000
# 6 0.000000 0.000000 0.000000 -0.041477 0.000000 0.144151
#
#
# Mechanical properties :
#
#
# Convention : Reuss Voigt Hill
#
# Bulk Modulus (GPa) = 20.50779 37.31440 28.91109
# Shear Modulus (GPa) = 8.12139 16.45906 12.29023
#
# Velocity S-wave (km/s) = 2.41256 3.43452 2.96786
# Velocity P-wave (km/s) = 4.73900 6.51693 5.69774
#
# Compressibility (1/GPa) = 0.04876197
#
# Stress axis : x y z
#
# Youngs Moduli (GPa) = 7.58471 19.59666 79.33762
#
# Poissons Ratio (x) = 1.26649 0.45693
# Poissons Ratio (y) = 0.49018 0.23567
# Poissons Ratio (z) = 0.04368 0.05821
#
# Static dielectric constant tensor:
#      x y z
#    x 2.434650 0.000000 -0.066800 
#    y 0.000000 2.670860 0.000000 
#    z -0.066800 0.000000 3.012670 
# 
# 
# High freq. dielectric constant tensor:
#      x y z
#    x 1.474680 0.000000 -0.017420 
#    y 0.000000 1.508460 0.000000 
#    z -0.017420 0.000000 1.558420 
# 
# From -- ./inp_files/32460.got.cif
#   From: 2010.06.25/outbox.cif.g09.slc.cpg/sg12_17_cif.got.tgz:32460.got - 2010.06.28 00:19:55.
