data_PCOD8084452
_publ_section_title
;
Structure prediction by ZEFSAII (Michael W. Deem and Ramdas Pophale) SiO2 
 PCOD8084452
Probable space group: C 2/M
;
_chemical_formula_sum "Si O2"
_cell_formula_units_Z 40
_cell_length_a 15.440831
_cell_length_b 19.469446
_cell_length_c 9.710913
_cell_angle_alpha 90.000000
_cell_angle_beta 135.898057
_cell_angle_gamma 90.000000
_cell_volume 2031.675515
_symmetry_space_group_name_H-M "C 2/M"
_symmetry_group_IT_number 12
_symmetry_cell_setting 'monoclinic'
loop_
_space_group_symop_operation_xyz
x,y,z
-x,y,-z
-x,-y,-z
x,-y,z
1/2+x,1/2+y,z
1/2-x,1/2+y,-z
1/2-x,1/2-y,-z
1/2+x,1/2-y,z
loop_
_atom_site_type_symbol
_atom_site_label
_atom_site_fract_x
_atom_site_fract_y
_atom_site_fract_z
Si Si1 0.014838 0.575307 0.179878
Si Si2 0.282057 0.419925 0.411102
Si Si3 0.723726 0.149156 0.064435
Si Si4 0.361815 0.705209 0.980560
Si Si5 0.140190 0.802128 0.328609
O O1 0.991752 0.500000 0.217348
O O2 0.158144 0.597564 0.360106
O O3 0.000000 0.572600 0.000000
O O4 0.916530 0.626449 0.138585
O O5 0.319747 0.500000 0.466704
O O6 0.273082 0.402214 0.238761
O O7 0.377737 0.368537 0.593235
O O8 0.813234 0.148058 0.033611
O O9 0.723676 0.226910 0.118951
O O10 0.502238 0.731372 0.174767
O O11 0.341787 0.672160 0.807504
O O12 0.250000 0.750000 0.500000
#
# Coordination Sequence:
#
# PCOD8084452 Si02
#       5
#     8   8   8   8   8
#     4   8  15  29  55  83 107 141 185 233 285 332
#     4  10  20  36  61  87 113 155 201 237 282 346
#     4  10  18  36  54  87 116 139 193 253 283 339
#     4  10  23  35  56  85 114 152 197 233 297 346
#     4  11  21  40  59  81 116 158 192 238 292 350
#
# _framework density 19.688182000000001
#
# number of rings (size 3 to 8) (size 9 to 14) (size 15 to 20)
#    0.000    2.200    2.000    3.000    5.600    0.800 
#    0.000   10.000    0.000    2.400    0.000    0.000 
#    0.000    0.000    0.000    0.000    0.000    0.000 
#
# Total GULP energy -247775.932270 kJ/mol
# GULP energy per Si atom -12388.796613 kJ/mol
# Density = 1.964337 g / cm^3
# Si number density = 19.688182 Si / 1000 Ang^3
#
#
#
# Elastic Constant Matrix: (Units=GPa)
#
#
# Indices 1 2 3 4 5 6 
#
# 1 107.5120 24.1248 32.0132 0.0000 -12.0354 0.0000
# 2 24.1248 87.2837 29.8234 0.0000 -13.3356 0.0000
# 3 32.0132 29.8234 80.3799 0.0000 -5.4066 0.0000
# 4 0.0000 0.0000 0.0000 24.6934 0.0000 2.1934
# 5 -12.0354 -13.3356 -5.4066 0.0000 19.7242 0.0000
# 6 0.0000 0.0000 0.0000 2.1934 0.0000 28.8625
#
#
#
# Elastic Compliance Matrix: (Units=1/GPa)
#
#
# Indices 1 2 3 4 5 6 
#
# 1 0.011221 -0.001042 -0.003738 0.000000 0.005118 0.000000
# 2 -0.001042 0.014467 -0.004419 0.000000 0.007934 0.000000
# 3 -0.003738 -0.004419 0.015501 0.000000 -0.001020 0.000000
# 4 0.000000 0.000000 0.000000 0.040772 0.000000 -0.003098
# 5 0.005118 0.007934 -0.001020 0.000000 0.058906 0.000000
# 6 0.000000 0.000000 0.000000 -0.003098 0.000000 0.034883
#
#
# Mechanical properties :
#
#
# Convention : Reuss Voigt Hill
#
# Bulk Modulus (GPa) = 43.87871 49.67763 46.77817
# Shear Modulus (GPa) = 24.78375 27.27030 26.02702
#
# Velocity S-wave (km/s) = 3.55183 3.72574 3.63982
# Velocity P-wave (km/s) = 6.25746 6.61780 6.44015
#
# Compressibility (1/GPa) = 0.02279010
#
# Stress axis : x y z
#
# Youngs Moduli (GPa) = 89.11746 69.12260 64.51322
#
# Poissons Ratio (x) = 0.07205 0.24116
# Poissons Ratio (y) = 0.09289 0.28508
# Poissons Ratio (z) = 0.33313 0.30545
#
# Static dielectric constant tensor:
#      x y z
#    x 3.747850 0.000000 0.221320 
#    y 0.000000 3.478100 0.000000 
#    z 0.221320 0.000000 3.540990 
# 
# 
# High freq. dielectric constant tensor:
#      x y z
#    x 1.757050 0.000000 0.009640 
#    y 0.000000 1.756980 0.000000 
#    z 0.009640 0.000000 1.745390 
# 
# From -- ./inp_files/63782.got.cif
#   From: 2010.06.25/outbox.cif.g09.slc.cpg/sg12_32_cif.got.tgz:63782.got - 2010.06.28 00:19:55.
