data_PCOD8084704
_publ_section_title
;
Structure prediction by ZEFSAII (Michael W. Deem and Ramdas Pophale) SiO2 
 PCOD8084704
Probable space group: C 2/M
;
_chemical_formula_sum "Si O2"
_cell_formula_units_Z 48
_cell_length_a 21.248402
_cell_length_b 13.415774
_cell_length_c 26.493535
_cell_angle_alpha 90.000000
_cell_angle_beta 19.291498
_cell_angle_gamma 90.000000
_cell_volume 2495.101553
_symmetry_space_group_name_H-M "C 2/M"
_symmetry_group_IT_number 12
_symmetry_cell_setting 'monoclinic'
loop_
_space_group_symop_operation_xyz
x,y,z
-x,y,-z
-x,-y,-z
x,-y,z
1/2+x,1/2+y,z
1/2-x,1/2+y,-z
1/2-x,1/2-y,-z
1/2+x,1/2-y,z
loop_
_atom_site_type_symbol
_atom_site_label
_atom_site_fract_x
_atom_site_fract_y
_atom_site_fract_z
Si Si1 0.774391 0.883063 0.577925
Si Si2 0.877998 0.337925 0.203407
Si Si3 0.103523 0.314712 0.177379
Si Si4 0.735615 0.608719 0.046466
Si Si5 0.697083 0.611440 0.239033
Si Si6 0.892378 0.791279 0.035970
O O1 0.744504 0.822108 0.652796
O O2 0.612784 0.853227 0.659312
O O3 0.977084 0.854139 0.400798
O O4 0.763122 0.000000 0.598920
O O5 0.750719 0.391342 0.257614
O O6 0.062743 0.402338 0.078009
O O7 0.954260 0.231119 0.124489
O O8 0.105672 0.193764 0.170750
O O9 0.208829 0.346151 0.150482
O O10 0.227866 0.363786 0.039255
O O11 0.634042 0.500000 0.126508
O O12 0.723417 0.500000 0.196924
O O13 0.828755 0.684809 0.107644
O O14 0.000000 0.851886 0.000000
#
# Coordination Sequence:
#
# PCOD8084704 Si02
#       6
#     8   8   8   8   8   8
#     4  10  19  30  46  67  92 122 151 182 220 262
#     4   9  16  28  46  67  91 116 144 179 221 273
#     4   9  17  29  45  65  92 119 149 184 221 264
#     4   9  16  27  47  72  93 114 144 186 227 261
#     4  10  19  28  41  66  97 124 146 172 218 277
#     4   9  19  30  43  63  89 119 151 185 222 261
#
# _framework density 19.237693
#
# number of rings (size 3 to 8) (size 9 to 14) (size 15 to 20)
#    0.000    2.667    0.000    4.500    0.000    8.333 
#    0.000    0.000    0.000    2.000    0.000    0.000 
#    0.000   60.000    0.000    0.000    0.000    0.000 
#
# Total GULP energy -297369.897710 kJ/mol
# GULP energy per Si atom -12390.412405 kJ/mol
# Density = 1.919391 g / cm^3
# Si number density = 19.237693 Si / 1000 Ang^3
#
#
#
# Elastic Constant Matrix: (Units=GPa)
#
#
# Indices 1 2 3 4 5 6 
#
# 1 129.4787 8.3670 23.7021 0.0425 -31.1294 -0.0072
# 2 8.3670 34.6452 6.8907 -0.0720 -3.9591 -0.0011
# 3 23.7021 6.8907 66.5805 -0.1113 -17.2691 -0.0141
# 4 0.0425 -0.0720 -0.1113 20.1202 0.0265 -5.9744
# 5 -31.1294 -3.9591 -17.2691 0.0265 25.7425 0.0166
# 6 -0.0072 -0.0011 -0.0141 -5.9744 0.0166 10.1058
#
#
#
# Elastic Compliance Matrix: (Units=1/GPa)
#
#
# Indices 1 2 3 4 5 6 
#
# 1 0.010946 -0.001092 -0.000477 -0.000061 0.012749 -0.000050
# 2 -0.001092 0.029774 -0.002236 0.000113 0.001758 0.000063
# 3 -0.000477 -0.002236 0.018380 0.000099 0.011409 0.000065
# 4 -0.000061 0.000113 0.000099 0.060285 -0.000076 0.035640
# 5 0.012749 0.001758 0.011409 -0.000076 0.062187 -0.000122
# 6 -0.000050 0.000063 0.000065 0.035640 -0.000122 0.120024
#
#
# Mechanical properties :
#
#
# Convention : Reuss Voigt Hill
#
# Bulk Modulus (GPa) = 19.42165 34.29157 26.85661
# Shear Modulus (GPa) = 15.32001 23.97666 19.64833
#
# Velocity S-wave (km/s) = 2.82504 3.53418 3.19932
# Velocity P-wave (km/s) = 4.55616 5.87519 5.25721
#
# Compressibility (1/GPa) = 0.05148894
#
# Stress axis : x y z
#
# Youngs Moduli (GPa) = 91.35482 33.58664 54.40678
#
# Poissons Ratio (x) = 0.03667 0.02596
# Poissons Ratio (y) = 0.09975 0.12168
# Poissons Ratio (z) = 0.04359 0.07512
#
# Static dielectric constant tensor:
#      x y z
#    x 3.917500 -0.000030 -0.205500 
#    y -0.000030 3.091610 0.000280 
#    z -0.205500 0.000280 3.396900 
# 
# 
# High freq. dielectric constant tensor:
#      x y z
#    x 1.762650 0.000000 -0.012770 
#    y 0.000000 1.694040 0.000020 
#    z -0.012770 0.000020 1.726330 
# 
# From -- ./inp_files/366373.got.cif
#   From: 2010.06.25/outbox.cif.g09.slc.cpg/sg12_184_cif.got.tgz:366373.got - 2010.06.28 00:19:55.
