data_PCOD8084940
_publ_section_title
;
Structure prediction by ZEFSAII (Michael W. Deem and Ramdas Pophale) SiO2 
 PCOD8084940
Probable space group: C 2/M
;
_chemical_formula_sum "Si O2"
_cell_formula_units_Z 40
_cell_length_a 19.394682
_cell_length_b 8.910524
_cell_length_c 27.434787
_cell_angle_alpha 90.000000
_cell_angle_beta 28.439799
_cell_angle_gamma 90.000000
_cell_volume 2257.921914
_symmetry_space_group_name_H-M "C 2/M"
_symmetry_group_IT_number 12
_symmetry_cell_setting 'monoclinic'
loop_
_space_group_symop_operation_xyz
x,y,z
-x,y,-z
-x,-y,-z
x,-y,z
1/2+x,1/2+y,z
1/2-x,1/2+y,-z
1/2-x,1/2-y,-z
1/2+x,1/2-y,z
loop_
_atom_site_type_symbol
_atom_site_label
_atom_site_fract_x
_atom_site_fract_y
_atom_site_fract_z
Si Si1 0.936440 0.175984 0.735502
Si Si2 0.150948 0.821342 0.884123
Si Si3 0.242611 0.173350 0.723509
Si Si4 0.822778 0.823043 0.340481
Si Si5 0.052386 0.325552 0.569184
O O1 0.781472 0.256600 0.835454
O O2 0.023064 0.215072 0.731230
O O3 0.032562 0.232885 0.630862
O O4 0.911958 0.000000 0.744868
O O5 0.165886 0.758029 0.819494
O O6 0.164178 0.000000 0.877211
O O7 0.000000 0.764318 0.000000
O O8 0.183841 0.248413 0.709935
O O9 0.414838 0.197337 0.619383
O O10 0.201182 0.000000 0.748391
O O11 0.692097 0.759024 0.454760
O O12 0.796211 0.000000 0.353119
O O13 0.069807 0.500000 0.572548
#
# Coordination Sequence:
#
# PCOD8084940 Si02
#       5
#     8   8   8   8   8
#     4  10  19  29  44  68  96 121 146 181 226 272
#     4   9  18  34  54  69  82 110 153 194 227 264
#     4   8  14  26  46  69  89 113 152 193 218 249
#     4   9  16  26  43  69  96 121 150 183 219 259
#     4   9  16  28  47  67  90 124 160 185 207 249
#
# _framework density 17.715403999999999
#
# number of rings (size 3 to 8) (size 9 to 14) (size 15 to 20)
#    0.000    3.000    0.000    3.000    0.000    2.800 
#    0.000    2.000    0.000   19.200    0.000    0.000 
#    0.000    0.000    0.000    0.000    0.000    0.000 
#
# Total GULP energy -247906.345496 kJ/mol
# GULP energy per Si atom -12395.317275 kJ/mol
# Density = 1.767508 g / cm^3
# Si number density = 17.715404 Si / 1000 Ang^3
#
#
#
# Elastic Constant Matrix: (Units=GPa)
#
#
# Indices 1 2 3 4 5 6 
#
# 1 121.9293 25.2343 55.0723 0.0008 -9.2052 0.0000
# 2 25.2343 24.5323 21.1036 0.0011 -3.0658 -0.0002
# 3 55.0723 21.1036 135.6557 0.0020 -9.4158 0.0007
# 4 0.0008 0.0011 0.0020 18.1567 0.0009 -3.7225
# 5 -9.2052 -3.0658 -9.4158 0.0009 14.6177 0.0001
# 6 0.0000 -0.0002 0.0007 -3.7225 0.0001 18.8266
#
#
#
# Elastic Compliance Matrix: (Units=1/GPa)
#
#
# Indices 1 2 3 4 5 6 
#
# 1 0.011728 -0.008935 -0.003128 0.000000 0.003496 0.000000
# 2 -0.008935 0.054278 -0.004624 -0.000003 0.002779 0.000000
# 3 -0.003128 -0.004624 0.009585 -0.000001 0.003235 -0.000001
# 4 0.000000 -0.000003 -0.000001 0.057403 -0.000004 0.011350
# 5 0.003496 0.002779 0.003235 -0.000004 0.073278 -0.000001
# 6 0.000000 0.000000 -0.000001 0.011350 -0.000001 0.055360
#
#
# Mechanical properties :
#
#
# Convention : Reuss Voigt Hill
#
# Bulk Modulus (GPa) = 23.68725 53.88197 38.78461
# Shear Modulus (GPa) = 16.17709 22.36736 19.27222
#
# Velocity S-wave (km/s) = 3.02514 3.55715 3.30188
# Velocity P-wave (km/s) = 5.05984 6.88131 6.03964
#
# Compressibility (1/GPa) = 0.04221681
#
# Stress axis : x y z
#
# Youngs Moduli (GPa) = 85.26877 18.42369 104.32503
#
# Poissons Ratio (x) = 0.16462 0.32637
# Poissons Ratio (y) = 0.76189 0.48235
# Poissons Ratio (z) = 0.26676 0.08518
#
# Static dielectric constant tensor:
#      x y z
#    x 3.535130 0.000000 0.109860 
#    y 0.000000 2.893830 0.000000 
#    z 0.109860 0.000000 3.326270 
# 
# 
# High freq. dielectric constant tensor:
#      x y z
#    x 1.692120 0.000000 -0.002610 
#    y 0.000000 1.642140 0.000000 
#    z -0.002610 0.000000 1.674250 
# 
# From -- ./inp_files/152750.got.cif
#   From: 2010.06.25/outbox.cif.g09.slc.cpg/sg12_77_cif.got.tgz:152750.got - 2010.06.28 00:19:55.
