data_PCOD8084879
_publ_section_title
;
Structure prediction by ZEFSAII (Michael W. Deem and Ramdas Pophale) SiO2 
 PCOD8084879
Probable space group: C 2/M
;
_chemical_formula_sum "Si O2"
_cell_formula_units_Z 56
_cell_length_a 28.760238
_cell_length_b 9.044267
_cell_length_c 17.039678
_cell_angle_alpha 90.000000
_cell_angle_beta 129.551436
_cell_angle_gamma 90.000000
_cell_volume 3417.524249
_symmetry_space_group_name_H-M "C 2/M"
_symmetry_group_IT_number 12
_symmetry_cell_setting 'monoclinic'
loop_
_space_group_symop_operation_xyz
x,y,z
-x,y,-z
-x,-y,-z
x,-y,z
1/2+x,1/2+y,z
1/2-x,1/2+y,-z
1/2-x,1/2-y,-z
1/2+x,1/2-y,z
loop_
_atom_site_type_symbol
_atom_site_label
_atom_site_fract_x
_atom_site_fract_y
_atom_site_fract_z
Si Si1 0.961330 0.175243 0.126954
Si Si2 0.205183 0.828420 0.393089
Si Si3 0.272547 0.169399 0.134691
Si Si4 0.407596 0.168484 0.926402
Si Si5 0.342857 0.673240 0.088000
Si Si6 0.712748 0.668324 0.224066
Si Si7 0.420173 0.169954 0.759071
O O1 0.907396 0.229468 0.126018
O O2 0.022896 0.253054 0.222297
O O3 0.969783 0.000000 0.137408
O O4 0.946988 0.225538 0.023144
O O5 0.250000 0.750000 0.500000
O O6 0.232672 0.806819 0.335248
O O7 0.139850 0.755235 0.330621
O O8 0.199373 0.000000 0.408738
O O9 0.328427 0.258951 0.158094
O O10 0.268828 0.195337 0.224908
O O11 0.284227 0.000000 0.126355
O O12 0.208920 0.222497 0.028907
O O13 0.338386 0.216936 0.854658
O O14 0.432049 0.182533 0.864583
O O15 0.412761 0.000000 0.961985
O O16 0.344903 0.500000 0.100129
O O17 0.688281 0.500000 0.186348
O O18 0.414429 0.000000 0.726078
#
# Coordination Sequence:
#
# PCOD8084879 Si02
#       7
#     8   8   8   8   8   8   8
#     4  11  20  31  45  64  94 131 165 194 231 280
#     4  10  20  35  55  75  97 123 153 193 241 286
#     4   9  16  29  45  64  91 124 163 199 231 271
#     4  10  19  29  43  65  94 126 160 198 232 270
#     4   9  18  29  42  63  93 127 163 199 230 269
#     4   9  17  31  49  69  94 126 160 194 234 282
#     4  10  21  34  47  68  95 122 159 199 235 281
#
# _framework density 16.386130999999999
#
# number of rings (size 3 to 8) (size 9 to 14) (size 15 to 20)
#    0.000    2.286    1.429    2.143    0.000    5.714 
#    0.000    0.000    0.000    0.000    0.000    1.000 
#    0.000    8.000    0.000    0.000    0.000    0.000 
#
# Total GULP energy -347151.409577 kJ/mol
# GULP energy per Si atom -12398.264628 kJ/mol
# Density = 1.634884 g / cm^3
# Si number density = 16.386131 Si / 1000 Ang^3
#
#
#
# Elastic Constant Matrix: (Units=GPa)
#
#
# Indices 1 2 3 4 5 6 
#
# 1 119.9421 53.7731 52.0629 0.0000 12.8961 0.0000
# 2 53.7731 82.6234 40.5841 0.0000 7.6776 0.0000
# 3 52.0629 40.5841 71.2550 0.0000 4.7069 0.0000
# 4 0.0000 0.0000 0.0000 25.9700 0.0000 2.3891
# 5 12.8961 7.6776 4.7069 0.0000 14.9779 0.0000
# 6 0.0000 0.0000 0.0000 2.3891 0.0000 27.8088
#
#
#
# Elastic Compliance Matrix: (Units=1/GPa)
#
#
# Indices 1 2 3 4 5 6 
#
# 1 0.014652 -0.005297 -0.007184 0.000000 -0.007643 0.000000
# 2 -0.005297 0.019214 -0.006867 0.000000 -0.003130 0.000000
# 3 -0.007184 -0.006867 0.023031 0.000000 0.002467 0.000000
# 4 0.000000 0.000000 0.000000 0.038813 0.000000 -0.003334
# 5 -0.007643 -0.003130 0.002467 0.000000 0.074175 0.000000
# 6 0.000000 0.000000 0.000000 -0.003334 0.000000 0.036246
#
#
# Mechanical properties :
#
#
# Convention : Reuss Voigt Hill
#
# Bulk Modulus (GPa) = 54.93770 62.96231 58.95000
# Shear Modulus (GPa) = 19.92876 22.24471 21.08674
#
# Velocity S-wave (km/s) = 3.49119 3.68847 3.59118
# Velocity P-wave (km/s) = 7.06052 7.52644 7.29720
#
# Compressibility (1/GPa) = 0.01820244
#
# Stress axis : x y z
#
# Youngs Moduli (GPa) = 68.24909 52.04460 43.41991
#
# Poissons Ratio (x) = 0.27569 0.31192
# Poissons Ratio (y) = 0.36153 0.29814
# Poissons Ratio (z) = 0.49029 0.35737
#
# Static dielectric constant tensor:
#      x y z
#    x 3.255150 0.000000 -0.000770 
#    y 0.000000 3.180300 0.000000 
#    z -0.000770 0.000000 2.762740 
# 
# 
# High freq. dielectric constant tensor:
#      x y z
#    x 1.631850 0.000000 0.004220 
#    y 0.000000 1.642230 0.000000 
#    z 0.004220 0.000000 1.580400 
# 
# From -- ./inp_files/291812.got.cif
#   From: 2010.06.25/outbox.cif.g09.slc.cpg/sg12_146_cif.got.tgz:291812.got - 2010.06.28 00:19:55.
