data_PCOD8084184
_publ_section_title
;
Structure prediction by ZEFSAII (Michael W. Deem and Ramdas Pophale) SiO2 
 PCOD8084184
Probable space group: C 2/M
;
_chemical_formula_sum "Si O2"
_cell_formula_units_Z 56
_cell_length_a 18.077498
_cell_length_b 13.033048
_cell_length_c 23.130519
_cell_angle_alpha 90.000000
_cell_angle_beta 149.027168
_cell_angle_gamma 90.000000
_cell_volume 2804.568949
_symmetry_space_group_name_H-M "C 2/M"
_symmetry_group_IT_number 12
_symmetry_cell_setting 'monoclinic'
loop_
_space_group_symop_operation_xyz
x,y,z
-x,y,-z
-x,-y,-z
x,-y,z
1/2+x,1/2+y,z
1/2-x,1/2+y,-z
1/2-x,1/2-y,-z
1/2+x,1/2-y,z
loop_
_atom_site_type_symbol
_atom_site_label
_atom_site_fract_x
_atom_site_fract_y
_atom_site_fract_z
Si Si1 0.607312 0.299926 0.330650
Si Si2 0.930216 0.690172 0.392776
Si Si3 0.639892 0.617318 0.231260
Si Si4 0.487861 0.771802 0.059667
Si Si5 0.860231 0.381893 0.567953
Si Si6 0.725632 0.614104 0.740199
Si Si7 0.797783 0.115042 0.139094
O O1 0.673745 0.316143 0.311623
O O2 0.696390 0.368923 0.436140
O O3 0.617741 0.181316 0.357799
O O4 0.443546 0.334070 0.215312
O O5 0.782459 0.625865 0.287004
O O6 0.894035 0.811463 0.367562
O O7 0.000000 0.658700 0.500000
O O8 0.032524 0.661322 0.408573
O O9 0.604633 0.500000 0.223338
O O10 0.505877 0.664419 0.105928
O O11 0.612849 0.848576 0.165065
O O12 0.500000 0.749873 0.000000
O O13 0.335291 0.819760 0.974678
O O14 0.892240 0.500000 0.602990
O O15 0.704734 0.500000 0.700457
O O16 0.703715 0.613610 0.793515
O O17 0.786371 0.000000 0.106619
#
# Coordination Sequence:
#
# PCOD8084184 Si02
#       7
#     8   8   8   8   8   8   8
#     4  11  23  39  59  90 119 153 201 245 287 363
#     4  11  21  37  60  90 121 155 203 245 286 357
#     4  11  23  39  62  89 121 158 197 249 301 351
#     4   9  20  37  58  86 119 153 198 250 292 357
#     4  11  23  41  62  86 122 164 198 241 296 350
#     4   9  18  34  56  85 117 153 195 240 291 344
#     4  10  18  34  60  82 111 157 195 237 293 348
#
# _framework density 19.967417999999999
#
# number of rings (size 3 to 8) (size 9 to 14) (size 15 to 20)
#    0.000    1.714    2.857    2.143    0.000    3.429 
#    0.000    4.286    0.000    0.000    0.000    0.000 
#    0.000    0.000    0.000    0.000    0.000    0.000 
#
# Total GULP energy -347218.230181 kJ/mol
# GULP energy per Si atom -12400.651078 kJ/mol
# Density = 1.992197 g / cm^3
# Si number density = 19.967418 Si / 1000 Ang^3
#
#
#
# Elastic Constant Matrix: (Units=GPa)
#
#
# Indices 1 2 3 4 5 6 
#
# 1 55.8722 42.4450 20.2402 0.0015 13.7988 0.0005
# 2 42.4450 155.7115 54.4398 0.0017 -5.3328 0.0006
# 3 20.2402 54.4398 82.2089 0.0031 12.1212 0.0013
# 4 0.0015 0.0017 0.0031 24.1778 0.0010 -0.9122
# 5 13.7988 -5.3328 12.1212 0.0010 32.6046 0.0003
# 6 0.0005 0.0006 0.0013 -0.9122 0.0003 20.7527
#
#
#
# Elastic Compliance Matrix: (Units=1/GPa)
#
#
# Indices 1 2 3 4 5 6 
#
# 1 0.026952 -0.007984 0.000556 -0.000001 -0.012919 0.000000
# 2 -0.007984 0.011147 -0.006542 0.000000 0.007634 0.000000
# 3 0.000556 -0.006542 0.017511 -0.000001 -0.007815 -0.000001
# 4 -0.000001 0.000000 -0.000001 0.041429 0.000000 0.001821
# 5 -0.012919 0.007634 -0.007815 0.000000 0.040292 0.000000
# 6 0.000000 0.000000 -0.000001 0.001821 0.000000 0.048266
#
#
# Mechanical properties :
#
#
# Convention : Reuss Voigt Hill
#
# Bulk Modulus (GPa) = 36.13753 58.67140 47.40446
# Shear Modulus (GPa) = 22.44561 27.28488 24.86525
#
# Velocity S-wave (km/s) = 3.35642 3.70059 3.53270
# Velocity P-wave (km/s) = 5.75832 6.90699 6.35865
#
# Compressibility (1/GPa) = 0.02767207
#
# Stress axis : x y z
#
# Youngs Moduli (GPa) = 37.10267 89.71110 57.10536
#
# Poissons Ratio (x) = 0.71622 -0.03175
# Poissons Ratio (y) = 0.29622 0.37356
# Poissons Ratio (z) = -0.02063 0.58685
#
# Static dielectric constant tensor:
#      x y z
#    x 3.626880 0.000000 0.154160 
#    y 0.000000 3.703080 0.000000 
#    z 0.154160 0.000000 3.591090 
# 
# 
# High freq. dielectric constant tensor:
#      x y z
#    x 1.772400 0.000000 0.016420 
#    y 0.000000 1.775410 0.000000 
#    z 0.016420 0.000000 1.771860 
# 
# From -- ./inp_files/316772.got.cif
#   From: 2010.06.25/outbox.cif.g09.slc.cpg/sg12_159_cif.got.tgz:316772.got - 2010.06.28 00:19:55.
