data_PCOD8084245
_publ_section_title
;
Structure prediction by ZEFSAII (Michael W. Deem and Ramdas Pophale) SiO2 
 PCOD8084245
Probable space group: C 2/M
;
_chemical_formula_sum "Si O2"
_cell_formula_units_Z 56
_cell_length_a 30.825715
_cell_length_b 17.412374
_cell_length_c 5.331388
_cell_angle_alpha 90.000000
_cell_angle_beta 60.112729
_cell_angle_gamma 90.000000
_cell_volume 2481.042916
_symmetry_space_group_name_H-M "C 2/M"
_symmetry_group_IT_number 12
_symmetry_cell_setting 'monoclinic'
loop_
_space_group_symop_operation_xyz
x,y,z
-x,y,-z
-x,-y,-z
x,-y,z
1/2+x,1/2+y,z
1/2-x,1/2+y,-z
1/2-x,1/2-y,-z
1/2+x,1/2-y,z
loop_
_atom_site_type_symbol
_atom_site_label
_atom_site_fract_x
_atom_site_fract_y
_atom_site_fract_z
Si Si1 0.033737 0.500000 0.157401
Si Si2 0.232969 0.586972 0.239948
Si Si3 0.552216 0.161851 0.212825
Si Si4 0.846207 0.086946 0.985744
Si Si5 0.281242 0.825149 0.200321
Si Si6 0.326486 0.290230 0.395107
Si Si7 0.407550 0.283614 0.548331
Si Si8 0.500000 0.735639 0.000000
O O1 0.069408 0.576378 0.071273
O O2 0.000000 0.500000 0.500000
O O3 0.000000 0.500000 0.000000
O O4 0.213685 0.500000 0.296312
O O5 0.292245 0.590050 0.005420
O O6 0.204045 0.630405 0.096322
O O7 0.220677 0.620975 0.547823
O O8 0.500000 0.150262 0.500000
O O9 0.590615 0.208953 0.276029
O O10 0.543331 0.212759 0.994870
O O11 0.887044 0.138390 0.728230
O O12 0.866097 0.000000 0.950180
O O13 0.839472 0.121612 0.285534
O O14 0.322083 0.758707 0.145136
O O15 0.227142 0.784372 0.311174
O O16 0.370452 0.255928 0.435475
O O17 0.464365 0.310036 0.298131
#
# Coordination Sequence:
#
# PCOD8084245 Si02
#       8
#     4   8   8   8   8   8   8   4
#     4  10  18  34  62  94 124 150 200 260 314 376
#     4  10  20  37  62  94 131 170 217 266 316 382
#     4   9  19  34  60  88 119 156 204 256 321 379
#     4  10  22  38  60  90 123 165 218 276 324 380
#     4  10  21  36  63  94 127 170 217 258 325 387
#     4  10  22  36  61  88 125 161 214 269 323 391
#     4  11  21  38  60  90 124 166 214 274 327 391
#     4  10  20  37  59  90 120 166 212 268 325 389
#
# _framework density 22.571152999999999
#
# number of rings (size 3 to 8) (size 9 to 14) (size 15 to 20)
#    0.000    2.000    2.143    1.286    2.000    2.857 
#    0.000    0.357    3.143    8.143    0.000    0.000 
#    0.000    0.000    0.000    0.000    0.000    0.000 
#
# Total GULP energy -346922.707350 kJ/mol
# GULP energy per Si atom -12390.096691 kJ/mol
# Density = 2.251978 g / cm^3
# Si number density = 22.571153 Si / 1000 Ang^3
#
#
#
# Elastic Constant Matrix: (Units=GPa)
#
#
# Indices 1 2 3 4 5 6 
#
# 1 123.4283 60.0377 26.3336 0.0000 25.2363 0.0000
# 2 60.0377 154.2491 20.6534 0.0000 4.5009 0.0000
# 3 26.3336 20.6534 55.5793 0.0000 7.5591 0.0000
# 4 0.0000 0.0000 0.0000 22.7929 0.0000 -0.9769
# 5 25.2363 4.5009 7.5591 0.0000 37.0819 0.0000
# 6 0.0000 0.0000 0.0000 -0.9769 0.0000 19.8575
#
#
#
# Elastic Compliance Matrix: (Units=1/GPa)
#
#
# Indices 1 2 3 4 5 6 
#
# 1 0.012285 -0.004129 -0.003309 0.000000 -0.007185 0.000000
# 2 -0.004129 0.008214 -0.001381 0.000000 0.002095 0.000000
# 3 -0.003309 -0.001381 0.020307 0.000000 -0.001720 0.000000
# 4 0.000000 0.000000 0.000000 0.043966 0.000000 0.002163
# 5 -0.007185 0.002095 -0.001720 0.000000 0.031954 0.000000
# 6 0.000000 0.000000 0.000000 0.002163 0.000000 0.050465
#
#
# Mechanical properties :
#
#
# Convention : Reuss Voigt Hill
#
# Bulk Modulus (GPa) = 43.16238 60.81180 51.98709
# Shear Modulus (GPa) = 25.96694 31.02859 28.49776
#
# Velocity S-wave (km/s) = 3.39551 3.71172 3.55713
# Velocity P-wave (km/s) = 5.87681 6.73572 6.32087
#
# Compressibility (1/GPa) = 0.02316832
#
# Stress axis : x y z
#
# Youngs Moduli (GPa) = 81.39727 121.74455 49.24342
#
# Poissons Ratio (x) = 0.50269 0.16296
# Poissons Ratio (y) = 0.33609 0.06800
# Poissons Ratio (z) = 0.26937 0.16811
#
# Static dielectric constant tensor:
#      x y z
#    x 3.991540 0.000000 0.195260 
#    y 0.000000 4.402960 0.000000 
#    z 0.195260 0.000000 3.962460 
# 
# 
# High freq. dielectric constant tensor:
#      x y z
#    x 1.872700 0.000000 0.017130 
#    y 0.000000 1.881390 0.000000 
#    z 0.017130 0.000000 1.888910 
# 
# From -- ./inp_files/32001.got.cif
#   From: 2010.06.25/outbox.cif.g09.slc.cpg/sg12_17_cif.got.tgz:32001.got - 2010.06.28 00:19:55.
