data_PCOD8084232
_publ_section_title
;
Structure prediction by ZEFSAII (Michael W. Deem and Ramdas Pophale) SiO2 
 PCOD8084232
Probable space group: C 2/M
;
_chemical_formula_sum "Si O2"
_cell_formula_units_Z 56
_cell_length_a 8.899952
_cell_length_b 17.927719
_cell_length_c 26.588531
_cell_angle_alpha 90.000000
_cell_angle_beta 39.623285
_cell_angle_gamma 90.000000
_cell_volume 2705.507293
_symmetry_space_group_name_H-M "C 2/M"
_symmetry_group_IT_number 12
_symmetry_cell_setting 'monoclinic'
loop_
_space_group_symop_operation_xyz
x,y,z
-x,y,-z
-x,-y,-z
x,-y,z
1/2+x,1/2+y,z
1/2-x,1/2+y,-z
1/2-x,1/2-y,-z
1/2+x,1/2-y,z
loop_
_atom_site_type_symbol
_atom_site_label
_atom_site_fract_x
_atom_site_fract_y
_atom_site_fract_z
Si Si1 0.304348 0.321422 0.660303
Si Si2 0.500001 0.585734 0.790383
Si Si3 0.308715 0.167895 0.504754
Si Si4 0.970338 0.338844 0.651244
Si Si5 0.667730 0.083898 0.786688
Si Si6 0.739523 0.849012 0.048841
Si Si7 0.766573 0.185399 0.934656
O O1 0.557259 0.363981 0.588601
O O2 0.337722 0.236588 0.669130
O O3 0.156699 0.362780 0.741308
O O4 0.161648 0.322593 0.644936
O O5 0.458278 0.500000 0.817288
O O6 0.777664 0.602688 0.720541
O O7 0.398119 0.600997 0.761057
O O8 0.365293 0.641036 0.862228
O O9 0.500000 0.167126 0.500000
O O10 0.250000 0.250000 0.500000
O O11 0.406296 0.124763 0.430288
O O12 0.433396 0.092246 0.880556
O O13 0.676271 0.000000 0.764085
O O14 0.613880 0.767228 0.089552
O O15 0.777479 0.867344 0.980348
O O16 0.000000 0.860282 0.000000
O O17 0.500000 0.210440 0.000000
#
# Coordination Sequence:
#
# PCOD8084232 Si02
#       7
#     8   8   8   8   8   8   8
#     4  11  22  38  63  91 123 157 198 248 297 352
#     4  11  24  40  60  85 120 163 205 246 297 359
#     4  10  18  34  61  92 123 153 194 244 296 352
#     4  11  22  38  63  92 122 156 199 248 297 354
#     4  11  24  41  58  84 124 164 201 245 300 357
#     4  10  22  37  61  89 117 153 196 253 302 354
#     4  10  20  39  62  86 116 152 200 249 302 355
#
# _framework density 20.698521
#
# number of rings (size 3 to 8) (size 9 to 14) (size 15 to 20)
#    0.000    1.429    1.429    6.429    2.000    1.714 
#    0.000    0.714    0.000    4.286    0.000    0.000 
#    0.000    0.000    0.000    0.000    0.000    0.000 
#
# Total GULP energy -347062.366775 kJ/mol
# GULP energy per Si atom -12395.084528 kJ/mol
# Density = 2.065141 g / cm^3
# Si number density = 20.698521 Si / 1000 Ang^3
#
#
#
# Elastic Constant Matrix: (Units=GPa)
#
#
# Indices 1 2 3 4 5 6 
#
# 1 143.5463 16.1017 23.0012 0.0177 2.4285 -0.0051
# 2 16.1017 52.7802 19.5525 0.0156 5.3949 -0.0036
# 3 23.0012 19.5525 81.2792 0.0227 -0.7046 -0.0042
# 4 0.0177 0.0156 0.0227 3.3256 0.0175 -7.0540
# 5 2.4285 5.3949 -0.7046 0.0175 40.6563 0.0055
# 6 -0.0051 -0.0036 -0.0042 -7.0540 0.0055 20.9478
#
#
#
# Elastic Compliance Matrix: (Units=1/GPa)
#
#
# Indices 1 2 3 4 5 6 
#
# 1 0.007426 -0.001602 -0.001718 -0.000057 -0.000261 -0.000018
# 2 -0.001602 0.021481 -0.004739 -0.000135 -0.002837 -0.000042
# 3 -0.001718 -0.004739 0.013938 -0.000231 0.000973 -0.000077
# 4 -0.000057 -0.000135 -0.000231 1.052423 -0.000483 0.354396
# 5 -0.000261 -0.002837 0.000973 -0.000483 0.025005 -0.000170
# 6 -0.000018 -0.000042 -0.000077 0.354396 -0.000170 0.167078
#
#
# Mechanical properties :
#
#
# Convention : Reuss Voigt Hill
#
# Bulk Modulus (GPa) = 37.41614 43.87961 40.64788
# Shear Modulus (GPa) = 3.80988 27.58262 15.69625
#
# Velocity S-wave (km/s) = 1.35818 3.65442 2.75676
# Velocity P-wave (km/s) = 4.53602 6.24915 5.46019
#
# Compressibility (1/GPa) = 0.02672643
#
# Stress axis : x y z
#
# Youngs Moduli (GPa) = 134.66455 46.55352 71.74672
#
# Poissons Ratio (x) = 0.07459 0.12328
# Poissons Ratio (y) = 0.21576 0.33997
# Poissons Ratio (z) = 0.23139 0.22059
#
# Static dielectric constant tensor:
#      x y z
#    x 3.793180 0.000000 -0.009980 
#    y 0.000000 3.387550 0.000040 
#    z -0.009980 0.000040 4.200950 
# 
# 
# High freq. dielectric constant tensor:
#      x y z
#    x 1.823840 0.000000 0.003310 
#    y 0.000000 1.773910 0.000000 
#    z 0.003310 0.000000 1.822500 
# 
# From -- ./inp_files/356648.got.cif
#   From: 2010.06.25/outbox.cif.g09.slc.cpg/sg12_179_cif.got.tgz:356648.got - 2010.06.28 00:19:55.
