data_PCOD8084493
_publ_section_title
;
Structure prediction by ZEFSAII (Michael W. Deem and Ramdas Pophale) SiO2 
 PCOD8084493
Probable space group: C 2/M
;
_chemical_formula_sum "Si O2"
_cell_formula_units_Z 64
_cell_length_a 25.040235
_cell_length_b 8.771233
_cell_length_c 14.573577
_cell_angle_alpha 90.000000
_cell_angle_beta 89.396583
_cell_angle_gamma 90.000000
_cell_volume 3200.671648
_symmetry_space_group_name_H-M "C 2/M"
_symmetry_group_IT_number 12
_symmetry_cell_setting 'monoclinic'
loop_
_space_group_symop_operation_xyz
x,y,z
-x,y,-z
-x,-y,-z
x,-y,z
1/2+x,1/2+y,z
1/2-x,1/2+y,-z
1/2-x,1/2-y,-z
1/2+x,1/2-y,z
loop_
_atom_site_type_symbol
_atom_site_label
_atom_site_fract_x
_atom_site_fract_y
_atom_site_fract_z
Si Si1 0.948472 0.182227 0.790491
Si Si2 0.803566 0.323140 0.963427
Si Si3 0.911554 0.819859 0.992592
Si Si4 0.137255 0.172150 0.350643
Si Si5 0.943910 0.680335 0.175059
Si Si6 0.225788 0.170607 0.208900
Si Si7 0.838106 0.322626 0.284684
Si Si8 0.307514 0.318671 0.475414
O O1 0.907702 0.249952 0.713715
O O2 0.006046 0.254893 0.768405
O O3 0.950851 0.000000 0.787695
O O4 0.929907 0.237167 0.891935
O O5 0.806812 0.500000 0.986990
O O6 0.804005 0.292393 0.854758
O O7 0.750000 0.250000 0.000000
O O8 0.852195 0.240441 0.012765
O O9 0.947867 0.751146 0.072842
O O10 0.914122 0.000000 0.999916
O O11 0.196413 0.180679 0.306261
O O12 0.147570 0.241850 0.451740
O O13 0.117504 0.000000 0.361427
O O14 0.946885 0.500000 0.166885
O O15 0.890809 0.732534 0.230200
O O16 0.288115 0.208857 0.218630
O O17 0.218592 0.000000 0.167143
O O18 0.841228 0.500000 0.311242
O O19 0.830299 0.226609 0.376619
O O20 0.301924 0.500000 0.482189
O O21 0.250000 0.250000 0.500000
#
# Coordination Sequence:
#
# PCOD8084493 Si02
#       8
#     8   8   8   8   8   8   8   8
#     4  10  21  40  63  85 115 158 203 246 293 354
#     4  12  24  36  53  83 121 159 199 243 296 357
#     4  11  22  39  63  88 115 156 205 250 299 355
#     4   9  18  36  61  87 115 150 191 236 294 352
#     4  11  24  40  59  87 122 160 200 249 302 351
#     4  10  18  36  60  81 114 156 193 237 295 356
#     4  10  22  40  60  84 120 160 195 240 300 355
#     4  11  21  36  62  93 121 153 193 241 297 360
#
# _framework density 19.995802999999999
#
# number of rings (size 3 to 8) (size 9 to 14) (size 15 to 20)
#    0.000    1.500    2.500    3.375    0.000    5.000 
#    0.000    1.875    0.000    3.750    0.000    0.000 
#    0.000    0.000    0.000    0.000    0.000    0.000 
#
# Total GULP energy -396728.683744 kJ/mol
# GULP energy per Si atom -12397.771367 kJ/mol
# Density = 1.995029 g / cm^3
# Si number density = 19.995803 Si / 1000 Ang^3
#
#
#
# Elastic Constant Matrix: (Units=GPa)
#
#
# Indices 1 2 3 4 5 6 
#
# 1 120.5995 25.5178 28.7677 0.0000 16.9553 0.0000
# 2 25.5178 49.8752 30.7913 0.0000 6.5513 0.0000
# 3 28.7677 30.7913 87.9422 0.0000 16.0268 0.0000
# 4 0.0000 0.0000 0.0000 29.9128 0.0000 1.1760
# 5 16.9553 6.5513 16.0268 0.0000 27.9301 0.0000
# 6 0.0000 0.0000 0.0000 1.1760 0.0000 32.7671
#
#
#
# Elastic Compliance Matrix: (Units=1/GPa)
#
#
# Indices 1 2 3 4 5 6 
#
# 1 0.010006 -0.003844 -0.001100 0.000000 -0.004542 0.000000
# 2 -0.003844 0.027079 -0.008366 0.000000 0.000783 0.000000
# 3 -0.001100 -0.008366 0.015837 0.000000 -0.006458 0.000000
# 4 0.000000 0.000000 0.000000 0.033478 0.000000 -0.001201
# 5 -0.004542 0.000783 -0.006458 0.000000 0.042083 0.000000
# 6 0.000000 0.000000 0.000000 -0.001201 0.000000 0.030562
#
#
# Mechanical properties :
#
#
# Convention : Reuss Voigt Hill
#
# Bulk Modulus (GPa) = 38.01976 47.61893 42.81935
# Shear Modulus (GPa) = 25.71598 29.67801 27.69699
#
# Velocity S-wave (km/s) = 3.59007 3.85673 3.72578
# Velocity P-wave (km/s) = 6.01996 6.61049 6.32213
#
# Compressibility (1/GPa) = 0.02630211
#
# Stress axis : x y z
#
# Youngs Moduli (GPa) = 99.93910 36.92880 63.14321
#
# Poissons Ratio (x) = 0.14196 0.06943
# Poissons Ratio (y) = 0.38417 0.52828
# Poissons Ratio (z) = 0.10989 0.30896
#
# Static dielectric constant tensor:
#      x y z
#    x 3.812840 0.000000 0.214680 
#    y 0.000000 3.639050 0.000000 
#    z 0.214680 0.000000 3.941160 
# 
# 
# High freq. dielectric constant tensor:
#      x y z
#    x 1.785350 0.000000 0.011560 
#    y 0.000000 1.761530 0.000000 
#    z 0.011560 0.000000 1.779840 
# 
# From -- ./inp_files/238750.got.cif
#   From: 2010.06.25/outbox.cif.g09.slc.cpg/sg12_120_cif.got.tgz:238750.got - 2010.06.28 00:19:55.
