data_PCOD8084415
_publ_section_title
;
Structure prediction by ZEFSAII (Michael W. Deem and Ramdas Pophale) SiO2 
 PCOD8084415
Probable space group: C 2/M
;
_chemical_formula_sum "Si O2"
_cell_formula_units_Z 56
_cell_length_a 19.255471
_cell_length_b 8.515542
_cell_length_c 21.039360
_cell_angle_alpha 90.000000
_cell_angle_beta 124.761711
_cell_angle_gamma 90.000000
_cell_volume 2834.148574
_symmetry_space_group_name_H-M "C 2/M"
_symmetry_group_IT_number 12
_symmetry_cell_setting 'monoclinic'
loop_
_space_group_symop_operation_xyz
x,y,z
-x,y,-z
-x,-y,-z
x,-y,z
1/2+x,1/2+y,z
1/2-x,1/2+y,-z
1/2-x,1/2-y,-z
1/2+x,1/2-y,z
loop_
_atom_site_type_symbol
_atom_site_label
_atom_site_fract_x
_atom_site_fract_y
_atom_site_fract_z
Si Si1 0.082671 0.683645 0.504387
Si Si2 0.901311 0.324108 0.958661
Si Si3 0.515194 0.815174 0.794387
Si Si4 0.634230 0.184773 0.195616
Si Si5 0.260513 0.815854 0.632609
Si Si6 0.657953 0.318722 0.947293
Si Si7 0.089393 0.183467 0.369942
O O1 0.097825 0.500000 0.521792
O O2 0.163254 0.774116 0.574211
O O3 0.072302 0.722222 0.425269
O O4 0.000000 0.739933 0.500000
O O5 0.866204 0.500000 0.956130
O O6 0.857490 0.250244 0.872016
O O7 0.885405 0.206082 0.007521
O O8 0.000000 0.336858 0.000000
O O9 0.452152 0.755873 0.816843
O O10 0.609272 0.769853 0.864831
O O11 0.488745 0.725850 0.716504
O O12 0.507510 0.000000 0.777952
O O13 0.712625 0.233957 0.281533
O O14 0.627048 0.000000 0.184366
O O15 0.319754 0.729091 0.612293
O O16 0.275537 0.000000 0.630187
O O17 0.659974 0.500000 0.930733
O O18 0.750000 0.250000 0.000000
O O19 0.090263 0.000000 0.385742
#
# Coordination Sequence:
#
# PCOD8084415 Si02
#       7
#     8   8   8   8   8   8   8
#     4  11  24  42  61  84 118 159 199 244 296 350
#     4  10  18  35  62  87 116 156 197 239 294 353
#     4  10  19  38  63  88 118 154 196 244 294 348
#     4   8  16  32  58  89 116 149 189 236 294 348
#     4  10  20  37  62  90 120 155 197 245 293 348
#     4  12  25  40  57  84 119 161 205 248 297 349
#     4  11  22  38  63  93 120 153 195 240 291 353
#
# _framework density 19.75902
#
# number of rings (size 3 to 8) (size 9 to 14) (size 15 to 20)
#    0.000    1.714    1.429    5.143    0.000    1.429 
#    2.571    1.429    0.000    0.000    0.000    0.000 
#    0.000    0.000    0.000    0.000    0.000    0.000 
#
# Total GULP energy -347186.529473 kJ/mol
# GULP energy per Si atom -12399.518910 kJ/mol
# Density = 1.971405 g / cm^3
# Si number density = 19.759020 Si / 1000 Ang^3
#
#
#
# Elastic Constant Matrix: (Units=GPa)
#
#
# Indices 1 2 3 4 5 6 
#
# 1 74.0039 9.1751 47.9063 0.0000 10.6198 0.0000
# 2 9.1751 52.1523 4.9489 0.0000 2.5628 0.0000
# 3 47.9063 4.9489 132.9141 0.0000 7.2427 0.0000
# 4 0.0000 0.0000 0.0000 30.7032 0.0000 2.8368
# 5 10.6198 2.5628 7.2427 0.0000 32.0306 0.0000
# 6 0.0000 0.0000 0.0000 2.8368 0.0000 22.7371
#
#
#
# Elastic Compliance Matrix: (Units=1/GPa)
#
#
# Indices 1 2 3 4 5 6 
#
# 1 0.018583 -0.002443 -0.006360 0.000000 -0.004527 0.000000
# 2 -0.002443 0.019626 0.000194 0.000000 -0.000804 0.000000
# 3 -0.006360 0.000194 0.009816 0.000000 -0.000126 0.000000
# 4 0.000000 0.000000 0.000000 0.032950 0.000000 -0.004111
# 5 -0.004527 -0.000804 -0.000126 0.000000 0.032814 0.000000
# 6 0.000000 0.000000 0.000000 -0.004111 0.000000 0.044494
#
#
# Mechanical properties :
#
#
# Convention : Reuss Voigt Hill
#
# Bulk Modulus (GPa) = 32.46255 42.57009 37.51632
# Shear Modulus (GPa) = 26.91515 30.23018 28.57266
#
# Velocity S-wave (km/s) = 3.69476 3.91569 3.80683
# Velocity P-wave (km/s) = 5.88783 6.48344 6.19280
#
# Compressibility (1/GPa) = 0.03080472
#
# Stress axis : x y z
#
# Youngs Moduli (GPa) = 53.81379 50.95389 101.87766
#
# Poissons Ratio (x) = 0.12449 0.64795
# Poissons Ratio (y) = 0.13148 -0.01973
# Poissons Ratio (z) = 0.34226 -0.00987
#
# Static dielectric constant tensor:
#      x y z
#    x 3.049780 0.000000 0.180180 
#    y 0.000000 3.589210 0.000000 
#    z 0.180180 0.000000 3.818230 
# 
# 
# High freq. dielectric constant tensor:
#      x y z
#    x 1.746930 0.000000 0.000300 
#    y 0.000000 1.762160 0.000000 
#    z 0.000300 0.000000 1.792070 
# 
# From -- ./inp_files/314370.got.cif
#   From: 2010.06.25/outbox.cif.g09.slc.cpg/sg12_158_cif.got.tgz:314370.got - 2010.06.28 00:19:55.
