data_PCOD8084038
_publ_section_title
;
Structure prediction by ZEFSAII (Michael W. Deem and Ramdas Pophale) SiO2 
 PCOD8084038
Probable space group: C 2/M
;
_chemical_formula_sum "Si O2"
_cell_formula_units_Z 64
_cell_length_a 19.961727
_cell_length_b 18.190974
_cell_length_c 12.395731
_cell_angle_alpha 90.000000
_cell_angle_beta 50.866810
_cell_angle_gamma 90.000000
_cell_volume 3491.478157
_symmetry_space_group_name_H-M "C 2/M"
_symmetry_group_IT_number 12
_symmetry_cell_setting 'monoclinic'
loop_
_space_group_symop_operation_xyz
x,y,z
-x,y,-z
-x,-y,-z
x,-y,z
1/2+x,1/2+y,z
1/2-x,1/2+y,-z
1/2-x,1/2-y,-z
1/2+x,1/2-y,z
loop_
_atom_site_type_symbol
_atom_site_label
_atom_site_fract_x
_atom_site_fract_y
_atom_site_fract_z
Si Si1 0.112348 0.084728 0.752861
Si Si2 0.266734 0.584313 0.172498
Si Si3 0.629718 0.193316 0.623435
Si Si4 0.801245 0.847421 0.529560
Si Si5 0.405115 0.145677 0.568654
Si Si6 0.006214 0.221408 0.115750
Si Si7 0.825851 0.808365 0.936951
Si Si8 0.901731 0.184887 0.627855
O O1 0.172758 0.112872 0.790288
O O2 0.164447 0.090785 0.587777
O O3 0.029431 0.138116 0.831480
O O4 0.082587 0.000000 0.798331
O O5 0.286032 0.500000 0.134811
O O6 0.166567 0.595591 0.302501
O O7 0.287854 0.621775 0.037511
O O8 0.696805 0.151563 0.634595
O O9 0.669680 0.267940 0.538588
O O10 0.606407 0.140333 0.548148
O O11 0.543441 0.214203 0.772453
O O12 0.838349 0.859981 0.611924
O O13 0.500000 0.115066 0.500000
O O14 0.392691 0.228079 0.624523
O O15 0.103268 0.227846 0.057995
O O16 0.000000 0.245004 0.000000
O O17 0.871888 0.834713 0.779305
O O18 0.750000 0.750000 0.000000
O O19 0.000000 0.160570 0.500000
#
# Coordination Sequence:
#
# PCOD8084038 Si02
#       8
#     8   8   8   8   8   8   8   8
#     4  10  20  37  58  83 117 153 193 238 288 353
#     4  11  23  38  57  86 121 158 194 242 301 356
#     4   9  18  29  51  81 110 140 187 243 284 331
#     4   9  17  31  55  78 106 143 186 237 281 327
#     4  10  18  34  56  82 114 148 190 239 296 350
#     4  11  22  34  53  84 116 151 196 239 292 352
#     4  12  24  38  58  85 122 158 193 242 298 352
#     4  10  20  35  57  84 113 147 189 237 292 342
#
# _framework density 18.330345000000001
#
# number of rings (size 3 to 8) (size 9 to 14) (size 15 to 20)
#    0.000    1.750    3.750    3.000    3.500    1.000 
#    0.000    0.625    0.000    1.500    0.000    0.000 
#    0.000    2.500    0.000    0.000    0.000    0.000 
#
# Total GULP energy -396741.864886 kJ/mol
# GULP energy per Si atom -12398.183278 kJ/mol
# Density = 1.828862 g / cm^3
# Si number density = 18.330345 Si / 1000 Ang^3
#
#
#
# Elastic Constant Matrix: (Units=GPa)
#
#
# Indices 1 2 3 4 5 6 
#
# 1 147.3278 29.1606 58.2893 0.0000 -1.4691 0.0000
# 2 29.1606 35.7320 28.6300 0.0000 0.0985 0.0000
# 3 58.2893 28.6300 120.5508 0.0000 7.9694 0.0000
# 4 0.0000 0.0000 0.0000 17.5118 0.0000 2.4302
# 5 -1.4691 0.0985 7.9694 0.0000 38.6461 0.0000
# 6 0.0000 0.0000 0.0000 2.4302 0.0000 16.8382
#
#
#
# Elastic Compliance Matrix: (Units=1/GPa)
#
#
# Indices 1 2 3 4 5 6 
#
# 1 0.009047 -0.004725 -0.003321 0.000000 0.001041 0.000000
# 2 -0.004725 0.037132 -0.006606 0.000000 0.001088 0.000000
# 3 -0.003321 -0.006606 0.011636 0.000000 -0.002509 0.000000
# 4 0.000000 0.000000 0.000000 0.058272 0.000000 -0.008410
# 5 0.001041 0.001088 -0.002509 0.000000 0.026430 0.000000
# 6 0.000000 0.000000 0.000000 -0.008410 0.000000 0.060603
#
#
# Mechanical properties :
#
#
# Convention : Reuss Voigt Hill
#
# Bulk Modulus (GPa) = 35.07432 59.53005 47.30219
# Shear Modulus (GPa) = 20.66736 27.10127 23.88432
#
# Velocity S-wave (km/s) = 3.36146 3.84929 3.61362
# Velocity P-wave (km/s) = 5.85167 7.23206 6.57817
#
# Compressibility (1/GPa) = 0.02851089
#
# Stress axis : x y z
#
# Youngs Moduli (GPa) = 110.53119 26.93083 85.94152
#
# Poissons Ratio (x) = 0.12725 0.28543
# Poissons Ratio (y) = 0.52228 0.56771
# Poissons Ratio (z) = 0.36709 0.17790
#
# Static dielectric constant tensor:
#      x y z
#    x 3.785490 0.000000 0.005610 
#    y 0.000000 2.937270 0.000000 
#    z 0.005610 0.000000 3.480440 
# 
# 
# High freq. dielectric constant tensor:
#      x y z
#    x 1.728430 0.000000 -0.001540 
#    y 0.000000 1.660480 0.000000 
#    z -0.001540 0.000000 1.711400 
# 
# From -- ./inp_files/159553.got.cif
#   From: 2010.06.25/outbox.cif.g09.slc.cpg/sg12_80_cif.got.tgz:159553.got - 2010.06.28 00:19:55.
