data_PCOD8084815
_publ_section_title
;
Structure prediction by ZEFSAII (Michael W. Deem and Ramdas Pophale) SiO2 
 PCOD8084815
Probable space group: C 2/M
;
_chemical_formula_sum "Si O2"
_cell_formula_units_Z 56
_cell_length_a 26.869916
_cell_length_b 9.269419
_cell_length_c 16.152490
_cell_angle_alpha 90.000000
_cell_angle_beta 115.511269
_cell_angle_gamma 90.000000
_cell_volume 3630.829033
_symmetry_space_group_name_H-M "C 2/M"
_symmetry_group_IT_number 12
_symmetry_cell_setting 'monoclinic'
loop_
_space_group_symop_operation_xyz
x,y,z
-x,y,-z
-x,-y,-z
x,-y,z
1/2+x,1/2+y,z
1/2-x,1/2+y,-z
1/2-x,1/2-y,-z
1/2+x,1/2-y,z
loop_
_atom_site_type_symbol
_atom_site_label
_atom_site_fract_x
_atom_site_fract_y
_atom_site_fract_z
Si Si1 0.940750 0.162956 0.999861
Si Si2 0.317681 0.332253 0.469399
Si Si3 0.986996 0.331527 0.177205
Si Si4 0.897580 0.666072 0.824489
Si Si5 0.911797 0.670391 0.455233
Si Si6 0.190941 0.333748 0.371996
Si Si7 0.487713 0.170068 0.362761
O O1 0.897210 0.239047 0.907508
O O2 0.921283 0.000000 0.002351
O O3 0.943460 0.247232 0.088652
O O4 0.000000 0.168961 0.000000
O O5 0.332189 0.500000 0.484263
O O6 0.355040 0.255544 0.427167
O O7 0.254736 0.304977 0.397473
O O8 0.329791 0.263640 0.567422
O O9 0.972370 0.500000 0.161695
O O10 0.980525 0.267764 0.265277
O O11 0.049374 0.301575 0.193910
O O12 0.896825 0.500000 0.851531
O O13 0.843494 0.708420 0.733875
O O14 0.901136 0.500000 0.455239
O O15 0.934914 0.711043 0.380814
O O16 0.955932 0.726434 0.554868
O O17 0.180286 0.500000 0.389193
O O18 0.493763 0.000000 0.362040
#
# Coordination Sequence:
#
# PCOD8084815 Si02
#       7
#     8   8   8   8   8   8   8
#     4   9  17  27  38  57  86 113 133 160 205 254
#     4  10  19  29  42  63  89 113 139 173 211 248
#     4   9  15  25  42  62  82 106 140 174 201 237
#     4   9  16  27  44  62  80 107 141 173 202 237
#     4   9  16  29  46  62  84 113 144 176 208 242
#     4   9  18  31  45  61  83 113 146 174 204 245
#     4   8  15  27  45  65  82 109 148 179 202 239
#
# _framework density 15.423475
#
# number of rings (size 3 to 8) (size 9 to 14) (size 15 to 20)
#    0.000    3.000    0.000    2.571    0.000    5.143 
#    0.000    5.714    0.000    0.000    0.000    1.000 
#    0.000    0.000    0.000    0.000    0.000    0.000 
#
# Total GULP energy -347161.315646 kJ/mol
# GULP energy per Si atom -12398.618416 kJ/mol
# Density = 1.538837 g / cm^3
# Si number density = 15.423475 Si / 1000 Ang^3
#
#
#
# Elastic Constant Matrix: (Units=GPa)
#
#
# Indices 1 2 3 4 5 6 
#
# 1 71.0320 37.0501 44.0969 0.0000 -6.1164 0.0000
# 2 37.0501 69.7571 52.2364 0.0000 -2.7147 0.0000
# 3 44.0969 52.2364 133.6325 0.0000 -10.0863 0.0000
# 4 0.0000 0.0000 0.0000 18.8353 0.0000 1.0236
# 5 -6.1164 -2.7147 -10.0863 0.0000 21.8541 0.0000
# 6 0.0000 0.0000 0.0000 1.0236 0.0000 21.2169
#
#
#
# Elastic Compliance Matrix: (Units=1/GPa)
#
#
# Indices 1 2 3 4 5 6 
#
# 1 0.020828 -0.008445 -0.003327 0.000000 0.003245 0.000000
# 2 -0.008445 0.023722 -0.006675 0.000000 -0.002497 0.000000
# 3 -0.003327 -0.006675 0.011456 0.000000 0.003527 0.000000
# 4 0.000000 0.000000 0.000000 0.053231 0.000000 -0.002568
# 5 0.003245 -0.002497 0.003527 0.000000 0.047984 0.000000
# 6 0.000000 0.000000 0.000000 -0.002568 0.000000 0.047256
#
#
# Mechanical properties :
#
#
# Convention : Reuss Voigt Hill
#
# Bulk Modulus (GPa) = 52.31950 60.13205 56.22577
# Shear Modulus (GPa) = 20.18244 21.78381 20.98312
#
# Velocity S-wave (km/s) = 3.62132 3.76224 3.69245
# Velocity P-wave (km/s) = 7.17502 7.61214 7.39681
#
# Compressibility (1/GPa) = 0.01911333
#
# Stress axis : x y z
#
# Youngs Moduli (GPa) = 48.01321 42.15578 87.28769
#
# Poissons Ratio (x) = 0.35599 0.29041
# Poissons Ratio (y) = 0.40545 0.58261
# Poissons Ratio (z) = 0.15974 0.28137
#
# Static dielectric constant tensor:
#      x y z
#    x 2.789420 0.000000 -0.099130 
#    y 0.000000 2.878870 0.000000 
#    z -0.099130 0.000000 3.098420 
# 
# 
# High freq. dielectric constant tensor:
#      x y z
#    x 1.560950 0.000000 -0.003750 
#    y 0.000000 1.582400 0.000000 
#    z -0.003750 0.000000 1.588510 
# 
# From -- ./inp_files/237323.got.cif
#   From: 2010.06.25/outbox.cif.g09.slc.cpg/sg12_119_cif.got.tgz:237323.got - 2010.06.28 00:19:55.
