data_PCOD8084319
_publ_section_title
;
Structure prediction by ZEFSAII (Michael W. Deem and Ramdas Pophale) SiO2 
 PCOD8084319
Probable space group: C 2/M
;
_chemical_formula_sum "Si O2"
_cell_formula_units_Z 48
_cell_length_a 25.148071
_cell_length_b 8.951708
_cell_length_c 12.249651
_cell_angle_alpha 90.000000
_cell_angle_beta 71.175832
_cell_angle_gamma 90.000000
_cell_volume 2610.123124
_symmetry_space_group_name_H-M "C 2/M"
_symmetry_group_IT_number 12
_symmetry_cell_setting 'monoclinic'
loop_
_space_group_symop_operation_xyz
x,y,z
-x,y,-z
-x,-y,-z
x,-y,z
1/2+x,1/2+y,z
1/2-x,1/2+y,-z
1/2-x,1/2-y,-z
1/2+x,1/2-y,z
loop_
_atom_site_type_symbol
_atom_site_label
_atom_site_fract_x
_atom_site_fract_y
_atom_site_fract_z
Si Si1 0.619274 0.829534 0.202301
Si Si2 0.181543 0.671277 0.384308
Si Si3 0.500155 0.176483 0.375093
Si Si4 0.804964 0.177053 0.259155
Si Si5 0.305201 0.323037 0.013117
Si Si6 0.388859 0.676694 0.386528
O O1 0.663005 0.814633 0.271682
O O2 0.558089 0.774523 0.280615
O O3 0.616751 0.000000 0.162956
O O4 0.639705 0.725346 0.090288
O O5 0.175211 0.500000 0.428374
O O6 0.245400 0.730763 0.348470
O O7 0.142684 0.775248 0.483015
O O8 0.500000 0.233741 0.500000
O O9 0.450489 0.252930 0.340268
O O10 0.491258 0.000000 0.378650
O O11 0.813798 0.236802 0.130742
O O12 0.854573 0.236694 0.304045
O O13 0.804181 0.000000 0.257246
O O14 0.297896 0.500000 0.014033
O O15 0.250000 0.250000 0.000000
O O16 0.394237 0.500000 0.381737
#
# Coordination Sequence:
#
# PCOD8084319 Si02
#       6
#     8   8   8   8   8   8
#     4  10  20  36  59  84 109 141 185 229 272 324
#     4  10  18  35  58  79 112 150 179 218 279 335
#     4  10  20  38  59  78 107 150 186 219 275 333
#     4   9  20  37  55  78 114 152 179 218 277 334
#     4  11  21  37  59  82 112 147 185 225 273 324
#     4  11  22  35  54  84 115 143 184 229 271 323
#
# _framework density 18.389938999999998
#
# number of rings (size 3 to 8) (size 9 to 14) (size 15 to 20)
#    0.000    1.833    3.333    1.500    0.000    1.667 
#    0.000    5.000    0.000    5.000    0.000    0.000 
#    0.000    0.000    0.000    0.000    0.000    0.000 
#
# Total GULP energy -297658.157546 kJ/mol
# GULP energy per Si atom -12402.423231 kJ/mol
# Density = 1.834808 g / cm^3
# Si number density = 18.389939 Si / 1000 Ang^3
#
#
#
# Elastic Constant Matrix: (Units=GPa)
#
#
# Indices 1 2 3 4 5 6 
#
# 1 133.6280 29.4752 34.2581 0.0000 -11.1742 0.0000
# 2 29.4752 41.1842 23.7578 0.0000 -4.5716 0.0000
# 3 34.2581 23.7578 82.5485 0.0000 -12.3975 0.0000
# 4 0.0000 0.0000 0.0000 29.8259 0.0000 -4.3734
# 5 -11.1742 -4.5716 -12.3975 0.0000 28.7365 0.0000
# 6 0.0000 0.0000 0.0000 -4.3734 0.0000 30.6131
#
#
#
# Elastic Compliance Matrix: (Units=1/GPa)
#
#
# Indices 1 2 3 4 5 6 
#
# 1 0.009337 -0.005277 -0.002071 0.000000 0.001898 0.000000
# 2 -0.005277 0.032129 -0.007055 0.000000 0.000016 0.000000
# 3 -0.002071 -0.007055 0.015734 0.000000 0.004860 0.000000
# 4 0.000000 0.000000 0.000000 0.034245 0.000000 0.004892
# 5 0.001898 0.000016 0.004860 0.000000 0.037636 0.000000
# 6 0.000000 0.000000 0.000000 0.004892 0.000000 0.033365
#
#
# Mechanical properties :
#
#
# Convention : Reuss Voigt Hill
#
# Bulk Modulus (GPa) = 35.21787 48.03810 41.62799
# Shear Modulus (GPa) = 24.91072 29.15974 27.03523
#
# Velocity S-wave (km/s) = 3.68446 3.98632 3.83836
# Velocity P-wave (km/s) = 6.10676 6.88232 6.50611
#
# Compressibility (1/GPa) = 0.02839467
#
# Stress axis : x y z
#
# Youngs Moduli (GPa) = 107.09914 31.12435 63.55703
#
# Poissons Ratio (x) = 0.16425 0.13164
# Poissons Ratio (y) = 0.56517 0.44836
# Poissons Ratio (z) = 0.22182 0.21957
#
# Static dielectric constant tensor:
#      x y z
#    x 3.579240 0.000000 0.028410 
#    y 0.000000 3.209240 0.000000 
#    z 0.028410 0.000000 3.476190 
# 
# 
# High freq. dielectric constant tensor:
#      x y z
#    x 1.719430 0.000000 -0.005670 
#    y 0.000000 1.695720 0.000000 
#    z -0.005670 0.000000 1.711030 
# 
# From -- ./inp_files/172033.got.cif
#   From: 2010.06.25/outbox.cif.g09.slc.cpg/sg12_87_cif.got.tgz:172033.got - 2010.06.28 00:19:55.
