data_PCOD8084794
_publ_section_title
;
Structure prediction by ZEFSAII (Michael W. Deem and Ramdas Pophale) SiO2 
 PCOD8084794
Probable space group: C 2/M
;
_chemical_formula_sum "Si O2"
_cell_formula_units_Z 64
_cell_length_a 32.572040
_cell_length_b 9.225082
_cell_length_c 13.688464
_cell_angle_alpha 90.000000
_cell_angle_beta 87.174102
_cell_angle_gamma 90.000000
_cell_volume 4108.104380
_symmetry_space_group_name_H-M "C 2/M"
_symmetry_group_IT_number 12
_symmetry_cell_setting 'monoclinic'
loop_
_space_group_symop_operation_xyz
x,y,z
-x,y,-z
-x,-y,-z
x,-y,z
1/2+x,1/2+y,z
1/2-x,1/2+y,-z
1/2-x,1/2-y,-z
1/2+x,1/2-y,z
loop_
_atom_site_type_symbol
_atom_site_label
_atom_site_fract_x
_atom_site_fract_y
_atom_site_fract_z
Si Si1 0.678546 0.832176 0.665286
Si Si2 0.211097 0.668925 0.461379
Si Si3 0.867832 0.333703 0.982292
Si Si4 0.285886 0.329316 0.938602
Si Si5 0.232398 0.169331 0.282627
Si Si6 0.056772 0.163732 0.076262
Si Si7 0.894989 0.665047 0.201718
Si Si8 0.030255 0.162015 0.855894
O O1 0.675490 0.810616 0.547825
O O2 0.721315 0.770002 0.704384
O O3 0.638904 0.760725 0.722478
O O4 0.678029 0.000000 0.694649
O O5 0.220645 0.500000 0.444196
O O6 0.250000 0.750000 0.500000
O O7 0.200932 0.744383 0.358603
O O8 0.859351 0.500000 0.953588
O O9 0.878531 0.320044 0.094290
O O10 0.828636 0.235145 0.968535
O O11 0.905182 0.272430 0.911366
O O12 0.284182 0.500000 0.961208
O O13 0.280934 0.297022 0.825058
O O14 0.250000 0.250000 0.000000
O O15 0.229660 0.000000 0.308811
O O16 0.017171 0.217475 0.143809
O O17 0.069262 0.000000 0.105626
O O18 0.044701 0.164632 0.965150
O O19 0.902765 0.500000 0.229992
O O20 0.939008 0.741457 0.212095
O O21 0.032365 0.000000 0.813794
#
# Coordination Sequence:
#
# PCOD8084794 Si02
#       8
#     8   8   8   8   8   8   8   8
#     4   8  14  26  42  59  81 108 135 165 205 249
#     4   9  16  27  44  63  82 106 138 174 212 254
#     4  10  19  29  42  61  84 112 147 180 207 242
#     4  11  22  34  47  62  84 114 146 180 216 251
#     4   9  18  32  46  59  80 110 143 179 215 248
#     4   8  14  26  41  55  77 109 140 172 210 246
#     4   9  16  26  40  58  84 115 141 167 204 249
#     4   8  14  24  38  57  80 106 137 172 208 245
#
# _framework density 15.578961
#
# number of rings (size 3 to 8) (size 9 to 14) (size 15 to 20)
#    0.000    3.000    0.000    3.375    0.000    4.000 
#    0.000    5.625    0.000    0.000    0.000    0.000 
#    0.000    1.000    0.000   11.250    0.000    5.500 
#
# Total GULP energy -396519.085703 kJ/mol
# GULP energy per Si atom -12391.221428 kJ/mol
# Density = 1.554350 g / cm^3
# Si number density = 15.578961 Si / 1000 Ang^3
#
#
#
# Elastic Constant Matrix: (Units=GPa)
#
#
# Indices 1 2 3 4 5 6 
#
# 1 99.4193 44.0118 28.8917 0.0000 -23.5895 0.0000
# 2 44.0118 77.2215 36.0733 0.0000 -10.0486 0.0000
# 3 28.8917 36.0733 51.2372 0.0000 -15.4481 0.0000
# 4 0.0000 0.0000 0.0000 20.4018 0.0000 -3.5563
# 5 -23.5895 -10.0486 -15.4481 0.0000 20.5226 0.0000
# 6 0.0000 0.0000 0.0000 -3.5563 0.0000 27.3966
#
#
#
# Elastic Compliance Matrix: (Units=1/GPa)
#
#
# Indices 1 2 3 4 5 6 
#
# 1 0.017351 -0.008192 0.001018 0.000000 0.016700 0.000000
# 2 -0.008192 0.023180 -0.014381 0.000000 -0.008892 0.000000
# 3 0.001018 -0.014381 0.035312 0.000000 0.020709 0.000000
# 4 0.000000 0.000000 0.000000 0.050150 0.000000 0.006510
# 5 0.016700 -0.008892 0.020709 0.000000 0.079157 0.000000
# 6 0.000000 0.000000 0.000000 0.006510 0.000000 0.037346
#
#
# Mechanical properties :
#
#
# Convention : Reuss Voigt Hill
#
# Bulk Modulus (GPa) = 30.54978 49.53682 40.04330
# Shear Modulus (GPa) = 16.86250 21.59095 19.22673
#
# Velocity S-wave (km/s) = 3.29354 3.72681 3.51685
# Velocity P-wave (km/s) = 5.84084 7.09825 6.50002
#
# Compressibility (1/GPa) = 0.03273346
#
# Stress axis : x y z
#
# Youngs Moduli (GPa) = 57.63243 43.14146 28.31932
#
# Poissons Ratio (x) = 0.35341 -0.02884
# Poissons Ratio (y) = 0.47212 0.40726
# Poissons Ratio (z) = -0.05869 0.62042
#
# Static dielectric constant tensor:
#      x y z
#    x 3.185140 0.000000 -0.355750 
#    y 0.000000 3.094900 0.000000 
#    z -0.355750 0.000000 3.013150 
# 
# 
# High freq. dielectric constant tensor:
#      x y z
#    x 1.584640 0.000000 -0.027720 
#    y 0.000000 1.595910 0.000000 
#    z -0.027720 0.000000 1.564310 
# 
# From -- ./inp_files/248443.got.cif
#   From: 2010.06.25/outbox.cif.g09.slc.cpg/sg12_125_cif.got.tgz:248443.got - 2010.06.28 00:19:55.
