data_PCOD8084064
_publ_section_title
;
Structure prediction by ZEFSAII (Michael W. Deem and Ramdas Pophale) SiO2 
 PCOD8084064
Probable space group: C 2/M
;
_chemical_formula_sum "Si O2"
_cell_formula_units_Z 64
_cell_length_a 19.980053
_cell_length_b 8.678341
_cell_length_c 24.099295
_cell_angle_alpha 90.000000
_cell_angle_beta 128.562406
_cell_angle_gamma 90.000000
_cell_volume 3267.423058
_symmetry_space_group_name_H-M "C 2/M"
_symmetry_group_IT_number 12
_symmetry_cell_setting 'monoclinic'
loop_
_space_group_symop_operation_xyz
x,y,z
-x,y,-z
-x,-y,-z
x,-y,z
1/2+x,1/2+y,z
1/2-x,1/2+y,-z
1/2-x,1/2-y,-z
1/2+x,1/2-y,z
loop_
_atom_site_type_symbol
_atom_site_label
_atom_site_fract_x
_atom_site_fract_y
_atom_site_fract_z
Si Si1 0.139558 0.317262 0.160573
Si Si2 0.220000 0.817751 0.568582
Si Si3 0.455967 0.180616 0.098012
Si Si4 0.378902 0.180827 0.578602
Si Si5 0.940029 0.820017 0.308632
Si Si6 0.864255 0.679684 0.161746
Si Si7 0.706459 0.317028 0.685796
Si Si8 0.314744 0.817199 0.939943
O O1 0.138757 0.500000 0.166206
O O2 0.214717 0.247596 0.238006
O O3 0.154918 0.268534 0.105428
O O4 0.048889 0.246388 0.133445
O O5 0.310162 0.761912 0.588970
O O6 0.141227 0.757520 0.491010
O O7 0.210651 0.749132 0.625684
O O8 0.214584 0.000000 0.567651
O O9 0.433061 0.217050 0.149627
O O10 0.459929 0.000000 0.088669
O O11 0.384977 0.247199 0.019297
O O12 0.472613 0.225530 0.647253
O O13 0.372645 0.000000 0.567945
O O14 0.886156 0.782830 0.226015
O O15 0.883343 0.769422 0.332361
O O16 0.961228 0.000000 0.321330
O O17 0.865626 0.500000 0.178391
O O18 0.772224 0.728166 0.090777
O O19 0.714450 0.500000 0.688998
O O20 0.299831 0.000000 0.937372
#
# Coordination Sequence:
#
# PCOD8084064 Si02
#       8
#     8   8   8   8   8   8   8   8
#     4   9  16  30  54  82 107 134 183 236 269 307
#     4   9  19  37  61  85 111 144 183 222 261 314
#     4   9  19  31  52  82 108 139 183 230 273 321
#     4  10  21  37  59  87 116 145 174 215 272 324
#     4  11  22  38  58  81 109 144 186 228 267 315
#     4  11  22  35  52  79 112 146 180 221 277 332
#     4   9  18  33  56  82 105 141 188 230 265 306
#     4  10  18  34  57  80 106 140 182 229 275 319
#
# _framework density 19.587301
#
# number of rings (size 3 to 8) (size 9 to 14) (size 15 to 20)
#    0.000    2.250    1.250    1.875    1.750    2.500 
#    0.000    4.375    0.000    3.000    0.000    0.000 
#    0.000    0.000    0.000    0.000    0.000    0.000 
#
# Total GULP energy -396846.153877 kJ/mol
# GULP energy per Si atom -12401.442309 kJ/mol
# Density = 1.954272 g / cm^3
# Si number density = 19.587301 Si / 1000 Ang^3
#
#
#
# Elastic Constant Matrix: (Units=GPa)
#
#
# Indices 1 2 3 4 5 6 
#
# 1 95.4880 20.1713 29.5551 0.0000 2.3794 0.0000
# 2 20.1713 15.3721 9.0436 0.0000 -4.5179 0.0000
# 3 29.5551 9.0436 90.8905 0.0000 -6.3884 0.0000
# 4 0.0000 0.0000 0.0000 24.7318 0.0000 4.8170
# 5 2.3794 -4.5179 -6.3884 0.0000 39.4418 0.0000
# 6 0.0000 0.0000 0.0000 4.8170 0.0000 20.8351
#
#
#
# Elastic Compliance Matrix: (Units=1/GPa)
#
#
# Indices 1 2 3 4 5 6 
#
# 1 0.015825 -0.019857 -0.003436 0.000000 -0.003786 0.000000
# 2 -0.019857 0.095909 -0.002255 0.000000 0.011819 0.000000
# 3 -0.003436 -0.002255 0.012483 0.000000 0.001971 0.000000
# 4 0.000000 0.000000 0.000000 0.042340 0.000000 -0.009789
# 5 -0.003786 0.011819 0.001971 0.000000 0.027255 0.000000
# 6 0.000000 0.000000 0.000000 -0.009789 0.000000 0.050259
#
#
# Mechanical properties :
#
#
# Convention : Reuss Voigt Hill
#
# Bulk Modulus (GPa) = 13.67615 35.47672 24.57643
# Shear Modulus (GPa) = 15.64746 26.53379 21.09063
#
# Velocity S-wave (km/s) = 2.82947 3.68454 3.28495
# Velocity P-wave (km/s) = 4.20379 6.02101 5.19251
#
# Compressibility (1/GPa) = 0.07312002
#
# Stress axis : x y z
#
# Youngs Moduli (GPa) = 63.19112 10.42656 80.11191
#
# Poissons Ratio (x) = 0.20704 0.27528
# Poissons Ratio (y) = 1.25476 0.18068
# Poissons Ratio (z) = 0.21714 0.02352
#
# Static dielectric constant tensor:
#      x y z
#    x 3.801860 0.000000 -0.000980 
#    y 0.000000 3.127690 0.000000 
#    z -0.000980 0.000000 3.681620 
# 
# 
# High freq. dielectric constant tensor:
#      x y z
#    x 1.775240 0.000000 0.000170 
#    y 0.000000 1.721160 0.000000 
#    z 0.000170 0.000000 1.771550 
# 
# From -- ./inp_files/346172.got.cif
#   From: 2010.06.25/outbox.cif.g09.slc.cpg/sg12_174_cif.got.tgz:346172.got - 2010.06.28 00:19:55.
