data_PCOD8084426
_publ_section_title
;
Structure prediction by ZEFSAII (Michael W. Deem and Ramdas Pophale) SiO2 
 PCOD8084426
Probable space group: C 2/M
;
_chemical_formula_sum "Si O2"
_cell_formula_units_Z 48
_cell_length_a 9.987619
_cell_length_b 27.214611
_cell_length_c 14.911598
_cell_angle_alpha 90.000000
_cell_angle_beta 35.537546
_cell_angle_gamma 90.000000
_cell_volume 2355.814176
_symmetry_space_group_name_H-M "C 2/M"
_symmetry_group_IT_number 12
_symmetry_cell_setting 'monoclinic'
loop_
_space_group_symop_operation_xyz
x,y,z
-x,y,-z
-x,-y,-z
x,-y,z
1/2+x,1/2+y,z
1/2-x,1/2+y,-z
1/2-x,1/2-y,-z
1/2+x,1/2-y,z
loop_
_atom_site_type_symbol
_atom_site_label
_atom_site_fract_x
_atom_site_fract_y
_atom_site_fract_z
Si Si1 0.805584 0.145105 0.173441
Si Si2 0.056615 0.220205 0.161930
Si Si3 0.433645 0.946994 0.637999
Si Si4 0.430101 0.444791 0.435437
Si Si5 0.846984 0.685404 0.340397
Si Si6 0.090576 0.155797 0.309384
O O1 0.753826 0.095898 0.256746
O O2 0.582647 0.161032 0.241244
O O3 0.891393 0.189720 0.187256
O O4 0.000000 0.128787 0.000000
O O5 0.887492 0.256631 0.306812
O O6 0.165573 0.183392 0.176901
O O7 0.250000 0.250000 0.000000
O O8 0.500000 0.951626 0.500000
O O9 0.657133 0.935142 0.576918
O O10 0.330838 0.000000 0.725207
O O11 0.500000 0.437387 0.500000
O O12 0.493632 0.500000 0.366661
O O13 0.562291 0.402869 0.305880
O O14 0.787605 0.663055 0.275657
O O15 0.649937 0.677107 0.521302
#
# Coordination Sequence:
#
# PCOD8084426 Si02
#       6
#     8   8   8   8   8   8
#     4  12  24  41  62  89 130 168 209 256 313 381
#     4  12  26  42  60  89 127 174 209 258 317 380
#     4  10  21  39  65  94 123 159 208 263 315 371
#     4  10  18  35  63  96 126 157 202 263 322 369
#     4  11  23  41  62  93 123 164 216 260 315 365
#     4  11  22  41  65  94 126 160 214 268 312 375
#
# _framework density 20.375121
#
# number of rings (size 3 to 8) (size 9 to 14) (size 15 to 20)
#    0.000    1.000    5.000    2.500    0.000    1.667 
#    0.000    0.000    0.000    0.000    0.000    1.167 
#    0.000    0.667    0.000    0.000    0.000    0.000 
#
# Total GULP energy -297525.183572 kJ/mol
# GULP energy per Si atom -12396.882649 kJ/mol
# Density = 2.032875 g / cm^3
# Si number density = 20.375121 Si / 1000 Ang^3
#
#
#
# Elastic Constant Matrix: (Units=GPa)
#
#
# Indices 1 2 3 4 5 6 
#
# 1 114.2306 44.6820 50.2394 0.0000 -10.8599 0.0000
# 2 44.6820 182.6163 47.5206 0.0000 2.3450 0.0000
# 3 50.2394 47.5206 69.1401 0.0000 1.9635 0.0000
# 4 0.0000 0.0000 0.0000 38.2877 0.0000 0.4102
# 5 -10.8599 2.3450 1.9635 0.0000 25.9478 0.0000
# 6 0.0000 0.0000 0.0000 0.4102 0.0000 26.2865
#
#
#
# Elastic Compliance Matrix: (Units=1/GPa)
#
#
# Indices 1 2 3 4 5 6 
#
# 1 0.014056 -0.000996 -0.009720 0.000000 0.006709 0.000000
# 2 -0.000996 0.006741 -0.003888 0.000000 -0.000732 0.000000
# 3 -0.009720 -0.003888 0.024356 0.000000 -0.005560 0.000000
# 4 0.000000 0.000000 0.000000 0.026122 0.000000 -0.000408
# 5 0.006709 -0.000732 -0.005560 0.000000 0.041833 0.000000
# 6 0.000000 0.000000 0.000000 -0.000408 0.000000 0.038049
#
#
# Mechanical properties :
#
#
# Convention : Reuss Voigt Hill
#
# Bulk Modulus (GPa) = 62.71478 72.31899 67.51689
# Shear Modulus (GPa) = 26.92772 33.00741 29.96756
#
# Velocity S-wave (km/s) = 3.63932 4.02927 3.83925
# Velocity P-wave (km/s) = 6.96466 7.56423 7.27063
#
# Compressibility (1/GPa) = 0.01594520
#
# Stress axis : x y z
#
# Youngs Moduli (GPa) = 71.14172 148.34673 41.05681
#
# Poissons Ratio (x) = 0.14778 0.39906
# Poissons Ratio (y) = 0.07087 0.15965
# Poissons Ratio (z) = 0.69148 0.57684
#
# Static dielectric constant tensor:
#      x y z
#    x 3.726860 0.000000 0.053750 
#    y 0.000000 4.341070 0.000000 
#    z 0.053750 0.000000 3.372110 
# 
# 
# High freq. dielectric constant tensor:
#      x y z
#    x 1.814540 0.000000 -0.006100 
#    y 0.000000 1.821660 0.000000 
#    z -0.006100 0.000000 1.754510 
# 
# From -- ./inp_files/200144.got.cif
#   From: 2010.06.25/outbox.cif.g09.slc.cpg/sg12_101_cif.got.tgz:200144.got - 2010.06.28 00:19:55.
