data_PCOD8084766
_publ_section_title
;
Structure prediction by ZEFSAII (Michael W. Deem and Ramdas Pophale) SiO2 
 PCOD8084766
Probable space group: C 2/M
;
_chemical_formula_sum "Si O2"
_cell_formula_units_Z 56
_cell_length_a 27.278677
_cell_length_b 9.221693
_cell_length_c 16.298638
_cell_angle_alpha 90.000000
_cell_angle_beta 65.666540
_cell_angle_gamma 90.000000
_cell_volume 3735.779710
_symmetry_space_group_name_H-M "C 2/M"
_symmetry_group_IT_number 12
_symmetry_cell_setting 'monoclinic'
loop_
_space_group_symop_operation_xyz
x,y,z
-x,y,-z
-x,-y,-z
x,-y,z
1/2+x,1/2+y,z
1/2-x,1/2+y,-z
1/2-x,1/2-y,-z
1/2+x,1/2-y,z
loop_
_atom_site_type_symbol
_atom_site_label
_atom_site_fract_x
_atom_site_fract_y
_atom_site_fract_z
Si Si1 0.750677 0.830718 0.196371
Si Si2 0.447915 0.328582 0.634763
Si Si3 0.700688 0.666167 0.998393
Si Si4 0.432447 0.328116 0.461569
Si Si5 0.648661 0.329342 0.192271
Si Si6 0.833627 0.669065 0.453573
Si Si7 0.731638 0.668489 0.632225
O O1 0.697988 0.745321 0.204682
O O2 0.768982 0.778748 0.273233
O O3 0.735450 0.000000 0.209304
O O4 0.801279 0.800686 0.098268
O O5 0.449349 0.500000 0.632898
O O6 0.427123 0.277790 0.559879
O O7 0.508698 0.276687 0.610973
O O8 0.407405 0.268407 0.732489
O O9 0.714941 0.500000 0.001535
O O10 0.649452 0.704172 0.092487
O O11 0.750000 0.750000 0.000000
O O12 0.423771 0.500000 0.457753
O O13 0.389224 0.244642 0.437570
O O14 0.653283 0.500000 0.206645
O O15 0.843674 0.500000 0.432949
O O16 0.790683 0.699051 0.555032
O O17 0.812823 0.736753 0.383078
O O18 0.716225 0.500000 0.633674
#
# Coordination Sequence:
#
# PCOD8084766 Si02
#       7
#     8   8   8   8   8   8   8
#     4   9  16  26  39  57  81 106 131 157 189 230
#     4   8  15  26  41  60  79 104 136 160 183 225
#     4   8  14  23  36  55  79 104 127 155 189 225
#     4   9  16  28  43  57  78 107 134 159 189 226
#     4   9  15  24  39  59  82 106 131 158 189 224
#     4  10  19  29  41  59  80 100 128 165 197 226
#     4   9  18  30  42  56  77 106 133 156 190 234
#
# _framework density 14.990178
#
# number of rings (size 3 to 8) (size 9 to 14) (size 15 to 20)
#    0.000    3.143    0.000    2.143    0.000    1.143 
#    0.000    2.143    0.000    0.000    0.000    1.000 
#    0.000    8.000    0.000    0.000    0.000    0.000 
#
# Total GULP energy -346871.996750 kJ/mol
# GULP energy per Si atom -12388.285598 kJ/mol
# Density = 1.495606 g / cm^3
# Si number density = 14.990178 Si / 1000 Ang^3
#
#
#
# Elastic Constant Matrix: (Units=GPa)
#
#
# Indices 1 2 3 4 5 6 
#
# 1 100.6400 37.6365 66.5408 0.0000 0.5993 0.0000
# 2 37.6365 39.4966 32.6019 0.0000 1.9086 0.0000
# 3 66.5408 32.6019 153.1631 0.0000 2.1641 0.0000
# 4 0.0000 0.0000 0.0000 14.4862 0.0000 0.1508
# 5 0.5993 1.9086 2.1641 0.0000 21.9407 0.0000
# 6 0.0000 0.0000 0.0000 0.1508 0.0000 21.2997
#
#
#
# Elastic Compliance Matrix: (Units=1/GPa)
#
#
# Indices 1 2 3 4 5 6 
#
# 1 0.018275 -0.013227 -0.005140 0.000000 0.001158 0.000000
# 2 -0.013227 0.040380 -0.002808 0.000000 -0.002874 0.000000
# 3 -0.005140 -0.002808 0.009367 0.000000 -0.000539 0.000000
# 4 0.000000 0.000000 0.000000 0.069036 0.000000 -0.000489
# 5 0.001158 -0.002874 -0.000539 0.000000 0.045849 0.000000
# 6 0.000000 0.000000 0.000000 -0.000489 0.000000 0.046953
#
#
# Mechanical properties :
#
#
# Convention : Reuss Voigt Hill
#
# Bulk Modulus (GPa) = 38.95446 62.98424 50.96935
# Shear Modulus (GPa) = 17.80838 21.98003 19.89420
#
# Velocity S-wave (km/s) = 3.45048 3.83338 3.64696
# Velocity P-wave (km/s) = 6.47437 7.85502 7.19787
#
# Compressibility (1/GPa) = 0.02567100
#
# Stress axis : x y z
#
# Youngs Moduli (GPa) = 54.72076 24.76504 106.75256
#
# Poissons Ratio (x) = 0.32757 0.54873
# Poissons Ratio (y) = 0.72379 0.29977
# Poissons Ratio (z) = 0.28128 0.06954
#
# Static dielectric constant tensor:
#      x y z
#    x 2.620440 0.000000 -0.040080 
#    y 0.000000 2.217220 0.000000 
#    z -0.040080 0.000000 3.594170 
# 
# 
# High freq. dielectric constant tensor:
#      x y z
#    x 1.538980 0.000000 0.001510 
#    y 0.000000 1.565710 0.000000 
#    z 0.001510 0.000000 1.582520 
# 
# From -- ./inp_files/291446.got.cif
#   From: 2010.06.25/outbox.cif.g09.slc.cpg/sg12_146_cif.got.tgz:291446.got - 2010.06.28 00:19:55.
