data_PCOD8084733
_publ_section_title
;
Structure prediction by ZEFSAII (Michael W. Deem and Ramdas Pophale) SiO2 
 PCOD8084733
Probable space group: C 2/M
;
_chemical_formula_sum "Si O2"
_cell_formula_units_Z 60
_cell_length_a 25.062235
_cell_length_b 27.489785
_cell_length_c 13.162659
_cell_angle_alpha 90.000000
_cell_angle_beta 23.578088
_cell_angle_gamma 90.000000
_cell_volume 3627.381146
_symmetry_space_group_name_H-M "C 2/M"
_symmetry_group_IT_number 12
_symmetry_cell_setting 'monoclinic'
loop_
_space_group_symop_operation_xyz
x,y,z
-x,y,-z
-x,-y,-z
x,-y,z
1/2+x,1/2+y,z
1/2-x,1/2+y,-z
1/2-x,1/2-y,-z
1/2+x,1/2-y,z
loop_
_atom_site_type_symbol
_atom_site_label
_atom_site_fract_x
_atom_site_fract_y
_atom_site_fract_z
Si Si1 0.104432 0.693897 0.737816
Si Si2 0.330426 0.144816 0.705322
Si Si3 0.500000 0.355123 0.500000
Si Si4 0.534754 0.196973 0.225023
Si Si5 0.102074 0.191212 0.737930
Si Si6 0.710763 0.120231 0.994073
Si Si7 0.014874 0.446831 0.593362
Si Si8 0.947551 0.809524 0.807463
O O1 0.110479 0.751536 0.740958
O O2 0.249773 0.669779 0.502790
O O3 0.054261 0.680485 0.714371
O O4 0.000000 0.671386 0.000000
O O5 0.438309 0.186149 0.488714
O O6 0.338347 0.139028 0.811433
O O7 0.370252 0.093108 0.582291
O O8 0.183252 0.161224 0.928797
O O9 0.490993 0.322646 0.617173
O O10 0.369598 0.389304 0.715223
O O11 0.669311 0.164295 0.991241
O O12 0.583636 0.252277 0.136143
O O13 0.058837 0.178028 0.697878
O O14 0.000000 0.169089 0.000000
O O15 0.628147 0.071427 0.111480
O O16 0.049243 0.500000 0.581117
O O17 0.000000 0.453041 0.500000
#
# Coordination Sequence:
#
# PCOD8084733 Si02
#       8
#     8   8   4   8   8   8   8   8
#     4   9  18  28  42  62  82 112 166 204 232 263
#     4   9  18  31  42  69  94 116 159 196 215 272
#     4  10  22  30  39  64  98 132 151 180 224 288
#     4  10  19  28  46  60  89 129 157 194 222 263
#     4   9  17  31  44  58  83 121 162 208 236 256
#     4   9  19  31  43  64  96 120 154 192 223 270
#     4   8  14  29  52  67  83 115 153 197 237 263
#     4  10  21  28  45  63  95 133 160 183 229 273
#
# _framework density 16.540859000000001
#
# number of rings (size 3 to 8) (size 9 to 14) (size 15 to 20)
#    0.000    2.800    0.000    2.000    5.600    3.200 
#    0.000    0.333    0.000    0.800    0.000    0.000 
#    0.000   21.867    0.000    0.000    0.000    0.000 
#
# Total GULP energy -371727.636328 kJ/mol
# GULP energy per Si atom -12390.921211 kJ/mol
# Density = 1.650321 g / cm^3
# Si number density = 16.540859 Si / 1000 Ang^3
#
#
#
# Elastic Constant Matrix: (Units=GPa)
#
#
# Indices 1 2 3 4 5 6 
#
# 1 63.2845 24.6901 42.4512 -0.0024 -8.2248 -0.0013
# 2 24.6901 84.8769 41.2405 0.0016 -12.4088 0.0032
# 3 42.4512 41.2405 134.7668 0.0077 -14.9087 0.0057
# 4 -0.0024 0.0016 0.0077 12.8753 0.0018 -2.3905
# 5 -8.2248 -12.4088 -14.9087 0.0018 25.2211 0.0005
# 6 -0.0013 0.0032 0.0057 -2.3905 0.0005 1.3984
#
#
#
# Elastic Compliance Matrix: (Units=1/GPa)
#
#
# Indices 1 2 3 4 5 6 
#
# 1 0.020923 -0.003162 -0.005393 0.000024 0.002080 0.000089
# 2 -0.003162 0.014836 -0.003050 -0.000009 0.004465 -0.000041
# 3 -0.005393 -0.003050 0.010370 -0.000022 0.002871 -0.000079
# 4 0.000024 -0.000009 -0.000022 0.113781 -0.000021 0.194507
# 5 0.002080 0.004465 0.002871 -0.000021 0.044221 -0.000070
# 6 0.000089 -0.000041 -0.000079 0.194507 -0.000070 1.047625
#
#
# Mechanical properties :
#
#
# Convention : Reuss Voigt Hill
#
# Bulk Modulus (GPa) = 43.63157 55.52133 49.57645
# Shear Modulus (GPa) = 3.89831 19.53537 11.71684
#
# Velocity S-wave (km/s) = 1.53684 3.44035 2.66439
# Velocity P-wave (km/s) = 5.43916 7.02996 6.28510
#
# Compressibility (1/GPa) = 0.02291919
#
# Stress axis : x y z
#
# Youngs Moduli (GPa) = 47.79368 67.40173 96.43209
#
# Poissons Ratio (x) = 0.21312 0.52007
# Poissons Ratio (y) = 0.15112 0.29413
# Poissons Ratio (z) = 0.25776 0.20559
#
# Static dielectric constant tensor:
#      x y z
#    x 3.063430 0.000000 -0.095080 
#    y 0.000000 2.943400 0.000020 
#    z -0.095080 0.000020 3.366220 
# 
# 
# High freq. dielectric constant tensor:
#      x y z
#    x 1.626810 0.000000 -0.006200 
#    y 0.000000 1.580490 0.000000 
#    z -0.006200 0.000000 1.648070 
# 
# From -- ./inp_files/247478.got.cif
#   From: 2010.06.25/outbox.cif.g09.slc.cpg/sg12_124_cif.got.tgz:247478.got - 2010.06.28 00:19:55.
