data_PCOD8084361
_publ_section_title
;
Structure prediction by ZEFSAII (Michael W. Deem and Ramdas Pophale) SiO2 
 PCOD8084361
Probable space group: C 2/M
;
_chemical_formula_sum "Si O2"
_cell_formula_units_Z 48
_cell_length_a 27.661222
_cell_length_b 9.048109
_cell_length_c 17.146052
_cell_angle_alpha 90.000000
_cell_angle_beta 35.881999
_cell_angle_gamma 90.000000
_cell_volume 2515.233199
_symmetry_space_group_name_H-M "C 2/M"
_symmetry_group_IT_number 12
_symmetry_cell_setting 'monoclinic'
loop_
_space_group_symop_operation_xyz
x,y,z
-x,y,-z
-x,-y,-z
x,-y,z
1/2+x,1/2+y,z
1/2-x,1/2+y,-z
1/2-x,1/2-y,-z
1/2+x,1/2-y,z
loop_
_atom_site_type_symbol
_atom_site_label
_atom_site_fract_x
_atom_site_fract_y
_atom_site_fract_z
Si Si1 0.335717 0.172558 0.903352
Si Si2 0.310755 0.173736 0.244652
Si Si3 0.991791 0.671868 0.600322
Si Si4 0.370829 0.326268 0.477802
Si Si5 0.408445 0.824446 0.970015
Si Si6 0.096174 0.324413 0.724749
O O1 0.399046 0.205915 0.750126
O O2 0.374026 0.236978 0.933197
O O3 0.318352 0.000000 0.933892
O O4 0.250000 0.250000 0.000000
O O5 0.214310 0.212742 0.367040
O O6 0.352829 0.236398 0.268013
O O7 0.326119 0.000000 0.224377
O O8 0.354204 0.243024 0.111462
O O9 0.013458 0.500000 0.584115
O O10 0.054613 0.766022 0.568764
O O11 0.000000 0.720043 0.500000
O O12 0.381882 0.500000 0.451923
O O13 0.365753 0.250852 0.400690
O O14 0.502113 0.772369 0.858559
O O15 0.403961 0.000000 0.975398
O O16 0.102871 0.500000 0.705820
#
# Coordination Sequence:
#
# PCOD8084361 Si02
#       6
#     8   8   8   8   8   8
#     4  10  21  37  58  83 109 141 180 225 274 325
#     4   9  19  32  53  85 112 142 184 229 270 320
#     4  10  22  41  61  81 108 144 187 226 268 328
#     4  11  22  35  54  83 117 145 178 224 277 326
#     4   9  17  33  56  81 108 139 184 231 267 315
#     4  10  18  35  60  80 107 147 188 225 270 321
#
# _framework density 19.083718000000001
#
# number of rings (size 3 to 8) (size 9 to 14) (size 15 to 20)
#    0.000    2.167    1.667    1.500    2.333    3.000 
#    0.000    0.833    0.000    5.000    0.000    0.000 
#    0.000    0.000    0.000    0.000    0.000    0.000 
#
# Total GULP energy -297633.717742 kJ/mol
# GULP energy per Si atom -12401.404906 kJ/mol
# Density = 1.904028 g / cm^3
# Si number density = 19.083718 Si / 1000 Ang^3
#
#
#
# Elastic Constant Matrix: (Units=GPa)
#
#
# Indices 1 2 3 4 5 6 
#
# 1 109.5318 27.7760 49.7480 -0.0031 2.8570 0.0002
# 2 27.7760 35.7978 33.7137 0.0076 -2.1989 0.0062
# 3 49.7480 33.7137 123.8967 0.0016 9.5989 0.0020
# 4 -0.0031 0.0076 0.0016 21.0881 0.0004 -6.3099
# 5 2.8570 -2.1989 9.5989 0.0004 43.7893 -0.0018
# 6 0.0002 0.0062 0.0020 -6.3099 -0.0018 18.9421
#
#
#
# Elastic Compliance Matrix: (Units=1/GPa)
#
#
# Indices 1 2 3 4 5 6 
#
# 1 0.012213 -0.006614 -0.003069 0.000006 -0.000456 0.000004
# 2 -0.006614 0.041916 -0.009101 -0.000021 0.004531 -0.000019
# 3 -0.003069 -0.009101 0.012004 0.000003 -0.002888 0.000002
# 4 0.000006 -0.000021 0.000003 0.052670 -0.000002 0.017545
# 5 -0.000456 0.004531 -0.002888 -0.000002 0.023727 0.000001
# 6 0.000004 -0.000019 0.000002 0.017545 0.000001 0.058637
#
#
# Mechanical properties :
#
#
# Convention : Reuss Voigt Hill
#
# Bulk Modulus (GPa) = 35.00803 54.63353 44.82078
# Shear Modulus (GPa) = 20.14048 27.29647 23.71847
#
# Velocity S-wave (km/s) = 3.25218 3.78610 3.52925
# Velocity P-wave (km/s) = 5.69969 6.91399 6.33600
#
# Compressibility (1/GPa) = 0.02856488
#
# Stress axis : x y z
#
# Youngs Moduli (GPa) = 81.88231 23.85703 83.30776
#
# Poissons Ratio (x) = 0.15779 0.25564
# Poissons Ratio (y) = 0.54157 0.75821
# Poissons Ratio (z) = 0.25127 0.21713
#
# Static dielectric constant tensor:
#      x y z
#    x 3.676180 0.000000 0.178180 
#    y 0.000000 3.104360 0.000010 
#    z 0.178180 0.000010 3.775510 
# 
# 
# High freq. dielectric constant tensor:
#      x y z
#    x 1.752880 0.000000 0.001850 
#    y 0.000000 1.700150 0.000000 
#    z 0.001850 0.000000 1.760860 
# 
# From -- ./inp_files/244884.got.cif
#   From: 2010.06.25/outbox.cif.g09.slc.cpg/sg12_123_cif.got.tgz:244884.got - 2010.06.28 00:19:55.
