data_PCOD8084651
_publ_section_title
;
Structure prediction by ZEFSAII (Michael W. Deem and Ramdas Pophale) SiO2 
 PCOD8084651
Probable space group: C 2/M
;
_chemical_formula_sum "Si O2"
_cell_formula_units_Z 56
_cell_length_a 23.271125
_cell_length_b 13.562620
_cell_length_c 10.222549
_cell_angle_alpha 90.000000
_cell_angle_beta 131.818542
_cell_angle_gamma 90.000000
_cell_volume 2404.518574
_symmetry_space_group_name_H-M "C 2/M"
_symmetry_group_IT_number 12
_symmetry_cell_setting 'monoclinic'
loop_
_space_group_symop_operation_xyz
x,y,z
-x,y,-z
-x,-y,-z
x,-y,z
1/2+x,1/2+y,z
1/2-x,1/2+y,-z
1/2-x,1/2-y,-z
1/2+x,1/2-y,z
loop_
_atom_site_type_symbol
_atom_site_label
_atom_site_fract_x
_atom_site_fract_y
_atom_site_fract_z
Si Si1 0.317984 0.886587 0.740773
Si Si2 0.047145 0.383552 0.698144
Si Si3 0.659107 0.706662 0.079171
Si Si4 0.160218 0.885351 0.363385
Si Si5 0.903136 0.382657 0.616830
Si Si6 0.191977 0.382776 0.782202
Si Si7 0.003417 0.889375 0.849279
O O1 0.338143 0.825863 0.902692
O O2 0.229171 0.870377 0.569056
O O3 0.370112 0.841031 0.702594
O O4 0.337347 0.000000 0.800529
O O5 0.054152 0.500000 0.710822
O O6 0.135475 0.343364 0.815682
O O7 0.000000 0.350245 0.500000
O O8 0.993313 0.347573 0.738010
O O9 0.678096 0.665018 0.252356
O O10 0.724628 0.668578 0.078838
O O11 0.574086 0.675533 0.899533
O O12 0.081816 0.847344 0.319168
O O13 0.148142 0.000000 0.310104
O O14 0.899660 0.500000 0.618671
O O15 0.848249 0.350090 0.414488
O O16 0.203687 0.500000 0.806907
O O17 0.016336 0.000000 0.815097
O O18 0.000000 0.888461 0.000000
#
# Coordination Sequence:
#
# PCOD8084651 Si02
#       7
#     8   8   8   8   8   8   8
#     4  10  19  27  37  57  86 117 142 163 191 237
#     4   7  11  19  31  48  73 105 130 153 197 250
#     4  11  17  23  38  60  84 107 133 164 205 247
#     4   9  16  27  40  56  80 109 137 166 202 247
#     4   8  13  22  33  48  77 110 133 156 194 245
#     4   9  14  20  34  56  81 104 127 161 206 252
#     4   8  15  26  40  56  78 108 137 165 203 248
#
# _framework density 23.289484999999999
#
# number of rings (size 3 to 8) (size 9 to 14) (size 15 to 20)
#    0.000    3.143    1.429    4.286    0.000    0.000 
#    0.000    0.000    0.000    3.857    0.000    0.000 
#    0.000   21.143    0.000    2.143    0.000    0.571 
#
# Total GULP energy -346889.914045 kJ/mol
# GULP energy per Si atom -12388.925502 kJ/mol
# Density = 2.323648 g / cm^3
# Si number density = 23.289485 Si / 1000 Ang^3
#
#
#
# Elastic Constant Matrix: (Units=GPa)
#
#
# Indices 1 2 3 4 5 6 
#
# 1 177.8803 39.3079 55.8245 0.0000 66.9307 0.0000
# 2 39.3079 41.7257 26.1979 0.0000 27.5983 0.0000
# 3 55.8245 26.1979 43.1717 0.0000 30.6067 0.0000
# 4 0.0000 0.0000 0.0000 18.0973 0.0000 15.0498
# 5 66.9307 27.5983 30.6067 0.0000 45.8721 0.0000
# 6 0.0000 0.0000 0.0000 15.0498 0.0000 15.2200
#
#
#
# Elastic Compliance Matrix: (Units=1/GPa)
#
#
# Indices 1 2 3 4 5 6 
#
# 1 0.013564 0.002887 -0.007646 0.000000 -0.016427 0.000000
# 2 0.002887 0.045142 -0.016862 0.000000 -0.020121 0.000000
# 3 -0.007646 -0.016862 0.053478 0.000000 -0.014381 0.000000
# 4 0.000000 0.000000 0.000000 0.310964 0.000000 -0.307487
# 5 -0.016427 -0.020121 -0.014381 0.000000 0.067468 0.000000
# 6 0.000000 0.000000 0.000000 -0.307487 0.000000 0.369751
#
#
# Mechanical properties :
#
#
# Convention : Reuss Voigt Hill
#
# Bulk Modulus (GPa) = 14.50488 56.15981 35.33235
# Shear Modulus (GPa) = 5.39614 25.26768 15.33191
#
# Velocity S-wave (km/s) = 1.52382 3.29742 2.56856
# Velocity P-wave (km/s) = 3.05575 6.21799 4.89903
#
# Compressibility (1/GPa) = 0.06894229
#
# Stress axis : x y z
#
# Youngs Moduli (GPa) = 73.72440 22.15256 18.69940
#
# Poissons Ratio (x) = -0.06396 0.14297
# Poissons Ratio (y) = -0.21287 0.31531
# Poissons Ratio (z) = 0.56369 0.37354
#
# Static dielectric constant tensor:
#      x y z
#    x 4.714780 0.000000 0.711930 
#    y 0.000000 4.012070 0.000000 
#    z 0.711930 0.000000 3.900440 
# 
# 
# High freq. dielectric constant tensor:
#      x y z
#    x 1.920410 0.000000 0.044770 
#    y 0.000000 1.911440 0.000000 
#    z 0.044770 0.000000 1.885880 
# 
# From -- ./inp_files/246113.got.cif
#   From: 2010.06.25/outbox.cif.g09.slc.cpg/sg12_124_cif.got.tgz:246113.got - 2010.06.28 00:19:55.
