data_PCOD8084625
_publ_section_title
;
Structure prediction by ZEFSAII (Michael W. Deem and Ramdas Pophale) SiO2 
 PCOD8084625
Probable space group: C 2/M
;
_chemical_formula_sum "Si O2"
_cell_formula_units_Z 44
_cell_length_a 8.939775
_cell_length_b 27.818597
_cell_length_c 7.092288
_cell_angle_alpha 90.000000
_cell_angle_beta 78.515790
_cell_angle_gamma 90.000000
_cell_volume 1728.483405
_symmetry_space_group_name_H-M "C 2/M"
_symmetry_group_IT_number 12
_symmetry_cell_setting 'monoclinic'
loop_
_space_group_symop_operation_xyz
x,y,z
-x,y,-z
-x,-y,-z
x,-y,z
1/2+x,1/2+y,z
1/2-x,1/2+y,-z
1/2-x,1/2-y,-z
1/2+x,1/2-y,z
loop_
_atom_site_type_symbol
_atom_site_label
_atom_site_fract_x
_atom_site_fract_y
_atom_site_fract_z
Si Si1 0.349151 0.205013 0.415115
Si Si2 0.166039 0.605281 0.086356
Si Si3 0.589574 0.947482 0.673240
Si Si4 0.830486 0.109750 0.438629
Si Si5 0.918932 0.055570 0.820078
Si Si6 0.500000 0.190670 0.000000
O O1 0.500000 0.193593 0.500000
O O2 0.250000 0.250000 0.500000
O O3 0.227745 0.160545 0.459442
O O4 0.420491 0.219288 0.192069
O O5 0.259759 0.601796 0.252435
O O6 0.990184 0.589389 0.164138
O O7 0.147600 0.660565 0.033862
O O8 0.243174 0.571123 0.906816
O O9 0.500000 0.945467 0.500000
O O10 0.766708 0.933441 0.587586
O O11 0.585112 0.000000 0.763598
O O12 0.010870 0.097287 0.344677
O O13 0.932696 0.000000 0.745854
O O14 0.000000 0.060735 0.000000
#
# Coordination Sequence:
#
# PCOD8084625 Si02
#       6
#     8   8   8   8   8   4
#     4  12  27  50  75 106 139 177 237 299 363 439
#     4  10  19  35  63  94 138 178 224 279 331 414
#     4   9  15  27  56  89 124 175 222 266 326 396
#     4  10  18  39  64  93 136 175 225 281 348 406
#     4   9  18  32  58  99 140 184 232 278 336 407
#     4  12  24  46  75  98 136 184 229 288 366 420
#
# _framework density 25.455843000000002
#
# number of rings (size 3 to 8) (size 9 to 14) (size 15 to 20)
#    0.000    1.818    3.636    1.636    0.000    6.545 
#    4.909    1.818    0.000    1.091    0.000    0.000 
#    0.000    0.000    0.000    0.000    0.000    0.000 
#
# Total GULP energy -272618.922163 kJ/mol
# GULP energy per Si atom -12391.769189 kJ/mol
# Density = 2.539790 g / cm^3
# Si number density = 25.455843 Si / 1000 Ang^3
#
#
#
# Elastic Constant Matrix: (Units=GPa)
#
#
# Indices 1 2 3 4 5 6 
#
# 1 141.6635 20.1287 42.8066 0.0000 -43.5663 0.0000
# 2 20.1287 124.3108 57.0151 0.0000 -32.3287 0.0000
# 3 42.8066 57.0151 179.1039 0.0000 -20.9015 0.0000
# 4 0.0000 0.0000 0.0000 48.4970 0.0000 -16.7443
# 5 -43.5663 -32.3287 -20.9015 0.0000 43.2423 0.0000
# 6 0.0000 0.0000 0.0000 -16.7443 0.0000 32.2061
#
#
#
# Elastic Compliance Matrix: (Units=1/GPa)
#
#
# Indices 1 2 3 4 5 6 
#
# 1 0.010933 0.002158 -0.001936 0.000000 0.011693 0.000000
# 2 0.002158 0.011537 -0.003103 0.000000 0.009300 0.000000
# 3 -0.001936 -0.003103 0.006926 0.000000 -0.000922 0.000000
# 4 0.000000 0.000000 0.000000 0.025131 0.000000 0.013066
# 5 0.011693 0.009300 -0.000922 0.000000 0.041413 0.000000
# 6 0.000000 0.000000 0.000000 0.013066 0.000000 0.037843
#
#
# Mechanical properties :
#
#
# Convention : Reuss Voigt Hill
#
# Bulk Modulus (GPa) = 42.30930 76.10877 59.20903
# Shear Modulus (GPa) = 33.91614 46.46427 40.19021
#
# Velocity S-wave (km/s) = 3.65410 4.27697 3.97775
# Velocity P-wave (km/s) = 5.87026 7.37247 6.66383
#
# Compressibility (1/GPa) = 0.02363547
#
# Stress axis : x y z
#
# Youngs Moduli (GPa) = 91.46412 86.68065 144.38000
#
# Poissons Ratio (x) = -0.18709 0.27946
# Poissons Ratio (y) = -0.19742 0.44803
# Poissons Ratio (z) = 0.17704 0.26898
#
# Static dielectric constant tensor:
#      x y z
#    x 5.368140 0.000000 0.069990 
#    y 0.000000 4.179530 0.000000 
#    z 0.069990 0.000000 5.377140 
# 
# 
# High freq. dielectric constant tensor:
#      x y z
#    x 2.070010 0.000000 0.027410 
#    y 0.000000 1.971600 0.000000 
#    z 0.027410 0.000000 2.076640 
# 
# From -- ./inp_files/41549.got.cif
#   From: 2010.06.25/outbox.cif.g09.slc.cpg/sg12_21_cif.got.tgz:41549.got - 2010.06.28 00:19:55.
