data_PCOD8084518
_publ_section_title
;
Structure prediction by ZEFSAII (Michael W. Deem and Ramdas Pophale) SiO2 
 PCOD8084518
Probable space group: C 2/M
;
_chemical_formula_sum "Si O2"
_cell_formula_units_Z 48
_cell_length_a 10.334376
_cell_length_b 28.654830
_cell_length_c 13.924356
_cell_angle_alpha 90.000000
_cell_angle_beta 34.538692
_cell_angle_gamma 90.000000
_cell_volume 2337.823162
_symmetry_space_group_name_H-M "C 2/M"
_symmetry_group_IT_number 12
_symmetry_cell_setting 'monoclinic'
loop_
_space_group_symop_operation_xyz
x,y,z
-x,y,-z
-x,-y,-z
x,-y,z
1/2+x,1/2+y,z
1/2-x,1/2+y,-z
1/2-x,1/2-y,-z
1/2+x,1/2-y,z
loop_
_atom_site_type_symbol
_atom_site_label
_atom_site_fract_x
_atom_site_fract_y
_atom_site_fract_z
Si Si1 0.383461 0.873805 0.168230
Si Si2 0.006518 0.315515 0.598854
Si Si3 0.937474 0.128645 0.135824
Si Si4 0.414510 0.381783 0.360186
Si Si5 0.674896 0.202692 0.094519
Si Si6 0.251905 0.448450 0.606785
O O1 0.496427 0.826128 0.137878
O O2 0.410254 0.914693 0.230943
O O3 0.118508 0.866030 0.305597
O O4 0.500000 0.891643 0.000000
O O5 0.829254 0.358708 0.700478
O O6 0.943418 0.284516 0.730394
O O7 0.000000 0.287626 0.500000
O O8 0.258341 0.336061 0.456161
O O9 0.996723 0.104196 0.201584
O O10 0.000000 0.098677 0.000000
O O11 0.094004 0.174533 0.030267
O O12 0.279522 0.426346 0.484126
O O13 0.750000 0.250000 0.000000
O O14 0.500000 0.453210 0.500000
O O15 0.139654 0.500000 0.667419
#
# Coordination Sequence:
#
# PCOD8084518 Si02
#       6
#     8   8   8   8   8   8
#     4  11  21  35  62  89 125 158 193 251 313 355
#     4   9  19  37  62  81 111 160 210 240 291 355
#     4   9  19  36  58  82 111 161 205 238 290 362
#     4  10  18  36  63  87 117 155 201 245 305 348
#     4  11  22  38  61  86 120 163 200 245 304 356
#     4   9  19  35  60  93 122 152 195 248 311 370
#
# _framework density 20.53192
#
# number of rings (size 3 to 8) (size 9 to 14) (size 15 to 20)
#    0.000    2.167    3.333    0.000    0.000    2.333 
#    0.000    3.333    7.333    5.000    0.000    0.000 
#    0.000    0.000    0.000    0.000    0.000    0.000 
#
# Total GULP energy -297362.696747 kJ/mol
# GULP energy per Si atom -12390.112364 kJ/mol
# Density = 2.048519 g / cm^3
# Si number density = 20.531920 Si / 1000 Ang^3
#
#
#
# Elastic Constant Matrix: (Units=GPa)
#
#
# Indices 1 2 3 4 5 6 
#
# 1 108.9419 47.1598 58.2300 0.0000 27.2334 0.0000
# 2 47.1598 104.9286 52.3480 0.0000 24.9297 0.0000
# 3 58.2300 52.3480 129.2468 0.0000 46.6833 0.0000
# 4 0.0000 0.0000 0.0000 22.6815 0.0000 -1.1752
# 5 27.2334 24.9297 46.6833 0.0000 66.3089 0.0000
# 6 0.0000 0.0000 0.0000 -1.1752 0.0000 10.6470
#
#
#
# Elastic Compliance Matrix: (Units=1/GPa)
#
#
# Indices 1 2 3 4 5 6 
#
# 1 0.013218 -0.003634 -0.004044 0.000000 -0.001215 0.000000
# 2 -0.003634 0.013049 -0.003238 0.000000 -0.001133 0.000000
# 3 -0.004044 -0.003238 0.013184 0.000000 -0.006403 0.000000
# 4 0.000000 0.000000 0.000000 0.044342 0.000000 0.004894
# 5 -0.001215 -0.001133 -0.006403 0.000000 0.020514 0.000000
# 6 0.000000 0.000000 0.000000 0.004894 0.000000 0.094464
#
#
# Mechanical properties :
#
#
# Convention : Reuss Voigt Hill
#
# Bulk Modulus (GPa) = 56.76570 73.17698 64.97134
# Shear Modulus (GPa) = 22.07741 32.28610 27.18176
#
# Velocity S-wave (km/s) = 3.28269 3.96976 3.64246
# Velocity P-wave (km/s) = 6.48657 7.53193 7.02871
#
# Compressibility (1/GPa) = 0.01761627
#
# Stress axis : x y z
#
# Youngs Moduli (GPa) = 75.65501 76.63697 75.85231
#
# Poissons Ratio (x) = 0.27853 0.30676
# Poissons Ratio (y) = 0.27496 0.24562
# Poissons Ratio (z) = 0.30597 0.24816
#
# Static dielectric constant tensor:
#      x y z
#    x 4.180950 0.000000 0.377300 
#    y 0.000000 3.274910 0.000000 
#    z 0.377300 0.000000 4.166680 
# 
# 
# High freq. dielectric constant tensor:
#      x y z
#    x 1.818930 0.000000 0.014500 
#    y 0.000000 1.730520 0.000000 
#    z 0.014500 0.000000 1.826690 
# 
# From -- ./inp_files/209776.got.cif
#   From: 2010.06.25/outbox.cif.g09.slc.cpg/sg12_105_cif.got.tgz:209776.got - 2010.06.28 00:19:55.
