data_PCOD8084565
_publ_section_title
;
Structure prediction by ZEFSAII (Michael W. Deem and Ramdas Pophale) SiO2 
 PCOD8084565
Probable space group: C 2/M
;
_chemical_formula_sum "Si O2"
_cell_formula_units_Z 48
_cell_length_a 19.183759
_cell_length_b 10.995470
_cell_length_c 12.782475
_cell_angle_alpha 90.000000
_cell_angle_beta 102.394618
_cell_angle_gamma 90.000000
_cell_volume 2633.420961
_symmetry_space_group_name_H-M "C 2/M"
_symmetry_group_IT_number 12
_symmetry_cell_setting 'monoclinic'
loop_
_space_group_symop_operation_xyz
x,y,z
-x,y,-z
-x,-y,-z
x,-y,z
1/2+x,1/2+y,z
1/2-x,1/2+y,-z
1/2-x,1/2-y,-z
1/2+x,1/2-y,z
loop_
_atom_site_type_symbol
_atom_site_label
_atom_site_fract_x
_atom_site_fract_y
_atom_site_fract_z
Si Si1 0.955089 0.750204 0.762046
Si Si2 0.197199 0.288641 0.344157
Si Si3 0.003734 0.000000 0.877803
Si Si4 0.872998 0.000000 0.238721
Si Si5 0.555881 0.000000 0.111120
Si Si6 0.288607 0.000000 0.810229
Si Si7 0.324250 0.136064 0.434056
Si Si8 0.446594 0.296915 0.394325
O O1 0.878189 0.778104 0.688177
O O2 0.957860 0.623742 0.827482
O O3 0.968250 0.873258 0.831503
O O4 0.009822 0.733118 0.684549
O O5 0.205278 0.380838 0.254209
O O6 0.260661 0.193743 0.346576
O O7 0.201386 0.359724 0.454508
O O8 0.083037 0.000000 0.854820
O O9 0.000000 0.000000 0.000000
O O10 0.891855 0.889391 0.322073
O O11 0.791451 0.000000 0.167815
O O12 0.638871 0.000000 0.094047
O O13 0.500000 0.000000 0.000000
O O14 0.399991 0.199298 0.441331
O O15 0.334090 0.000000 0.398727
O O16 0.500000 0.355075 0.500000
#
# Coordination Sequence:
#
# PCOD8084565 Si02
#       8
#     8   8   4   4   4   4   8   8
#     4  10  22  37  62  86 110 153 191 235 292 344
#     4  10  20  36  51  82 114 154 194 225 272 338
#     4  10  22  41  65  84 109 141 190 254 298 341
#     4  10  21  38  58  86 112 151 190 226 294 343
#     4  10  22  40  65  85 108 145 199 246 294 340
#     4  10  18  37  61  78 114 144 188 237 282 343
#     4  11  22  32  52  78 121 162 192 226 273 326
#     4  11  21  35  54  84 122 152 188 229 273 341
#
# _framework density 18.227243000000001
#
# number of rings (size 3 to 8) (size 9 to 14) (size 15 to 20)
#    0.000    1.667    4.167    0.750    2.333    0.333 
#    0.000    0.000    3.667    4.000    0.000    0.000 
#    0.000    0.000    0.000    0.000    0.000    0.000 
#
# Total GULP energy -297320.257753 kJ/mol
# GULP energy per Si atom -12388.344073 kJ/mol
# Density = 1.818576 g / cm^3
# Si number density = 18.227243 Si / 1000 Ang^3
#
#
#
# Elastic Constant Matrix: (Units=GPa)
#
#
# Indices 1 2 3 4 5 6 
#
# 1 120.6456 40.1255 38.2729 0.0000 23.8977 0.0000
# 2 40.1255 110.5860 27.2599 0.0000 5.8276 0.0000
# 3 38.2729 27.2599 78.2835 0.0000 15.3449 0.0000
# 4 0.0000 0.0000 0.0000 10.2392 0.0000 4.4117
# 5 23.8977 5.8276 15.3449 0.0000 30.8042 0.0000
# 6 0.0000 0.0000 0.0000 4.4117 0.0000 27.0742
#
#
#
# Elastic Compliance Matrix: (Units=1/GPa)
#
#
# Indices 1 2 3 4 5 6 
#
# 1 0.011722 -0.003074 -0.003316 0.000000 -0.006861 0.000000
# 2 -0.003074 0.010699 -0.002541 0.000000 0.001627 0.000000
# 3 -0.003316 -0.002541 0.016270 0.000000 -0.005052 0.000000
# 4 0.000000 0.000000 0.000000 0.105039 0.000000 -0.017116
# 5 -0.006861 0.001627 -0.005052 0.000000 0.039994 0.000000
# 6 0.000000 0.000000 0.000000 -0.017116 0.000000 0.039725
#
#
# Mechanical properties :
#
#
# Convention : Reuss Voigt Hill
#
# Bulk Modulus (GPa) = 48.01111 57.87019 52.94065
# Shear Modulus (GPa) = 20.14061 27.21396 23.67729
#
# Velocity S-wave (km/s) = 3.32772 3.86818 3.60808
# Velocity P-wave (km/s) = 6.41580 7.19504 6.81656
#
# Compressibility (1/GPa) = 0.02082851
#
# Stress axis : x y z
#
# Youngs Moduli (GPa) = 85.30937 93.46655 61.46166
#
# Poissons Ratio (x) = 0.28736 0.20378
# Poissons Ratio (y) = 0.26228 0.15620
# Poissons Ratio (z) = 0.28285 0.23754
#
# Static dielectric constant tensor:
#      x y z
#    x 3.802690 0.000000 0.289990 
#    y 0.000000 1.865360 0.000000 
#    z 0.289990 0.000000 3.253050 
# 
# 
# High freq. dielectric constant tensor:
#      x y z
#    x 1.723310 0.000000 0.011460 
#    y 0.000000 1.711540 0.000000 
#    z 0.011460 0.000000 1.681090 
# 
# From -- ./inp_files/154269.got.cif
#   From: 2010.06.25/outbox.cif.g09.slc.cpg/sg12_78_cif.got.tgz:154269.got - 2010.06.28 00:19:55.
