data_PCOD8084571
_publ_section_title
;
Structure prediction by ZEFSAII (Michael W. Deem and Ramdas Pophale) SiO2 
 PCOD8084571
Probable space group: C 2/M
;
_chemical_formula_sum "Si O2"
_cell_formula_units_Z 40
_cell_length_a 14.760709
_cell_length_b 15.968420
_cell_length_c 15.009698
_cell_angle_alpha 90.000000
_cell_angle_beta 35.950440
_cell_angle_gamma 90.000000
_cell_volume 2077.027683
_symmetry_space_group_name_H-M "C 2/M"
_symmetry_group_IT_number 12
_symmetry_cell_setting 'monoclinic'
loop_
_space_group_symop_operation_xyz
x,y,z
-x,y,-z
-x,-y,-z
x,-y,z
1/2+x,1/2+y,z
1/2-x,1/2+y,-z
1/2-x,1/2-y,-z
1/2+x,1/2-y,z
loop_
_atom_site_type_symbol
_atom_site_label
_atom_site_fract_x
_atom_site_fract_y
_atom_site_fract_z
Si Si1 0.133458 0.091539 0.147647
Si Si2 0.423640 0.193935 0.967862
Si Si3 0.850186 0.124333 0.061474
Si Si4 0.130651 0.785819 0.667098
Si Si5 0.829466 0.594033 0.632848
O O1 0.999754 0.158519 0.279892
O O2 0.102631 0.000000 0.216990
O O3 0.304247 0.121895 0.037456
O O4 0.133660 0.074275 0.042178
O O5 0.550959 0.210837 0.787978
O O6 0.500000 0.166165 0.000000
O O7 0.325279 0.278076 0.059300
O O8 0.709959 0.090544 0.231152
O O9 0.000000 0.108075 0.000000
O O10 0.250000 0.750000 0.500000
O O11 0.217583 0.845501 0.667444
O O12 0.824687 0.500000 0.595693
O O13 0.000000 0.631982 0.500000
#
# Coordination Sequence:
#
# PCOD8084571 Si02
#       5
#     8   8   8   8   8
#     4  11  23  38  62  88 120 155 200 251 296 347
#     4  10  21  41  62  86 113 157 209 244 285 349
#     4  10  18  37  62  88 116 152 192 243 297 362
#     4  11  23  38  61  87 123 160 195 240 295 363
#     4  11  23  35  56  90 127 152 184 241 307 356
#
# _framework density 19.258289999999999
#
# number of rings (size 3 to 8) (size 9 to 14) (size 15 to 20)
#    0.000    1.400    6.000    3.600    5.600    1.200 
#    0.000    1.000    0.000    1.200    0.000    0.000 
#    0.000    0.000    0.000    0.000    0.000    0.000 
#
# Total GULP energy -247873.506294 kJ/mol
# GULP energy per Si atom -12393.675315 kJ/mol
# Density = 1.921446 g / cm^3
# Si number density = 19.258290 Si / 1000 Ang^3
#
#
#
# Elastic Constant Matrix: (Units=GPa)
#
#
# Indices 1 2 3 4 5 6 
#
# 1 65.2868 44.3035 34.0503 -0.0026 -3.4951 0.0021
# 2 44.3035 81.6595 42.5492 -0.0039 -7.1451 -0.0003
# 3 34.0503 42.5492 143.0823 -0.0125 -1.8420 0.0030
# 4 -0.0026 -0.0039 -0.0125 102.9792 0.0046 -0.1489
# 5 -3.4951 -7.1451 -1.8420 0.0046 27.6276 -0.0007
# 6 0.0021 -0.0003 0.0030 -0.1489 -0.0007 10.2500
#
#
#
# Elastic Compliance Matrix: (Units=1/GPa)
#
#
# Indices 1 2 3 4 5 6 
#
# 1 0.024842 -0.012322 -0.002250 0.000000 -0.000194 -0.000005
# 2 -0.012322 0.020943 -0.003249 0.000000 0.003641 0.000004
# 3 -0.002250 -0.003249 0.008483 0.000001 -0.000559 -0.000002
# 4 0.000000 0.000000 0.000001 0.009711 -0.000002 0.000141
# 5 -0.000194 0.003641 -0.000559 -0.000002 0.037075 0.000003
# 6 -0.000005 0.000004 -0.000002 0.000141 0.000003 0.097563
#
#
# Mechanical properties :
#
#
# Convention : Reuss Voigt Hill
#
# Bulk Modulus (GPa) = 53.68795 59.09273 56.39034
# Shear Modulus (GPa) = 20.79278 39.44638 30.11958
#
# Velocity S-wave (km/s) = 3.28941 4.53070 3.95901
# Velocity P-wave (km/s) = 6.50887 7.62369 7.08823
#
# Compressibility (1/GPa) = 0.01862615
#
# Stress axis : x y z
#
# Youngs Moduli (GPa) = 40.25433 47.74961 117.87933
#
# Poissons Ratio (x) = 0.58839 0.26522
# Poissons Ratio (y) = 0.49603 0.38293
# Poissons Ratio (z) = 0.09057 0.15511
#
# Static dielectric constant tensor:
#      x y z
#    x 3.575860 0.000000 0.104710 
#    y 0.000000 3.559760 0.000000 
#    z 0.104710 0.000000 3.998460 
# 
# 
# High freq. dielectric constant tensor:
#      x y z
#    x 1.742020 0.000000 -0.012130 
#    y 0.000000 1.741160 0.000000 
#    z -0.012130 0.000000 1.746400 
# 
# From -- ./inp_files/60232.got.cif
#   From: 2010.06.25/outbox.cif.g09.slc.cpg/sg12_31_cif.got.tgz:60232.got - 2010.06.28 00:19:55.
