data_PCOD8084806
_publ_section_title
;
Structure prediction by ZEFSAII (Michael W. Deem and Ramdas Pophale) SiO2 
 PCOD8084806
Probable space group: C 2/M
;
_chemical_formula_sum "Si O2"
_cell_formula_units_Z 64
_cell_length_a 28.539171
_cell_length_b 9.487357
_cell_length_c 21.167878
_cell_angle_alpha 90.000000
_cell_angle_beta 133.412828
_cell_angle_gamma 90.000000
_cell_volume 4163.438976
_symmetry_space_group_name_H-M "C 2/M"
_symmetry_group_IT_number 12
_symmetry_cell_setting 'monoclinic'
loop_
_space_group_symop_operation_xyz
x,y,z
-x,y,-z
-x,-y,-z
x,-y,z
1/2+x,1/2+y,z
1/2-x,1/2+y,-z
1/2-x,1/2-y,-z
1/2+x,1/2-y,z
loop_
_atom_site_type_symbol
_atom_site_label
_atom_site_fract_x
_atom_site_fract_y
_atom_site_fract_z
Si Si1 0.556752 0.335842 0.004273
Si Si2 0.482508 0.336150 0.171412
Si Si3 0.222282 0.664604 0.333377
Si Si4 0.653894 0.337336 0.912300
Si Si5 0.181304 0.337465 0.156912
Si Si6 0.394890 0.159110 0.683689
Si Si7 0.207360 0.336828 0.508914
Si Si8 0.260545 0.838648 0.917869
O O1 0.574685 0.500000 0.019402
O O2 0.534602 0.283219 0.914801
O O3 0.500000 0.302064 0.000000
O O4 0.618872 0.253106 0.084757
O O5 0.499877 0.500000 0.186273
O O6 0.422087 0.302582 0.161811
O O7 0.543730 0.257856 0.255850
O O8 0.239530 0.500000 0.357723
O O9 0.212379 0.708284 0.251795
O O10 0.157756 0.703278 0.312507
O O11 0.282438 0.759557 0.414165
O O12 0.663311 0.500000 0.938852
O O13 0.689317 0.299246 0.878827
O O14 0.684723 0.252633 0.998325
O O15 0.159630 0.500000 0.139372
O O16 0.235982 0.311807 0.153976
O O17 0.365575 0.171934 0.585484
O O18 0.417417 0.000000 0.717845
O O19 0.229662 0.500000 0.533378
O O20 0.250000 0.250000 0.500000
O O21 0.276523 0.000000 0.948865
#
# Coordination Sequence:
#
# PCOD8084806 Si02
#       8
#     8   8   8   8   8   8   8   8
#     4  10  20  31  41  58  88 123 155 182 211 254
#     4  10  19  29  42  62  87 117 149 182 219 259
#     4   9  18  31  45  65  92 118 146 182 221 261
#     4   9  17  30  45  62  86 113 146 189 227 261
#     4  10  19  30  45  66  89 116 150 184 221 265
#     4   9  18  30  44  63  88 115 144 179 215 257
#     4   9  17  30  47  67  89 115 147 183 222 260
#     4   9  17  29  46  65  84 112 148 186 228 266
#
# _framework density 15.371907999999999
#
# number of rings (size 3 to 8) (size 9 to 14) (size 15 to 20)
#    0.000    2.625    1.250    1.875    0.000    4.250 
#    0.000    0.000    0.000    0.000    0.000    0.875 
#    0.000    7.000    0.000    0.000    0.000    0.000 
#
# Total GULP energy -396656.378139 kJ/mol
# GULP energy per Si atom -12395.511817 kJ/mol
# Density = 1.533692 g / cm^3
# Si number density = 15.371908 Si / 1000 Ang^3
#
#
#
# Elastic Constant Matrix: (Units=GPa)
#
#
# Indices 1 2 3 4 5 6 
#
# 1 86.0285 37.0028 58.3285 0.0000 -4.6542 0.0000
# 2 37.0028 62.3340 55.2929 0.0000 1.1162 0.0000
# 3 58.3285 55.2929 114.0124 0.0000 -5.6965 0.0000
# 4 0.0000 0.0000 0.0000 31.4110 0.0000 4.4451
# 5 -4.6542 1.1162 -5.6965 0.0000 10.4995 0.0000
# 6 0.0000 0.0000 0.0000 4.4451 0.0000 12.1933
#
#
#
# Elastic Compliance Matrix: (Units=1/GPa)
#
#
# Indices 1 2 3 4 5 6 
#
# 1 0.018758 -0.005166 -0.006834 0.000000 0.005157 0.000000
# 2 -0.005166 0.030795 -0.012920 0.000000 -0.012573 0.000000
# 3 -0.006834 -0.012920 0.018964 0.000000 0.008633 0.000000
# 4 0.000000 0.000000 0.000000 0.033568 0.000000 -0.012237
# 5 0.005157 -0.012573 0.008633 0.000000 0.103550 0.000000
# 6 0.000000 0.000000 0.000000 -0.012237 0.000000 0.086473
#
#
# Mechanical properties :
#
#
# Convention : Reuss Voigt Hill
#
# Bulk Modulus (GPa) = 53.53824 62.62482 58.08153
# Shear Modulus (GPa) = 14.36065 18.27081 16.31573
#
# Velocity S-wave (km/s) = 3.05981 3.45133 3.26145
# Velocity P-wave (km/s) = 6.88385 7.53063 7.21450
#
# Compressibility (1/GPa) = 0.01867824
#
# Stress axis : x y z
#
# Youngs Moduli (GPa) = 53.30943 32.47280 52.73044
#
# Poissons Ratio (x) = 0.16775 0.36035
# Poissons Ratio (y) = 0.27539 0.68128
# Poissons Ratio (z) = 0.36431 0.41955
#
# Static dielectric constant tensor:
#      x y z
#    x 3.054090 0.000000 -0.151350 
#    y 0.000000 3.056330 0.000000 
#    z -0.151350 0.000000 3.059760 
# 
# 
# High freq. dielectric constant tensor:
#      x y z
#    x 1.572990 0.000000 -0.005710 
#    y 0.000000 1.596040 0.000000 
#    z -0.005710 0.000000 1.574440 
# 
# From -- ./inp_files/326911.got.cif
#   From: 2010.06.25/outbox.cif.g09.slc.cpg/sg12_164_cif.got.tgz:326911.got - 2010.06.28 00:19:55.
