data_PCOD8084721
_publ_section_title
;
Structure prediction by ZEFSAII (Michael W. Deem and Ramdas Pophale) SiO2 
 PCOD8084721
Probable space group: C 2/M
;
_chemical_formula_sum "Si O2"
_cell_formula_units_Z 56
_cell_length_a 26.644193
_cell_length_b 9.092507
_cell_length_c 17.373905
_cell_angle_alpha 90.000000
_cell_angle_beta 53.570082
_cell_angle_gamma 90.000000
_cell_volume 3386.530209
_symmetry_space_group_name_H-M "C 2/M"
_symmetry_group_IT_number 12
_symmetry_cell_setting 'monoclinic'
loop_
_space_group_symop_operation_xyz
x,y,z
-x,y,-z
-x,-y,-z
x,-y,z
1/2+x,1/2+y,z
1/2-x,1/2+y,-z
1/2-x,1/2-y,-z
1/2+x,1/2-y,z
loop_
_atom_site_type_symbol
_atom_site_label
_atom_site_fract_x
_atom_site_fract_y
_atom_site_fract_z
Si Si1 0.347197 0.670739 0.389443
Si Si2 0.574727 0.672293 0.065514
Si Si3 0.781915 0.828249 0.041783
Si Si4 0.241895 0.830310 0.394004
Si Si5 0.459542 0.172760 0.220890
Si Si6 0.409033 0.165993 0.100345
Si Si7 0.264508 0.834690 0.207313
O O1 0.359021 0.500000 0.361768
O O2 0.298163 0.729049 0.371504
O O3 0.320134 0.697683 0.499645
O O4 0.412565 0.756979 0.325745
O O5 0.562216 0.500000 0.080155
O O6 0.527989 0.754287 0.167011
O O7 0.645073 0.712609 0.025880
O O8 0.561593 0.729065 0.991079
O O9 0.749775 0.773759 0.150274
O O10 0.770321 0.000000 0.045672
O O11 0.750000 0.750000 0.000000
O O12 0.225131 0.793499 0.320014
O O13 0.264246 0.000000 0.380813
O O14 0.434181 0.214567 0.159893
O O15 0.464184 0.000000 0.231662
O O16 0.335249 0.180299 0.170234
O O17 0.429849 0.000000 0.061121
O O18 0.249382 0.000000 0.193026
#
# Coordination Sequence:
#
# PCOD8084721 Si02
#       7
#     8   8   8   8   8   8   8
#     4  10  19  28  44  67  96 131 168 206 236 267
#     4  10  21  33  46  68  94 119 155 199 238 280
#     4  10  21  36  53  74  97 120 152 196 243 291
#     4   9  17  31  46  66  95 131 168 199 237 282
#     4  11  20  31  45  64  94 132 168 194 230 282
#     4   9  17  29  44  63  91 129 164 191 224 275
#     4   9  16  30  50  69  95 128 161 196 234 281
#
# _framework density 16.536099
#
# number of rings (size 3 to 8) (size 9 to 14) (size 15 to 20)
#    0.000    2.286    1.429    2.143    0.000    5.714 
#    0.000    0.000    0.000    0.000    0.000    1.000 
#    0.000    8.000    0.000    0.000    0.000    0.000 
#
# Total GULP energy -347196.229034 kJ/mol
# GULP energy per Si atom -12399.865323 kJ/mol
# Density = 1.649846 g / cm^3
# Si number density = 16.536099 Si / 1000 Ang^3
#
#
#
# Elastic Constant Matrix: (Units=GPa)
#
#
# Indices 1 2 3 4 5 6 
#
# 1 53.2487 37.9933 42.6025 0.0000 11.5368 0.0000
# 2 37.9933 96.4938 63.3366 -0.0004 0.6744 0.0001
# 3 42.6025 63.3366 123.4853 -0.0002 1.2920 0.0001
# 4 0.0000 -0.0004 -0.0002 30.2420 0.0000 -0.1037
# 5 11.5368 0.6744 1.2920 0.0000 19.6599 0.0000
# 6 0.0000 0.0001 0.0001 -0.1037 0.0000 21.9805
#
#
#
# Elastic Compliance Matrix: (Units=1/GPa)
#
#
# Indices 1 2 3 4 5 6 
#
# 1 0.035433 -0.008932 -0.007434 0.000000 -0.019998 0.000000
# 2 -0.008932 0.017875 -0.006139 0.000000 0.005032 0.000000
# 3 -0.007434 -0.006139 0.013773 0.000000 0.003668 0.000000
# 4 0.000000 0.000000 0.000000 0.033067 0.000000 0.000156
# 5 -0.019998 0.005032 0.003668 0.000000 0.062187 0.000000
# 6 0.000000 0.000000 0.000000 0.000156 0.000000 0.045496
#
#
# Mechanical properties :
#
#
# Convention : Reuss Voigt Hill
#
# Bulk Modulus (GPa) = 45.30857 62.34361 53.82609
# Shear Modulus (GPa) = 19.21613 22.99618 21.10616
#
# Velocity S-wave (km/s) = 3.41262 3.73321 3.57651
# Velocity P-wave (km/s) = 6.55646 7.50772 7.04816
#
# Compressibility (1/GPa) = 0.02207088
#
# Stress axis : x y z
#
# Youngs Moduli (GPa) = 28.22202 55.94480 72.60451
#
# Poissons Ratio (x) = 0.49971 0.53973
# Poissons Ratio (y) = 0.25209 0.44573
# Poissons Ratio (z) = 0.20980 0.34345
#
# Static dielectric constant tensor:
#      x y z
#    x 2.772890 0.000000 -0.052060 
#    y 0.000000 3.199050 0.000000 
#    z -0.052060 0.000000 3.378580 
# 
# 
# High freq. dielectric constant tensor:
#      x y z
#    x 1.587740 0.000000 -0.005670 
#    y 0.000000 1.646600 0.000000 
#    z -0.005670 0.000000 1.642390 
# 
# From -- ./inp_files/291804.got.cif
#   From: 2010.06.25/outbox.cif.g09.slc.cpg/sg12_146_cif.got.tgz:291804.got - 2010.06.28 00:19:55.
