data_PCOD8084912
_publ_section_title
;
Structure prediction by ZEFSAII (Michael W. Deem and Ramdas Pophale) SiO2 
 PCOD8084912
Probable space group: C 2/M
;
_chemical_formula_sum "Si O2"
_cell_formula_units_Z 56
_cell_length_a 23.994831
_cell_length_b 9.214764
_cell_length_c 17.672247
_cell_angle_alpha 90.000000
_cell_angle_beta 114.945134
_cell_angle_gamma 90.000000
_cell_volume 3542.934155
_symmetry_space_group_name_H-M "C 2/M"
_symmetry_group_IT_number 12
_symmetry_cell_setting 'monoclinic'
loop_
_space_group_symop_operation_xyz
x,y,z
-x,y,-z
-x,-y,-z
x,-y,z
1/2+x,1/2+y,z
1/2-x,1/2+y,-z
1/2-x,1/2-y,-z
1/2+x,1/2-y,z
loop_
_atom_site_type_symbol
_atom_site_label
_atom_site_fract_x
_atom_site_fract_y
_atom_site_fract_z
Si Si1 0.659922 0.169586 0.985658
Si Si2 0.171063 0.334023 0.385340
Si Si3 0.571983 0.331277 0.044503
Si Si4 0.794264 0.665603 0.437704
Si Si5 0.207259 0.168776 0.873030
Si Si6 0.641809 0.333274 0.231105
Si Si7 0.782216 0.336046 0.267604
O O1 0.664316 0.245701 0.906796
O O2 0.648573 0.000000 0.966841
O O3 0.602585 0.238007 0.996098
O O4 0.721453 0.200082 0.068652
O O5 0.166303 0.500000 0.358156
O O6 0.154797 0.312405 0.466079
O O7 0.240997 0.282441 0.417686
O O8 0.127171 0.247286 0.302315
O O9 0.589331 0.500000 0.042492
O O10 0.596394 0.276022 0.139792
O O11 0.500000 0.303931 0.000000
O O12 0.767458 0.500000 0.428037
O O13 0.821346 0.685730 0.368062
O O14 0.192482 0.226119 0.780609
O O15 0.191090 0.000000 0.868948
O O16 0.629206 0.500000 0.240043
O O17 0.711210 0.302107 0.245072
O O18 0.788822 0.500000 0.240316
#
# Coordination Sequence:
#
# PCOD8084912 Si02
#       7
#     8   8   8   8   8   8   8
#     4  10  20  32  46  64  87 114 145 183 225 261
#     4   9  15  23  37  55  78 109 145 177 208 251
#     4  10  20  34  50  65  85 116 152 188 224 262
#     4   8  15  25  35  53  81 113 142 172 210 252
#     4  10  19  29  44  65  88 114 147 181 215 262
#     4   9  17  28  41  58  83 113 145 179 218 260
#     4   9  15  25  41  59  84 115 144 176 214 255
#
# _framework density 15.806108999999999
#
# number of rings (size 3 to 8) (size 9 to 14) (size 15 to 20)
#    0.000    2.714    1.429    2.143    0.000    4.857 
#    0.000    0.000    0.000    0.000    0.000    0.000 
#    0.000    1.143    0.000   13.143    0.000    4.286 
#
# Total GULP energy -347001.531909 kJ/mol
# GULP energy per Si atom -12392.911854 kJ/mol
# Density = 1.577013 g / cm^3
# Si number density = 15.806109 Si / 1000 Ang^3
#
#
#
# Elastic Constant Matrix: (Units=GPa)
#
#
# Indices 1 2 3 4 5 6 
#
# 1 51.2964 39.3433 44.7125 0.0000 -13.4384 0.0000
# 2 39.3433 81.0358 51.2096 0.0000 -18.4842 0.0000
# 3 44.7125 51.2096 123.4902 0.0000 -31.6446 0.0000
# 4 0.0000 0.0000 0.0000 27.5612 0.0000 -8.0481
# 5 -13.4384 -18.4842 -31.6446 0.0000 20.9847 0.0000
# 6 0.0000 0.0000 0.0000 -8.0481 0.0000 18.6027
#
#
#
# Elastic Compliance Matrix: (Units=1/GPa)
#
#
# Indices 1 2 3 4 5 6 
#
# 1 0.035881 -0.012451 -0.007742 0.000000 0.000335 0.000000
# 2 -0.012451 0.021692 -0.002663 0.000000 0.007117 0.000000
# 3 -0.007742 -0.002663 0.016516 0.000000 0.017602 0.000000
# 4 0.000000 0.000000 0.000000 0.041529 0.000000 0.017967
# 5 0.000335 0.007117 0.017602 0.000000 0.080681 0.000000
# 6 0.000000 0.000000 0.000000 0.017967 0.000000 0.061529
#
#
# Mechanical properties :
#
#
# Convention : Reuss Voigt Hill
#
# Bulk Modulus (GPa) = 35.24225 58.48369 46.86297
# Shear Modulus (GPa) = 15.97451 21.46687 18.72069
#
# Velocity S-wave (km/s) = 3.18253 3.68929 3.44524
# Velocity P-wave (km/s) = 5.98746 7.43161 6.74828
#
# Compressibility (1/GPa) = 0.02837503
#
# Stress axis : x y z
#
# Youngs Moduli (GPa) = 27.87020 46.10048 60.54733
#
# Poissons Ratio (x) = 0.57401 0.46877
# Poissons Ratio (y) = 0.34702 0.16125
# Poissons Ratio (z) = 0.21578 0.12278
#
# Static dielectric constant tensor:
#      x y z
#    x 2.504530 0.000000 -0.301070 
#    y 0.000000 3.049290 0.000000 
#    z -0.301070 0.000000 3.396850 
# 
# 
# High freq. dielectric constant tensor:
#      x y z
#    x 1.537400 0.000000 -0.034780 
#    y 0.000000 1.616250 0.000000 
#    z -0.034780 0.000000 1.616820 
# 
# From -- ./inp_files/287882.got.cif
#   From: 2010.06.25/outbox.cif.g09.slc.cpg/sg12_144_cif.got.tgz:287882.got - 2010.06.28 00:19:55.
