data_PCOD8084250
_publ_section_title
;
Structure prediction by ZEFSAII (Michael W. Deem and Ramdas Pophale) SiO2 
 PCOD8084250
Probable space group: C 2/M
;
_chemical_formula_sum "Si O2"
_cell_formula_units_Z 48
_cell_length_a 14.958444
_cell_length_b 18.707023
_cell_length_c 19.158162
_cell_angle_alpha 90.000000
_cell_angle_beta 153.599684
_cell_angle_gamma 90.000000
_cell_volume 2383.710927
_symmetry_space_group_name_H-M "C 2/M"
_symmetry_group_IT_number 12
_symmetry_cell_setting 'monoclinic'
loop_
_space_group_symop_operation_xyz
x,y,z
-x,y,-z
-x,-y,-z
x,-y,z
1/2+x,1/2+y,z
1/2-x,1/2+y,-z
1/2-x,1/2-y,-z
1/2+x,1/2-y,z
loop_
_atom_site_type_symbol
_atom_site_label
_atom_site_fract_x
_atom_site_fract_y
_atom_site_fract_z
Si Si1 0.449363 0.701072 0.846967
Si Si2 0.577528 0.422597 0.480838
Si Si3 0.067499 0.678825 0.282709
Si Si4 0.228316 0.395867 0.144122
Si Si5 0.787879 0.264482 0.192952
Si Si6 0.713483 0.417028 0.977006
O O1 0.403523 0.758166 0.753892
O O2 0.264825 0.691380 0.773046
O O3 0.508897 0.623663 0.857666
O O4 0.634941 0.729721 0.021553
O O5 0.500000 0.392929 0.500000
O O6 0.687279 0.500000 0.567313
O O7 0.726847 0.362097 0.556421
O O8 0.389325 0.440963 0.299513
O O9 0.002649 0.711583 0.312486
O O10 0.907334 0.619824 0.146278
O O11 0.276924 0.317320 0.206909
O O12 0.271032 0.409144 0.094048
O O13 0.000000 0.419339 0.000000
O O14 0.700062 0.500000 0.990499
#
# Coordination Sequence:
#
# PCOD8084250 Si02
#       6
#     8   8   8   8   8   8
#     4  10  18  36  59  88 119 152 199 249 288 343
#     4  11  25  39  54  85 124 156 190 241 305 364
#     4  11  20  39  60  84 118 157 199 244 296 343
#     4  12  21  38  62  87 113 154 198 248 295 350
#     4  10  18  34  63  88 111 151 204 247 285 342
#     4  11  21  35  58  87 120 157 197 243 297 349
#
# _framework density 20.136669000000001
#
# number of rings (size 3 to 8) (size 9 to 14) (size 15 to 20)
#    0.000    1.167    5.000    4.000    0.000    3.333 
#    0.000    7.500    0.000    0.000    0.000    2.333 
#    0.000    0.000    0.000    0.000    0.000    0.167 
#
# Total GULP energy -297451.485412 kJ/mol
# GULP energy per Si atom -12393.811892 kJ/mol
# Density = 2.009084 g / cm^3
# Si number density = 20.136669 Si / 1000 Ang^3
#
#
#
# Elastic Constant Matrix: (Units=GPa)
#
#
# Indices 1 2 3 4 5 6 
#
# 1 136.1773 38.1218 36.5822 -0.0105 21.9506 -0.0191
# 2 38.1218 111.6309 30.2545 -0.0320 10.7556 0.0142
# 3 36.5822 30.2545 76.0759 -0.0683 14.5893 -0.0068
# 4 -0.0105 -0.0320 -0.0683 20.8640 -0.0195 6.5772
# 5 21.9506 10.7556 14.5893 -0.0195 22.3847 -0.0063
# 6 -0.0191 0.0142 -0.0068 6.5772 -0.0063 1.8843
#
#
#
# Elastic Compliance Matrix: (Units=1/GPa)
#
#
# Indices 1 2 3 4 5 6 
#
# 1 0.009688 -0.001950 -0.002561 0.000381 -0.006895 -0.001248
# 2 -0.001950 0.010560 -0.003035 -0.000401 -0.001184 0.001286
# 3 -0.002561 -0.003035 0.016939 -0.000318 -0.007070 0.001146
# 4 0.000381 -0.000401 -0.000318 -0.477470 0.000084 1.666649
# 5 -0.006895 -0.001184 -0.007070 0.000084 0.056611 -0.000188
# 6 -0.001248 0.001286 0.001146 1.666649 -0.000188 -5.286869
#
#
# Mechanical properties :
#
#
# Convention : Reuss Voigt Hill
#
# Bulk Modulus (GPa) = 45.25816 59.31125 52.28471
# Shear Modulus (GPa) = -0.88526 23.62163 11.36819
#
# Velocity S-wave (km/s) = -0.66376 3.42872 2.37861
# Velocity P-wave (km/s) = 4.68368 6.72258 5.79353
#
# Compressibility (1/GPa) = 0.02209546
#
# Stress axis : x y z
#
# Youngs Moduli (GPa) = 103.21628 94.69329 59.03514
#
# Poissons Ratio (x) = 0.18465 0.15118
# Poissons Ratio (y) = 0.20127 0.17919
# Poissons Ratio (z) = 0.26433 0.28742
#
# Static dielectric constant tensor:
#      x y z
#    x 3.940830 -0.000090 0.197230 
#    y -0.000090 3.949570 -0.000030 
#    z 0.197230 -0.000030 3.568170 
# 
# 
# High freq. dielectric constant tensor:
#      x y z
#    x 1.793310 0.000000 0.001920 
#    y 0.000000 1.789450 -0.000010 
#    z 0.001920 -0.000010 1.760370 
# 
# From -- ./inp_files/344498.got.cif
#   From: 2010.06.25/outbox.cif.g09.slc.cpg/sg12_173_cif.got.tgz:344498.got - 2010.06.28 00:19:55.
