data_PCOD8084251
_publ_section_title
;
Structure prediction by ZEFSAII (Michael W. Deem and Ramdas Pophale) SiO2 
 PCOD8084251
Probable space group: C 2/M
;
_chemical_formula_sum "Si O2"
_cell_formula_units_Z 48
_cell_length_a 32.825272
_cell_length_b 14.128851
_cell_length_c 10.668823
_cell_angle_alpha 90.000000
_cell_angle_beta 153.379630
_cell_angle_gamma 90.000000
_cell_volume 2217.094959
_symmetry_space_group_name_H-M "C 2/M"
_symmetry_group_IT_number 12
_symmetry_cell_setting 'monoclinic'
loop_
_space_group_symop_operation_xyz
x,y,z
-x,y,-z
-x,-y,-z
x,-y,z
1/2+x,1/2+y,z
1/2-x,1/2+y,-z
1/2-x,1/2-y,-z
1/2+x,1/2-y,z
loop_
_atom_site_type_symbol
_atom_site_label
_atom_site_fract_x
_atom_site_fract_y
_atom_site_fract_z
Si Si1 0.499874 0.392185 0.805854
Si Si2 0.636608 0.604285 0.791706
Si Si3 0.835772 0.290469 0.003870
Si Si4 0.356759 0.241360 0.797900
Si Si5 0.871969 0.253586 0.569503
Si Si6 0.163197 0.608019 0.744930
O O1 0.509490 0.500000 0.879224
O O2 0.450042 0.387811 0.535123
O O3 0.441344 0.332807 0.745044
O O4 0.599104 0.345580 0.066172
O O5 0.640360 0.500000 0.865363
O O6 0.630367 0.682727 0.881626
O O7 0.728069 0.622064 0.961963
O O8 0.878121 0.319960 0.983823
O O9 0.727118 0.293033 0.702436
O O10 0.871190 0.357813 0.212807
O O11 0.250000 0.250000 0.500000
O O12 0.390683 0.197025 0.758170
O O13 0.885727 0.330494 0.497576
O O14 0.133807 0.500000 0.644978
#
# Coordination Sequence:
#
# PCOD8084251 Si02
#       6
#     8   8   8   8   8   8
#     4  11  21  37  65  96 121 153 199 250 298 355
#     4   9  17  31  58  95 122 148 195 247 296 351
#     4  10  18  36  57  86 124 164 193 239 297 360
#     4  10  24  38  54  80 125 167 194 234 308 364
#     4  10  19  38  59  86 121 161 201 244 293 354
#     4  10  18  34  63  88 113 156 206 247 288 351
#
# _framework density 21.649951999999999
#
# number of rings (size 3 to 8) (size 9 to 14) (size 15 to 20)
#    0.000    2.000    3.333    1.500    0.000    2.667 
#    0.000    7.500    0.000    5.000    0.000    0.000 
#    0.000    0.000    0.000    0.000    0.000    0.000 
#
# Total GULP energy -297379.393468 kJ/mol
# GULP energy per Si atom -12390.808061 kJ/mol
# Density = 2.160068 g / cm^3
# Si number density = 21.649952 Si / 1000 Ang^3
#
#
#
# Elastic Constant Matrix: (Units=GPa)
#
#
# Indices 1 2 3 4 5 6 
#
# 1 173.9508 58.5844 29.6858 0.0000 -30.6558 0.0000
# 2 58.5844 109.9360 47.2501 0.0000 -3.2126 0.0000
# 3 29.6858 47.2501 75.1181 0.0000 -2.4448 0.0000
# 4 0.0000 0.0000 0.0000 30.3272 0.0000 2.8761
# 5 -30.6558 -3.2126 -2.4448 0.0000 25.5491 0.0000
# 6 0.0000 0.0000 0.0000 2.8761 0.0000 10.5822
#
#
#
# Elastic Compliance Matrix: (Units=1/GPa)
#
#
# Indices 1 2 3 4 5 6 
#
# 1 0.009122 -0.004323 -0.000549 0.000000 0.010349 0.000000
# 2 -0.004323 0.014532 -0.007565 0.000000 -0.004083 0.000000
# 3 -0.000549 -0.007565 0.018293 0.000000 0.000140 0.000000
# 4 0.000000 0.000000 0.000000 0.033846 0.000000 -0.009199
# 5 0.010349 -0.004083 0.000140 0.000000 0.051058 0.000000
# 6 0.000000 0.000000 0.000000 -0.009199 0.000000 0.096998
#
#
# Mechanical properties :
#
#
# Convention : Reuss Voigt Hill
#
# Bulk Modulus (GPa) = 58.57411 70.00505 64.28958
# Shear Modulus (GPa) = 19.65294 28.19067 23.92180
#
# Velocity S-wave (km/s) = 3.01617 3.61239 3.32766
# Velocity P-wave (km/s) = 6.26447 7.05722 6.67263
#
# Compressibility (1/GPa) = 0.01707239
#
# Stress axis : x y z
#
# Youngs Moduli (GPa) = 109.62256 68.81354 54.66679
#
# Poissons Ratio (x) = 0.29746 0.03002
# Poissons Ratio (y) = 0.47387 0.41358
# Poissons Ratio (z) = 0.06019 0.52060
#
# Static dielectric constant tensor:
#      x y z
#    x 4.394250 0.000000 -0.237290 
#    y 0.000000 3.770290 0.000000 
#    z -0.237290 0.000000 3.912870 
# 
# 
# High freq. dielectric constant tensor:
#      x y z
#    x 1.862780 0.000000 -0.014380 
#    y 0.000000 1.810680 0.000000 
#    z -0.014380 0.000000 1.845370 
# 
# From -- ./inp_files/189519.got.cif
#   From: 2010.06.25/outbox.cif.g09.slc.cpg/sg12_95_cif.got.tgz:189519.got - 2010.06.28 00:19:55.
