data_PCOD8084959
_publ_section_title
;
Structure prediction by ZEFSAII (Michael W. Deem and Ramdas Pophale) SiO2 
 PCOD8084959
Probable space group: C 2/M
;
_chemical_formula_sum "Si O2"
_cell_formula_units_Z 64
_cell_length_a 25.720627
_cell_length_b 9.602142
_cell_length_c 15.010356
_cell_angle_alpha 90.000000
_cell_angle_beta 107.035575
_cell_angle_gamma 90.000000
_cell_volume 3544.495674
_symmetry_space_group_name_H-M "C 2/M"
_symmetry_group_IT_number 12
_symmetry_cell_setting 'monoclinic'
loop_
_space_group_symop_operation_xyz
x,y,z
-x,y,-z
-x,-y,-z
x,-y,z
1/2+x,1/2+y,z
1/2-x,1/2+y,-z
1/2-x,1/2-y,-z
1/2+x,1/2-y,z
loop_
_atom_site_type_symbol
_atom_site_label
_atom_site_fract_x
_atom_site_fract_y
_atom_site_fract_z
Si Si1 0.033739 0.850973 0.932829
Si Si2 0.376949 0.160278 0.670223
Si Si3 0.380827 0.842271 0.218760
Si Si4 0.303731 0.662212 0.508852
Si Si5 0.692143 0.659656 0.696110
Si Si6 0.809118 0.336967 0.806078
Si Si7 0.367403 0.838826 0.010268
Si Si8 0.998037 0.343547 0.771883
O O1 0.081933 0.754026 0.989529
O O2 0.994229 0.769744 0.846689
O O3 0.053960 0.000000 0.901466
O O4 0.000000 0.891870 0.000000
O O5 0.352375 0.267304 0.587487
O O6 0.356298 0.205995 0.759053
O O7 0.442092 0.172900 0.689360
O O8 0.358658 0.000000 0.641955
O O9 0.355002 0.741095 0.277241
O O10 0.353817 0.811616 0.107612
O O11 0.446045 0.815529 0.254285
O O12 0.367992 0.000000 0.240218
O O13 0.295835 0.500000 0.532679
O O14 0.250000 0.750000 0.500000
O O15 0.319236 0.673103 0.413718
O O16 0.689302 0.500000 0.726038
O O17 0.750949 0.728184 0.749088
O O18 0.801999 0.500000 0.796178
O O19 0.821635 0.293534 0.915171
O O20 0.382860 0.000000 0.003862
O O21 0.001339 0.500000 0.813669
#
# Coordination Sequence:
#
# PCOD8084959 Si02
#       8
#     8   8   8   8   8   8   8   8
#     4  10  19  29  44  71 109 143 177 225 273 317
#     4  10  19  35  59  85 111 140 177 226 277 323
#     4   9  19  35  53  79 109 141 187 229 262 309
#     4  11  22  38  59  84 112 140 176 221 273 332
#     4  10  21  37  56  78 106 144 182 218 271 331
#     4   9  17  32  54  80 108 139 180 224 267 324
#     4   9  18  33  53  74 102 143 187 226 262 314
#     4   9  19  35  56  78 104 143 186 222 264 322
#
# _framework density 18.056165
#
# number of rings (size 3 to 8) (size 9 to 14) (size 15 to 20)
#    0.000    2.375    1.250    2.250    0.000    6.000 
#    0.000    1.875    0.000    3.750    0.000    0.000 
#    0.000    0.000    0.000    0.000    0.000    0.000 
#
# Total GULP energy -396499.807145 kJ/mol
# GULP energy per Si atom -12390.618973 kJ/mol
# Density = 1.801507 g / cm^3
# Si number density = 18.056165 Si / 1000 Ang^3
#
#
#
# Elastic Constant Matrix: (Units=GPa)
#
#
# Indices 1 2 3 4 5 6 
#
# 1 100.2110 47.5398 54.1340 0.0000 2.9468 0.0000
# 2 47.5398 101.0559 56.5396 0.0000 -0.6190 0.0000
# 3 54.1340 56.5396 94.7044 0.0000 7.0419 0.0000
# 4 0.0000 0.0000 0.0000 102.5805 0.0000 64.8727
# 5 2.9468 -0.6190 7.0419 0.0000 28.5991 0.0000
# 6 0.0000 0.0000 0.0000 64.8727 0.0000 86.4667
#
#
#
# Elastic Compliance Matrix: (Units=1/GPa)
#
#
# Indices 1 2 3 4 5 6 
#
# 1 0.015192 -0.003436 -0.006632 0.000000 -0.000007 0.000000
# 2 -0.003436 0.015821 -0.007673 0.000000 0.002586 0.000000
# 3 -0.006632 -0.007673 0.019245 0.000000 -0.004221 0.000000
# 4 0.000000 0.000000 0.000000 0.018550 0.000000 -0.013917
# 5 -0.000007 0.002586 -0.004221 0.000000 0.036062 0.000000
# 6 0.000000 0.000000 0.000000 -0.013917 0.000000 0.022007
#
#
# Mechanical properties :
#
#
# Convention : Reuss Voigt Hill
#
# Bulk Modulus (GPa) = 67.68260 68.04425 67.86343
# Shear Modulus (GPa) = 29.88920 52.71313 41.30116
#
# Velocity S-wave (km/s) = 4.07301 5.40901 4.78784
# Velocity P-wave (km/s) = 7.72561 8.76221 8.26019
#
# Compressibility (1/GPa) = 0.01477485
#
# Stress axis : x y z
#
# Youngs Moduli (GPa) = 65.82492 63.20673 51.96169
#
# Poissons Ratio (x) = 0.21720 0.34460
# Poissons Ratio (y) = 0.22620 0.39872
# Poissons Ratio (z) = 0.43653 0.48501
#
# Static dielectric constant tensor:
#      x y z
#    x 3.337410 0.000000 0.239700 
#    y 0.000000 3.406460 0.000000 
#    z 0.239700 0.000000 3.401760 
# 
# 
# High freq. dielectric constant tensor:
#      x y z
#    x 1.690190 0.000000 0.008940 
#    y 0.000000 1.697910 0.000000 
#    z 0.008940 0.000000 1.688120 
# 
# From -- ./inp_files/244078.got.cif
#   From: 2010.06.25/outbox.cif.g09.slc.cpg/sg12_123_cif.got.tgz:244078.got - 2010.06.28 00:19:55.
