data_PCOD8084844
_publ_section_title
;
Structure prediction by ZEFSAII (Michael W. Deem and Ramdas Pophale) SiO2 
 PCOD8084844
Probable space group: C 2/M
;
_chemical_formula_sum "Si O2"
_cell_formula_units_Z 64
_cell_length_a 25.798381
_cell_length_b 9.173438
_cell_length_c 17.173129
_cell_angle_alpha 90.000000
_cell_angle_beta 90.438267
_cell_angle_gamma 90.000000
_cell_volume 4064.071211
_symmetry_space_group_name_H-M "C 2/M"
_symmetry_group_IT_number 12
_symmetry_cell_setting 'monoclinic'
loop_
_space_group_symop_operation_xyz
x,y,z
-x,y,-z
-x,-y,-z
x,-y,z
1/2+x,1/2+y,z
1/2-x,1/2+y,-z
1/2-x,1/2-y,-z
1/2+x,1/2-y,z
loop_
_atom_site_type_symbol
_atom_site_label
_atom_site_fract_x
_atom_site_fract_y
_atom_site_fract_z
Si Si1 0.058056 0.827623 0.090908
Si Si2 0.810751 0.671224 0.655229
Si Si3 0.647827 0.829402 0.177653
Si Si4 0.693659 0.669744 0.661290
Si Si5 0.195449 0.829048 0.491885
Si Si6 0.942095 0.826994 0.084458
Si Si7 0.752105 0.672223 0.917964
Si Si8 0.347395 0.326783 0.180916
O O1 0.096285 0.752280 0.151506
O O2 0.999477 0.777543 0.111306
O O3 0.064493 0.000000 0.098686
O O4 0.070714 0.774216 0.003344
O O5 0.811172 0.500000 0.636971
O O6 0.843599 0.709588 0.731815
O O7 0.752238 0.731665 0.666193
O O8 0.835502 0.755616 0.580554
O O9 0.696813 0.776498 0.127654
O O10 0.639582 0.000000 0.166246
O O11 0.699354 0.500000 0.679173
O O12 0.667523 0.696881 0.575866
O O13 0.658536 0.735700 0.730731
O O14 0.250000 0.750000 0.500000
O O15 0.203173 0.000000 0.476435
O O16 0.899388 0.759779 0.142764
O O17 0.940141 0.000000 0.084083
O O18 0.751824 0.500000 0.930928
O O19 0.702442 0.723428 0.868412
O O20 0.750000 0.750000 0.000000
O O21 0.352054 0.500000 0.180566
#
# Coordination Sequence:
#
# PCOD8084844 Si02
#       8
#     8   8   8   8   8   8   8   8
#     4   9  17  30  45  64  86 110 145 189 221 249
#     4   9  16  28  42  59  86 115 143 175 208 254
#     4  10  19  30  44  64  89 118 146 175 215 263
#     4   8  13  23  39  59  83 109 139 171 204 250
#     4   9  16  25  40  61  85 114 144 174 210 253
#     4   8  15  27  44  63  84 110 145 184 222 254
#     4  10  19  29  43  62  87 116 145 173 209 259
#     4   9  14  24  43  63  82 112 144 172 210 257
#
# _framework density 15.747754
#
# number of rings (size 3 to 8) (size 9 to 14) (size 15 to 20)
#    0.000    3.000    1.250    2.625    0.000    2.000 
#    0.000    1.250    0.000    0.750    0.000    0.875 
#    0.000    7.000    0.000    0.000    0.000    0.000 
#
# Total GULP energy -396520.772337 kJ/mol
# GULP energy per Si atom -12391.274136 kJ/mol
# Density = 1.571191 g / cm^3
# Si number density = 15.747754 Si / 1000 Ang^3
#
#
#
# Elastic Constant Matrix: (Units=GPa)
#
#
# Indices 1 2 3 4 5 6 
#
# 1 94.9649 22.4515 68.7865 0.0000 2.7597 0.0000
# 2 22.4515 31.6380 41.7735 0.0000 5.6257 0.0000
# 3 68.7865 41.7735 156.5591 0.0000 0.3007 0.0000
# 4 0.0000 0.0000 0.0000 25.3238 0.0000 5.5382
# 5 2.7597 5.6257 0.3007 0.0000 19.1630 0.0000
# 6 0.0000 0.0000 0.0000 5.5382 0.0000 17.1074
#
#
#
# Elastic Compliance Matrix: (Units=1/GPa)
#
#
# Indices 1 2 3 4 5 6 
#
# 1 0.015676 -0.002770 -0.006146 0.000000 -0.001348 0.000000
# 2 -0.002770 0.053436 -0.013012 0.000000 -0.015084 0.000000
# 3 -0.006146 -0.013012 0.012551 0.000000 0.004508 0.000000
# 4 0.000000 0.000000 0.000000 0.042497 0.000000 -0.013758
# 5 -0.001348 -0.015084 0.004508 0.000000 0.056735 0.000000
# 6 0.000000 0.000000 0.000000 -0.013758 0.000000 0.062908
#
#
# Mechanical properties :
#
#
# Convention : Reuss Voigt Hill
#
# Bulk Modulus (GPa) = 26.44990 61.02055 43.73522
# Shear Modulus (GPa) = 16.65220 22.32888 19.49054
#
# Velocity S-wave (km/s) = 3.25535 3.76960 3.52187
# Velocity P-wave (km/s) = 5.56437 7.60127 6.66114
#
# Compressibility (1/GPa) = 0.03780732
#
# Stress axis : x y z
#
# Youngs Moduli (GPa) = 63.79255 18.71405 79.67624
#
# Poissons Ratio (x) = 0.05184 0.48967
# Poissons Ratio (y) = 0.17670 1.03674
# Poissons Ratio (z) = 0.39205 0.24351
#
# Static dielectric constant tensor:
#      x y z
#    x 2.970480 0.000000 -0.166350 
#    y 0.000000 2.718350 0.000000 
#    z -0.166350 0.000000 3.476850 
# 
# 
# High freq. dielectric constant tensor:
#      x y z
#    x 1.571610 0.000000 -0.001890 
#    y 0.000000 1.571280 0.000000 
#    z -0.001890 0.000000 1.617760 
# 
# From -- ./inp_files/291587.got.cif
#   From: 2010.06.25/outbox.cif.g09.slc.cpg/sg12_146_cif.got.tgz:291587.got - 2010.06.28 00:19:55.
