data_PCOD8084227
_publ_section_title
;
Structure prediction by ZEFSAII (Michael W. Deem and Ramdas Pophale) SiO2 
 PCOD8084227
Probable space group: C 2/M
;
_chemical_formula_sum "Si O2"
_cell_formula_units_Z 48
_cell_length_a 32.266753
_cell_length_b 19.906872
_cell_length_c 13.287980
_cell_angle_alpha 90.000000
_cell_angle_beta 162.495509
_cell_angle_gamma 90.000000
_cell_volume 2567.243179
_symmetry_space_group_name_H-M "C 2/M"
_symmetry_group_IT_number 12
_symmetry_cell_setting 'monoclinic'
loop_
_space_group_symop_operation_xyz
x,y,z
-x,y,-z
-x,-y,-z
x,-y,z
1/2+x,1/2+y,z
1/2-x,1/2+y,-z
1/2-x,1/2-y,-z
1/2+x,1/2-y,z
loop_
_atom_site_type_symbol
_atom_site_label
_atom_site_fract_x
_atom_site_fract_y
_atom_site_fract_z
Si Si1 0.162974 0.074628 0.362813
Si Si2 0.571908 0.575625 0.946527
Si Si3 0.138768 0.898394 0.880442
Si Si4 0.343082 0.754272 0.115715
Si Si5 0.289497 0.633425 0.327708
Si Si6 0.639621 0.000000 0.924487
Si Si7 0.347011 0.000000 0.277191
O O1 0.225717 0.130595 0.584861
O O2 0.224987 0.000000 0.530375
O O3 0.185109 0.093988 0.295954
O O4 0.000000 0.072740 0.000000
O O5 0.516152 0.500000 0.840943
O O6 0.642281 0.574128 0.001301
O O7 0.449380 0.630236 0.664635
O O8 0.155376 0.819266 0.927047
O O9 0.000000 0.919023 0.500000
O O10 0.266582 0.932308 0.120144
O O11 0.500000 0.778753 0.500000
O O12 0.250000 0.750000 0.000000
O O13 0.278382 0.801549 0.879963
O O14 0.223555 0.566742 0.134585
O O15 0.503634 0.000000 0.682536
O O16 0.614466 0.000000 0.748565
#
# Coordination Sequence:
#
# PCOD8084227 Si02
#       7
#     8   8   8   8   8   4   4
#     4   8  15  30  54  86 111 136 180 233 281 319
#     4  10  18  34  61  88 111 136 180 242 285 321
#     4  11  22  38  56  81 110 146 185 227 283 337
#     4  11  25  40  55  80 118 157 186 227 283 343
#     4  11  19  35  57  83 112 148 183 227 277 332
#     4  11  22  32  52  81 111 141 187 231 267 329
#     4  11  23  34  53  81 109 140 185 233 276 332
#
# _framework density 18.697098
#
# number of rings (size 3 to 8) (size 9 to 14) (size 15 to 20)
#    0.000    1.667    2.500    5.250    4.667    0.000 
#    0.000    0.833    0.000    2.000    0.000    0.000 
#    0.000    0.000    0.000    0.000    0.000    0.000 
#
# Total GULP energy -297343.881924 kJ/mol
# GULP energy per Si atom -12389.328413 kJ/mol
# Density = 1.865454 g / cm^3
# Si number density = 18.697098 Si / 1000 Ang^3
#
#
#
# Elastic Constant Matrix: (Units=GPa)
#
#
# Indices 1 2 3 4 5 6 
#
# 1 129.8524 28.3532 54.1965 0.0000 -20.8281 0.0000
# 2 28.3532 88.2376 39.5400 0.0000 -16.0908 0.0000
# 3 54.1965 39.5400 69.5207 0.0000 -9.2221 0.0000
# 4 0.0000 0.0000 0.0000 13.8513 0.0000 -5.6423
# 5 -20.8281 -16.0908 -9.2221 0.0000 33.7216 0.0000
# 6 0.0000 0.0000 0.0000 -5.6423 0.0000 25.7463
#
#
#
# Elastic Compliance Matrix: (Units=1/GPa)
#
#
# Indices 1 2 3 4 5 6 
#
# 1 0.012333 0.001394 -0.009659 0.000000 0.005641 0.000000
# 2 0.001394 0.016253 -0.009534 0.000000 0.006009 0.000000
# 3 -0.009659 -0.009534 0.026918 0.000000 -0.003153 0.000000
# 4 0.000000 0.000000 0.000000 0.079272 0.000000 0.017373
# 5 0.005641 0.006009 -0.003153 0.000000 0.035144 0.000000
# 6 0.000000 0.000000 0.000000 0.017373 0.000000 0.042648
#
#
# Mechanical properties :
#
#
# Convention : Reuss Voigt Hill
#
# Bulk Modulus (GPa) = 50.23371 59.08777 54.66074
# Shear Modulus (GPa) = 19.62329 25.69859 22.66094
#
# Velocity S-wave (km/s) = 3.24317 3.71141 3.48516
# Velocity P-wave (km/s) = 6.39919 7.07370 6.74488
#
# Compressibility (1/GPa) = 0.01990695
#
# Stress axis : x y z
#
# Youngs Moduli (GPa) = 81.08465 61.52730 37.15000
#
# Poissons Ratio (x) = -0.08577 0.35883
# Poissons Ratio (y) = -0.11303 0.35417
# Poissons Ratio (z) = 0.78319 0.58657
#
# Static dielectric constant tensor:
#      x y z
#    x 3.725960 0.000000 -0.359770 
#    y 0.000000 2.697760 0.000000 
#    z -0.359770 0.000000 3.610370 
# 
# 
# High freq. dielectric constant tensor:
#      x y z
#    x 1.731490 0.000000 -0.017810 
#    y 0.000000 1.710610 0.000000 
#    z -0.017810 0.000000 1.710320 
# 
# From -- ./inp_files/190293.got.cif
#   From: 2010.06.25/outbox.cif.g09.slc.cpg/sg12_96_cif.got.tgz:190293.got - 2010.06.28 00:19:55.
