data_PCOD8084103
_publ_section_title
;
Structure prediction by ZEFSAII (Michael W. Deem and Ramdas Pophale) SiO2 
 PCOD8084103
Probable space group: C 2/M
;
_chemical_formula_sum "Si O2"
_cell_formula_units_Z 56
_cell_length_a 25.520786
_cell_length_b 8.737430
_cell_length_c 13.813126
_cell_angle_alpha 90.000000
_cell_angle_beta 112.644065
_cell_angle_gamma 90.000000
_cell_volume 2842.700765
_symmetry_space_group_name_H-M "C 2/M"
_symmetry_group_IT_number 12
_symmetry_cell_setting 'monoclinic'
loop_
_space_group_symop_operation_xyz
x,y,z
-x,y,-z
-x,-y,-z
x,-y,z
1/2+x,1/2+y,z
1/2-x,1/2+y,-z
1/2-x,1/2-y,-z
1/2+x,1/2-y,z
loop_
_atom_site_type_symbol
_atom_site_label
_atom_site_fract_x
_atom_site_fract_y
_atom_site_fract_z
Si Si1 0.986142 0.318101 0.382519
Si Si2 0.582293 0.181717 0.307296
Si Si3 0.941129 0.681776 0.920779
Si Si4 0.790657 0.681403 0.607852
Si Si5 0.343177 0.819039 0.996286
Si Si6 0.750946 0.180482 0.215460
Si Si7 0.130023 0.820015 0.778612
O O1 0.984143 0.500000 0.378167
O O2 0.036744 0.252462 0.351203
O O3 0.000000 0.258156 0.500000
O O4 0.925725 0.260208 0.302137
O O5 0.568788 0.250750 0.192483
O O6 0.646142 0.232827 0.378435
O O7 0.577844 0.000000 0.302463
O O8 0.943428 0.500000 0.916035
O O9 0.891975 0.733063 0.957537
O O10 0.000000 0.750892 0.000000
O O11 0.784818 0.500000 0.604834
O O12 0.750000 0.750000 0.500000
O O13 0.774079 0.748331 0.702107
O O14 0.284524 0.763202 0.904038
O O15 0.344329 0.000000 0.018066
O O16 0.354236 0.730390 0.102591
O O17 0.816773 0.227666 0.251424
O O18 0.743058 0.000000 0.213477
O O19 0.119875 0.000000 0.769998
#
# Coordination Sequence:
#
# PCOD8084103 Si02
#       7
#     8   8   8   8   8   8   8
#     4  10  22  39  59  83 109 141 188 237 272 314
#     4   9  17  33  56  82 109 137 177 229 274 317
#     4   9  15  25  50  82 105 131 173 221 268 314
#     4  10  20  36  58  84 111 142 182 227 274 324
#     4  10  18  34  58  82 107 140 187 233 268 315
#     4   9  19  36  57  82 112 147 185 222 268 332
#     4  11  23  37  54  80 116 152 181 218 276 337
#
# _framework density 19.699576
#
# number of rings (size 3 to 8) (size 9 to 14) (size 15 to 20)
#    0.000    2.286    1.429    1.714    2.000    2.571 
#    0.000    2.857    0.000    3.857    0.000    0.000 
#    0.000    0.000    0.000    0.000    0.000    0.000 
#
# Total GULP energy -347121.132888 kJ/mol
# GULP energy per Si atom -12397.183317 kJ/mol
# Density = 1.965474 g / cm^3
# Si number density = 19.699576 Si / 1000 Ang^3
#
#
#
# Elastic Constant Matrix: (Units=GPa)
#
#
# Indices 1 2 3 4 5 6 
#
# 1 158.8244 19.5476 70.1265 0.0000 10.1821 0.0000
# 2 19.5476 13.5429 14.1029 0.0000 -0.4606 0.0000
# 3 70.1265 14.1029 144.8773 0.0000 13.3324 0.0000
# 4 0.0000 0.0000 0.0000 26.4472 0.0000 5.2043
# 5 10.1821 -0.4606 13.3324 0.0000 40.8303 0.0000
# 6 0.0000 0.0000 0.0000 5.2043 0.0000 19.7181
#
#
#
# Elastic Compliance Matrix: (Units=1/GPa)
#
#
# Indices 1 2 3 4 5 6 
#
# 1 0.009026 -0.009619 -0.003315 0.000000 -0.001277 0.000000
# 2 -0.009619 0.092950 -0.004855 0.000000 0.005033 0.000000
# 3 -0.003315 -0.004855 0.009185 0.000000 -0.002227 0.000000
# 4 0.000000 0.000000 0.000000 0.039883 0.000000 -0.010526
# 5 -0.001277 0.005033 -0.002227 0.000000 0.025594 0.000000
# 6 0.000000 0.000000 0.000000 -0.010526 0.000000 0.053493
#
#
# Mechanical properties :
#
#
# Convention : Reuss Voigt Hill
#
# Bulk Modulus (GPa) = 13.23065 58.31096 35.77080
# Shear Modulus (GPa) = 17.18790 31.63030 24.40910
#
# Velocity S-wave (km/s) = 2.95702 4.01138 3.52386
# Velocity P-wave (km/s) = 4.28829 7.14978 5.89528
#
# Compressibility (1/GPa) = 0.07558209
#
# Stress axis : x y z
#
# Youngs Moduli (GPa) = 110.79551 10.75845 108.87840
#
# Poissons Ratio (x) = 0.10348 0.36093
# Poissons Ratio (y) = 1.06572 0.52865
# Poissons Ratio (z) = 0.36728 0.05224
#
# Static dielectric constant tensor:
#      x y z
#    x 4.035270 0.000000 -0.098760 
#    y 0.000000 3.052180 0.000000 
#    z -0.098760 0.000000 3.863660 
# 
# 
# High freq. dielectric constant tensor:
#      x y z
#    x 1.789030 0.000000 0.002240 
#    y 0.000000 1.712140 0.000000 
#    z 0.002240 0.000000 1.781340 
# 
# From -- ./inp_files/237866.got.cif
#   From: 2010.06.25/outbox.cif.g09.slc.cpg/sg12_119_cif.got.tgz:237866.got - 2010.06.28 00:19:55.
