data_PCOD8084108
_publ_section_title
;
Structure prediction by ZEFSAII (Michael W. Deem and Ramdas Pophale) SiO2 
 PCOD8084108
Probable space group: C 2/M
;
_chemical_formula_sum "Si O2"
_cell_formula_units_Z 56
_cell_length_a 23.779003
_cell_length_b 8.546326
_cell_length_c 15.691357
_cell_angle_alpha 90.000000
_cell_angle_beta 61.834610
_cell_angle_gamma 90.000000
_cell_volume 2811.251074
_symmetry_space_group_name_H-M "C 2/M"
_symmetry_group_IT_number 12
_symmetry_cell_setting 'monoclinic'
loop_
_space_group_symop_operation_xyz
x,y,z
-x,y,-z
-x,-y,-z
x,-y,z
1/2+x,1/2+y,z
1/2-x,1/2+y,-z
1/2-x,1/2-y,-z
1/2+x,1/2-y,z
loop_
_atom_site_type_symbol
_atom_site_label
_atom_site_fract_x
_atom_site_fract_y
_atom_site_fract_z
Si Si1 0.242481 0.682478 0.877312
Si Si2 0.061448 0.677094 0.397535
Si Si3 0.150073 0.317791 0.093682
Si Si4 0.662504 0.183691 0.457474
Si Si5 0.526963 0.680256 0.247323
Si Si6 0.109451 0.683674 0.672993
Si Si7 0.790646 0.182289 0.278733
O O1 0.257211 0.500000 0.876380
O O2 0.306989 0.775333 0.854476
O O3 0.220072 0.720652 0.798868
O O4 0.186425 0.733823 0.981945
O O5 0.075800 0.500000 0.355084
O O6 0.119819 0.749333 0.410304
O O7 0.051351 0.788877 0.325034
O O8 0.000000 0.676800 0.500000
O O9 0.134557 0.500000 0.106750
O O10 0.083460 0.224995 0.142063
O O11 0.639877 0.254415 0.564024
O O12 0.735883 0.226135 0.386739
O O13 0.649524 0.000000 0.470712
O O14 0.508526 0.500000 0.249557
O O15 0.465610 0.784848 0.270275
O O16 0.122407 0.500000 0.671887
O O17 0.141969 0.770563 0.729197
O O18 0.789195 0.000000 0.256914
#
# Coordination Sequence:
#
# PCOD8084108 Si02
#       7
#     8   8   8   8   8   8   8
#     4  10  21  39  63  92 119 148 190 238 288 343
#     4  10  18  34  58  82 113 154 194 231 281 344
#     4  10  21  39  64  90 118 152 189 234 290 348
#     4   9  19  35  57  83 112 153 196 236 282 337
#     4  12  24  37  56  87 121 153 193 240 295 349
#     4  11  22  40  59  78 112 158 203 243 285 340
#     4  11  22  37  58  86 118 153 194 240 292 345
#
# _framework density 19.919958000000001
#
# number of rings (size 3 to 8) (size 9 to 14) (size 15 to 20)
#    0.000    1.571    1.429    4.286    0.000    3.143 
#    0.000    3.571    0.000    4.286    0.000    0.000 
#    0.000    0.000    0.000    0.000    0.000    0.000 
#
# Total GULP energy -347338.120595 kJ/mol
# GULP energy per Si atom -12404.932878 kJ/mol
# Density = 1.987462 g / cm^3
# Si number density = 19.919958 Si / 1000 Ang^3
#
#
#
# Elastic Constant Matrix: (Units=GPa)
#
#
# Indices 1 2 3 4 5 6 
#
# 1 101.7642 6.2117 36.5603 0.0000 -1.0468 0.0001
# 2 6.2117 52.8709 13.3930 0.0002 -4.1278 0.0002
# 3 36.5603 13.3930 77.0026 0.0000 -6.8078 0.0000
# 4 0.0000 0.0002 0.0000 35.3780 0.0000 -2.4564
# 5 -1.0468 -4.1278 -6.8078 0.0000 29.1399 0.0000
# 6 0.0001 0.0002 0.0000 -2.4564 0.0000 34.5693
#
#
#
# Elastic Compliance Matrix: (Units=1/GPa)
#
#
# Indices 1 2 3 4 5 6 
#
# 1 0.011871 -0.000018 -0.005714 0.000000 -0.000911 0.000000
# 2 -0.000018 0.019905 -0.003272 0.000000 0.002055 0.000000
# 3 -0.005714 -0.003272 0.016551 0.000000 0.003198 0.000000
# 4 0.000000 0.000000 0.000000 0.028406 0.000000 0.002019
# 5 -0.000911 0.002055 0.003198 0.000000 0.035323 0.000000
# 6 0.000000 0.000000 0.000000 0.002019 0.000000 0.029071
#
#
# Mechanical properties :
#
#
# Convention : Reuss Voigt Hill
#
# Bulk Modulus (GPa) = 32.98157 38.21863 35.60010
# Shear Modulus (GPa) = 29.54355 31.51563 30.52959
#
# Velocity S-wave (km/s) = 3.85530 3.98189 3.91911
# Velocity P-wave (km/s) = 6.03413 6.35361 6.19593
#
# Compressibility (1/GPa) = 0.03031997
#
# Stress axis : x y z
#
# Youngs Moduli (GPa) = 84.23817 50.23773 60.41877
#
# Poissons Ratio (x) = 0.00093 0.34521
# Poissons Ratio (y) = 0.00156 0.19767
# Poissons Ratio (z) = 0.48131 0.16436
#
# Static dielectric constant tensor:
#      x y z
#    x 3.610260 0.000000 -0.072460 
#    y 0.000000 3.423940 0.000000 
#    z -0.072460 0.000000 3.655930 
# 
# 
# High freq. dielectric constant tensor:
#      x y z
#    x 1.780000 0.000000 -0.007460 
#    y 0.000000 1.766580 0.000000 
#    z -0.007460 0.000000 1.773410 
# 
# From -- ./inp_files/237468.got.cif
#   From: 2010.06.25/outbox.cif.g09.slc.cpg/sg12_119_cif.got.tgz:237468.got - 2010.06.28 00:19:55.
