data_PCOD8084182
_publ_section_title
;
Structure prediction by ZEFSAII (Michael W. Deem and Ramdas Pophale) SiO2 
 PCOD8084182
Probable space group: C 2/M
;
_chemical_formula_sum "Si O2"
_cell_formula_units_Z 64
_cell_length_a 15.001533
_cell_length_b 9.083487
_cell_length_c 33.359767
_cell_angle_alpha 90.000000
_cell_angle_beta 133.643105
_cell_angle_gamma 90.000000
_cell_volume 3289.588083
_symmetry_space_group_name_H-M "C 2/M"
_symmetry_group_IT_number 12
_symmetry_cell_setting 'monoclinic'
loop_
_space_group_symop_operation_xyz
x,y,z
-x,y,-z
-x,-y,-z
x,-y,z
1/2+x,1/2+y,z
1/2-x,1/2+y,-z
1/2-x,1/2-y,-z
1/2+x,1/2-y,z
loop_
_atom_site_type_symbol
_atom_site_label
_atom_site_fract_x
_atom_site_fract_y
_atom_site_fract_z
Si Si1 0.168851 0.671609 0.379130
Si Si2 0.555369 0.672199 0.187336
Si Si3 0.082942 0.673429 0.114419
Si Si4 0.488866 0.171974 0.391604
Si Si5 0.098575 0.834601 0.995447
Si Si6 0.213591 0.825472 0.312539
Si Si7 0.381160 0.834662 0.490437
Si Si8 0.728108 0.329006 0.895760
O O1 0.187475 0.500000 0.376573
O O2 0.151426 0.755827 0.332214
O O3 0.283558 0.727085 0.440402
O O4 0.044485 0.704001 0.365298
O O5 0.571104 0.500000 0.183100
O O6 0.607975 0.761243 0.165940
O O7 0.635738 0.723389 0.249969
O O8 0.414374 0.711770 0.153951
O O9 0.064506 0.500000 0.111399
O O10 0.198608 0.715572 0.121935
O O11 0.956125 0.743915 0.058727
O O12 0.351812 0.239324 0.351013
O O13 0.578939 0.235023 0.454226
O O14 0.477662 0.000000 0.397136
O O15 0.222539 0.758969 0.050215
O O16 0.128700 0.000000 0.990392
O O17 0.000000 0.834263 0.000000
O O18 0.212564 0.000000 0.317339
O O19 0.500000 0.841574 0.500000
O O20 0.325408 0.000000 0.477400
O O21 0.748785 0.500000 0.911303
#
# Coordination Sequence:
#
# PCOD8084182 Si02
#       8
#     8   8   8   8   8   8   8   8
#     4  11  22  35  55  85 115 139 175 230 278 314
#     4  10  22  38  58  80 104 141 189 231 263 317
#     4  10  20  35  56  80 112 146 175 220 279 329
#     4   9  19  36  57  81 110 145 181 219 268 325
#     4   9  17  31  54  83 111 141 181 223 264 322
#     4  10  21  41  60  75 104 148 190 222 265 326
#     4  10  18  34  60  82 109 150 184 212 261 332
#     4   9  19  36  55  80 112 144 177 220 277 327
#
# _framework density 19.455323
#
# number of rings (size 3 to 8) (size 9 to 14) (size 15 to 20)
#    0.000    2.250    1.250    1.500    0.000    4.750 
#    0.000    1.875    0.000    0.000    0.000    0.000 
#    0.000    0.000    0.000    0.000    0.000    0.000 
#
# Total GULP energy -396851.691905 kJ/mol
# GULP energy per Si atom -12401.615372 kJ/mol
# Density = 1.941104 g / cm^3
# Si number density = 19.455323 Si / 1000 Ang^3
#
#
#
# Elastic Constant Matrix: (Units=GPa)
#
#
# Indices 1 2 3 4 5 6 
#
# 1 70.9264 25.8472 38.1298 0.0000 -14.1480 0.0000
# 2 25.8472 56.6582 39.6462 0.0000 -7.3003 0.0000
# 3 38.1298 39.6462 133.0877 0.0000 -18.4018 0.0000
# 4 0.0000 0.0000 0.0000 22.0237 0.0000 -11.6182
# 5 -14.1480 -7.3003 -18.4018 0.0000 26.7947 0.0000
# 6 0.0000 0.0000 0.0000 -11.6182 0.0000 23.6814
#
#
#
# Elastic Compliance Matrix: (Units=1/GPa)
#
#
# Indices 1 2 3 4 5 6 
#
# 1 0.019055 -0.005891 -0.002801 0.000000 0.006533 0.000000
# 2 -0.005891 0.024187 -0.005565 0.000000 -0.000342 0.000000
# 3 -0.002801 -0.005565 0.010563 0.000000 0.004259 0.000000
# 4 0.000000 0.000000 0.000000 0.061261 0.000000 0.030055
# 5 0.006533 -0.000342 0.004259 0.000000 0.043602 0.000000
# 6 0.000000 0.000000 0.000000 0.030055 0.000000 0.056972
#
#
# Mechanical properties :
#
#
# Convention : Reuss Voigt Hill
#
# Bulk Modulus (GPa) = 39.53963 51.99099 45.76531
# Shear Modulus (GPa) = 19.79542 24.96988 22.38265
#
# Velocity S-wave (km/s) = 3.19326 3.58641 3.39553
# Velocity P-wave (km/s) = 5.82780 6.62805 6.24077
#
# Compressibility (1/GPa) = 0.02529108
#
# Stress axis : x y z
#
# Youngs Moduli (GPa) = 52.48001 41.34469 94.67023
#
# Poissons Ratio (x) = 0.24356 0.26518
# Poissons Ratio (y) = 0.30916 0.52681
# Poissons Ratio (z) = 0.14700 0.23007
#
# Static dielectric constant tensor:
#      x y z
#    x 3.624080 0.000000 0.007210 
#    y 0.000000 3.459200 0.000000 
#    z 0.007210 0.000000 3.635120 
# 
# 
# High freq. dielectric constant tensor:
#      x y z
#    x 1.760100 0.000000 -0.005720 
#    y 0.000000 1.742640 0.000000 
#    z -0.005720 0.000000 1.757790 
# 
# From -- ./inp_files/375576.got.cif
#   From: 2010.06.25/outbox.cif.g09.slc.cpg/sg12_188_cif.got.tgz:375576.got - 2010.06.28 00:19:55.
