data_PCOD8084243
_publ_section_title
;
Structure prediction by ZEFSAII (Michael W. Deem and Ramdas Pophale) SiO2 
 PCOD8084243
Probable space group: C 2/M
;
_chemical_formula_sum "Si O2"
_cell_formula_units_Z 48
_cell_length_a 10.739022
_cell_length_b 27.695834
_cell_length_c 9.430405
_cell_angle_alpha 90.000000
_cell_angle_beta 117.653642
_cell_angle_gamma 90.000000
_cell_volume 2484.449745
_symmetry_space_group_name_H-M "C 2/M"
_symmetry_group_IT_number 12
_symmetry_cell_setting 'monoclinic'
loop_
_space_group_symop_operation_xyz
x,y,z
-x,y,-z
-x,-y,-z
x,-y,z
1/2+x,1/2+y,z
1/2-x,1/2+y,-z
1/2-x,1/2-y,-z
1/2+x,1/2-y,z
loop_
_atom_site_type_symbol
_atom_site_label
_atom_site_fract_x
_atom_site_fract_y
_atom_site_fract_z
Si Si1 0.832659 0.051927 0.409422
Si Si2 0.861124 0.849044 0.520558
Si Si3 0.377200 0.691991 0.834353
Si Si4 0.146049 0.695980 0.213838
Si Si5 0.159916 0.446528 0.034794
Si Si6 0.154811 0.654322 0.921956
O O1 0.787358 0.097791 0.480738
O O2 0.000000 0.049119 0.500000
O O3 0.774062 0.000000 0.436089
O O4 0.770559 0.060678 0.220180
O O5 0.895879 0.835739 0.698101
O O6 0.757401 0.809562 0.398569
O O7 0.000000 0.850545 0.500000
O O8 0.395668 0.748542 0.819045
O O9 0.228623 0.679664 0.827651
O O10 0.500000 0.672488 0.000000
O O11 0.010352 0.664231 0.180190
O O12 0.210871 0.677460 0.099158
O O13 0.182470 0.500000 0.978020
O O14 0.186166 0.403368 0.936254
O O15 0.000000 0.441394 0.000000
#
# Coordination Sequence:
#
# PCOD8084243 Si02
#       6
#     8   8   8   8   8   8
#     4   9  18  33  56  83 112 151 194 239 289 349
#     4  11  23  39  61  85 117 155 204 241 289 362
#     4  12  26  38  58  88 120 160 196 247 299 348
#     4  11  22  41  60  84 117 162 195 239 296 353
#     4  10  18  34  62  92 115 151 200 244 297 359
#     4  11  21  39  63  86 124 151 197 246 297 354
#
# _framework density 19.320171999999999
#
# number of rings (size 3 to 8) (size 9 to 14) (size 15 to 20)
#    0.000    1.333    5.000    2.000    4.667    0.667 
#    0.000    0.833    0.000    1.000    0.000    5.833 
#    0.000    0.000    0.000    0.000    0.000    0.000 
#
# Total GULP energy -297506.064846 kJ/mol
# GULP energy per Si atom -12396.086035 kJ/mol
# Density = 1.927620 g / cm^3
# Si number density = 19.320172 Si / 1000 Ang^3
#
#
#
# Elastic Constant Matrix: (Units=GPa)
#
#
# Indices 1 2 3 4 5 6 
#
# 1 64.9566 27.7348 44.4202 0.0000 -6.1660 0.0000
# 2 27.7348 143.9936 41.9748 0.0000 -9.4790 0.0000
# 3 44.4202 41.9748 119.3258 0.0000 5.4491 0.0000
# 4 0.0000 0.0000 0.0000 17.4544 0.0000 13.2080
# 5 -6.1660 -9.4790 5.4491 0.0000 33.4638 0.0000
# 6 0.0000 0.0000 0.0000 13.2080 0.0000 12.6700
#
#
#
# Elastic Compliance Matrix: (Units=1/GPa)
#
#
# Indices 1 2 3 4 5 6 
#
# 1 0.021877 -0.001623 -0.007794 0.000000 0.004840 0.000000
# 2 -0.001623 0.008100 -0.002354 0.000000 0.002379 0.000000
# 3 -0.007794 -0.002354 0.012297 0.000000 -0.004105 0.000000
# 4 0.000000 0.000000 0.000000 0.271326 0.000000 -0.282847
# 5 0.004840 0.002379 -0.004105 0.000000 0.032117 0.000000
# 6 0.000000 0.000000 0.000000 -0.282847 0.000000 0.373782
#
#
# Mechanical properties :
#
#
# Convention : Reuss Voigt Hill
#
# Bulk Modulus (GPa) = 53.38248 61.83728 57.60988
# Shear Modulus (GPa) = 6.67301 26.99406 16.83354
#
# Velocity S-wave (km/s) = 1.86049 3.74196 2.95497
# Velocity P-wave (km/s) = 5.68380 7.12361 6.44404
#
# Compressibility (1/GPa) = 0.01873274
#
# Stress axis : x y z
#
# Youngs Moduli (GPa) = 45.70926 123.45534 81.31875
#
# Poissons Ratio (x) = 0.20039 0.63381
# Poissons Ratio (y) = 0.07419 0.19140
# Poissons Ratio (z) = 0.35626 0.29058
#
# Static dielectric constant tensor:
#      x y z
#    x 3.238390 0.000000 0.240340 
#    y 0.000000 4.146210 0.000000 
#    z 0.240340 0.000000 3.563630 
# 
# 
# High freq. dielectric constant tensor:
#      x y z
#    x 1.717730 0.000000 0.034710 
#    y 0.000000 1.777220 0.000000 
#    z 0.034710 0.000000 1.746610 
# 
# From -- ./inp_files/52794.got.cif
#   From: 2010.06.25/outbox.cif.g09.slc.cpg/sg12_27_cif.got.tgz:52794.got - 2010.06.28 00:19:55.
