data_PCOD8084547
_publ_section_title
;
Structure prediction by ZEFSAII (Michael W. Deem and Ramdas Pophale) SiO2 
 PCOD8084547
Probable space group: C 2/M
;
_chemical_formula_sum "Si O2"
_cell_formula_units_Z 64
_cell_length_a 8.644453
_cell_length_b 19.984226
_cell_length_c 18.666863
_cell_angle_alpha 90.000000
_cell_angle_beta 90.855657
_cell_angle_gamma 90.000000
_cell_volume 3224.391435
_symmetry_space_group_name_H-M "C 2/M"
_symmetry_group_IT_number 12
_symmetry_cell_setting 'monoclinic'
loop_
_space_group_symop_operation_xyz
x,y,z
-x,y,-z
-x,-y,-z
x,-y,z
1/2+x,1/2+y,z
1/2-x,1/2+y,-z
1/2-x,1/2-y,-z
1/2+x,1/2-y,z
loop_
_atom_site_type_symbol
_atom_site_label
_atom_site_fract_x
_atom_site_fract_y
_atom_site_fract_z
Si Si1 0.100874 0.129824 0.305110
Si Si2 0.503491 0.423039 0.918605
Si Si3 0.843677 0.928062 0.540624
Si Si4 0.011194 0.743837 0.644894
Si Si5 0.999583 0.694197 0.793161
Si Si6 0.358912 0.331806 0.191592
Si Si7 0.765529 0.309927 0.552821
Si Si8 0.292371 0.923168 0.178296
O O1 0.108152 0.089117 0.378346
O O2 0.129359 0.208131 0.326149
O O3 0.225298 0.095749 0.254999
O O4 0.935144 0.131183 0.261400
O O5 0.555627 0.500000 0.914582
O O6 0.631154 0.380600 0.876590
O O7 0.333640 0.412733 0.884298
O O8 0.500000 0.397671 0.000000
O O9 0.740498 0.876088 0.495355
O O10 0.000000 0.934391 0.500000
O O11 0.757218 0.000000 0.540307
O O12 0.070024 0.699514 0.712290
O O13 0.937273 0.692003 0.588066
O O14 0.132414 0.797399 0.611729
O O15 0.816145 0.686000 0.791351
O O16 0.047978 0.764172 0.830549
O O17 0.068970 0.629392 0.834439
O O18 0.750000 0.250000 0.500000
O O19 0.352886 0.000000 0.179299
#
# Coordination Sequence:
#
# PCOD8084547 Si02
#       8
#     8   8   8   8   8   8   8   8
#     4  10  18  37  57  81 104 149 197 240 300 355
#     4   9  19  39  67  96 125 158 195 235 285 350
#     4  11  22  35  52  77 112 144 189 247 300 359
#     4  11  21  35  58  79 105 144 195 250 292 348
#     4  11  22  38  59  88 123 155 202 249 290 348
#     4  10  21  37  62  88 121 155 197 242 292 345
#     4  12  21  36  55  80 103 140 197 243 304 357
#     4  10  21  38  60  86 119 158 196 240 296 354
#
# _framework density 19.848707000000001
#
# number of rings (size 3 to 8) (size 9 to 14) (size 15 to 20)
#    0.000    1.500    2.500    5.250    0.000    1.000 
#    0.000    3.750    0.000    3.750    0.000    0.000 
#    0.000    0.000    0.000    0.000    0.000    0.000 
#
# Total GULP energy -396455.440736 kJ/mol
# GULP energy per Si atom -12389.232523 kJ/mol
# Density = 1.980353 g / cm^3
# Si number density = 19.848707 Si / 1000 Ang^3
#
#
#
# Elastic Constant Matrix: (Units=GPa)
#
#
# Indices 1 2 3 4 5 6 
#
# 1 48.7362 19.7867 15.8144 0.0000 -1.4292 0.0000
# 2 19.7867 119.3056 49.3986 0.0000 9.0214 0.0000
# 3 15.8144 49.3986 124.1808 0.0000 3.1865 0.0000
# 4 0.0000 0.0000 0.0000 32.7527 0.0000 2.6741
# 5 -1.4292 9.0214 3.1865 0.0000 16.6513 0.0000
# 6 0.0000 0.0000 0.0000 2.6741 0.0000 30.5989
#
#
#
# Elastic Compliance Matrix: (Units=1/GPa)
#
#
# Indices 1 2 3 4 5 6 
#
# 1 0.022536 -0.003369 -0.001634 0.000000 0.004072 0.000000
# 2 -0.003369 0.010917 -0.003773 0.000000 -0.005482 0.000000
# 3 -0.001634 -0.003773 0.009761 0.000000 0.000036 0.000000
# 4 0.000000 0.000000 0.000000 0.030751 0.000000 -0.002687
# 5 0.004072 -0.005482 0.000036 0.000000 0.063368 0.000000
# 6 0.000000 0.000000 0.000000 -0.002687 0.000000 0.032916
#
#
# Mechanical properties :
#
#
# Convention : Reuss Voigt Hill
#
# Bulk Modulus (GPa) = 38.96861 51.35801 45.16331
# Shear Modulus (GPa) = 25.46392 29.81543 27.63968
#
# Velocity S-wave (km/s) = 3.58565 3.87994 3.73569
# Velocity P-wave (km/s) = 6.06778 6.78254 6.43509
#
# Compressibility (1/GPa) = 0.02566168
#
# Stress axis : x y z
#
# Youngs Moduli (GPa) = 44.37325 91.59719 102.44906
#
# Poissons Ratio (x) = 0.30857 0.16744
# Poissons Ratio (y) = 0.14949 0.38656
# Poissons Ratio (z) = 0.07252 0.34561
#
# Static dielectric constant tensor:
#      x y z
#    x 3.137230 0.000000 0.256510 
#    y 0.000000 4.124970 0.000000 
#    z 0.256510 0.000000 3.491060 
# 
# 
# High freq. dielectric constant tensor:
#      x y z
#    x 1.755000 0.000000 0.007070 
#    y 0.000000 1.774970 0.000000 
#    z 0.007070 0.000000 1.770740 
# 
# From -- ./inp_files/258104.got.cif
#   From: 2010.06.25/outbox.cif.g09.slc.cpg/sg12_130_cif.got.tgz:258104.got - 2010.06.28 00:19:55.
