data_PCOD8084619
_publ_section_title
;
Structure prediction by ZEFSAII (Michael W. Deem and Ramdas Pophale) SiO2 
 PCOD8084619
Probable space group: C 2/M
;
_chemical_formula_sum "Si O2"
_cell_formula_units_Z 56
_cell_length_a 14.935860
_cell_length_b 17.513413
_cell_length_c 12.292758
_cell_angle_alpha 90.000000
_cell_angle_beta 63.938425
_cell_angle_gamma 90.000000
_cell_volume 2888.567976
_symmetry_space_group_name_H-M "C 2/M"
_symmetry_group_IT_number 12
_symmetry_cell_setting 'monoclinic'
loop_
_space_group_symop_operation_xyz
x,y,z
-x,y,-z
-x,-y,-z
x,-y,z
1/2+x,1/2+y,z
1/2-x,1/2+y,-z
1/2-x,1/2-y,-z
1/2+x,1/2-y,z
loop_
_atom_site_type_symbol
_atom_site_label
_atom_site_fract_x
_atom_site_fract_y
_atom_site_fract_z
Si Si1 0.956926 0.581031 0.907256
Si Si2 0.606020 0.235513 0.003623
Si Si3 0.460048 0.413718 0.404351
Si Si4 0.246149 0.411230 0.427003
Si Si5 0.759802 0.770105 0.265580
Si Si6 0.101863 0.661858 0.670380
Si Si7 0.432859 0.279558 0.742228
O O1 0.911304 0.500000 0.887030
O O2 0.874306 0.647981 0.964828
O O3 0.050488 0.605013 0.782511
O O4 0.000000 0.562458 0.000000
O O5 0.607549 0.283038 0.113224
O O6 0.500000 0.237382 0.000000
O O7 0.687161 0.270719 0.880331
O O8 0.500000 0.388072 0.500000
O O9 0.490571 0.500000 0.362955
O O10 0.341583 0.401850 0.454754
O O11 0.520166 0.363054 0.287742
O O12 0.234905 0.500000 0.395187
O O13 0.256635 0.356108 0.315903
O O14 0.149186 0.386231 0.546850
O O15 0.813159 0.712763 0.319078
O O16 0.650386 0.736902 0.303661
O O17 0.017120 0.717465 0.670432
#
# Coordination Sequence:
#
# PCOD8084619 Si02
#       7
#     8   8   8   8   8   8   8
#     4   9  16  31  56  84 115 150 183 241 307 346
#     4  10  18  39  59  86 118 155 198 252 294 360
#     4  10  21  39  60  88 125 156 199 258 304 348
#     4  11  24  41  61  89 123 163 202 249 304 357
#     4  12  22  39  62  87 121 159 206 243 302 362
#     4  11  21  38  59  88 119 158 201 247 295 364
#     4  11  23  36  63  89 117 158 205 247 298 363
#
# _framework density 19.386769999999999
#
# number of rings (size 3 to 8) (size 9 to 14) (size 15 to 20)
#    0.000    1.429    5.714    2.143    2.000    0.000 
#    0.000    6.429    0.000    2.571    0.000    0.000 
#    0.000    0.000    0.000    0.000    0.000    0.000 
#
# Total GULP energy -346993.499094 kJ/mol
# GULP energy per Si atom -12392.624968 kJ/mol
# Density = 1.934264 g / cm^3
# Si number density = 19.386770 Si / 1000 Ang^3
#
#
#
# Elastic Constant Matrix: (Units=GPa)
#
#
# Indices 1 2 3 4 5 6 
#
# 1 75.5808 7.5966 16.0659 0.0000 -13.5522 0.0000
# 2 7.5966 108.4824 79.2579 0.0000 -18.1005 0.0000
# 3 16.0659 79.2579 116.9572 0.0000 -20.1476 0.0000
# 4 0.0000 0.0000 0.0000 40.4513 0.0000 -0.1724
# 5 -13.5522 -18.1005 -20.1476 0.0000 15.9914 0.0000
# 6 0.0000 0.0000 0.0000 -0.1724 0.0000 21.9726
#
#
#
# Elastic Compliance Matrix: (Units=1/GPa)
#
#
# Indices 1 2 3 4 5 6 
#
# 1 0.015840 0.002121 -0.001133 0.000000 0.014397 0.000000
# 2 0.002121 0.019084 -0.011741 0.000000 0.008605 0.000000
# 3 -0.001133 -0.011741 0.018146 0.000000 0.008612 0.000000
# 4 0.000000 0.000000 0.000000 0.024722 0.000000 0.000194
# 5 0.014397 0.008605 0.008612 0.000000 0.095325 0.000000
# 6 0.000000 0.000000 0.000000 0.000194 0.000000 0.045513
#
#
# Mechanical properties :
#
#
# Convention : Reuss Voigt Hill
#
# Bulk Modulus (GPa) = 31.68318 56.31792 44.00055
# Shear Modulus (GPa) = 19.94759 28.88974 24.41867
#
# Velocity S-wave (km/s) = 3.21117 3.86447 3.55287
# Velocity P-wave (km/s) = 5.48881 7.00178 6.29094
#
# Compressibility (1/GPa) = 0.03156249
#
# Stress axis : x y z
#
# Youngs Moduli (GPa) = 63.13133 52.40112 55.10854
#
# Poissons Ratio (x) = -0.11112 0.06243
# Poissons Ratio (y) = -0.13388 0.64705
# Poissons Ratio (z) = 0.07152 0.61526
#
# Static dielectric constant tensor:
#      x y z
#    x 3.512510 0.000000 -0.046440 
#    y 0.000000 3.858140 0.000000 
#    z -0.046440 0.000000 3.607660 
# 
# 
# High freq. dielectric constant tensor:
#      x y z
#    x 1.743440 0.000000 -0.001140 
#    y 0.000000 1.760480 0.000000 
#    z -0.001140 0.000000 1.754230 
# 
# From -- ./inp_files/145507.got.cif
#   From: 2010.06.25/outbox.cif.g09.slc.cpg/sg12_73_cif.got.tgz:145507.got - 2010.06.28 00:19:55.
