data_PCOD8084963
_publ_section_title
;
Structure prediction by ZEFSAII (Michael W. Deem and Ramdas Pophale) SiO2 
 PCOD8084963
Probable space group: C 2/M
;
_chemical_formula_sum "Si O2"
_cell_formula_units_Z 64
_cell_length_a 30.255691
_cell_length_b 9.380407
_cell_length_c 22.441521
_cell_angle_alpha 90.000000
_cell_angle_beta 32.920640
_cell_angle_gamma 90.000000
_cell_volume 3461.482313
_symmetry_space_group_name_H-M "C 2/M"
_symmetry_group_IT_number 12
_symmetry_cell_setting 'monoclinic'
loop_
_space_group_symop_operation_xyz
x,y,z
-x,y,-z
-x,-y,-z
x,-y,z
1/2+x,1/2+y,z
1/2-x,1/2+y,-z
1/2-x,1/2-y,-z
1/2+x,1/2-y,z
loop_
_atom_site_type_symbol
_atom_site_label
_atom_site_fract_x
_atom_site_fract_y
_atom_site_fract_z
Si Si1 0.613172 0.159666 0.501949
Si Si2 0.787904 0.833714 0.120265
Si Si3 0.481581 0.837235 0.749246
Si Si4 0.502413 0.651379 0.429992
Si Si5 0.439620 0.833126 0.122683
Si Si6 0.714962 0.663048 0.740507
Si Si7 0.365916 0.834328 0.773912
Si Si8 0.534840 0.670754 0.113472
O O1 0.566488 0.186278 0.617412
O O2 0.581960 0.274362 0.490683
O O3 0.710714 0.178159 0.390811
O O4 0.591129 0.000000 0.505314
O O5 0.759433 0.798150 0.220139
O O6 0.724634 0.777283 0.140766
O O7 0.796486 0.000000 0.101344
O O8 0.876949 0.769348 0.006542
O O9 0.400332 0.804437 0.801433
O O10 0.482207 0.722651 0.800583
O O11 0.477323 0.000000 0.777792
O O12 0.500000 0.610037 0.500000
O O13 0.512199 0.500000 0.383542
O O14 0.576287 0.756557 0.337170
O O15 0.351716 0.775072 0.204625
O O16 0.468399 0.743563 0.146782
O O17 0.433631 0.000000 0.145599
O O18 0.500000 0.805255 0.000000
O O19 0.681483 0.500000 0.777073
O O20 0.371472 0.000000 0.752860
O O21 0.526574 0.500000 0.119251
#
# Coordination Sequence:
#
# PCOD8084963 Si02
#       8
#     8   8   8   8   8   8   8   8
#     4   9  19  35  57  80 105 146 189 225 271 327
#     4   9  18  32  54  84 112 140 183 233 275 323
#     4   9  19  36  55  79 113 149 188 229 268 320
#     4  10  19  29  44  72 110 146 182 229 278 322
#     4  11  23  39  59  85 115 144 175 218 282 343
#     4  10  19  35  60  87 113 141 181 232 279 327
#     4   9  18  34  54  75 105 148 191 229 270 322
#     4  11  22  37  59  83 109 146 188 229 275 329
#
# _framework density 18.489190000000001
#
# number of rings (size 3 to 8) (size 9 to 14) (size 15 to 20)
#    0.000    2.250    1.250    2.625    0.000    5.500 
#    0.000    2.500    0.000    0.000    0.000    0.000 
#    0.000    0.000    0.000    0.000    0.000    0.000 
#
# Total GULP energy -396494.328975 kJ/mol
# GULP energy per Si atom -12390.447780 kJ/mol
# Density = 1.844711 g / cm^3
# Si number density = 18.489190 Si / 1000 Ang^3
#
#
#
# Elastic Constant Matrix: (Units=GPa)
#
#
# Indices 1 2 3 4 5 6 
#
# 1 104.6059 56.0451 43.9019 0.0128 -5.5504 -0.0103
# 2 56.0451 87.6704 33.0163 0.0504 -2.5328 -0.0378
# 3 43.9019 33.0163 87.5391 0.0236 -7.6252 -0.0305
# 4 0.0128 0.0504 0.0236 47.0536 -0.0004 -18.3956
# 5 -5.5504 -2.5328 -7.6252 -0.0004 25.7588 -0.0028
# 6 -0.0103 -0.0378 -0.0305 -18.3956 -0.0028 42.2914
#
#
#
# Elastic Compliance Matrix: (Units=1/GPa)
#
#
# Indices 1 2 3 4 5 6 
#
# 1 0.016204 -0.008512 -0.004809 0.000005 0.001231 -0.000005
# 2 -0.008512 0.017767 -0.002504 -0.000013 -0.000828 0.000006
# 3 -0.004809 -0.002504 0.015056 -0.000001 0.003175 0.000007
# 4 0.000005 -0.000013 -0.000001 0.025607 0.000001 0.011138
# 5 0.001231 -0.000828 0.003175 0.000001 0.039945 0.000005
# 6 -0.000005 0.000006 0.000007 0.011138 0.000005 0.028490
#
#
# Mechanical properties :
#
#
# Convention : Reuss Voigt Hill
#
# Bulk Modulus (GPa) = 57.54807 60.63801 59.09304
# Shear Modulus (GPa) = 27.69903 32.81089 30.25496
#
# Velocity S-wave (km/s) = 3.87476 4.21717 4.04958
# Velocity P-wave (km/s) = 7.15620 7.52199 7.34137
#
# Compressibility (1/GPa) = 0.01737678
#
# Stress axis : x y z
#
# Youngs Moduli (GPa) = 61.71430 56.28395 66.41804
#
# Poissons Ratio (x) = 0.47909 0.31939
# Poissons Ratio (y) = 0.52532 0.16633
# Poissons Ratio (z) = 0.29677 0.14095
#
# Static dielectric constant tensor:
#      x y z
#    x 3.404190 0.000010 -0.209330 
#    y 0.000010 3.399230 0.000070 
#    z -0.209330 0.000070 3.530850 
# 
# 
# High freq. dielectric constant tensor:
#      x y z
#    x 1.705110 0.000000 -0.006940 
#    y 0.000000 1.716640 0.000000 
#    z -0.006940 0.000000 1.711260 
# 
# From -- ./inp_files/353299.got.cif
#   From: 2010.06.25/outbox.cif.g09.slc.cpg/sg12_177_cif.got.tgz:353299.got - 2010.06.28 00:19:55.
