data_PCOD8084712
_publ_section_title
;
Structure prediction by ZEFSAII (Michael W. Deem and Ramdas Pophale) SiO2 
 PCOD8084712
Probable space group: C 2/M
;
_chemical_formula_sum "Si O2"
_cell_formula_units_Z 64
_cell_length_a 14.898222
_cell_length_b 19.717870
_cell_length_c 13.714879
_cell_angle_alpha 90.000000
_cell_angle_beta 87.354537
_cell_angle_gamma 90.000000
_cell_volume 4024.605620
_symmetry_space_group_name_H-M "C 2/M"
_symmetry_group_IT_number 12
_symmetry_cell_setting 'monoclinic'
loop_
_space_group_symop_operation_xyz
x,y,z
-x,y,-z
-x,-y,-z
x,-y,z
1/2+x,1/2+y,z
1/2-x,1/2+y,-z
1/2-x,1/2-y,-z
1/2+x,1/2-y,z
loop_
_atom_site_type_symbol
_atom_site_label
_atom_site_fract_x
_atom_site_fract_y
_atom_site_fract_z
Si Si1 0.481491 0.076223 0.833017
Si Si2 0.335330 0.077713 0.289521
Si Si3 0.817730 0.422057 0.698530
Si Si4 0.098268 0.824151 0.002474
Si Si5 0.765902 0.179049 0.165413
Si Si6 0.400706 0.079653 0.490566
Si Si7 0.749073 0.164642 0.854368
Si Si8 0.386565 0.831275 0.974760
O O1 0.576358 0.088026 0.778839
O O2 0.409146 0.090547 0.752532
O O3 0.471259 0.125015 0.928969
O O4 0.471542 0.000000 0.873489
O O5 0.352937 0.109209 0.395995
O O6 0.253484 0.117250 0.240872
O O7 0.305506 0.000000 0.297899
O O8 0.784256 0.500000 0.712372
O O9 0.741238 0.368571 0.738173
O O10 0.836839 0.404862 0.585061
O O11 0.164021 0.854188 0.083257
O O12 0.083766 0.746116 0.031433
O O13 0.138706 0.831648 0.892131
O O14 0.000000 0.859652 0.000000
O O15 0.748060 0.258368 0.185482
O O16 0.692585 0.151047 0.095141
O O17 0.500000 0.112220 0.500000
O O18 0.414217 0.000000 0.473001
O O19 0.656042 0.150879 0.918209
#
# Coordination Sequence:
#
# PCOD8084712 Si02
#       8
#     8   8   8   8   8   8   8   8
#     4   9  16  24  39  68  97 121 146 171 208 265
#     4  10  19  28  42  66  96 125 149 175 217 268
#     4   9  15  27  48  68  92 119 145 184 222 264
#     4   9  17  30  48  62  80 115 159 194 221 261
#     4   8  16  30  44  67  90 114 153 187 225 267
#     4   9  15  27  45  68  96 123 149 171 205 274
#     4   9  18  31  42  61  93 121 149 188 220 260
#     4   8  16  27  42  62  90 122 148 174 214 269
#
# _framework density 15.90218
#
# number of rings (size 3 to 8) (size 9 to 14) (size 15 to 20)
#    0.000    3.125    1.250    1.500    3.500    0.500 
#    0.000    3.750    0.000    1.500    0.000    0.875 
#    0.000    3.000    0.000    0.000    0.000    0.000 
#
# Total GULP energy -396464.362700 kJ/mol
# GULP energy per Si atom -12389.511334 kJ/mol
# Density = 1.586599 g / cm^3
# Si number density = 15.902180 Si / 1000 Ang^3
#
#
#
# Elastic Constant Matrix: (Units=GPa)
#
#
# Indices 1 2 3 4 5 6 
#
# 1 69.4491 17.4094 34.6109 0.0000 3.5070 0.0000
# 2 17.4094 53.4245 47.8729 0.0000 -0.2246 0.0000
# 3 34.6109 47.8729 89.3576 0.0000 15.3329 0.0000
# 4 0.0000 0.0000 0.0000 20.0010 0.0000 1.4241
# 5 3.5070 -0.2246 15.3329 0.0000 19.8380 0.0000
# 6 0.0000 0.0000 0.0000 1.4241 0.0000 9.4126
#
#
#
# Elastic Compliance Matrix: (Units=1/GPa)
#
#
# Indices 1 2 3 4 5 6 
#
# 1 0.018028 0.001774 -0.008519 0.000000 0.003418 0.000000
# 2 0.001774 0.042479 -0.027063 0.000000 0.021085 0.000000
# 3 -0.008519 -0.027063 0.033185 0.000000 -0.024449 0.000000
# 4 0.000000 0.000000 0.000000 0.050542 0.000000 -0.007647
# 5 0.003418 0.021085 -0.024449 0.000000 0.068939 0.000000
# 6 0.000000 0.000000 0.000000 -0.007647 0.000000 0.107398
#
#
# Mechanical properties :
#
#
# Convention : Reuss Voigt Hill
#
# Bulk Modulus (GPa) = 38.35146 45.77975 42.06560
# Shear Modulus (GPa) = 12.59825 17.33952 14.96889
#
# Velocity S-wave (km/s) = 2.81772 3.30568 3.07141
# Velocity P-wave (km/s) = 5.89538 6.58945 6.25206
#
# Compressibility (1/GPa) = 0.02607463
#
# Stress axis : x y z
#
# Youngs Moduli (GPa) = 55.47069 23.54078 30.13410
#
# Poissons Ratio (x) = -0.04176 0.25673
# Poissons Ratio (y) = -0.09840 0.81552
# Poissons Ratio (z) = 0.47258 0.63709
#
# Static dielectric constant tensor:
#      x y z
#    x 2.950890 0.000000 0.004280 
#    y 0.000000 2.852530 0.000000 
#    z 0.004280 0.000000 3.157790 
# 
# 
# High freq. dielectric constant tensor:
#      x y z
#    x 1.591000 0.000000 0.004130 
#    y 0.000000 1.579950 0.000000 
#    z 0.004130 0.000000 1.608980 
# 
# From -- ./inp_files/215885.got.cif
#   From: 2010.06.25/outbox.cif.g09.slc.cpg/sg12_108_cif.got.tgz:215885.got - 2010.06.28 00:19:55.
