data_PCOD8084293
_publ_section_title
;
Structure prediction by ZEFSAII (Michael W. Deem and Ramdas Pophale) SiO2 
 PCOD8084293
Probable space group: C 2/M
;
_chemical_formula_sum "Si O2"
_cell_formula_units_Z 56
_cell_length_a 22.944608
_cell_length_b 21.782862
_cell_length_c 8.961503
_cell_angle_alpha 90.000000
_cell_angle_beta 46.953159
_cell_angle_gamma 90.000000
_cell_volume 3273.199990
_symmetry_space_group_name_H-M "C 2/M"
_symmetry_group_IT_number 12
_symmetry_cell_setting 'monoclinic'
loop_
_space_group_symop_operation_xyz
x,y,z
-x,y,-z
-x,-y,-z
x,-y,z
1/2+x,1/2+y,z
1/2-x,1/2+y,-z
1/2-x,1/2-y,-z
1/2+x,1/2-y,z
loop_
_atom_site_type_symbol
_atom_site_label
_atom_site_fract_x
_atom_site_fract_y
_atom_site_fract_z
Si Si1 0.184438 0.928276 0.444197
Si Si2 0.816700 0.745069 0.581227
Si Si3 0.190674 0.832585 0.660510
Si Si4 0.742201 0.840425 0.915746
Si Si5 0.382000 0.327644 0.900305
Si Si6 0.913215 0.705491 0.674418
Si Si7 0.006422 0.933498 0.661711
O O1 0.196082 0.903154 0.594286
O O2 0.246196 0.895590 0.222012
O O3 0.095277 0.912363 0.548015
O O4 0.203711 0.000000 0.409743
O O5 0.846634 0.797715 0.417380
O O6 0.778921 0.691310 0.546664
O O7 0.755582 0.774380 0.811452
O O8 0.890243 0.718839 0.543730
O O9 0.137072 0.816253 0.894410
O O10 0.803494 0.848882 0.946395
O O11 0.651301 0.840194 0.136507
O O12 0.421949 0.268596 0.753365
O O13 0.444320 0.382064 0.813286
O O14 0.000000 0.674308 0.500000
O O15 0.000000 0.943873 0.500000
O O16 0.987713 0.000000 0.772083
#
# Coordination Sequence:
#
# PCOD8084293 Si02
#       7
#     8   8   8   8   8   8   8
#     4  10  22  37  55  78 107 144 182 218 262 311
#     4   9  18  35  51  76 105 145 171 219 264 317
#     4  10  19  32  54  72 112 142 177 208 261 318
#     4  10  18  35  56  75 103 139 182 223 259 311
#     4  11  19  32  53  78 105 150 179 208 258 315
#     4  11  21  33  54  81 107 132 182 226 270 311
#     4  10  20  34  51  77 109 144 185 220 247 301
#
# _framework density 17.108640999999999
#
# number of rings (size 3 to 8) (size 9 to 14) (size 15 to 20)
#    0.000    1.857    4.286    1.286    4.000    1.143 
#    0.000    1.429    0.000    0.429    0.000    1.000 
#    0.000    0.000    0.000    0.000    0.000    0.000 
#
# Total GULP energy -346985.561244 kJ/mol
# GULP energy per Si atom -12392.341473 kJ/mol
# Density = 1.706970 g / cm^3
# Si number density = 17.108641 Si / 1000 Ang^3
#
#
#
# Elastic Constant Matrix: (Units=GPa)
#
#
# Indices 1 2 3 4 5 6 
#
# 1 84.3664 43.1657 48.5287 0.0000 4.5268 0.0000
# 2 43.1657 75.7561 25.5607 0.0000 -8.2849 0.0000
# 3 48.5287 25.5607 80.2870 0.0000 -2.6249 0.0000
# 4 0.0000 0.0000 0.0000 20.7679 0.0000 -0.7932
# 5 4.5268 -8.2849 -2.6249 0.0000 35.0301 0.0000
# 6 0.0000 0.0000 0.0000 -0.7932 0.0000 27.0609
#
#
#
# Elastic Compliance Matrix: (Units=1/GPa)
#
#
# Indices 1 2 3 4 5 6 
#
# 1 0.024265 -0.010664 -0.011485 0.000000 -0.006518 0.000000
# 2 -0.010664 0.019831 0.000331 0.000000 0.006093 0.000000
# 3 -0.011485 0.000331 0.019390 0.000000 0.003016 0.000000
# 4 0.000000 0.000000 0.000000 0.048205 0.000000 0.001413
# 5 -0.006518 0.006093 0.003016 0.000000 0.031056 0.000000
# 6 0.000000 0.000000 0.000000 0.001413 0.000000 0.036995
#
#
# Mechanical properties :
#
#
# Convention : Reuss Voigt Hill
#
# Bulk Modulus (GPa) = 50.37375 52.76888 51.57131
# Shear Modulus (GPa) = 21.73950 24.78207 23.26079
#
# Velocity S-wave (km/s) = 3.56852 3.81006 3.69127
# Velocity P-wave (km/s) = 6.81810 7.08984 6.95529
#
# Compressibility (1/GPa) = 0.01985161
#
# Stress axis : x y z
#
# Youngs Moduli (GPa) = 41.21094 50.42554 51.57196
#
# Poissons Ratio (x) = 0.53775 0.59230
# Poissons Ratio (y) = 0.43948 -0.01709
# Poissons Ratio (z) = 0.47331 -0.01671
#
# Static dielectric constant tensor:
#      x y z
#    x 3.188320 0.000000 0.226940 
#    y 0.000000 3.821930 0.000000 
#    z 0.226940 0.000000 3.068540 
# 
# 
# High freq. dielectric constant tensor:
#      x y z
#    x 1.659070 0.000000 0.017350 
#    y 0.000000 1.637540 0.000000 
#    z 0.017350 0.000000 1.651590 
# 
# From -- ./inp_files/76909.got.cif
#   From: 2010.06.25/outbox.cif.g09.slc.cpg/sg12_39_cif.got.tgz:76909.got - 2010.06.28 00:19:55.
