data_PCOD8084780
_publ_section_title
;
Structure prediction by ZEFSAII (Michael W. Deem and Ramdas Pophale) SiO2 
 PCOD8084780
Probable space group: C 2/M
;
_chemical_formula_sum "Si O2"
_cell_formula_units_Z 48
_cell_length_a 22.997495
_cell_length_b 9.252234
_cell_length_c 15.280254
_cell_angle_alpha 90.000000
_cell_angle_beta 79.848946
_cell_angle_gamma 90.000000
_cell_volume 3200.410804
_symmetry_space_group_name_H-M "C 2/M"
_symmetry_group_IT_number 12
_symmetry_cell_setting 'monoclinic'
loop_
_space_group_symop_operation_xyz
x,y,z
-x,y,-z
-x,-y,-z
x,-y,z
1/2+x,1/2+y,z
1/2-x,1/2+y,-z
1/2-x,1/2-y,-z
1/2+x,1/2-y,z
loop_
_atom_site_type_symbol
_atom_site_label
_atom_site_fract_x
_atom_site_fract_y
_atom_site_fract_z
Si Si1 0.203440 0.331074 0.124378
Si Si2 0.978530 0.169675 0.602050
Si Si3 0.113356 0.660989 0.285714
Si Si4 0.046299 0.169333 0.913165
Si Si5 0.992475 0.662234 0.246235
Si Si6 0.331009 0.668122 0.035308
O O1 0.193163 0.500000 0.111742
O O2 0.174275 0.284195 0.224989
O O3 0.272929 0.292233 0.107873
O O4 0.169903 0.250131 0.055868
O O5 0.910980 0.230151 0.632652
O O6 0.000000 0.209328 0.500000
O O7 0.022269 0.248969 0.660039
O O8 0.979228 0.000000 0.619813
O O9 0.121496 0.500000 0.323957
O O10 0.063993 0.655718 0.220962
O O11 0.034092 0.257006 0.829147
O O12 0.111735 0.214402 0.925621
O O13 0.041117 0.000000 0.893572
O O14 0.000000 0.214831 0.000000
O O15 0.965879 0.500000 0.258833
O O16 0.333146 0.500000 0.011639
#
# Coordination Sequence:
#
# PCOD8084780 Si02
#       6
#     8   8   8   8   8   8
#     4   9  16  29  43  59  84 114 150 186 216 252
#     4   9  17  29  46  68  91 113 138 174 222 270
#     4   8  16  27  42  63  86 112 139 175 218 257
#     4  10  19  29  41  61  89 121 152 182 215 254
#     4   9  18  29  43  64  88 116 144 174 215 260
#     4   9  18  28  41  60  84 117 153 184 216 250
#
# _framework density 14.998075
#
# number of rings (size 3 to 8) (size 9 to 14) (size 15 to 20)
#    1.000    2.000    0.000    1.500    0.000    3.000 
#    0.000    0.000    0.000    0.000    0.000    1.167 
#    0.000    0.000    0.000    0.000    0.000    0.000 
#
# Total GULP energy -297339.089277 kJ/mol
# GULP energy per Si atom -12389.128720 kJ/mol
# Density = 1.496394 g / cm^3
# Si number density = 14.998075 Si / 1000 Ang^3
#
#
#
# Elastic Constant Matrix: (Units=GPa)
#
#
# Indices 1 2 3 4 5 6 
#
# 1 63.5577 33.5514 48.0836 0.0000 -6.8624 0.0000
# 2 33.5514 71.7899 63.3497 0.0000 -2.3883 0.0000
# 3 48.0836 63.3497 120.0444 0.0000 -10.8674 0.0000
# 4 0.0000 0.0000 0.0000 20.6490 0.0000 2.0189
# 5 -6.8624 -2.3883 -10.8674 0.0000 22.4981 0.0000
# 6 0.0000 0.0000 0.0000 2.0189 0.0000 15.6635
#
#
#
# Elastic Compliance Matrix: (Units=1/GPa)
#
#
# Indices 1 2 3 4 5 6 
#
# 1 0.023772 -0.005382 -0.006355 0.000000 0.003610 0.000000
# 2 -0.005382 0.027647 -0.012880 0.000000 -0.004928 0.000000
# 3 -0.006355 -0.012880 0.018168 0.000000 0.005470 0.000000
# 4 0.000000 0.000000 0.000000 0.049046 0.000000 -0.006322
# 5 0.003610 -0.004928 0.005470 0.000000 0.047668 0.000000
# 6 0.000000 0.000000 0.000000 -0.006322 0.000000 0.064657
#
#
# Mechanical properties :
#
#
# Convention : Reuss Voigt Hill
#
# Bulk Modulus (GPa) = 49.13344 60.59571 54.86458
# Shear Modulus (GPa) = 17.42295 19.12263 18.27279
#
# Velocity S-wave (km/s) = 3.41204 3.57460 3.49426
# Velocity P-wave (km/s) = 6.95368 7.58466 7.27601
#
# Compressibility (1/GPa) = 0.02035274
#
# Stress axis : x y z
#
# Youngs Moduli (GPa) = 42.06546 36.17062 55.04224
#
# Poissons Ratio (x) = 0.19468 0.34978
# Poissons Ratio (y) = 0.22641 0.70894
# Poissons Ratio (z) = 0.26732 0.46588
#
# Static dielectric constant tensor:
#      x y z
#    x 2.857330 0.000000 -0.196010 
#    y 0.000000 2.922200 0.000000 
#    z -0.196010 0.000000 2.719290 
# 
# 
# High freq. dielectric constant tensor:
#      x y z
#    x 1.550480 0.000000 -0.015200 
#    y 0.000000 1.582490 0.000000 
#    z -0.015200 0.000000 1.553890 
# 
# From -- ./inp_files/279839.got.cif
#   From: 2010.06.25/outbox.cif.g09.slc.cpg/sg12_140_cif.got.tgz:279839.got - 2010.06.28 00:19:55.
