data_PCOD8084112
_publ_section_title
;
Structure prediction by ZEFSAII (Michael W. Deem and Ramdas Pophale) SiO2 
 PCOD8084112
Probable space group: C 2/M
;
_chemical_formula_sum "Si O2"
_cell_formula_units_Z 64
_cell_length_a 25.909348
_cell_length_b 8.738776
_cell_length_c 14.728960
_cell_angle_alpha 90.000000
_cell_angle_beta 80.417898
_cell_angle_gamma 90.000000
_cell_volume 3288.344183
_symmetry_space_group_name_H-M "C 2/M"
_symmetry_group_IT_number 12
_symmetry_cell_setting 'monoclinic'
loop_
_space_group_symop_operation_xyz
x,y,z
-x,y,-z
-x,-y,-z
x,-y,z
1/2+x,1/2+y,z
1/2-x,1/2+y,-z
1/2-x,1/2-y,-z
1/2+x,1/2-y,z
loop_
_atom_site_type_symbol
_atom_site_label
_atom_site_fract_x
_atom_site_fract_y
_atom_site_fract_z
Si Si1 0.989356 0.321953 0.401844
Si Si2 0.441401 0.668789 0.150822
Si Si3 0.844104 0.183054 0.078772
Si Si4 0.773036 0.181352 0.402340
Si Si5 0.654505 0.681294 0.126379
Si Si6 0.541324 0.682853 0.216893
Si Si7 0.250190 0.818071 0.220523
Si Si8 0.391613 0.669916 0.358715
O O1 0.000743 0.500000 0.387202
O O2 0.928765 0.287403 0.400088
O O3 0.000000 0.264119 0.500000
O O4 0.027942 0.232933 0.322801
O O5 0.455628 0.500000 0.111145
O O6 0.403132 0.744706 0.086482
O O7 0.496931 0.750666 0.159421
O O8 0.405591 0.661583 0.249767
O O9 0.802266 0.258759 0.157072
O O10 0.841525 0.000000 0.092016
O O11 0.832376 0.235308 0.979524
O O12 0.750000 0.250000 0.500000
O O13 0.744296 0.252853 0.323449
O O14 0.833193 0.232318 0.383836
O O15 0.765918 0.000000 0.401635
O O16 0.651359 0.500000 0.131137
O O17 0.598108 0.747851 0.173396
O O18 0.699808 0.742653 0.179203
O O19 0.538511 0.500000 0.215015
O O20 0.251558 0.000000 0.223422
O O21 0.396914 0.500000 0.400338
#
# Coordination Sequence:
#
# PCOD8084112 Si02
#       8
#     8   8   8   8   8   8   8   8
#     4  10  21  35  53  80 110 141 181 226 276 337
#     4   8  14  28  54  81 102 131 179 229 273 321
#     4  10  18  34  58  83 111 148 192 240 285 333
#     4  11  23  40  60  85 112 144 186 235 289 339
#     4   9  20  35  55  82 115 152 194 237 280 334
#     4   9  18  35  54  77 109 146 187 232 280 331
#     4  11  22  37  55  82 116 153 194 235 280 339
#     4   9  18  35  56  78 104 138 182 225 269 328
#
# _framework density 19.462682999999998
#
# number of rings (size 3 to 8) (size 9 to 14) (size 15 to 20)
#    0.000    2.375    1.250    2.250    0.000    3.500 
#    0.000    8.750    0.000    0.000    0.000    2.625 
#    0.000    0.000    0.000    0.000    0.000    0.000 
#
# Total GULP energy -396639.249766 kJ/mol
# GULP energy per Si atom -12394.976555 kJ/mol
# Density = 1.941839 g / cm^3
# Si number density = 19.462683 Si / 1000 Ang^3
#
#
#
# Elastic Constant Matrix: (Units=GPa)
#
#
# Indices 1 2 3 4 5 6 
#
# 1 126.5317 24.1235 63.1929 0.0000 9.4700 0.0000
# 2 24.1235 39.6931 25.6069 0.0000 5.5506 0.0000
# 3 63.1929 25.6069 114.1189 0.0000 20.6356 0.0000
# 4 0.0000 0.0000 0.0000 21.5584 0.0000 3.2906
# 5 9.4700 5.5506 20.6356 0.0000 33.1570 0.0000
# 6 0.0000 0.0000 0.0000 3.2906 0.0000 23.6978
#
#
#
# Elastic Compliance Matrix: (Units=1/GPa)
#
#
# Indices 1 2 3 4 5 6 
#
# 1 0.011305 -0.003335 -0.005667 0.000000 0.000856 0.000000
# 2 -0.003335 0.030466 -0.004777 0.000000 -0.001175 0.000000
# 3 -0.005667 -0.004777 0.014125 0.000000 -0.006373 0.000000
# 4 0.000000 0.000000 0.000000 0.047390 0.000000 -0.006580
# 5 0.000856 -0.001175 -0.006373 0.000000 0.034078 0.000000
# 6 0.000000 0.000000 0.000000 -0.006580 0.000000 0.043112
#
#
# Mechanical properties :
#
#
# Convention : Reuss Voigt Hill
#
# Bulk Modulus (GPa) = 35.28718 56.24335 45.76527
# Shear Modulus (GPa) = 22.99077 26.84401 24.91739
#
# Velocity S-wave (km/s) = 3.44070 3.71786 3.58196
# Velocity P-wave (km/s) = 5.82705 6.88410 6.37751
#
# Compressibility (1/GPa) = 0.02833890
#
# Stress axis : x y z
#
# Youngs Moduli (GPa) = 88.45755 32.82338 70.79677
#
# Poissons Ratio (x) = 0.10945 0.40118
# Poissons Ratio (y) = 0.29497 0.33822
# Poissons Ratio (z) = 0.50125 0.15681
#
# Static dielectric constant tensor:
#      x y z
#    x 4.009230 0.000000 0.178220 
#    y 0.000000 3.245100 0.000000 
#    z 0.178220 0.000000 3.568160 
# 
# 
# High freq. dielectric constant tensor:
#      x y z
#    x 1.773110 0.000000 0.006800 
#    y 0.000000 1.723250 0.000000 
#    z 0.006800 0.000000 1.756180 
# 
# From -- ./inp_files/243850.got.cif
#   From: 2010.06.25/outbox.cif.g09.slc.cpg/sg12_122_cif.got.tgz:243850.got - 2010.06.28 00:19:55.
