data_PCOD8084540
_publ_section_title
;
Structure prediction by ZEFSAII (Michael W. Deem and Ramdas Pophale) SiO2 
 PCOD8084540
Probable space group: C 2/M
;
_chemical_formula_sum "Si O2"
_cell_formula_units_Z 64
_cell_length_a 19.184889
_cell_length_b 20.352442
_cell_length_c 18.736854
_cell_angle_alpha 90.000000
_cell_angle_beta 151.169998
_cell_angle_gamma 90.000000
_cell_volume 3527.856634
_symmetry_space_group_name_H-M "C 2/M"
_symmetry_group_IT_number 12
_symmetry_cell_setting 'monoclinic'
loop_
_space_group_symop_operation_xyz
x,y,z
-x,y,-z
-x,-y,-z
x,-y,z
1/2+x,1/2+y,z
1/2-x,1/2+y,-z
1/2-x,1/2-y,-z
1/2+x,1/2-y,z
loop_
_atom_site_type_symbol
_atom_site_label
_atom_site_fract_x
_atom_site_fract_y
_atom_site_fract_z
Si Si1 0.716244 0.692274 0.913590
Si Si2 0.332337 0.423600 0.026010
Si Si3 0.006439 0.294551 0.924185
Si Si4 0.445836 0.357302 0.874858
Si Si5 0.615048 0.841186 0.541612
Si Si6 0.352666 0.166803 0.655380
Si Si7 0.013700 0.575285 0.695261
Si Si8 0.921948 0.769512 0.604210
O O1 0.674995 0.623265 0.912238
O O2 0.587962 0.711819 0.744717
O O3 0.750000 0.750000 0.000000
O O4 0.847152 0.679333 0.978562
O O5 0.342157 0.500000 0.058216
O O6 0.476272 0.404948 0.111621
O O7 0.185665 0.410821 0.849033
O O8 0.000094 0.216375 0.911549
O O9 0.880472 0.329324 0.765231
O O10 0.000000 0.318155 0.000000
O O11 0.271711 0.361580 0.712926
O O12 0.500000 0.382610 0.000000
O O13 0.500000 0.826313 0.500000
O O14 0.552662 0.899876 0.438026
O O15 0.630814 0.776637 0.507493
O O16 0.436255 0.106742 0.694616
O O17 0.179247 0.165159 0.487250
O O18 0.408529 0.234406 0.669120
O O19 0.976784 0.500000 0.668520
#
# Coordination Sequence:
#
# PCOD8084540 Si02
#       8
#     8   8   8   8   8   8   8   8
#     4  12  20  36  60  85 116 157 196 246 303 346
#     4  11  23  39  59  85 117 157 202 245 295 356
#     4  11  22  35  60  89 117 149 193 243 300 358
#     4  11  23  37  57  86 123 160 192 242 296 354
#     4  11  23  37  56  86 122 155 194 240 295 356
#     4  10  18  37  52  82 114 142 187 243 289 343
#     4  10  22  38  59  80 110 156 199 239 287 350
#     4  10  21  31  57  82 113 151 188 238 293 346
#
# _framework density 18.141327
#
# number of rings (size 3 to 8) (size 9 to 14) (size 15 to 20)
#    0.000    1.250    5.000    1.500    7.000    1.000 
#    0.000    0.000    0.000    1.500    0.000    0.000 
#    0.000    3.000    0.000    0.000    0.000    0.000 
#
# Total GULP energy -396725.244759 kJ/mol
# GULP energy per Si atom -12397.663899 kJ/mol
# Density = 1.810004 g / cm^3
# Si number density = 18.141327 Si / 1000 Ang^3
#
#
#
# Elastic Constant Matrix: (Units=GPa)
#
#
# Indices 1 2 3 4 5 6 
#
# 1 112.1187 34.3921 39.8580 -0.0016 -2.5343 -0.0007
# 2 34.3921 60.4252 25.4087 -0.0011 5.3367 -0.0007
# 3 39.8580 25.4087 123.2308 -0.0034 8.8197 -0.0016
# 4 -0.0016 -0.0011 -0.0034 19.1910 -0.0025 2.6328
# 5 -2.5343 5.3367 8.8197 -0.0025 35.3924 -0.0011
# 6 -0.0007 -0.0007 -0.0016 2.6328 -0.0011 19.3377
#
#
#
# Elastic Compliance Matrix: (Units=1/GPa)
#
#
# Indices 1 2 3 4 5 6 
#
# 1 0.011713 -0.005708 -0.002783 0.000000 0.002393 0.000000
# 2 -0.005708 0.021020 -0.002272 0.000000 -0.003012 0.000000
# 3 -0.002783 -0.002272 0.009645 0.000001 -0.002260 0.000000
# 4 0.000000 0.000000 0.000001 0.053100 0.000003 -0.007229
# 5 0.002393 -0.003012 -0.002260 0.000003 0.029443 0.000001
# 6 0.000000 0.000000 0.000000 -0.007229 0.000001 0.052697
#
#
# Mechanical properties :
#
#
# Convention : Reuss Voigt Hill
#
# Bulk Modulus (GPa) = 47.95708 55.01026 51.48367
# Shear Modulus (GPa) = 24.26063 27.85861 26.05962
#
# Velocity S-wave (km/s) = 3.66090 3.92298 3.79420
# Velocity P-wave (km/s) = 6.66050 7.13503 6.90184
#
# Compressibility (1/GPa) = 0.02085198
#
# Stress axis : x y z
#
# Youngs Moduli (GPa) = 85.37172 47.57437 103.67795
#
# Poissons Ratio (x) = 0.27156 0.28853
# Poissons Ratio (y) = 0.48731 0.23558
# Poissons Ratio (z) = 0.23759 0.10810
#
# Static dielectric constant tensor:
#      x y z
#    x 3.466980 0.000000 0.014890 
#    y 0.000000 3.117740 -0.000010 
#    z 0.014890 -0.000010 3.636760 
# 
# 
# High freq. dielectric constant tensor:
#      x y z
#    x 1.696330 0.000000 0.008430 
#    y 0.000000 1.669620 0.000000 
#    z 0.008430 0.000000 1.722510 
# 
# From -- ./inp_files/279115.got.cif
#   From: 2010.06.25/outbox.cif.g09.slc.cpg/sg12_140_cif.got.tgz:279115.got - 2010.06.28 00:19:55.
