data_PCOD8084444
_publ_section_title
;
Structure prediction by ZEFSAII (Michael W. Deem and Ramdas Pophale) SiO2 
 PCOD8084444
Probable space group: C 2/M
;
_chemical_formula_sum "Si O2"
_cell_formula_units_Z 44
_cell_length_a 8.604684
_cell_length_b 25.946986
_cell_length_c 14.878569
_cell_angle_alpha 90.000000
_cell_angle_beta 129.695720
_cell_angle_gamma 90.000000
_cell_volume 2556.006002
_symmetry_space_group_name_H-M "C 2/M"
_symmetry_group_IT_number 12
_symmetry_cell_setting 'monoclinic'
loop_
_space_group_symop_operation_xyz
x,y,z
-x,y,-z
-x,-y,-z
x,-y,z
1/2+x,1/2+y,z
1/2-x,1/2+y,-z
1/2-x,1/2-y,-z
1/2+x,1/2-y,z
loop_
_atom_site_type_symbol
_atom_site_label
_atom_site_fract_x
_atom_site_fract_y
_atom_site_fract_z
Si Si1 0.948960 0.500000 0.798774
Si Si2 0.000000 0.254449 0.000000
Si Si3 0.728175 0.411731 0.090784
Si Si4 0.852049 0.103418 0.738792
Si Si5 0.500000 0.913974 0.500000
Si Si6 0.178277 0.500000 0.450285
Si Si7 0.016980 0.000000 0.716256
Si Si8 0.849990 0.176489 0.078121
O O1 0.832120 0.500000 0.660735
O O2 0.761022 0.500000 0.798831
O O3 0.093534 0.451009 0.869265
O O4 0.188943 0.292186 0.075507
O O5 0.997159 0.218046 0.086066
O O6 0.756440 0.395616 0.204422
O O7 0.500000 0.435620 0.000000
O O8 0.745468 0.361923 0.032158
O O9 0.686844 0.120435 0.603130
O O10 0.946205 0.048316 0.748955
O O11 0.029131 0.145101 0.801929
O O12 0.558599 0.949558 0.437411
O O13 0.404863 0.500000 0.577000
#
# Coordination Sequence:
#
# PCOD8084444 Si02
#       8
#     4   4   8   8   4   4   4   8
#     4  12  20  31  50  74 114 143 165 220 246 285
#     4  10  20  38  58  78  96 132 166 220 262 308
#     4  10  20  35  50  76 104 141 174 202 249 315
#     4  10  18  36  52  77 105 139 174 207 243 315
#     4   9  16  30  56  72  96 144 180 204 240 293
#     4   9  17  31  47  71 101 147 187 199 232 296
#     4  10  23  30  48  77 112 141 173 207 252 286
#     4  10  21  36  57  79 100 129 172 211 263 310
#
# _framework density 17.214355999999999
#
# number of rings (size 3 to 8) (size 9 to 14) (size 15 to 20)
#    0.000    2.000    4.545    1.636    2.545    2.182 
#    0.000    3.636    0.000    1.091    0.000    0.000 
#    0.000    0.000    0.000    0.000    0.000    0.000 
#
# Total GULP energy -272615.421093 kJ/mol
# GULP energy per Si atom -12391.610050 kJ/mol
# Density = 1.717518 g / cm^3
# Si number density = 17.214356 Si / 1000 Ang^3
#
#
#
# Elastic Constant Matrix: (Units=GPa)
#
#
# Indices 1 2 3 4 5 6 
#
# 1 77.7251 42.3663 32.4490 0.0000 15.0001 0.0000
# 2 42.3663 108.0009 57.5150 0.0000 12.8794 0.0000
# 3 32.4490 57.5150 105.8650 0.0000 9.5658 0.0000
# 4 0.0000 0.0000 0.0000 5.5534 0.0000 8.5085
# 5 15.0001 12.8794 9.5658 0.0000 22.6436 0.0000
# 6 0.0000 0.0000 0.0000 8.5085 0.0000 58.5847
#
#
#
# Elastic Compliance Matrix: (Units=1/GPa)
#
#
# Indices 1 2 3 4 5 6 
#
# 1 0.018042 -0.004990 -0.002075 0.000000 -0.008237 0.000000
# 2 -0.004990 0.014886 -0.006333 0.000000 -0.002486 0.000000
# 3 -0.002075 -0.006333 0.013592 0.000000 -0.000765 0.000000
# 4 0.000000 0.000000 0.000000 0.231605 0.000000 -0.033637
# 5 -0.008237 -0.002486 -0.000765 0.000000 0.051356 0.000000
# 6 0.000000 0.000000 0.000000 -0.033637 0.000000 0.021955
#
#
# Mechanical properties :
#
#
# Convention : Reuss Voigt Hill
#
# Bulk Modulus (GPa) = 50.70147 61.80574 56.25361
# Shear Modulus (GPa) = 12.99359 27.97372 20.48365
#
# Velocity S-wave (km/s) = 2.75036 4.03553 3.45326
# Velocity P-wave (km/s) = 6.29309 7.59576 6.97490
#
# Compressibility (1/GPa) = 0.01972329
#
# Stress axis : x y z
#
# Youngs Moduli (GPa) = 55.42737 67.17808 73.57426
#
# Poissons Ratio (x) = 0.33524 0.15264
# Poissons Ratio (y) = 0.27660 0.46595
# Poissons Ratio (z) = 0.11499 0.42544
#
# Static dielectric constant tensor:
#      x y z
#    x 3.191190 0.000000 0.139850 
#    y 0.000000 3.181240 0.000000 
#    z 0.139850 0.000000 3.286490 
# 
# 
# High freq. dielectric constant tensor:
#      x y z
#    x 1.662130 0.000000 0.007530 
#    y 0.000000 1.645740 0.000000 
#    z 0.007530 0.000000 1.659970 
# 
# From -- ./inp_files/197924.got.cif
#   From: 2010.06.25/outbox.cif.g09.slc.cpg/sg12_99_cif.got.tgz:197924.got - 2010.06.28 00:19:55.
