data_PCOD8084877
_publ_section_title
;
Structure prediction by ZEFSAII (Michael W. Deem and Ramdas Pophale) SiO2 
 PCOD8084877
Probable space group: C 2/M
;
_chemical_formula_sum "Si O2"
_cell_formula_units_Z 56
_cell_length_a 19.345795
_cell_length_b 9.422773
_cell_length_c 24.650124
_cell_angle_alpha 90.000000
_cell_angle_beta 136.924948
_cell_angle_gamma 90.000000
_cell_volume 3068.859475
_symmetry_space_group_name_H-M "C 2/M"
_symmetry_group_IT_number 12
_symmetry_cell_setting 'monoclinic'
loop_
_space_group_symop_operation_xyz
x,y,z
-x,y,-z
-x,-y,-z
x,-y,z
1/2+x,1/2+y,z
1/2-x,1/2+y,-z
1/2-x,1/2-y,-z
1/2+x,1/2-y,z
loop_
_atom_site_type_symbol
_atom_site_label
_atom_site_fract_x
_atom_site_fract_y
_atom_site_fract_z
Si Si1 0.612628 0.668453 0.570381
Si Si2 0.279810 0.664759 0.171454
Si Si3 0.036972 0.665198 0.223658
Si Si4 0.672413 0.339226 0.488456
Si Si5 0.717955 0.168455 0.252364
Si Si6 0.487572 0.341319 0.688958
Si Si7 0.801981 0.667868 0.078390
O O1 0.500000 0.735386 0.500000
O O2 0.601776 0.500000 0.569541
O O3 0.670996 0.712526 0.549294
O O4 0.681677 0.729073 0.659256
O O5 0.257214 0.500000 0.143390
O O6 0.216254 0.714772 0.188058
O O7 0.395464 0.689074 0.253812
O O8 0.254547 0.766224 0.106265
O O9 0.054011 0.500000 0.243033
O O10 0.114052 0.721598 0.221385
O O11 0.062727 0.739007 0.295370
O O12 0.921507 0.699102 0.141066
O O13 0.709083 0.500000 0.506373
O O14 0.750000 0.250000 0.500000
O O15 0.561971 0.319854 0.398286
O O16 0.724086 0.000000 0.258659
O O17 0.470519 0.500000 0.701312
O O18 0.778664 0.500000 0.063198
O O19 0.750000 0.750000 0.000000
#
# Coordination Sequence:
#
# PCOD8084877 Si02
#       7
#     8   8   8   8   8   8   8
#     4   9  16  26  43  68  96 127 164 204 241 277
#     4   9  17  31  52  74  96 124 157 194 236 283
#     4   9  18  32  51  74  97 125 160 197 238 283
#     4  10  19  29  43  65  93 125 163 207 249 285
#     4   9  16  28  47  70  96 126 162 201 238 278
#     4   9  17  29  45  67  94 125 162 201 242 287
#     4  10  20  35  55  77 100 125 155 190 231 284
#
# _framework density 18.247820999999998
#
# number of rings (size 3 to 8) (size 9 to 14) (size 15 to 20)
#    0.000    2.714    0.000    2.143    0.000    5.714 
#    0.000    1.429    0.000    5.571    0.000    0.000 
#    0.000    0.000    0.000    0.000    0.000    0.000 
#
# Total GULP energy -347044.897084 kJ/mol
# GULP energy per Si atom -12394.460610 kJ/mol
# Density = 1.820629 g / cm^3
# Si number density = 18.247821 Si / 1000 Ang^3
#
#
#
# Elastic Constant Matrix: (Units=GPa)
#
#
# Indices 1 2 3 4 5 6 
#
# 1 107.5296 33.0312 33.1240 0.0000 -16.2464 0.0000
# 2 33.0312 48.3920 29.3334 0.0000 -11.0374 0.0000
# 3 33.1240 29.3334 80.3559 0.0000 -21.2713 0.0000
# 4 0.0000 0.0000 0.0000 21.8017 0.0000 -3.9201
# 5 -16.2464 -11.0374 -21.2713 0.0000 26.7039 0.0000
# 6 0.0000 0.0000 0.0000 -3.9201 0.0000 24.6168
#
#
#
# Elastic Compliance Matrix: (Units=1/GPa)
#
#
# Indices 1 2 3 4 5 6 
#
# 1 0.012392 -0.006593 -0.001808 0.000000 0.003374 0.000000
# 2 -0.006593 0.030407 -0.007751 0.000000 0.002382 0.000000
# 3 -0.001808 -0.007751 0.018856 0.000000 0.010716 0.000000
# 4 0.000000 0.000000 0.000000 0.047220 0.000000 0.007520
# 5 0.003374 0.002382 0.010716 0.000000 0.049021 0.000000
# 6 0.000000 0.000000 0.000000 0.007520 0.000000 0.041820
#
#
# Mechanical properties :
#
#
# Convention : Reuss Voigt Hill
#
# Bulk Modulus (GPa) = 34.07199 47.47274 40.77236
# Shear Modulus (GPa) = 20.67789 24.01040 22.34414
#
# Velocity S-wave (km/s) = 3.36991 3.63132 3.50306
# Velocity P-wave (km/s) = 5.81843 6.60712 6.22528
#
# Compressibility (1/GPa) = 0.02934963
#
# Stress axis : x y z
#
# Youngs Moduli (GPa) = 80.69938 32.88767 53.03226
#
# Poissons Ratio (x) = 0.21681 0.09591
# Poissons Ratio (y) = 0.53202 0.41108
# Poissons Ratio (z) = 0.14594 0.25493
#
# Static dielectric constant tensor:
#      x y z
#    x 3.598520 0.000000 -0.084810 
#    y 0.000000 3.120110 0.000000 
#    z -0.084810 0.000000 3.503290 
# 
# 
# High freq. dielectric constant tensor:
#      x y z
#    x 1.711490 0.000000 -0.006980 
#    y 0.000000 1.669160 0.000000 
#    z -0.006980 0.000000 1.704220 
# 
# From -- ./inp_files/342532.got.cif
#   From: 2010.06.25/outbox.cif.g09.slc.cpg/sg12_172_cif.got.tgz:342532.got - 2010.06.28 00:19:55.
