data_PCOD8084855
_publ_section_title
;
Structure prediction by ZEFSAII (Michael W. Deem and Ramdas Pophale) SiO2 
 PCOD8084855
Probable space group: C 2/M
;
_chemical_formula_sum "Si O2"
_cell_formula_units_Z 64
_cell_length_a 29.400267
_cell_length_b 14.227889
_cell_length_c 10.889916
_cell_angle_alpha 90.000000
_cell_angle_beta 126.738853
_cell_angle_gamma 90.000000
_cell_volume 3650.475707
_symmetry_space_group_name_H-M "C 2/M"
_symmetry_group_IT_number 12
_symmetry_cell_setting 'monoclinic'
loop_
_space_group_symop_operation_xyz
x,y,z
-x,y,-z
-x,-y,-z
x,-y,z
1/2+x,1/2+y,z
1/2-x,1/2+y,-z
1/2-x,1/2-y,-z
1/2+x,1/2-y,z
loop_
_atom_site_type_symbol
_atom_site_label
_atom_site_fract_x
_atom_site_fract_y
_atom_site_fract_z
Si Si1 0.187769 0.111009 0.906044
Si Si2 0.355839 0.283365 0.387547
Si Si3 0.796999 0.604739 0.226866
Si Si4 0.584199 0.609830 0.902565
Si Si5 0.939119 0.801858 0.878011
Si Si6 0.255537 0.395949 0.592103
Si Si7 0.042321 0.892067 0.345192
Si Si8 0.330550 0.243623 0.616057
O O1 0.179925 0.146907 0.755276
O O2 0.136094 0.152221 0.906257
O O3 0.183340 0.000000 0.899670
O O4 0.250332 0.141539 0.053427
O O5 0.350295 0.177371 0.320720
O O6 0.420429 0.320954 0.509888
O O7 0.324723 0.281674 0.468033
O O8 0.820235 0.500000 0.230969
O O9 0.763020 0.598270 0.298266
O O10 0.592609 0.500000 0.934844
O O11 0.524089 0.630510 0.737191
O O12 0.585573 0.653608 0.039220
O O13 0.945002 0.879829 0.779752
O O14 0.895466 0.721957 0.759509
O O15 0.000000 0.753336 0.000000
O O16 0.269455 0.500000 0.564112
O O17 0.309878 0.328617 0.669756
O O18 0.205636 0.351078 0.426800
O O19 0.056654 0.000000 0.403725
#
# Coordination Sequence:
#
# PCOD8084855 Si02
#       8
#     8   8   8   8   8   8   8   8
#     4  10  19  29  43  64  89 116 143 172 210 258
#     4  10  19  30  43  62  91 118 142 173 213 256
#     4   9  18  32  48  64  82 109 149 187 213 245
#     4   9  17  28  43  64  89 118 147 172 205 253
#     4   9  16  27  44  64  88 117 146 177 210 246
#     4   9  17  30  47  65  86 112 143 181 218 250
#     4   9  17  28  43  66  93 117 141 171 211 259
#     4   9  18  29  44  67  89 112 143 176 214 259
#
# _framework density 17.531960999999999
#
# number of rings (size 3 to 8) (size 9 to 14) (size 15 to 20)
#    0.000    2.750    0.000    1.875    0.000    6.000 
#    0.000    1.875    0.000    0.375    0.000    4.375 
#    0.000    0.000    0.000    0.000    0.000    0.000 
#
# Total GULP energy -396498.371254 kJ/mol
# GULP energy per Si atom -12390.574102 kJ/mol
# Density = 1.749206 g / cm^3
# Si number density = 17.531961 Si / 1000 Ang^3
#
#
#
# Elastic Constant Matrix: (Units=GPa)
#
#
# Indices 1 2 3 4 5 6 
#
# 1 38.8913 15.0280 29.8139 0.0000 15.2840 0.0000
# 2 15.0280 53.5474 38.2515 0.0000 15.5544 0.0000
# 3 29.8139 38.2515 100.0255 0.0000 23.4452 0.0000
# 4 0.0000 0.0000 0.0000 20.1894 0.0000 4.4118
# 5 15.2840 15.5544 23.4452 0.0000 26.3041 0.0000
# 6 0.0000 0.0000 0.0000 4.4118 0.0000 19.8272
#
#
#
# Elastic Compliance Matrix: (Units=1/GPa)
#
#
# Indices 1 2 3 4 5 6 
#
# 1 0.037495 -0.001018 -0.007358 0.000000 -0.014626 0.000000
# 2 -0.001018 0.027177 -0.008168 0.000000 -0.008199 0.000000
# 3 -0.007358 -0.008168 0.016661 0.000000 -0.005744 0.000000
# 4 0.000000 0.000000 0.000000 0.052062 0.000000 -0.011584
# 5 -0.014626 -0.008199 -0.005744 0.000000 0.056484 0.000000
# 6 0.000000 0.000000 0.000000 -0.011584 0.000000 0.053013
#
#
# Mechanical properties :
#
#
# Convention : Reuss Voigt Hill
#
# Bulk Modulus (GPa) = 20.72783 39.85013 30.28898
# Shear Modulus (GPa) = 17.11969 20.55553 18.83761
#
# Velocity S-wave (km/s) = 3.12827 3.42784 3.28147
# Velocity P-wave (km/s) = 4.98965 6.20049 5.62773
#
# Compressibility (1/GPa) = 0.04824431
#
# Stress axis : x y z
#
# Youngs Moduli (GPa) = 26.67041 36.79573 60.02162
#
# Poissons Ratio (x) = 0.03746 0.44166
# Poissons Ratio (y) = 0.02715 0.49024
# Poissons Ratio (z) = 0.19625 0.30054
#
# Static dielectric constant tensor:
#      x y z
#    x 3.276020 0.000000 0.175980 
#    y 0.000000 3.188500 0.000000 
#    z 0.175980 0.000000 3.394310 
# 
# 
# High freq. dielectric constant tensor:
#      x y z
#    x 1.662260 0.000000 0.009230 
#    y 0.000000 1.643570 0.000000 
#    z 0.009230 0.000000 1.687990 
# 
# From -- ./inp_files/111685.got.cif
#   From: 2010.06.25/outbox.cif.g09.slc.cpg/sg12_56_cif.got.tgz:111685.got - 2010.06.28 00:19:55.
