data_PCOD8084951
_publ_section_title
;
Structure prediction by ZEFSAII (Michael W. Deem and Ramdas Pophale) SiO2 
 PCOD8084951
Probable space group: C 2/M
;
_chemical_formula_sum "Si O2"
_cell_formula_units_Z 48
_cell_length_a 27.302417
_cell_length_b 9.373709
_cell_length_c 11.444198
_cell_angle_alpha 90.000000
_cell_angle_beta 78.527873
_cell_angle_gamma 90.000000
_cell_volume 2870.341452
_symmetry_space_group_name_H-M "C 2/M"
_symmetry_group_IT_number 12
_symmetry_cell_setting 'monoclinic'
loop_
_space_group_symop_operation_xyz
x,y,z
-x,y,-z
-x,-y,-z
x,-y,z
1/2+x,1/2+y,z
1/2-x,1/2+y,-z
1/2-x,1/2-y,-z
1/2+x,1/2-y,z
loop_
_atom_site_type_symbol
_atom_site_label
_atom_site_fract_x
_atom_site_fract_y
_atom_site_fract_z
Si Si1 0.219080 0.166070 0.353097
Si Si2 0.484531 0.157092 0.873116
Si Si3 0.677625 0.834670 0.576061
Si Si4 0.592934 0.167360 0.792315
Si Si5 0.894983 0.166035 0.976970
Si Si6 0.789997 0.165331 0.906832
O O1 0.275575 0.202420 0.363373
O O2 0.180064 0.247305 0.454819
O O3 0.211515 0.221089 0.225241
O O4 0.206954 0.000000 0.369819
O O5 0.535577 0.201739 0.781409
O O6 0.466248 0.000000 0.840650
O O7 0.500000 0.150963 0.000000
O O8 0.440238 0.270627 0.876646
O O9 0.627702 0.788373 0.667774
O O10 0.676928 0.000000 0.543118
O O11 0.609729 0.256108 0.897059
O O12 0.599144 0.000000 0.820472
O O13 0.905476 0.000000 0.993612
O O14 0.844836 0.193547 0.929744
O O15 0.775125 0.000000 0.919567
O O16 0.750000 0.250000 0.000000
#
# Coordination Sequence:
#
# PCOD8084951 Si02
#       6
#     8   8   8   8   8   8
#     4   9  18  32  47  65  92 121 147 181 228 272
#     4   8  15  28  45  65  90 121 153 185 226 272
#     4   9  17  30  49  69  88 114 150 190 225 263
#     4   9  17  30  48  69  93 121 153 187 227 273
#     4  10  19  29  44  69  97 121 150 188 226 268
#     4  10  21  34  48  68  94 124 154 184 222 271
#
# _framework density 16.722750000000001
#
# number of rings (size 3 to 8) (size 9 to 14) (size 15 to 20)
#    0.000    2.833    0.000    2.500    0.000    7.000 
#    0.000    3.333    0.000    1.000    0.000    7.000 
#    0.000    0.000    0.000    0.000    0.000    0.000 
#
# Total GULP energy -297560.122460 kJ/mol
# GULP energy per Si atom -12398.338436 kJ/mol
# Density = 1.668469 g / cm^3
# Si number density = 16.722750 Si / 1000 Ang^3
#
#
#
# Elastic Constant Matrix: (Units=GPa)
#
#
# Indices 1 2 3 4 5 6 
#
# 1 101.9685 57.0245 71.8496 0.0000 -23.7214 0.0000
# 2 57.0245 75.3409 61.2749 0.0000 -8.7844 0.0000
# 3 71.8496 61.2749 130.1571 0.0000 -19.7050 0.0000
# 4 0.0000 0.0000 0.0000 26.8072 0.0000 -4.9778
# 5 -23.7214 -8.7844 -19.7050 0.0000 32.0194 0.0000
# 6 0.0000 0.0000 0.0000 -4.9778 0.0000 26.4093
#
#
#
# Elastic Compliance Matrix: (Units=1/GPa)
#
#
# Indices 1 2 3 4 5 6 
#
# 1 0.022307 -0.011237 -0.005501 0.000000 0.010058 0.000000
# 2 -0.011237 0.027173 -0.007411 0.000000 -0.005431 0.000000
# 3 -0.005501 -0.007411 0.014649 0.000000 0.002906 0.000000
# 4 0.000000 0.000000 0.000000 0.038656 0.000000 0.007286
# 5 0.010058 -0.005431 0.002906 0.000000 0.038981 0.000000
# 6 0.000000 0.000000 0.000000 0.007286 0.000000 0.039239
#
#
# Mechanical properties :
#
#
# Convention : Reuss Voigt Hill
#
# Bulk Modulus (GPa) = 63.17388 76.41827 69.79607
# Shear Modulus (GPa) = 21.31461 24.86836 23.09148
#
# Velocity S-wave (km/s) = 3.57401 3.86047 3.72000
# Velocity P-wave (km/s) = 7.40882 8.10354 7.76396
#
# Compressibility (1/GPa) = 0.01582933
#
# Stress axis : x y z
#
# Youngs Moduli (GPa) = 44.82829 36.80161 68.26467
#
# Poissons Ratio (x) = 0.41355 0.37554
# Poissons Ratio (y) = 0.50375 0.50593
# Poissons Ratio (z) = 0.24661 0.27275
#
# Static dielectric constant tensor:
#      x y z
#    x 3.415410 0.000000 -0.314060 
#    y 0.000000 3.171280 0.000000 
#    z -0.314060 0.000000 3.104400 
# 
# 
# High freq. dielectric constant tensor:
#      x y z
#    x 1.642210 0.000000 -0.021100 
#    y 0.000000 1.644400 0.000000 
#    z -0.021100 0.000000 1.623960 
# 
# From -- ./inp_files/172431.got.cif
#   From: 2010.06.25/outbox.cif.g09.slc.cpg/sg12_87_cif.got.tgz:172431.got - 2010.06.28 00:19:55.
