data_PCOD8084981
_publ_section_title
;
Structure prediction by ZEFSAII (Michael W. Deem and Ramdas Pophale) SiO2 
 PCOD8084981
Probable space group: C 2/M
;
_chemical_formula_sum "Si O2"
_cell_formula_units_Z 56
_cell_length_a 32.078077
_cell_length_b 8.942647
_cell_length_c 13.591303
_cell_angle_alpha 90.000000
_cell_angle_beta 63.923099
_cell_angle_gamma 90.000000
_cell_volume 3501.957825
_symmetry_space_group_name_H-M "C 2/M"
_symmetry_group_IT_number 12
_symmetry_cell_setting 'monoclinic'
loop_
_space_group_symop_operation_xyz
x,y,z
-x,y,-z
-x,-y,-z
x,-y,z
1/2+x,1/2+y,z
1/2-x,1/2+y,-z
1/2-x,1/2-y,-z
1/2+x,1/2-y,z
loop_
_atom_site_type_symbol
_atom_site_label
_atom_site_fract_x
_atom_site_fract_y
_atom_site_fract_z
Si Si1 0.003788 0.335616 0.379753
Si Si2 0.262698 0.172070 0.130022
Si Si3 0.678366 0.326806 0.537320
Si Si4 0.725168 0.828043 0.661085
Si Si5 0.679434 0.826861 0.118567
Si Si6 0.595148 0.324038 0.298413
Si Si7 0.597751 0.823204 0.506166
O O1 0.015697 0.500000 0.323903
O O2 0.953006 0.280629 0.396198
O O3 0.000000 0.347645 0.500000
O O4 0.044530 0.221340 0.308525
O O5 0.282665 0.210171 0.216603
O O6 0.218603 0.275750 0.154932
O O7 0.246019 0.000000 0.141396
O O8 0.303508 0.204080 0.010063
O O9 0.664728 0.500000 0.551892
O O10 0.690667 0.276190 0.635097
O O11 0.721535 0.293209 0.421052
O O12 0.635025 0.231534 0.545733
O O13 0.713512 0.000000 0.648992
O O14 0.632910 0.732211 0.181206
O O15 0.668754 0.000000 0.148562
O O16 0.597612 0.500000 0.306486
O O17 0.606401 0.253566 0.392369
O O18 0.601562 0.000000 0.485921
#
# Coordination Sequence:
#
# PCOD8084981 Si02
#       7
#     8   8   8   8   8   8   8
#     4   8  16  30  45  63  88 117 148 181 220 266
#     4   9  18  32  48  66  89 119 155 192 224 258
#     4  10  19  29  45  69  93 118 149 183 220 265
#     4   9  18  32  46  62  89 121 152 186 220 257
#     4  10  19  30  46  67  91 120 153 187 225 267
#     4  11  20  29  44  66  93 122 151 184 221 265
#     4  10  19  31  47  66  91 121 150 183 223 266
#
# _framework density 15.991054999999999
#
# number of rings (size 3 to 8) (size 9 to 14) (size 15 to 20)
#    0.000    2.429    0.000    4.286    0.000    6.000 
#    0.000    0.000    0.000    0.000    0.000    1.000 
#    0.000    8.000    0.000    0.000    0.000    0.000 
#
# Total GULP energy -347205.908569 kJ/mol
# GULP energy per Si atom -12400.211020 kJ/mol
# Density = 1.595466 g / cm^3
# Si number density = 15.991055 Si / 1000 Ang^3
#
#
#
# Elastic Constant Matrix: (Units=GPa)
#
#
# Indices 1 2 3 4 5 6 
#
# 1 105.4876 54.0497 49.3995 0.0000 -10.3268 0.0000
# 2 54.0497 96.4469 43.0211 0.0000 -10.2050 0.0000
# 3 49.3995 43.0211 78.1277 0.0000 -3.2957 0.0000
# 4 0.0000 0.0000 0.0000 20.4221 0.0000 -0.9002
# 5 -10.3268 -10.2050 -3.2957 0.0000 23.3285 0.0000
# 6 0.0000 0.0000 0.0000 -0.9002 0.0000 28.8673
#
#
#
# Elastic Compliance Matrix: (Units=1/GPa)
#
#
# Indices 1 2 3 4 5 6 
#
# 1 0.015834 -0.005420 -0.006873 0.000000 0.003667 0.000000
# 2 -0.005420 0.016198 -0.005326 0.000000 0.003934 0.000000
# 3 -0.006873 -0.005326 0.019971 0.000000 -0.002551 0.000000
# 4 0.000000 0.000000 0.000000 0.049034 0.000000 0.001529
# 5 0.003667 0.003934 -0.002551 0.000000 0.045850 0.000000
# 6 0.000000 0.000000 0.000000 0.001529 0.000000 0.034689
#
#
# Mechanical properties :
#
#
# Convention : Reuss Voigt Hill
#
# Bulk Modulus (GPa) = 59.64972 63.66696 61.65834
# Shear Modulus (GPa) = 22.48177 23.42972 22.95574
#
# Velocity S-wave (km/s) = 3.75360 3.83191 3.79296
# Velocity P-wave (km/s) = 7.49459 7.71224 7.60419
#
# Compressibility (1/GPa) = 0.01676454
#
# Stress axis : x y z
#
# Youngs Moduli (GPa) = 63.15359 61.73594 50.07382
#
# Poissons Ratio (x) = 0.33461 0.34414
# Poissons Ratio (y) = 0.34230 0.26672
# Poissons Ratio (z) = 0.43404 0.32883
#
# Static dielectric constant tensor:
#      x y z
#    x 3.119100 0.000000 -0.177980 
#    y 0.000000 3.115340 0.000000 
#    z -0.177980 0.000000 2.924100 
# 
# 
# High freq. dielectric constant tensor:
#      x y z
#    x 1.604370 0.000000 -0.012380 
#    y 0.000000 1.625390 0.000000 
#    z -0.012380 0.000000 1.588030 
# 
# From -- ./inp_files/248160.got.cif
#   From: 2010.06.25/outbox.cif.g09.slc.cpg/sg12_125_cif.got.tgz:248160.got - 2010.06.28 00:19:55.
