data_PCOD8084800
_publ_section_title
;
Structure prediction by ZEFSAII (Michael W. Deem and Ramdas Pophale) SiO2 
 PCOD8084800
Probable space group: C 2/M
;
_chemical_formula_sum "Si O2"
_cell_formula_units_Z 64
_cell_length_a 25.092847
_cell_length_b 9.230942
_cell_length_c 17.895699
_cell_angle_alpha 90.000000
_cell_angle_beta 89.439948
_cell_angle_gamma 90.000000
_cell_volume 4144.993744
_symmetry_space_group_name_H-M "C 2/M"
_symmetry_group_IT_number 12
_symmetry_cell_setting 'monoclinic'
loop_
_space_group_symop_operation_xyz
x,y,z
-x,y,-z
-x,-y,-z
x,-y,z
1/2+x,1/2+y,z
1/2-x,1/2+y,-z
1/2-x,1/2-y,-z
1/2+x,1/2-y,z
loop_
_atom_site_type_symbol
_atom_site_label
_atom_site_fract_x
_atom_site_fract_y
_atom_site_fract_z
Si Si1 0.612987 0.169685 0.426200
Si Si2 0.312618 0.664855 0.849040
Si Si3 0.807151 0.330356 0.704130
Si Si4 0.604947 0.671606 0.580607
Si Si5 0.185629 0.339655 0.848035
Si Si6 0.305685 0.170931 0.990209
Si Si7 0.685122 0.669021 0.706671
Si Si8 0.497329 0.840688 0.411393
O O1 0.660605 0.211991 0.370349
O O2 0.620766 0.260487 0.501294
O O3 0.556830 0.208030 0.385464
O O4 0.613774 0.000000 0.447394
O O5 0.333686 0.500000 0.851212
O O6 0.332208 0.741815 0.772857
O O7 0.249143 0.672013 0.852455
O O8 0.336203 0.753834 0.920048
O O9 0.811963 0.500000 0.722571
O O10 0.746002 0.284395 0.690347
O O11 0.602396 0.500000 0.572101
O O12 0.649614 0.723894 0.638417
O O13 0.547785 0.726798 0.612429
O O14 0.168506 0.500000 0.823722
O O15 0.163201 0.233561 0.785000
O O16 0.162474 0.305465 0.931632
O O17 0.297005 0.000000 0.974774
O O18 0.250000 0.250000 0.000000
O O19 0.679411 0.500000 0.716084
O O20 0.500000 0.849080 0.500000
O O21 0.483178 0.000000 0.378937
#
# Coordination Sequence:
#
# PCOD8084800 Si02
#       8
#     8   8   8   8   8   8   8   8
#     4   9  18  31  46  62  79 104 139 173 207 246
#     4   9  16  25  37  56  80 106 137 169 201 240
#     4   9  17  30  44  57  80 113 141 168 203 240
#     4  10  19  29  42  62  84 106 135 170 207 246
#     4   8  15  25  37  54  76 104 138 170 198 232
#     4   9  15  23  36  55  77 103 137 172 204 239
#     4   9  18  29  40  57  83 112 139 166 200 243
#     4   8  15  29  46  62  78  98 130 171 210 247
#
# _framework density 15.440313
#
# number of rings (size 3 to 8) (size 9 to 14) (size 15 to 20)
#    0.000    3.125    0.000    2.625    0.000    7.750 
#    0.000    0.000    0.000    0.000    0.000    0.000 
#    0.000    1.000    0.000   11.250    0.000    8.250 
#
# Total GULP energy -396542.335048 kJ/mol
# GULP energy per Si atom -12391.947970 kJ/mol
# Density = 1.540517 g / cm^3
# Si number density = 15.440313 Si / 1000 Ang^3
#
#
#
# Elastic Constant Matrix: (Units=GPa)
#
#
# Indices 1 2 3 4 5 6 
#
# 1 58.2280 33.3792 48.2127 0.0000 3.6495 0.0000
# 2 33.3792 75.3251 58.1005 0.0000 6.6901 0.0000
# 3 48.2127 58.1005 109.3927 0.0000 12.9090 0.0000
# 4 0.0000 0.0000 0.0000 27.9067 0.0000 2.7761
# 5 3.6495 6.6901 12.9090 0.0000 3.0778 0.0000
# 6 0.0000 0.0000 0.0000 2.7761 0.0000 16.5381
#
#
#
# Elastic Compliance Matrix: (Units=1/GPa)
#
#
# Indices 1 2 3 4 5 6 
#
# 1 0.030286 -0.005147 -0.015239 0.000000 0.039193 0.000000
# 2 -0.005147 0.023373 -0.009643 0.000000 -0.004257 0.000000
# 3 -0.015239 -0.009643 0.032419 0.000000 -0.096943 0.000000
# 4 0.000000 0.000000 0.000000 0.036442 0.000000 -0.006117
# 5 0.039193 -0.004257 -0.096943 0.000000 0.694291 0.000000
# 6 0.000000 0.000000 0.000000 -0.006117 0.000000 0.061493
#
#
# Mechanical properties :
#
#
# Convention : Reuss Voigt Hill
#
# Bulk Modulus (GPa) = 38.43312 58.03672 48.23492
# Shear Modulus (GPa) = 5.27963 16.38809 10.83386
#
# Velocity S-wave (km/s) = 1.85116 3.26142 2.65176
# Velocity P-wave (km/s) = 5.43273 7.20083 6.37834
#
# Compressibility (1/GPa) = 0.02601923
#
# Stress axis : x y z
#
# Youngs Moduli (GPa) = 33.01843 42.78532 30.84616
#
# Poissons Ratio (x) = 0.22023 0.47007
# Poissons Ratio (y) = 0.16996 0.29744
# Poissons Ratio (z) = 0.50317 0.41256
#
# Static dielectric constant tensor:
#      x y z
#    x 2.864560 0.000000 0.004750 
#    y 0.000000 3.032740 0.000000 
#    z 0.004750 0.000000 3.236140 
# 
# 
# High freq. dielectric constant tensor:
#      x y z
#    x 1.540650 0.000000 0.003970 
#    y 0.000000 1.600010 0.000000 
#    z 0.003970 0.000000 1.589080 
# 
# From -- ./inp_files/287561.got.cif
#   From: 2010.06.25/outbox.cif.g09.slc.cpg/sg12_144_cif.got.tgz:287561.got - 2010.06.28 00:19:55.
