data_PCOD8084968
_publ_section_title
;
Structure prediction by ZEFSAII (Michael W. Deem and Ramdas Pophale) SiO2 
 PCOD8084968
Probable space group: C 2/M
;
_chemical_formula_sum "Si O2"
_cell_formula_units_Z 56
_cell_length_a 20.585152
_cell_length_b 13.873814
_cell_length_c 10.294474
_cell_angle_alpha 90.000000
_cell_angle_beta 85.339937
_cell_angle_gamma 90.000000
_cell_volume 2930.326844
_symmetry_space_group_name_H-M "C 2/M"
_symmetry_group_IT_number 12
_symmetry_cell_setting 'monoclinic'
loop_
_space_group_symop_operation_xyz
x,y,z
-x,y,-z
-x,-y,-z
x,-y,z
1/2+x,1/2+y,z
1/2-x,1/2+y,-z
1/2-x,1/2-y,-z
1/2+x,1/2-y,z
loop_
_atom_site_type_symbol
_atom_site_label
_atom_site_fract_x
_atom_site_fract_y
_atom_site_fract_z
Si Si1 0.316749 0.797503 0.636105
Si Si2 0.461113 0.775535 0.139818
Si Si3 0.430853 0.108634 0.749146
Si Si4 0.793782 0.111275 0.495617
Si Si5 0.355582 0.106042 0.032744
Si Si6 0.246355 0.888504 0.878531
Si Si7 0.619146 0.607285 0.772374
O O1 0.390312 0.837164 0.642721
O O2 0.280262 0.857455 0.528010
O O3 0.319388 0.683042 0.603986
O O4 0.277152 0.812458 0.774583
O O5 0.501001 0.836945 0.238051
O O6 0.444771 0.672976 0.205986
O O7 0.500000 0.762749 0.000000
O O8 0.390183 0.823279 0.127682
O O9 0.391015 0.108285 0.888590
O O10 0.446220 0.000000 0.701313
O O11 0.840292 0.126380 0.364484
O O12 0.794652 0.000000 0.543452
O O13 0.279133 0.132042 0.015285
O O14 0.360926 0.000000 0.093718
O O15 0.168015 0.876183 0.888558
O O16 0.263266 0.000000 0.833186
O O17 0.590970 0.500000 0.778139
#
# Coordination Sequence:
#
# PCOD8084968 Si02
#       7
#     8   8   8   8   8   8   8
#     4   9  15  27  51  74  91 113 145 182 226 275
#     4  10  19  29  45  67  90 122 159 190 223 261
#     4   9  16  28  47  70  94 118 147 182 223 276
#     4   9  17  30  50  73  92 115 150 188 228 274
#     4   8  14  26  46  70  91 112 144 186 229 274
#     4   8  14  27  49  73  93 117 150 185 226 276
#     4   9  18  32  46  62  89 123 158 194 227 265
#
# _framework density 19.110496000000001
#
# number of rings (size 3 to 8) (size 9 to 14) (size 15 to 20)
#    0.000    3.143    0.000    3.429    0.000    2.571 
#    0.000    1.429    0.000   26.571    0.000    0.000 
#    0.000    0.000    0.000    0.000    0.000    0.000 
#
# Total GULP energy -346949.496894 kJ/mol
# GULP energy per Si atom -12391.053461 kJ/mol
# Density = 1.906700 g / cm^3
# Si number density = 19.110496 Si / 1000 Ang^3
#
#
#
# Elastic Constant Matrix: (Units=GPa)
#
#
# Indices 1 2 3 4 5 6 
#
# 1 72.2996 65.5136 30.8667 0.0000 26.6201 0.0000
# 2 65.5136 154.7044 45.8354 0.0000 23.2495 0.0000
# 3 30.8667 45.8354 39.7368 0.0000 22.0262 0.0000
# 4 0.0000 0.0000 0.0000 22.2575 0.0000 4.5606
# 5 26.6201 23.2495 22.0262 0.0000 23.7059 0.0000
# 6 0.0000 0.0000 0.0000 4.5606 0.0000 34.8629
#
#
#
# Elastic Compliance Matrix: (Units=1/GPa)
#
#
# Indices 1 2 3 4 5 6 
#
# 1 0.032731 -0.010228 0.002445 0.000000 -0.028996 0.000000
# 2 -0.010228 0.013055 -0.013161 0.000000 0.010910 0.000000
# 3 0.002445 -0.013161 0.067663 0.000000 -0.052706 0.000000
# 4 0.000000 0.000000 0.000000 0.046166 0.000000 -0.006039
# 5 -0.028996 0.010910 -0.052706 0.000000 0.113014 0.000000
# 6 0.000000 0.000000 0.000000 -0.006039 0.000000 0.029474
#
#
# Mechanical properties :
#
#
# Convention : Reuss Voigt Hill
#
# Bulk Modulus (GPa) = 13.97426 61.24135 37.60781
# Shear Modulus (GPa) = 13.59266 24.46693 19.02980
#
# Velocity S-wave (km/s) = 2.66985 3.58199 3.15902
# Velocity P-wave (km/s) = 4.10273 7.01591 5.74697
#
# Compressibility (1/GPa) = 0.07156014
#
# Stress axis : x y z
#
# Youngs Moduli (GPa) = 30.55182 76.59960 14.77917
#
# Poissons Ratio (x) = 0.78343 -0.03613
# Poissons Ratio (y) = 0.31247 0.19451
# Poissons Ratio (z) = -0.07469 1.00816
#
# Static dielectric constant tensor:
#      x y z
#    x 3.514670 0.000000 0.484440 
#    y 0.000000 3.567180 0.000000 
#    z 0.484440 0.000000 3.130130 
# 
# 
# High freq. dielectric constant tensor:
#      x y z
#    x 1.726140 0.000000 0.033970 
#    y 0.000000 1.750540 0.000000 
#    z 0.033970 0.000000 1.696000 
# 
# From -- ./inp_files/173969.got.cif
#   From: 2010.06.25/outbox.cif.g09.slc.cpg/sg12_87_cif.got.tgz:173969.got - 2010.06.28 00:19:55.
