data_PCOD8084973
_publ_section_title
;
Structure prediction by ZEFSAII (Michael W. Deem and Ramdas Pophale) SiO2 
 PCOD8084973
Probable space group: C 2/M
;
_chemical_formula_sum "Si O2"
_cell_formula_units_Z 48
_cell_length_a 22.590955
_cell_length_b 9.242820
_cell_length_c 15.671770
_cell_angle_alpha 90.000000
_cell_angle_beta 60.559742
_cell_angle_gamma 90.000000
_cell_volume 2849.769946
_symmetry_space_group_name_H-M "C 2/M"
_symmetry_group_IT_number 12
_symmetry_cell_setting 'monoclinic'
loop_
_space_group_symop_operation_xyz
x,y,z
-x,y,-z
-x,-y,-z
x,-y,z
1/2+x,1/2+y,z
1/2-x,1/2+y,-z
1/2-x,1/2-y,-z
1/2+x,1/2-y,z
loop_
_atom_site_type_symbol
_atom_site_label
_atom_site_fract_x
_atom_site_fract_y
_atom_site_fract_z
Si Si1 0.233887 0.335963 0.308632
Si Si2 0.497088 0.671124 0.906649
Si Si3 0.622493 0.330378 0.707134
Si Si4 0.182657 0.667524 0.522198
Si Si5 0.651333 0.668217 0.037707
Si Si6 0.237291 0.168804 0.139628
O O1 0.234392 0.500000 0.274037
O O2 0.308706 0.295687 0.290215
O O3 0.176904 0.318253 0.423457
O O4 0.212669 0.230438 0.247401
O O5 0.504282 0.500000 0.907215
O O6 0.559590 0.730945 0.806590
O O7 0.426909 0.717087 0.911184
O O8 0.500000 0.737120 0.000000
O O9 0.615872 0.500000 0.691617
O O10 0.621428 0.244235 0.617358
O O11 0.187985 0.500000 0.545204
O O12 0.250000 0.750000 0.500000
O O13 0.659749 0.500000 0.008748
O O14 0.678346 0.703176 0.113051
O O15 0.692715 0.755984 0.937501
O O16 0.251180 0.000000 0.138322
#
# Coordination Sequence:
#
# PCOD8084973 Si02
#       6
#     8   8   8   8   8   8
#     4   9  17  29  46  67  90 117 149 182 220 268
#     4   9  16  28  48  69  89 117 150 180 216 268
#     4   9  17  29  47  70  92 117 149 185 226 267
#     4   9  17  29  45  66  92 120 149 184 226 267
#     4   9  18  32  47  65  91 120 150 183 221 267
#     4  10  19  29  45  68  91 117 150 188 224 258
#
# _framework density 16.843464000000001
#
# number of rings (size 3 to 8) (size 9 to 14) (size 15 to 20)
#    0.000    2.833    0.000    3.000    0.000    6.667 
#    0.000    0.833    0.000    3.000    0.000    7.000 
#    0.000    0.000    0.000    0.000    0.000    0.000 
#
# Total GULP energy -297521.360526 kJ/mol
# GULP energy per Si atom -12396.723355 kJ/mol
# Density = 1.680513 g / cm^3
# Si number density = 16.843464 Si / 1000 Ang^3
#
#
#
# Elastic Constant Matrix: (Units=GPa)
#
#
# Indices 1 2 3 4 5 6 
#
# 1 70.0767 26.3360 55.4926 0.0000 -6.1483 0.0000
# 2 26.3360 65.6097 56.1641 0.0000 5.1749 0.0000
# 3 55.4926 56.1641 155.5661 0.0000 -6.2237 0.0000
# 4 0.0000 0.0000 0.0000 34.6066 0.0000 2.4017
# 5 -6.1483 5.1749 -6.2237 0.0000 23.0842 0.0000
# 6 0.0000 0.0000 0.0000 2.4017 0.0000 17.1486
#
#
#
# Elastic Compliance Matrix: (Units=1/GPa)
#
#
# Indices 1 2 3 4 5 6 
#
# 1 0.020718 -0.003658 -0.005879 0.000000 0.004753 0.000000
# 2 -0.003658 0.023945 -0.007676 0.000000 -0.008412 0.000000
# 3 -0.005879 -0.007676 0.011426 0.000000 0.003236 0.000000
# 4 0.000000 0.000000 0.000000 0.029180 0.000000 -0.004087
# 5 0.004753 -0.008412 0.003236 0.000000 0.047344 0.000000
# 6 0.000000 0.000000 0.000000 -0.004087 0.000000 0.058886
#
#
# Mechanical properties :
#
#
# Convention : Reuss Voigt Hill
#
# Bulk Modulus (GPa) = 46.16619 63.02642 54.59630
# Shear Modulus (GPa) = 21.44574 25.18521 23.31547
#
# Velocity S-wave (km/s) = 3.57212 3.87104 3.72458
# Velocity P-wave (km/s) = 6.66947 7.58156 7.14010
#
# Compressibility (1/GPa) = 0.02166087
#
# Stress axis : x y z
#
# Youngs Moduli (GPa) = 48.26792 41.76277 87.51729
#
# Poissons Ratio (x) = 0.15277 0.51456
# Poissons Ratio (y) = 0.17656 0.67182
# Poissons Ratio (z) = 0.28379 0.32059
#
# Static dielectric constant tensor:
#      x y z
#    x 2.940050 0.000000 -0.042040 
#    y 0.000000 3.105250 0.000000 
#    z -0.042040 0.000000 3.645240 
# 
# 
# High freq. dielectric constant tensor:
#      x y z
#    x 1.612760 0.000000 0.003300 
#    y 0.000000 1.637920 0.000000 
#    z 0.003300 0.000000 1.661470 
# 
# From -- ./inp_files/229918.got.cif
#   From: 2010.06.25/outbox.cif.g09.slc.cpg/sg12_115_cif.got.tgz:229918.got - 2010.06.28 00:19:55.
