data_PCOD8084596
_publ_section_title
;
Structure prediction by ZEFSAII (Michael W. Deem and Ramdas Pophale) SiO2 
 PCOD8084596
Probable space group: C 2/M
;
_chemical_formula_sum "Si O2"
_cell_formula_units_Z 36
_cell_length_a 11.027628
_cell_length_b 24.508527
_cell_length_c 6.756273
_cell_angle_alpha 90.000000
_cell_angle_beta 115.826382
_cell_angle_gamma 90.000000
_cell_volume 1643.637668
_symmetry_space_group_name_H-M "C 2/M"
_symmetry_group_IT_number 12
_symmetry_cell_setting 'monoclinic'
loop_
_space_group_symop_operation_xyz
x,y,z
-x,y,-z
-x,-y,-z
x,-y,z
1/2+x,1/2+y,z
1/2-x,1/2+y,-z
1/2-x,1/2-y,-z
1/2+x,1/2-y,z
loop_
_atom_site_type_symbol
_atom_site_label
_atom_site_fract_x
_atom_site_fract_y
_atom_site_fract_z
Si Si1 0.368329 0.438092 0.024470
Si Si2 0.141210 0.705512 0.872385
Si Si3 0.736078 0.641334 0.723254
Si Si4 0.343921 0.108379 0.394280
Si Si5 0.000000 0.777216 0.500000
O O1 0.387411 0.500000 0.112386
O O2 0.349483 0.399388 0.199942
O O3 0.500000 0.417475 0.000000
O O4 0.240196 0.436294 0.786934
O O5 0.185726 0.667803 0.719732
O O6 0.007927 0.738270 0.704099
O O7 0.250000 0.750000 0.000000
O O8 0.135756 0.667447 0.065149
O O9 0.798010 0.607587 0.588550
O O10 0.634370 0.687481 0.571329
O O11 0.500000 0.092139 0.500000
#
# Coordination Sequence:
#
# PCOD8084596 Si02
#       5
#     8   8   8   8   4
#     4  10  23  44  69  96 123 157 210 271 326 385
#     4   9  20  37  55  89 123 169 214 255 303 369
#     4  10  22  39  63  91 128 169 209 260 320 376
#     4  11  23  42  60  93 133 169 212 263 311 378
#     4  10  18  38  61  90 121 170 214 260 306 366
#
# _framework density 21.902636000000001
#
# number of rings (size 3 to 8) (size 9 to 14) (size 15 to 20)
#    0.000    2.000    1.111    1.333    0.000    8.444 
#    4.000    6.111    0.000    0.000    0.000    0.000 
#    0.000    0.000    0.000    0.000    0.000    0.000 
#
# Total GULP energy -223069.543246 kJ/mol
# GULP energy per Si atom -12392.752403 kJ/mol
# Density = 2.185278 g / cm^3
# Si number density = 21.902636 Si / 1000 Ang^3
#
#
#
# Elastic Constant Matrix: (Units=GPa)
#
#
# Indices 1 2 3 4 5 6 
#
# 1 105.5396 25.3402 45.7640 0.0000 2.8879 0.0000
# 2 25.3402 78.9330 32.1179 0.0000 1.1703 0.0000
# 3 45.7640 32.1179 114.0068 0.0000 5.6138 0.0000
# 4 0.0000 0.0000 0.0000 26.1015 0.0000 10.2520
# 5 2.8879 1.1703 5.6138 0.0000 42.6212 0.0000
# 6 0.0000 0.0000 0.0000 10.2520 0.0000 15.7304
#
#
#
# Elastic Compliance Matrix: (Units=1/GPa)
#
#
# Indices 1 2 3 4 5 6 
#
# 1 0.011773 -0.002098 -0.004125 0.000000 -0.000197 0.000000
# 2 -0.002098 0.014684 -0.003303 0.000000 0.000174 0.000000
# 3 -0.004125 -0.003303 0.011414 0.000000 -0.001133 0.000000
# 4 0.000000 0.000000 0.000000 0.051493 0.000000 -0.033560
# 5 -0.000197 0.000174 -0.001133 0.000000 0.023620 0.000000
# 6 0.000000 0.000000 0.000000 -0.033560 0.000000 0.085443
#
#
# Mechanical properties :
#
#
# Convention : Reuss Voigt Hill
#
# Bulk Modulus (GPa) = 53.14067 56.10262 54.62164
# Shear Modulus (GPa) = 22.34610 29.90777 26.12694
#
# Velocity S-wave (km/s) = 3.19760 3.69926 3.45754
# Velocity P-wave (km/s) = 6.16017 6.62693 6.39781
#
# Compressibility (1/GPa) = 0.01881798
#
# Stress axis : x y z
#
# Youngs Moduli (GPa) = 84.94035 68.10130 87.61457
#
# Poissons Ratio (x) = 0.14288 0.36142
# Poissons Ratio (y) = 0.17821 0.28940
# Poissons Ratio (z) = 0.35039 0.22495
#
# Static dielectric constant tensor:
#      x y z
#    x 3.855980 0.000000 0.403290 
#    y 0.000000 3.871800 0.000000 
#    z 0.403290 0.000000 4.578570 
# 
# 
# High freq. dielectric constant tensor:
#      x y z
#    x 1.837200 0.000000 0.017460 
#    y 0.000000 1.852840 0.000000 
#    z 0.017460 0.000000 1.883850 
# 
# From -- ./inp_files/7801.got.cif
#   From: 2010.06.25/outbox.cif.g09.slc.cpg/sg12_4_cif.got.tgz:7801.got - 2010.06.28 00:19:55.
