data_PCOD8084505
_publ_section_title
;
Structure prediction by ZEFSAII (Michael W. Deem and Ramdas Pophale) SiO2 
 PCOD8084505
Probable space group: C 2/M
;
_chemical_formula_sum "Si O2"
_cell_formula_units_Z 48
_cell_length_a 16.447832
_cell_length_b 17.818005
_cell_length_c 22.094096
_cell_angle_alpha 90.000000
_cell_angle_beta 159.033673
_cell_angle_gamma 90.000000
_cell_volume 2316.901853
_symmetry_space_group_name_H-M "C 2/M"
_symmetry_group_IT_number 12
_symmetry_cell_setting 'monoclinic'
loop_
_space_group_symop_operation_xyz
x,y,z
-x,y,-z
-x,-y,-z
x,-y,z
1/2+x,1/2+y,z
1/2-x,1/2+y,-z
1/2-x,1/2-y,-z
1/2+x,1/2-y,z
loop_
_atom_site_type_symbol
_atom_site_label
_atom_site_fract_x
_atom_site_fract_y
_atom_site_fract_z
Si Si1 0.775070 0.916468 0.303749
Si Si2 0.576519 0.814379 0.620518
Si Si3 0.022109 0.321281 0.217776
Si Si4 0.984386 0.838228 0.135155
Si Si5 0.949391 0.833864 0.595153
Si Si6 0.317510 0.414108 0.621203
O O1 0.577689 0.864418 0.193855
O O2 0.000000 0.912930 0.500000
O O3 0.851052 0.887010 0.291229
O O4 0.676512 0.000000 0.229656
O O5 0.500000 0.784529 0.500000
O O6 0.528295 0.751665 0.638176
O O7 0.441282 0.889333 0.544600
O O8 0.844653 0.834332 0.803402
O O9 0.201831 0.346365 0.393259
O O10 0.026289 0.233212 0.207919
O O11 0.771798 0.344548 0.067279
O O12 0.040827 0.908686 0.217834
O O13 0.928008 0.856165 0.650075
O O14 0.318931 0.500000 0.598688
#
# Coordination Sequence:
#
# PCOD8084505 Si02
#       6
#     8   8   8   8   8   8
#     4   9  17  30  54  84 113 143 184 234 281 334
#     4  10  18  36  61  84 108 152 198 237 275 335
#     4  10  19  35  60  87 113 149 195 236 282 338
#     4  10  21  37  59  85 116 150 193 236 282 341
#     4  11  18  36  61  85 113 148 194 241 282 336
#     4  11  24  37  57  87 119 154 188 233 291 347
#
# _framework density 20.717321999999999
#
# number of rings (size 3 to 8) (size 9 to 14) (size 15 to 20)
#    0.000    1.833    5.000    1.500    0.000    4.333 
#    0.000    1.667    0.000    3.000    0.000    0.000 
#    0.000    0.000    0.000    0.000    0.000    0.000 
#
# Total GULP energy -297524.853527 kJ/mol
# GULP energy per Si atom -12396.868897 kJ/mol
# Density = 2.067017 g / cm^3
# Si number density = 20.717322 Si / 1000 Ang^3
#
#
#
# Elastic Constant Matrix: (Units=GPa)
#
#
# Indices 1 2 3 4 5 6 
#
# 1 94.5459 33.0823 35.0786 0.0006 23.8944 0.0014
# 2 33.0823 94.3117 15.7702 0.0175 4.1798 0.0033
# 3 35.0786 15.7702 71.4142 0.1265 31.4468 0.0185
# 4 0.0006 0.0175 0.1265 12.0112 -0.0335 -1.0916
# 5 23.8944 4.1798 31.4468 -0.0335 30.4292 -0.0370
# 6 0.0014 0.0033 0.0185 -1.0916 -0.0370 28.6581
#
#
#
# Elastic Compliance Matrix: (Units=1/GPa)
#
#
# Indices 1 2 3 4 5 6 
#
# 1 0.015362 -0.004546 -0.002762 0.000010 -0.008584 -0.000009
# 2 -0.004546 0.012411 -0.002439 0.000021 0.004385 0.000007
# 3 -0.002762 -0.002439 0.027153 -0.000360 -0.025557 -0.000064
# 4 0.000010 0.000021 -0.000360 0.083550 0.000457 0.003183
# 5 -0.008584 0.004385 -0.025557 0.000457 0.065414 0.000118
# 6 -0.000009 0.000007 -0.000064 0.003183 0.000118 0.035016
#
#
# Mechanical properties :
#
#
# Convention : Reuss Voigt Hill
#
# Bulk Modulus (GPa) = 28.22303 47.57045 37.89674
# Shear Modulus (GPa) = 18.50413 25.97574 22.23993
#
# Velocity S-wave (km/s) = 2.99184 3.54477 3.27998
# Velocity P-wave (km/s) = 5.05839 6.30598 5.71632
#
# Compressibility (1/GPa) = 0.03543205
#
# Stress axis : x y z
#
# Youngs Moduli (GPa) = 65.09655 80.57176 36.82874
#
# Poissons Ratio (x) = 0.36630 0.10171
# Poissons Ratio (y) = 0.29595 0.08982
# Poissons Ratio (z) = 0.17978 0.19649
#
# Static dielectric constant tensor:
#      x y z
#    x 3.785590 -0.000120 0.467480 
#    y -0.000120 3.617860 -0.000470 
#    z 0.467480 -0.000470 3.554510 
# 
# 
# High freq. dielectric constant tensor:
#      x y z
#    x 1.807000 -0.000010 0.034780 
#    y -0.000010 1.798580 -0.000040 
#    z 0.034780 -0.000040 1.779550 
# 
# From -- ./inp_files/344505.got.cif
#   From: 2010.06.25/outbox.cif.g09.slc.cpg/sg12_173_cif.got.tgz:344505.got - 2010.06.28 00:19:55.
