data_PCOD8084982
_publ_section_title
;
Structure prediction by ZEFSAII (Michael W. Deem and Ramdas Pophale) SiO2 
 PCOD8084982
Probable space group: C 2/M
;
_chemical_formula_sum "Si O2"
_cell_formula_units_Z 64
_cell_length_a 20.832789
_cell_length_b 23.612985
_cell_length_c 11.418167
_cell_angle_alpha 90.000000
_cell_angle_beta 44.830343
_cell_angle_gamma 90.000000
_cell_volume 3959.951857
_symmetry_space_group_name_H-M "C 2/M"
_symmetry_group_IT_number 12
_symmetry_cell_setting 'monoclinic'
loop_
_space_group_symop_operation_xyz
x,y,z
-x,y,-z
-x,-y,-z
x,-y,z
1/2+x,1/2+y,z
1/2-x,1/2+y,-z
1/2-x,1/2-y,-z
1/2+x,1/2-y,z
loop_
_atom_site_type_symbol
_atom_site_label
_atom_site_fract_x
_atom_site_fract_y
_atom_site_fract_z
Si Si1 0.937262 0.563131 0.341533
Si Si2 0.644194 0.065301 0.033946
Si Si3 0.898792 0.379341 0.153545
Si Si4 0.271586 0.160157 0.921324
Si Si5 0.094157 0.227750 0.516976
Si Si6 0.256422 0.314087 0.529003
Si Si7 0.611191 0.269878 0.225331
Si Si8 0.815189 0.348672 0.603720
O O1 0.905941 0.500000 0.410447
O O2 0.906591 0.576298 0.249061
O O3 0.889583 0.602083 0.499671
O O4 0.044800 0.570197 0.218950
O O5 0.711108 0.103904 0.025353
O O6 0.678254 0.000000 0.991082
O O7 0.642310 0.087540 0.903631
O O8 0.829994 0.328899 0.276453
O O9 0.000000 0.353568 0.000000
O O10 0.350355 0.206441 0.843629
O O11 0.265789 0.145809 0.791394
O O12 0.173146 0.184817 0.079285
O O13 0.149892 0.180418 0.518785
O O14 0.106330 0.211897 0.366237
O O15 0.131982 0.290459 0.486169
O O16 0.990201 0.227381 0.696054
O O17 0.250000 0.250000 0.500000
O O18 0.257327 0.353331 0.410506
#
# Coordination Sequence:
#
# PCOD8084982 Si02
#       8
#     8   8   8   8   8   8   8   8
#     4   9  17  29  45  65  91 123 154 182 220 273
#     4  10  19  29  45  69  93 120 155 194 231 270
#     4   9  17  30  47  67  93 123 153 190 230 267
#     4  10  19  31  44  65  95 123 154 186 226 282
#     4   9  16  30  48  67  88 116 153 192 229 269
#     4   9  17  30  46  67  93 120 153 190 225 268
#     4   9  18  30  48  67  88 121 154 189 234 276
#     4   9  18  30  43  63  94 124 148 180 222 271
#
# _framework density 16.161812999999999
#
# number of rings (size 3 to 8) (size 9 to 14) (size 15 to 20)
#    0.000    2.750    0.000    1.875    0.000    5.500 
#    0.000    1.875    0.000    0.000    0.000   10.500 
#    0.000    5.000    0.000    0.000    0.000    0.000 
#
# Total GULP energy -396660.684403 kJ/mol
# GULP energy per Si atom -12395.646388 kJ/mol
# Density = 1.612503 g / cm^3
# Si number density = 16.161813 Si / 1000 Ang^3
#
#
#
# Elastic Constant Matrix: (Units=GPa)
#
#
# Indices 1 2 3 4 5 6 
#
# 1 81.0594 26.4284 39.9236 0.0000 -1.4844 0.0000
# 2 26.4284 72.0345 42.0524 0.0000 5.2830 0.0000
# 3 39.9236 42.0524 100.1595 0.0000 1.5307 0.0000
# 4 0.0000 0.0000 0.0000 25.8559 0.0000 -2.0547
# 5 -1.4844 5.2830 1.5307 0.0000 21.0817 0.0000
# 6 0.0000 0.0000 0.0000 -2.0547 0.0000 19.7127
#
#
#
# Elastic Compliance Matrix: (Units=1/GPa)
#
#
# Indices 1 2 3 4 5 6 
#
# 1 0.015869 -0.003012 -0.005095 0.000000 0.002242 0.000000
# 2 -0.003012 0.019314 -0.006839 0.000000 -0.004556 0.000000
# 3 -0.005095 -0.006839 0.014882 0.000000 0.000274 0.000000
# 4 0.000000 0.000000 0.000000 0.038999 0.000000 0.004065
# 5 0.002242 -0.004556 0.000274 0.000000 0.048714 0.000000
# 6 0.000000 0.000000 0.000000 0.004065 0.000000 0.051152
#
#
# Mechanical properties :
#
#
# Convention : Reuss Voigt Hill
#
# Bulk Modulus (GPa) = 49.57096 52.22914 50.90005
# Shear Modulus (GPa) = 22.16836 22.98665 22.57751
#
# Velocity S-wave (km/s) = 3.70760 3.77541 3.74166
# Velocity P-wave (km/s) = 7.00476 7.16878 7.08725
#
# Compressibility (1/GPa) = 0.02017310
#
# Stress axis : x y z
#
# Youngs Moduli (GPa) = 63.01502 51.77653 67.19516
#
# Poissons Ratio (x) = 0.15596 0.34236
# Poissons Ratio (y) = 0.18982 0.45953
# Poissons Ratio (z) = 0.32106 0.35408
#
# Static dielectric constant tensor:
#      x y z
#    x 3.451190 0.000000 0.041010 
#    y 0.000000 2.933200 0.000000 
#    z 0.041010 0.000000 3.047900 
# 
# 
# High freq. dielectric constant tensor:
#      x y z
#    x 1.620610 0.000000 0.015330 
#    y 0.000000 1.599250 0.000000 
#    z 0.015330 0.000000 1.613250 
# 
# From -- ./inp_files/159267.got.cif
#   From: 2010.06.25/outbox.cif.g09.slc.cpg/sg12_80_cif.got.tgz:159267.got - 2010.06.28 00:19:55.
