data_PCOD8084974
_publ_section_title
;
Structure prediction by ZEFSAII (Michael W. Deem and Ramdas Pophale) SiO2 
 PCOD8084974
Probable space group: C 2/M
;
_chemical_formula_sum "Si O2"
_cell_formula_units_Z 64
_cell_length_a 21.743171
_cell_length_b 9.015251
_cell_length_c 22.983308
_cell_angle_alpha 90.000000
_cell_angle_beta 54.881676
_cell_angle_gamma 90.000000
_cell_volume 3685.092357
_symmetry_space_group_name_H-M "C 2/M"
_symmetry_group_IT_number 12
_symmetry_cell_setting 'monoclinic'
loop_
_space_group_symop_operation_xyz
x,y,z
-x,y,-z
-x,-y,-z
x,-y,z
1/2+x,1/2+y,z
1/2-x,1/2+y,-z
1/2-x,1/2-y,-z
1/2+x,1/2-y,z
loop_
_atom_site_type_symbol
_atom_site_label
_atom_site_fract_x
_atom_site_fract_y
_atom_site_fract_z
Si Si1 0.077856 0.335194 0.633015
Si Si2 0.523795 0.668778 0.232165
Si Si3 0.579617 0.173608 0.927936
Si Si4 0.151764 0.328781 0.100140
Si Si5 0.324578 0.671640 0.029852
Si Si6 0.396121 0.328935 0.205706
Si Si7 0.802372 0.325934 0.518420
Si Si8 0.709734 0.168219 0.655259
O O1 0.042952 0.500000 0.653440
O O2 0.012717 0.220953 0.686770
O O3 0.111198 0.300512 0.550217
O O4 0.146688 0.326198 0.640239
O O5 0.549670 0.500000 0.225021
O O6 0.596403 0.767853 0.179569
O O7 0.463807 0.689729 0.213871
O O8 0.645602 0.245805 0.929714
O O9 0.578538 0.245095 0.865445
O O10 0.595231 0.000000 0.914063
O O11 0.500000 0.208873 0.000000
O O12 0.134308 0.500000 0.096989
O O13 0.235475 0.304808 0.077919
O O14 0.137839 0.240241 0.048125
O O15 0.347378 0.500000 0.019718
O O16 0.379124 0.500000 0.201302
O O17 0.320121 0.254843 0.271854
O O18 0.783295 0.500000 0.532290
O O19 0.750000 0.250000 0.500000
O O20 0.785295 0.249637 0.590100
O O21 0.729886 0.000000 0.661689
#
# Coordination Sequence:
#
# PCOD8084974 Si02
#       8
#     8   8   8   8   8   8   8   8
#     4   8  15  25  37  56  85 119 152 187 226 270
#     4  10  19  29  45  68  93 123 157 192 230 272
#     4  11  23  36  51  71  95 123 153 188 231 275
#     4  10  20  34  52  71  93 120 150 188 232 276
#     4  10  21  36  53  72  92 118 153 190 229 273
#     4  10  20  32  46  66  93 124 158 194 229 272
#     4   9  15  23  36  55  81 115 152 188 227 270
#     4   9  16  26  40  58  83 117 154 190 228 271
#
# _framework density 17.367272
#
# number of rings (size 3 to 8) (size 9 to 14) (size 15 to 20)
#    0.000    2.375    0.000    4.125    0.000    9.500 
#    0.000    0.000    0.000    0.000    0.000    0.000 
#    0.000    1.000    0.000   10.500    0.000    7.625 
#
# Total GULP energy -396756.445814 kJ/mol
# GULP energy per Si atom -12398.638932 kJ/mol
# Density = 1.732774 g / cm^3
# Si number density = 17.367272 Si / 1000 Ang^3
#
#
#
# Elastic Constant Matrix: (Units=GPa)
#
#
# Indices 1 2 3 4 5 6 
#
# 1 22.7587 27.8673 15.9929 -0.0002 -1.2924 0.0016
# 2 27.8673 135.3726 79.8318 -0.0011 -3.7830 0.0054
# 3 15.9929 79.8318 143.3519 0.0000 -7.4943 0.0001
# 4 -0.0002 -0.0011 0.0000 37.5422 -0.0001 -0.2885
# 5 -1.2924 -3.7830 -7.4943 -0.0001 13.3774 -0.0006
# 6 0.0016 0.0054 0.0001 -0.2885 -0.0006 19.5988
#
#
#
# Elastic Compliance Matrix: (Units=1/GPa)
#
#
# Indices 1 2 3 4 5 6 
#
# 1 0.058831 -0.012280 0.000403 0.000000 0.002437 -0.000001
# 2 -0.012280 0.013564 -0.006228 0.000000 -0.000840 -0.000003
# 3 0.000403 -0.006228 0.010620 0.000000 0.004227 0.000002
# 4 0.000000 0.000000 0.000000 0.026640 0.000000 0.000392
# 5 0.002437 -0.000840 0.004227 0.000000 0.077119 0.000002
# 6 -0.000001 -0.000003 0.000002 0.000392 0.000002 0.051029
#
#
# Mechanical properties :
#
#
# Convention : Reuss Voigt Hill
#
# Bulk Modulus (GPa) = 21.36510 60.98525 41.17517
# Shear Modulus (GPa) = 17.26425 25.95643 21.61034
#
# Velocity S-wave (km/s) = 3.15630 3.87015 3.53131
# Velocity P-wave (km/s) = 5.06080 7.42711 6.35506
#
# Compressibility (1/GPa) = 0.04680531
#
# Stress axis : x y z
#
# Youngs Moduli (GPa) = 16.99772 73.72423 94.16171
#
# Poissons Ratio (x) = 0.90535 -0.03792
# Poissons Ratio (y) = 0.20874 0.58640
# Poissons Ratio (z) = -0.00685 0.45913
#
# Static dielectric constant tensor:
#      x y z
#    x 2.651290 0.000000 -0.272510 
#    y 0.000000 3.450060 0.000000 
#    z -0.272510 0.000000 2.414340 
# 
# 
# High freq. dielectric constant tensor:
#      x y z
#    x 1.600050 0.000000 -0.008690 
#    y 0.000000 1.691210 0.000000 
#    z -0.008690 0.000000 1.689000 
# 
# From -- ./inp_files/346019.got.cif
#   From: 2010.06.25/outbox.cif.g09.slc.cpg/sg12_174_cif.got.tgz:346019.got - 2010.06.28 00:19:55.
