data_PCOD8084342
_publ_section_title
;
Structure prediction by ZEFSAII (Michael W. Deem and Ramdas Pophale) SiO2 
 PCOD8084342
Probable space group: C 2/M
;
_chemical_formula_sum "Si O2"
_cell_formula_units_Z 64
_cell_length_a 20.681121
_cell_length_b 16.151560
_cell_length_c 11.320377
_cell_angle_alpha 90.000000
_cell_angle_beta 121.807613
_cell_angle_gamma 90.000000
_cell_volume 3213.495914
_symmetry_space_group_name_H-M "C 2/M"
_symmetry_group_IT_number 12
_symmetry_cell_setting 'monoclinic'
loop_
_space_group_symop_operation_xyz
x,y,z
-x,y,-z
-x,-y,-z
x,-y,z
1/2+x,1/2+y,z
1/2-x,1/2+y,-z
1/2-x,1/2-y,-z
1/2+x,1/2-y,z
loop_
_atom_site_type_symbol
_atom_site_label
_atom_site_fract_x
_atom_site_fract_y
_atom_site_fract_z
Si Si1 0.492028 0.234554 0.730031
Si Si2 0.860959 0.803608 0.050350
Si Si3 0.250517 0.840864 0.699315
Si Si4 0.240404 0.095426 0.436896
Si Si5 0.124444 0.207927 0.201076
Si Si6 0.134148 0.299009 0.572511
Si Si7 0.722253 0.869804 0.025720
Si Si8 0.585527 0.908740 0.746835
O O1 0.567831 0.292019 0.791153
O O2 0.454162 0.264151 0.815034
O O3 0.435327 0.243111 0.565311
O O4 0.521679 0.138842 0.763390
O O5 0.804488 0.875946 0.039990
O O6 0.891030 0.821537 0.947391
O O7 0.809477 0.722482 0.996658
O O8 0.230150 0.897073 0.567880
O O9 0.324279 0.788759 0.736681
O O10 0.183525 0.776499 0.671303
O O11 0.266155 0.899964 0.827549
O O12 0.163727 0.131149 0.305593
O O13 0.314679 0.144997 0.464786
O O14 0.249593 0.000000 0.409715
O O15 0.101677 0.355076 0.645845
O O16 0.662244 0.924404 0.895995
O O17 0.554639 0.000000 0.682623
#
# Coordination Sequence:
#
# PCOD8084342 Si02
#       8
#     8   8   8   8   8   8   8   8
#     4  11  20  34  54  84 117 152 182 225 281 337
#     4   9  18  32  58  83 100 139 196 235 274 319
#     4  10  18  35  59  80 108 148 200 234 277 332
#     4  11  21  34  57  86 114 151 189 236 295 335
#     4  10  18  36  56  80 114 148 192 240 270 331
#     4  11  20  36  57  84 117 150 191 238 279 335
#     4   9  18  35  55  77 105 143 188 240 274 324
#     4  11  24  37  54  85 120 151 188 236 289 341
#
# _framework density 19.916004999999998
#
# number of rings (size 3 to 8) (size 9 to 14) (size 15 to 20)
#    0.000    1.750    2.500    5.625    0.000    2.000 
#    0.000    0.000    0.000    5.250    0.000    2.625 
#    0.000    0.000    0.000    0.000    0.000    0.000 
#
# Total GULP energy -396619.340775 kJ/mol
# GULP energy per Si atom -12394.354399 kJ/mol
# Density = 1.987068 g / cm^3
# Si number density = 19.916005 Si / 1000 Ang^3
#
#
#
# Elastic Constant Matrix: (Units=GPa)
#
#
# Indices 1 2 3 4 5 6 
#
# 1 92.9327 15.4843 37.1706 0.0000 2.1857 0.0000
# 2 15.4843 33.1099 15.9985 0.0000 -2.2524 0.0000
# 3 37.1706 15.9985 106.1732 0.0000 -4.6931 0.0000
# 4 0.0000 0.0000 0.0000 12.3235 0.0000 -1.2225
# 5 2.1857 -2.2524 -4.6931 0.0000 36.4445 0.0000
# 6 0.0000 0.0000 0.0000 -1.2225 0.0000 14.4055
#
#
#
# Elastic Compliance Matrix: (Units=1/GPa)
#
#
# Indices 1 2 3 4 5 6 
#
# 1 0.013120 -0.004303 -0.004014 0.000000 -0.001570 0.000000
# 2 -0.004303 0.034055 -0.003541 0.000000 0.001907 0.000000
# 3 -0.004014 -0.003541 0.011423 0.000000 0.001493 0.000000
# 4 0.000000 0.000000 0.000000 0.081835 0.000000 0.006945
# 5 -0.001570 0.001907 0.001493 0.000000 0.027843 0.000000
# 6 0.000000 0.000000 0.000000 0.006945 0.000000 0.070008
#
#
# Mechanical properties :
#
#
# Convention : Reuss Voigt Hill
#
# Bulk Modulus (GPa) = 28.66737 41.05808 34.86272
# Shear Modulus (GPa) = 18.27297 23.53884 20.90591
#
# Velocity S-wave (km/s) = 3.03232 3.44162 3.24343
# Velocity P-wave (km/s) = 5.16578 6.03766 5.61866
#
# Compressibility (1/GPa) = 0.03488287
#
# Stress axis : x y z
#
# Youngs Moduli (GPa) = 76.22003 29.36389 87.53905
#
# Poissons Ratio (x) = 0.12635 0.35140
# Poissons Ratio (y) = 0.32796 0.30997
# Poissons Ratio (z) = 0.30596 0.10397
#
# Static dielectric constant tensor:
#      x y z
#    x 3.782060 0.000000 -0.013400 
#    y 0.000000 3.154400 0.000000 
#    z -0.013400 0.000000 3.827910 
# 
# 
# High freq. dielectric constant tensor:
#      x y z
#    x 1.780370 0.000000 -0.003190 
#    y 0.000000 1.727490 0.000000 
#    z -0.003190 0.000000 1.790610 
# 
# From -- ./inp_files/168818.got.cif
#   From: 2010.06.25/outbox.cif.g09.slc.cpg/sg12_85_cif.got.tgz:168818.got - 2010.06.28 00:19:55.
