data_PCOD8084546
_publ_section_title
;
Structure prediction by ZEFSAII (Michael W. Deem and Ramdas Pophale) SiO2 
 PCOD8084546
Probable space group: C 2/M
;
_chemical_formula_sum "Si O2"
_cell_formula_units_Z 52
_cell_length_a 21.957113
_cell_length_b 12.214731
_cell_length_c 11.028507
_cell_angle_alpha 90.000000
_cell_angle_beta 108.125950
_cell_angle_gamma 90.000000
_cell_volume 2811.064667
_symmetry_space_group_name_H-M "C 2/M"
_symmetry_group_IT_number 12
_symmetry_cell_setting 'monoclinic'
loop_
_space_group_symop_operation_xyz
x,y,z
-x,y,-z
-x,-y,-z
x,-y,z
1/2+x,1/2+y,z
1/2-x,1/2+y,-z
1/2-x,1/2-y,-z
1/2+x,1/2-y,z
loop_
_atom_site_type_symbol
_atom_site_label
_atom_site_fract_x
_atom_site_fract_y
_atom_site_fract_z
Si Si1 0.935376 0.373929 0.032817
Si Si2 0.501341 0.500000 0.357598
Si Si3 0.665371 0.125418 0.233883
Si Si4 0.585161 0.672873 0.825599
Si Si5 0.425219 0.500000 0.983319
Si Si6 0.321610 0.714603 0.559912
Si Si7 0.634860 0.500000 0.310917
Si Si8 0.684639 0.371373 0.694284
O O1 0.931537 0.500000 0.074089
O O2 0.934538 0.296939 0.151702
O O3 0.875857 0.343192 0.909247
O O4 0.000000 0.351166 0.000000
O O5 0.500000 0.500000 0.500000
O O6 0.468181 0.610873 0.287884
O O7 0.573719 0.500000 0.359664
O O8 0.641364 0.193454 0.337722
O O9 0.739517 0.150401 0.249761
O O10 0.654164 0.000000 0.262035
O O11 0.652144 0.675726 0.794977
O O12 0.594288 0.608188 0.956200
O O13 0.383607 0.500000 0.839018
O O14 0.500000 0.500000 0.000000
O O15 0.250000 0.750000 0.500000
O O16 0.321295 0.604103 0.637121
O O17 0.348356 0.691273 0.440952
O O18 0.669548 0.500000 0.671328
#
# Coordination Sequence:
#
# PCOD8084546 Si02
#       8
#     8   4   8   8   4   8   4   8
#     4  10  22  40  59  80 113 157 206 245 286 347
#     4  11  23  36  58  94 119 153 185 231 319 370
#     4   9  20  37  62  84 110 157 205 241 297 349
#     4  11  21  36  59  86 124 152 187 244 305 354
#     4  11  20  34  54  94 126 148 187 250 294 358
#     4  10  21  35  59  84 114 156 196 243 289 349
#     4  12  21  35  60  85 122 152 197 248 300 351
#     4  10  18  37  56  84 121 154 187 241 307 365
#
# _framework density 18.498328999999998
#
# number of rings (size 3 to 8) (size 9 to 14) (size 15 to 20)
#    0.000    1.692    3.846    2.308    3.231    0.615 
#    0.000    0.769    1.692    0.462    0.000    0.000 
#    0.000    0.000    0.000    0.000    0.000    0.000 
#
# Total GULP energy -322333.483685 kJ/mol
# GULP energy per Si atom -12397.441680 kJ/mol
# Density = 1.845623 g / cm^3
# Si number density = 18.498329 Si / 1000 Ang^3
#
#
#
# Elastic Constant Matrix: (Units=GPa)
#
#
# Indices 1 2 3 4 5 6 
#
# 1 79.7189 49.7488 49.5702 0.0000 -13.4579 0.0000
# 2 49.7488 126.4439 71.6421 0.0000 -6.4407 0.0000
# 3 49.5702 71.6421 133.6179 0.0000 -9.9137 0.0000
# 4 0.0000 0.0000 0.0000 28.1143 0.0000 -3.2478
# 5 -13.4579 -6.4407 -9.9137 0.0000 32.3999 0.0000
# 6 0.0000 0.0000 0.0000 -3.2478 0.0000 23.5423
#
#
#
# Elastic Compliance Matrix: (Units=1/GPa)
#
#
# Indices 1 2 3 4 5 6 
#
# 1 0.019088 -0.004951 -0.004002 0.000000 0.005720 0.000000
# 2 -0.004951 0.012649 -0.005025 0.000000 -0.001080 0.000000
# 3 -0.004002 -0.005025 0.011732 0.000000 0.000928 0.000000
# 4 0.000000 0.000000 0.000000 0.036145 0.000000 0.004986
# 5 0.005720 -0.001080 0.000928 0.000000 0.033309 0.000000
# 6 0.000000 0.000000 0.000000 0.004986 0.000000 0.043165
#
#
# Mechanical properties :
#
#
# Convention : Reuss Voigt Hill
#
# Bulk Modulus (GPa) = 64.46777 75.74478 70.10628
# Shear Modulus (GPa) = 26.42471 28.06593 27.24532
#
# Velocity S-wave (km/s) = 3.78364 3.89937 3.84194
# Velocity P-wave (km/s) = 7.34943 7.83002 7.59353
#
# Compressibility (1/GPa) = 0.01551163
#
# Stress axis : x y z
#
# Youngs Moduli (GPa) = 52.38852 79.05800 85.23560
#
# Poissons Ratio (x) = 0.39142 0.34115
# Poissons Ratio (y) = 0.25938 0.42834
# Poissons Ratio (z) = 0.20968 0.39729
#
# Static dielectric constant tensor:
#      x y z
#    x 3.402110 0.000000 -0.046470 
#    y 0.000000 3.528840 0.000000 
#    z -0.046470 0.000000 3.730840 
# 
# 
# High freq. dielectric constant tensor:
#      x y z
#    x 1.703800 0.000000 0.004610 
#    y 0.000000 1.719230 0.000000 
#    z 0.004610 0.000000 1.725430 
# 
# From -- ./inp_files/165163.got.cif
#   From: 2010.06.25/outbox.cif.g09.slc.cpg/sg12_83_cif.got.tgz:165163.got - 2010.06.28 00:19:55.
