data_PCOD8084626
_publ_section_title
;
Structure prediction by ZEFSAII (Michael W. Deem and Ramdas Pophale) SiO2 
 PCOD8084626
Probable space group: C 2/M
;
_chemical_formula_sum "Si O2"
_cell_formula_units_Z 52
_cell_length_a 20.917455
_cell_length_b 20.683179
_cell_length_c 11.798259
_cell_angle_alpha 90.000000
_cell_angle_beta 31.680503
_cell_angle_gamma 90.000000
_cell_volume 2680.735563
_symmetry_space_group_name_H-M "C 2/M"
_symmetry_group_IT_number 12
_symmetry_cell_setting 'monoclinic'
loop_
_space_group_symop_operation_xyz
x,y,z
-x,y,-z
-x,-y,-z
x,-y,z
1/2+x,1/2+y,z
1/2-x,1/2+y,-z
1/2-x,1/2-y,-z
1/2+x,1/2-y,z
loop_
_atom_site_type_symbol
_atom_site_label
_atom_site_fract_x
_atom_site_fract_y
_atom_site_fract_z
Si Si1 0.500000 0.192806 0.000000
Si Si2 0.330840 0.500000 0.367734
Si Si3 0.617513 0.500000 0.965060
Si Si4 0.612064 0.212285 0.400080
Si Si5 0.956134 0.223784 0.278948
Si Si6 0.861192 0.858873 0.695145
Si Si7 0.826969 0.130384 0.992665
Si Si8 0.256125 0.374642 0.612461
O O1 0.489402 0.241835 0.911775
O O2 0.616363 0.146771 0.822053
O O3 0.310943 0.500000 0.262357
O O4 0.268226 0.437838 0.517688
O O5 0.473703 0.500000 0.171025
O O6 0.654387 0.561894 0.979829
O O7 0.500000 0.182054 0.500000
O O8 0.574522 0.218978 0.587456
O O9 0.648795 0.281713 0.295188
O O10 0.724460 0.164654 0.221057
O O11 0.834325 0.182807 0.436753
O O12 0.051118 0.173594 0.190236
O O13 0.788787 0.879551 0.918403
O O14 0.800312 0.889653 0.674742
O O15 0.000000 0.883268 0.500000
#
# Coordination Sequence:
#
# PCOD8084626 Si02
#       8
#     4   4   4   8   8   8   8   8
#     4  12  28  37  64  95 134 166 206 258 326 378
#     4  11  24  46  65  81 129 168 221 249 306 384
#     4  11  26  41  64  93 117 175 209 263 304 377
#     4  10  21  35  62  97 129 163 194 259 323 379
#     4  11  22  40  64  95 127 162 207 263 315 367
#     4  10  18  39  65  97 123 153 208 264 317 358
#     4  12  22  39  66  93 127 162 213 257 316 370
#     4  11  24  42  63  94 126 169 208 260 312 376
#
# _framework density 19.397662
#
# number of rings (size 3 to 8) (size 9 to 14) (size 15 to 20)
#    0.000    1.077    6.154    2.769    6.462    0.923 
#    0.000    1.923    0.000    0.000    0.000    0.000 
#    0.000    0.000    0.000    0.000    0.000    0.000 
#
# Total GULP energy -322454.414590 kJ/mol
# GULP energy per Si atom -12402.092869 kJ/mol
# Density = 1.935351 g / cm^3
# Si number density = 19.397662 Si / 1000 Ang^3
#
#
#
# Elastic Constant Matrix: (Units=GPa)
#
#
# Indices 1 2 3 4 5 6 
#
# 1 76.0117 33.3926 34.5683 0.0002 26.5383 0.0001
# 2 33.3926 76.0098 52.7248 0.0002 18.4270 0.0000
# 3 34.5683 52.7248 107.1627 0.0005 11.7096 0.0001
# 4 0.0002 0.0002 0.0005 30.2673 -0.0002 -9.6677
# 5 26.5383 18.4270 11.7096 -0.0002 46.2966 0.0000
# 6 0.0001 0.0000 0.0001 -9.6677 0.0000 -4.4545
#
#
#
# Elastic Compliance Matrix: (Units=1/GPa)
#
#
# Indices 1 2 3 4 5 6 
#
# 1 0.019527 -0.004191 -0.003287 0.000000 -0.008694 0.000000
# 2 -0.004191 0.022402 -0.009213 0.000000 -0.004184 0.000000
# 3 -0.003287 -0.009213 0.014725 0.000000 0.001827 0.000000
# 4 0.000000 0.000000 0.000000 0.019512 0.000000 -0.042348
# 5 -0.008694 -0.004184 0.001827 0.000000 0.027787 0.000000
# 6 0.000000 0.000000 0.000000 -0.042348 0.000000 -0.132582
#
#
# Mechanical properties :
#
#
# Convention : Reuss Voigt Hill
#
# Bulk Modulus (GPa) = 42.96870 55.61729 49.29299
# Shear Modulus (GPa) = 399.62675 23.65511 211.64093
#
# Velocity S-wave (km/s) = 14.36890 3.49590 10.45673
# Velocity P-wave (km/s) = 17.24780 6.71040 13.08656
#
# Compressibility (1/GPa) = 0.02327275
#
# Stress axis : x y z
#
# Youngs Moduli (GPa) = 51.21048 44.63815 67.91068
#
# Poissons Ratio (x) = 0.18707 0.22323
# Poissons Ratio (y) = 0.21462 0.62566
# Poissons Ratio (z) = 0.16834 0.41125
#
# Static dielectric constant tensor:
#      x y z
#    x 3.701760 0.000000 0.115680 
#    y 0.000000 3.314390 0.000000 
#    z 0.115680 0.000000 3.639340 
# 
# 
# High freq. dielectric constant tensor:
#      x y z
#    x 1.761520 0.000000 0.014580 
#    y 0.000000 1.730410 0.000000 
#    z 0.014580 0.000000 1.760880 
# 
# From -- ./inp_files/169852.got.cif
#   From: 2010.06.25/outbox.cif.g09.slc.cpg/sg12_85_cif.got.tgz:169852.got - 2010.06.28 00:19:55.
