data_PCOD8084797
_publ_section_title
;
Structure prediction by ZEFSAII (Michael W. Deem and Ramdas Pophale) SiO2 
 PCOD8084797
Probable space group: C 2/M
;
_chemical_formula_sum "Si O2"
_cell_formula_units_Z 64
_cell_length_a 34.046037
_cell_length_b 13.586052
_cell_length_c 8.982739
_cell_angle_alpha 90.000000
_cell_angle_beta 90.000041
_cell_angle_gamma 90.000000
_cell_volume 4154.976965
_symmetry_space_group_name_H-M "C 2/M"
_symmetry_group_IT_number 12
_symmetry_cell_setting 'monoclinic'
loop_
_space_group_symop_operation_xyz
x,y,z
-x,y,-z
-x,-y,-z
x,-y,z
1/2+x,1/2+y,z
1/2-x,1/2+y,-z
1/2-x,1/2-y,-z
1/2+x,1/2-y,z
loop_
_atom_site_type_symbol
_atom_site_label
_atom_site_fract_x
_atom_site_fract_y
_atom_site_fract_z
Si Si1 0.117261 0.613114 0.425334
Si Si2 0.770276 0.113236 0.922089
Si Si3 0.038359 0.382873 0.917703
Si Si4 0.461641 0.117127 0.417703
Si Si5 0.882739 0.613114 0.925334
Si Si6 0.310590 0.214741 0.422984
Si Si7 0.729724 0.613236 0.422089
Si Si8 0.810590 0.285259 0.077016
O O1 0.124735 0.500000 0.471688
O O2 0.077152 0.653496 0.497182
O O3 0.113552 0.624757 0.250000
O O4 0.152549 0.678720 0.483958
O O5 0.779908 0.134891 0.750000
O O6 0.725350 0.141407 0.956846
O O7 0.776545 0.000000 0.963678
O O8 0.799619 0.175572 0.024453
O O9 0.036548 0.500000 0.918463
O O10 0.039239 0.341787 0.750000
O O11 0.077152 0.346504 0.002818
O O12 0.000000 0.339595 0.000000
O O13 0.500000 0.160405 0.500000
O O14 0.463452 0.000000 0.418463
O O15 0.875265 0.500000 0.971688
O O16 0.847451 0.678720 0.983958
O O17 0.299619 0.324428 0.475547
O O18 0.274650 0.141407 0.456846
O O19 0.321643 0.216388 0.250000
O O20 0.723455 0.500000 0.463678
#
# Coordination Sequence:
#
# PCOD8084797 Si02
#       8
#     8   8   8   8   8   8   8   8
#     4  10  19  29  42  61  86 116 148 180 214 254
#     4   9  18  32  47  62  84 114 145 178 217 259
#     4   9  16  26  40  58  82 112 144 176 211 252
#     4   9  16  26  40  58  82 112 144 176 211 252
#     4  10  19  29  42  61  86 116 148 180 214 254
#     4  10  19  30  45  65  87 111 143 181 218 257
#     4   9  18  32  47  62  84 114 145 178 217 259
#     4  10  19  30  45  65  87 111 143 181 218 257
#
# _framework density 15.403214
#
# number of rings (size 3 to 8) (size 9 to 14) (size 15 to 20)
#    0.000    2.500    0.000    3.000    0.000    7.000 
#    0.000    0.000    0.000    0.000    0.000    0.000 
#    0.000    1.000    0.000    3.750    0.000    5.750 
#
# Total GULP energy -396863.092623 kJ/mol
# GULP energy per Si atom -12401.971644 kJ/mol
# Density = 1.536816 g / cm^3
# Si number density = 15.403214 Si / 1000 Ang^3
#
#
#
# Elastic Constant Matrix: (Units=GPa)
#
#
# Indices 1 2 3 4 5 6 
#
# 1 112.1185 33.4328 53.2352 0.0000 -0.7660 0.0000
# 2 33.4328 56.1119 27.9504 0.0000 0.5152 0.0000
# 3 53.2352 27.9504 88.3484 0.0000 2.9993 0.0000
# 4 0.0000 0.0000 0.0000 20.9270 0.0000 -0.5254
# 5 -0.7660 0.5152 2.9993 0.0000 33.1640 0.0000
# 6 0.0000 0.0000 0.0000 -0.5254 0.0000 15.3359
#
#
#
# Elastic Compliance Matrix: (Units=1/GPa)
#
#
# Indices 1 2 3 4 5 6 
#
# 1 0.013506 -0.004731 -0.006675 0.000000 0.000989 0.000000
# 2 -0.004731 0.022815 -0.004365 0.000000 -0.000069 0.000000
# 3 -0.006675 -0.004365 0.016776 0.000000 -0.001604 0.000000
# 4 0.000000 0.000000 0.000000 0.047826 0.000000 0.001638
# 5 0.000989 -0.000069 -0.001604 0.000000 0.030322 0.000000
# 6 0.000000 0.000000 0.000000 0.001638 0.000000 0.065262
#
#
# Mechanical properties :
#
#
# Convention : Reuss Voigt Hill
#
# Bulk Modulus (GPa) = 46.39185 53.97951 50.18568
# Shear Modulus (GPa) = 21.25525 23.34941 22.30233
#
# Velocity S-wave (km/s) = 3.71876 3.89765 3.80926
# Velocity P-wave (km/s) = 6.97299 7.44150 7.21105
#
# Compressibility (1/GPa) = 0.02155551
#
# Stress axis : x y z
#
# Youngs Moduli (GPa) = 74.04061 43.83000 59.60837
#
# Poissons Ratio (x) = 0.20738 0.39788
# Poissons Ratio (y) = 0.35032 0.26017
# Poissons Ratio (z) = 0.49422 0.19131
#
# Static dielectric constant tensor:
#      x y z
#    x 2.962450 0.000000 -0.012090 
#    y 0.000000 2.640700 0.000000 
#    z -0.012090 0.000000 3.091040 
# 
# 
# High freq. dielectric constant tensor:
#      x y z
#    x 1.590970 0.000000 -0.001610 
#    y 0.000000 1.542710 0.000000 
#    z -0.001610 0.000000 1.608130 
# 
# From -- ./inp_files/111239.got.cif
#   From: 2010.06.25/outbox.cif.g09.slc.cpg/sg12_56_cif.got.tgz:111239.got - 2010.06.28 00:19:55.
