data_PCOD8084715
_publ_section_title
;
Structure prediction by ZEFSAII (Michael W. Deem and Ramdas Pophale) SiO2 
 PCOD8084715
Probable space group: C 2/M
;
_chemical_formula_sum "Si O2"
_cell_formula_units_Z 48
_cell_length_a 18.089880
_cell_length_b 13.121718
_cell_length_c 24.012450
_cell_angle_alpha 90.000000
_cell_angle_beta 147.622263
_cell_angle_gamma 90.000000
_cell_volume 3052.258167
_symmetry_space_group_name_H-M "C 2/M"
_symmetry_group_IT_number 12
_symmetry_cell_setting 'monoclinic'
loop_
_space_group_symop_operation_xyz
x,y,z
-x,y,-z
-x,-y,-z
x,-y,z
1/2+x,1/2+y,z
1/2-x,1/2+y,-z
1/2-x,1/2-y,-z
1/2+x,1/2-y,z
loop_
_atom_site_type_symbol
_atom_site_label
_atom_site_fract_x
_atom_site_fract_y
_atom_site_fract_z
Si Si1 0.984604 0.761822 0.755706
Si Si2 0.469151 0.120187 0.848207
Si Si3 0.717525 0.382509 0.764893
Si Si4 0.046391 0.235526 0.386431
Si Si5 0.248900 0.382619 0.084247
Si Si6 0.759612 0.880965 0.561477
O O1 0.124510 0.820177 0.861401
O O2 0.955168 0.671286 0.779303
O O3 0.999907 0.715936 0.702739
O O4 0.855582 0.841850 0.673799
O O5 0.341349 0.155266 0.804774
O O6 0.469074 0.000000 0.839244
O O7 0.608164 0.156969 0.967057
O O8 0.680469 0.500000 0.729879
O O9 0.583537 0.314789 0.665072
O O10 0.763494 0.367028 0.857655
O O11 0.160422 0.146742 0.445638
O O12 0.112279 0.322354 0.467710
O O13 0.275418 0.500000 0.086555
O O14 0.731973 0.000000 0.549326
#
# Coordination Sequence:
#
# PCOD8084715 Si02
#       6
#     8   8   8   8   8   8
#     4   9  17  29  43  68  93 121 147 183 224 270
#     4  10  19  28  42  69  99 122 145 186 232 268
#     4   9  16  29  47  67  94 120 149 185 227 274
#     4   8  17  29  48  71  84 118 152 187 221 267
#     4   9  16  28  48  68  89 121 157 184 217 268
#     4   9  16  30  50  68  86 114 155 191 221 262
#
# _framework density 15.726062000000001
#
# number of rings (size 3 to 8) (size 9 to 14) (size 15 to 20)
#    1.000    2.000    0.000    2.000    0.000    2.667 
#    0.000    0.833    0.000    5.000    0.000    0.000 
#    0.000   16.000    0.000    0.000    0.000    0.000 
#
# Total GULP energy -297409.365849 kJ/mol
# GULP energy per Si atom -12392.056910 kJ/mol
# Density = 1.569027 g / cm^3
# Si number density = 15.726062 Si / 1000 Ang^3
#
#
#
# Elastic Constant Matrix: (Units=GPa)
#
#
# Indices 1 2 3 4 5 6 
#
# 1 62.5872 34.1608 42.5876 0.0001 7.9631 0.0000
# 2 34.1608 68.3773 57.3843 0.0002 10.4830 0.0000
# 3 42.5876 57.3843 111.0749 0.0006 24.9681 0.0001
# 4 0.0001 0.0002 0.0006 29.5231 0.0001 1.1651
# 5 7.9631 10.4830 24.9681 0.0001 13.6783 0.0000
# 6 0.0000 0.0000 0.0001 1.1651 0.0000 25.1869
#
#
#
# Elastic Compliance Matrix: (Units=1/GPa)
#
#
# Indices 1 2 3 4 5 6 
#
# 1 0.023613 -0.007254 -0.005877 0.000000 0.002540 0.000000
# 2 -0.007254 0.028539 -0.013559 0.000000 0.007101 0.000000
# 3 -0.005877 -0.013559 0.025702 0.000000 -0.033104 0.000000
# 4 0.000000 0.000000 0.000000 0.033934 0.000000 -0.001570
# 5 0.002540 0.007101 -0.033104 0.000000 0.126615 0.000000
# 6 0.000000 0.000000 0.000000 -0.001570 0.000000 0.039776
#
#
# Mechanical properties :
#
#
# Convention : Reuss Voigt Hill
#
# Bulk Modulus (GPa) = 40.85906 56.70054 48.77980
# Shear Modulus (GPa) = 14.71812 20.87142 17.79477
#
# Velocity S-wave (km/s) = 3.06258 3.64701 3.36750
# Velocity P-wave (km/s) = 6.20838 7.33946 6.79749
#
# Compressibility (1/GPa) = 0.02447438
#
# Stress axis : x y z
#
# Youngs Moduli (GPa) = 42.34988 35.03922 38.90684
#
# Poissons Ratio (x) = 0.25419 0.22864
# Poissons Ratio (y) = 0.30722 0.52754
# Poissons Ratio (z) = 0.24888 0.47510
#
# Static dielectric constant tensor:
#      x y z
#    x 2.713540 0.000000 0.158540 
#    y 0.000000 2.712930 0.000000 
#    z 0.158540 0.000000 3.099440 
# 
# 
# High freq. dielectric constant tensor:
#      x y z
#    x 1.572800 0.000000 0.013610 
#    y 0.000000 1.580640 0.000000 
#    z 0.013610 0.000000 1.613090 
# 
# From -- ./inp_files/365743.got.cif
#   From: 2010.06.25/outbox.cif.g09.slc.cpg/sg12_183_cif.got.tgz:365743.got - 2010.06.28 00:19:55.
