data_PCOD8084179
_publ_section_title
;
Structure prediction by ZEFSAII (Michael W. Deem and Ramdas Pophale) SiO2 
 PCOD8084179
Probable space group: C 2/M
;
_chemical_formula_sum "Si O2"
_cell_formula_units_Z 56
_cell_length_a 15.172223
_cell_length_b 9.147638
_cell_length_c 21.940111
_cell_angle_alpha 90.000000
_cell_angle_beta 78.992887
_cell_angle_gamma 90.000000
_cell_volume 2989.049454
_symmetry_space_group_name_H-M "C 2/M"
_symmetry_group_IT_number 12
_symmetry_cell_setting 'monoclinic'
loop_
_space_group_symop_operation_xyz
x,y,z
-x,y,-z
-x,-y,-z
x,-y,z
1/2+x,1/2+y,z
1/2-x,1/2+y,-z
1/2-x,1/2-y,-z
1/2+x,1/2-y,z
loop_
_atom_site_type_symbol
_atom_site_label
_atom_site_fract_x
_atom_site_fract_y
_atom_site_fract_z
Si Si1 0.076093 0.828192 0.149856
Si Si2 0.043947 0.328800 0.931076
Si Si3 0.106039 0.165191 0.490668
Si Si4 0.682613 0.171268 0.366530
Si Si5 0.242153 0.670478 0.937457
Si Si6 0.942893 0.826257 0.708923
Si Si7 0.377376 0.329115 0.376987
O O1 0.175990 0.780734 0.116469
O O2 0.062473 0.775781 0.220637
O O3 0.000908 0.752409 0.119185
O O4 0.062243 0.000000 0.145032
O O5 0.027041 0.500000 0.925002
O O6 0.149192 0.288048 0.916614
O O7 0.000000 0.273857 0.000000
O O8 0.145521 0.272558 0.435407
O O9 0.133027 0.232751 0.552964
O O10 0.000000 0.162625 0.500000
O O11 0.143589 0.000000 0.476161
O O12 0.639716 0.255012 0.315659
O O13 0.788973 0.204492 0.349358
O O14 0.662114 0.000000 0.364215
O O15 0.244948 0.500000 0.951687
O O16 0.250000 0.750000 0.000000
O O17 0.036028 0.763660 0.668987
O O18 0.934833 0.000000 0.703620
O O19 0.394399 0.500000 0.382413
#
# Coordination Sequence:
#
# PCOD8084179 Si02
#       7
#     8   8   8   8   8   8   8
#     4  10  22  37  58  84 109 141 188 235 266 314
#     4  10  20  35  56  81 112 147 175 214 279 336
#     4  10  18  34  60  82 105 149 190 221 273 336
#     4  11  22  35  55  85 114 140 180 237 280 316
#     4  10  20  35  55  83 112 142 178 222 273 325
#     4  10  21  41  59  75 108 153 189 220 269 336
#     4   9  19  36  57  79 109 147 185 222 272 335
#
# _framework density 18.735054000000002
#
# number of rings (size 3 to 8) (size 9 to 14) (size 15 to 20)
#    0.000    2.000    2.857    0.857    0.000    2.857 
#    0.000    2.143    0.000    0.000    0.000    0.000 
#    0.000    0.000    0.000    0.000    0.000    0.000 
#
# Total GULP energy -347245.389206 kJ/mol
# GULP energy per Si atom -12401.621043 kJ/mol
# Density = 1.869241 g / cm^3
# Si number density = 18.735054 Si / 1000 Ang^3
#
#
#
# Elastic Constant Matrix: (Units=GPa)
#
#
# Indices 1 2 3 4 5 6 
#
# 1 126.7807 36.9087 71.4453 0.0000 18.8559 0.0000
# 2 36.9087 38.4873 43.4553 0.0000 6.6506 0.0000
# 3 71.4453 43.4553 161.1398 0.0000 18.8918 0.0000
# 4 0.0000 0.0000 0.0000 20.5798 0.0000 13.0017
# 5 18.8559 6.6506 18.8918 0.0000 24.8370 0.0000
# 6 0.0000 0.0000 0.0000 13.0017 0.0000 25.0079
#
#
#
# Elastic Compliance Matrix: (Units=1/GPa)
#
#
# Indices 1 2 3 4 5 6 
#
# 1 0.012577 -0.007982 -0.002805 0.000000 -0.005277 0.000000
# 2 -0.007982 0.042573 -0.008032 0.000000 0.000770 0.000000
# 3 -0.002805 -0.008032 0.010006 0.000000 -0.003331 0.000000
# 4 0.000000 0.000000 0.000000 0.072358 0.000000 -0.037619
# 5 -0.005277 0.000770 -0.003331 0.000000 0.046596 0.000000
# 6 0.000000 0.000000 0.000000 -0.037619 0.000000 0.059546
#
#
# Mechanical properties :
#
#
# Convention : Reuss Voigt Hill
#
# Bulk Modulus (GPa) = 36.34016 70.00293 53.17155
# Shear Modulus (GPa) = 17.21366 25.72484 21.46925
#
# Velocity S-wave (km/s) = 3.03445 3.70954 3.38885
# Velocity P-wave (km/s) = 5.63171 7.46950 6.61474
#
# Compressibility (1/GPa) = 0.02751776
#
# Stress axis : x y z
#
# Youngs Moduli (GPa) = 79.50994 23.48894 99.93999
#
# Poissons Ratio (x) = 0.18749 0.28034
# Poissons Ratio (y) = 0.63466 0.80272
# Poissons Ratio (z) = 0.22303 0.18866
#
# Static dielectric constant tensor:
#      x y z
#    x 3.638540 0.000000 -0.090300 
#    y 0.000000 3.272960 0.000000 
#    z -0.090300 0.000000 3.532710 
# 
# 
# High freq. dielectric constant tensor:
#      x y z
#    x 1.742290 0.000000 0.003220 
#    y 0.000000 1.706910 0.000000 
#    z 0.003220 0.000000 1.727930 
# 
# From -- ./inp_files/308917.got.cif
#   From: 2010.06.25/outbox.cif.g09.slc.cpg/sg12_155_cif.got.tgz:308917.got - 2010.06.28 00:19:55.
