data_PCOD8084865
_publ_section_title
;
Structure prediction by ZEFSAII (Michael W. Deem and Ramdas Pophale) SiO2 
 PCOD8084865
Probable space group: C 2/M
;
_chemical_formula_sum "Si O2"
_cell_formula_units_Z 48
_cell_length_a 26.915090
_cell_length_b 9.073456
_cell_length_c 18.043764
_cell_angle_alpha 90.000000
_cell_angle_beta 45.582697
_cell_angle_gamma 90.000000
_cell_volume 3147.406693
_symmetry_space_group_name_H-M "C 2/M"
_symmetry_group_IT_number 12
_symmetry_cell_setting 'monoclinic'
loop_
_space_group_symop_operation_xyz
x,y,z
-x,y,-z
-x,-y,-z
x,-y,z
1/2+x,1/2+y,z
1/2-x,1/2+y,-z
1/2-x,1/2-y,-z
1/2+x,1/2-y,z
loop_
_atom_site_type_symbol
_atom_site_label
_atom_site_fract_x
_atom_site_fract_y
_atom_site_fract_z
Si Si1 0.685598 0.333352 0.032595
Si Si2 0.287244 0.330265 0.527702
Si Si3 0.129394 0.833657 0.939901
Si Si4 0.915533 0.832378 0.303511
Si Si5 0.813670 0.827844 0.274592
Si Si6 0.445259 0.825887 0.864329
O O1 0.682541 0.500000 0.067079
O O2 0.691796 0.334468 0.935999
O O3 0.750000 0.250000 0.000000
O O4 0.613574 0.247591 0.127731
O O5 0.264988 0.500000 0.550947
O O6 0.250000 0.250000 0.500000
O O7 0.370037 0.314330 0.426523
O O8 0.259647 0.254883 0.632157
O O9 0.157233 0.767297 0.833876
O O10 0.100974 0.000000 0.957249
O O11 0.066465 0.733568 0.038721
O O12 0.869761 0.791724 0.279367
O O13 0.979381 0.721145 0.243239
O O14 0.942893 0.000000 0.267790
O O15 0.796958 0.000000 0.287179
O O16 0.437940 0.000000 0.869465
#
# Coordination Sequence:
#
# PCOD8084865 Si02
#       6
#     8   8   8   8   8   8
#     4   9  17  31  49  66  88 113 142 178 220 267
#     4   9  17  28  43  62  84 116 154 188 219 253
#     4   8  17  31  45  63  89 118 146 177 220 269
#     4   9  17  29  43  60  88 122 152 181 216 258
#     4   9  17  30  46  63  87 121 154 183 218 259
#     4  10  19  29  43  65  90 115 149 183 217 259
#
# _framework density 15.250651
#
# number of rings (size 3 to 8) (size 9 to 14) (size 15 to 20)
#    1.000    2.000    0.000    3.000    0.000    4.667 
#    0.000    3.333    0.000    0.000    0.000    1.167 
#    0.000    9.333    0.000    0.000    0.000    0.000 
#
# Total GULP energy -297313.710508 kJ/mol
# GULP energy per Si atom -12388.071271 kJ/mol
# Density = 1.521594 g / cm^3
# Si number density = 15.250651 Si / 1000 Ang^3
#
#
#
# Elastic Constant Matrix: (Units=GPa)
#
#
# Indices 1 2 3 4 5 6 
#
# 1 36.1358 24.7029 23.4252 -0.0147 -14.9749 0.0086
# 2 24.7029 108.0483 51.8968 -0.0178 -15.6258 0.0137
# 3 23.4252 51.8968 93.3538 -0.0179 -17.5529 0.0166
# 4 -0.0147 -0.0178 -0.0179 30.9160 -0.0035 -4.0519
# 5 -14.9749 -15.6258 -17.5529 -0.0035 10.3181 0.0043
# 6 0.0086 0.0137 0.0166 -4.0519 0.0043 21.2414
#
#
#
# Elastic Compliance Matrix: (Units=1/GPa)
#
#
# Indices 1 2 3 4 5 6 
#
# 1 0.070287 -0.002689 0.003341 0.000040 0.103620 -0.000042
# 2 -0.002689 0.013563 -0.005494 0.000004 0.007291 -0.000004
# 3 0.003341 -0.005494 0.018048 0.000010 0.027231 -0.000016
# 4 0.000040 0.000004 0.000010 0.033175 0.000089 0.006328
# 5 0.103620 0.007291 0.027231 0.000089 0.304669 -0.000112
# 6 -0.000042 -0.000004 -0.000016 0.006328 -0.000112 0.048285
#
#
# Mechanical properties :
#
#
# Convention : Reuss Voigt Hill
#
# Bulk Modulus (GPa) = 10.84439 48.62086 29.73262
# Shear Modulus (GPa) = 9.46164 21.66263 15.56214
#
# Velocity S-wave (km/s) = 2.49350 3.77296 3.19787
# Velocity P-wave (km/s) = 3.92636 7.13657 5.75964
#
# Compressibility (1/GPa) = 0.09221357
#
# Stress axis : x y z
#
# Youngs Moduli (GPa) = 14.22748 73.72825 55.40718
#
# Poissons Ratio (x) = 0.19824 -0.18512
# Poissons Ratio (y) = 0.03825 0.30443
# Poissons Ratio (z) = -0.04753 0.40510
#
# Static dielectric constant tensor:
#      x y z
#    x 2.555740 0.000000 0.065530 
#    y 0.000000 3.017440 0.000030 
#    z 0.065530 0.000030 2.906570 
# 
# 
# High freq. dielectric constant tensor:
#      x y z
#    x 1.534770 0.000000 -0.004950 
#    y 0.000000 1.593580 0.000000 
#    z -0.004950 0.000000 1.581080 
# 
# From -- ./inp_files/326530.got.cif
#   From: 2010.06.25/outbox.cif.g09.slc.cpg/sg12_164_cif.got.tgz:326530.got - 2010.06.28 00:19:55.
