data_PCOD8084690
_publ_section_title
;
Structure prediction by ZEFSAII (Michael W. Deem and Ramdas Pophale) SiO2 
 PCOD8084690
Probable space group: C 2/M
;
_chemical_formula_sum "Si O2"
_cell_formula_units_Z 64
_cell_length_a 31.629598
_cell_length_b 14.175916
_cell_length_c 9.376749
_cell_angle_alpha 90.000000
_cell_angle_beta 95.734783
_cell_angle_gamma 90.000000
_cell_volume 4183.290580
_symmetry_space_group_name_H-M "C 2/M"
_symmetry_group_IT_number 12
_symmetry_cell_setting 'monoclinic'
loop_
_space_group_symop_operation_xyz
x,y,z
-x,y,-z
-x,-y,-z
x,-y,z
1/2+x,1/2+y,z
1/2-x,1/2+y,-z
1/2-x,1/2-y,-z
1/2+x,1/2-y,z
loop_
_atom_site_type_symbol
_atom_site_label
_atom_site_fract_x
_atom_site_fract_y
_atom_site_fract_z
Si Si1 0.182871 0.205179 0.254465
Si Si2 0.012680 0.111552 0.348454
Si Si3 0.701756 0.392486 0.542192
Si Si4 0.717362 0.609378 0.004598
Si Si5 0.091231 0.888595 0.193198
Si Si6 0.219791 0.394300 0.218624
Si Si7 0.645974 0.611654 0.773539
Si Si8 0.060567 0.888044 0.875578
O O1 0.203594 0.177903 0.411398
O O2 0.135296 0.166582 0.221931
O O3 0.182712 0.319002 0.239033
O O4 0.216814 0.164709 0.152748
O O5 0.061015 0.136195 0.318302
O O6 0.000000 0.153993 0.500000
O O7 0.981826 0.152571 0.213597
O O8 0.006775 0.000000 0.353153
O O9 0.696414 0.500000 0.486045
O O10 0.743184 0.383031 0.652945
O O11 0.660348 0.360730 0.619386
O O12 0.710093 0.500000 0.035836
O O13 0.761181 0.624065 0.933152
O O14 0.678399 0.652876 0.900935
O O15 0.101380 0.000000 0.190476
O O16 0.066737 0.855229 0.041187
O O17 0.200506 0.500000 0.220423
O O18 0.648414 0.500000 0.789166
O O19 0.599199 0.650166 0.791049
O O20 0.058911 0.000000 0.873920
#
# Coordination Sequence:
#
# PCOD8084690 Si02
#       8
#     8   8   8   8   8   8   8   8
#     4  12  19  27  46  69  86 108 152 192 215 247
#     4   9  18  28  39  57  87 124 149 167 202 254
#     4   9  18  29  43  63  88 114 142 180 220 260
#     4   9  16  29  45  64  87 111 141 178 215 257
#     4  10  19  28  40  64  90 113 146 182 212 247
#     4   9  20  35  45  57  86 122 149 177 223 268
#     4   8  14  25  40  59  85 117 142 164 208 257
#     4   9  15  26  41  55  83 123 148 165 201 253
#
# _framework density 15.298961
#
# number of rings (size 3 to 8) (size 9 to 14) (size 15 to 20)
#    0.000    2.625    1.250    3.750    1.750    1.500 
#    0.000    0.000    0.000    0.000    0.000    0.000 
#    0.000    2.500    0.000    0.000    0.000    0.125 
#
# Total GULP energy -396548.141063 kJ/mol
# GULP energy per Si atom -12392.129408 kJ/mol
# Density = 1.526414 g / cm^3
# Si number density = 15.298961 Si / 1000 Ang^3
#
#
#
# Elastic Constant Matrix: (Units=GPa)
#
#
# Indices 1 2 3 4 5 6 
#
# 1 66.4322 34.1405 31.4747 0.0000 -8.3010 0.0000
# 2 34.1405 54.2157 31.6405 0.0000 -12.9869 0.0000
# 3 31.4747 31.6405 95.9584 0.0000 -15.8046 0.0000
# 4 0.0000 0.0000 0.0000 9.7378 0.0000 -0.9001
# 5 -8.3010 -12.9869 -15.8046 0.0000 16.7739 0.0000
# 6 0.0000 0.0000 0.0000 -0.9001 0.0000 12.8897
#
#
#
# Elastic Compliance Matrix: (Units=1/GPa)
#
#
# Indices 1 2 3 4 5 6 
#
# 1 0.023193 -0.012943 -0.003669 0.000000 -0.002000 0.000000
# 2 -0.012943 0.032529 -0.004010 0.000000 0.015002 0.000000
# 3 -0.003669 -0.004010 0.014366 0.000000 0.008615 0.000000
# 4 0.000000 0.000000 0.000000 0.103360 0.000000 0.007218
# 5 -0.002000 0.015002 0.008615 0.000000 0.078359 0.000000
# 6 0.000000 0.000000 0.000000 0.007218 0.000000 0.078085
#
#
# Mechanical properties :
#
#
# Convention : Reuss Voigt Hill
#
# Bulk Modulus (GPa) = 34.66896 45.67975 40.17436
# Shear Modulus (GPa) = 13.13200 15.83698 14.48449
#
# Velocity S-wave (km/s) = 2.93295 3.22089 3.08029
# Velocity P-wave (km/s) = 5.84635 6.61476 6.24239
#
# Compressibility (1/GPa) = 0.02884425
#
# Stress axis : x y z
#
# Youngs Moduli (GPa) = 43.11677 30.74210 69.60994
#
# Poissons Ratio (x) = 0.39789 0.25541
# Poissons Ratio (y) = 0.55805 0.27911
# Poissons Ratio (z) = 0.15820 0.12327
#
# Static dielectric constant tensor:
#      x y z
#    x 2.987000 0.000000 -0.111930 
#    y 0.000000 2.512620 0.000000 
#    z -0.111930 0.000000 3.143720 
# 
# 
# High freq. dielectric constant tensor:
#      x y z
#    x 1.574690 0.000000 -0.009320 
#    y 0.000000 1.517950 0.000000 
#    z -0.009320 0.000000 1.603470 
# 
# From -- ./inp_files/111205.got.cif
#   From: 2010.06.25/outbox.cif.g09.slc.cpg/sg12_56_cif.got.tgz:111205.got - 2010.06.28 00:19:55.
