data_PCOD8084267
_publ_section_title
;
Structure prediction by ZEFSAII (Michael W. Deem and Ramdas Pophale) SiO2 
 PCOD8084267
Probable space group: C 2/M
;
_chemical_formula_sum "Si O2"
_cell_formula_units_Z 64
_cell_length_a 5.212138
_cell_length_b 17.212169
_cell_length_c 37.444182
_cell_angle_alpha 90.000000
_cell_angle_beta 93.306032
_cell_angle_gamma 90.000000
_cell_volume 3353.609403
_symmetry_space_group_name_H-M "C 2/M"
_symmetry_group_IT_number 12
_symmetry_cell_setting 'monoclinic'
loop_
_space_group_symop_operation_xyz
x,y,z
-x,y,-z
-x,-y,-z
x,-y,z
1/2+x,1/2+y,z
1/2-x,1/2+y,-z
1/2-x,1/2-y,-z
1/2+x,1/2-y,z
loop_
_atom_site_type_symbol
_atom_site_label
_atom_site_fract_x
_atom_site_fract_y
_atom_site_fract_z
Si Si1 0.906988 0.090799 0.275276
Si Si2 0.131868 0.332323 0.831842
Si Si3 0.241253 0.408509 0.978525
Si Si4 0.925176 0.590089 0.319924
Si Si5 0.881454 0.840294 0.198929
Si Si6 0.825255 0.297947 0.085411
Si Si7 0.417393 0.798805 0.463421
Si Si8 0.970012 0.300751 0.386258
O O1 0.681029 0.112865 0.300629
O O2 0.869186 0.145438 0.240847
O O3 0.178171 0.113386 0.294698
O O4 0.895483 0.000000 0.264344
O O5 0.094254 0.250432 0.811032
O O6 0.364803 0.380590 0.815869
O O7 0.185346 0.323153 0.873775
O O8 0.867052 0.378357 0.822401
O O9 0.240217 0.500000 0.973021
O O10 0.227076 0.372551 0.939172
O O11 0.500000 0.379975 0.000000
O O12 0.000000 0.380386 0.000000
O O13 0.920069 0.500000 0.329332
O O14 0.915366 0.633680 0.357125
O O15 0.602116 0.235400 0.076990
O O16 0.500000 0.847864 0.500000
O O17 0.619960 0.726327 0.464472
O O18 0.456272 0.841603 0.425561
O O19 0.751715 0.234672 0.381850
#
# Coordination Sequence:
#
# PCOD8084267 Si02
#       8
#     8   8   8   8   8   8   8   8
#     4  10  21  37  55  74 101 139 183 216 255 329
#     4  10  19  35  54  77 109 138 164 216 268 313
#     4  10  23  42  60  85 121 154 185 224 269 313
#     4  10  21  38  53  72 107 144 173 214 275 325
#     4  10  18  35  53  74 101 136 168 213 267 304
#     4  12  21  37  63  86 119 146 185 226 263 318
#     4   8  14  25  44  68  97 132 164 206 261 310
#     4  10  19  33  50  77 107 129 175 225 259 311
#
# _framework density 19.083917
#
# number of rings (size 3 to 8) (size 9 to 14) (size 15 to 20)
#    0.000    2.000    2.500    2.250    0.000    1.500 
#   13.500    1.250    0.000    0.375    0.000    0.000 
#    0.000   13.000    0.000    0.000    0.000    2.000 
#
# Total GULP energy -396588.164617 kJ/mol
# GULP energy per Si atom -12393.380144 kJ/mol
# Density = 1.904048 g / cm^3
# Si number density = 19.083917 Si / 1000 Ang^3
#
#
#
# Elastic Constant Matrix: (Units=GPa)
#
#
# Indices 1 2 3 4 5 6 
#
# 1 127.8379 6.4435 17.1077 0.0000 2.7296 0.0000
# 2 6.4435 23.3703 49.1842 0.0000 2.9994 0.0000
# 3 17.1077 49.1842 142.4401 0.0000 9.0809 0.0000
# 4 0.0000 0.0000 0.0000 -6.0418 0.0000 0.3816
# 5 2.7296 2.9994 9.0809 0.0000 29.6707 0.0000
# 6 0.0000 0.0000 0.0000 0.3816 0.0000 6.7752
#
#
#
# Elastic Compliance Matrix: (Units=1/GPa)
#
#
# Indices 1 2 3 4 5 6 
#
# 1 0.007959 -0.000678 -0.000693 0.000000 -0.000452 0.000000
# 2 -0.000678 0.156639 -0.054055 0.000000 0.000772 0.000000
# 3 -0.000693 -0.054055 0.025922 0.000000 -0.002406 0.000000
# 4 0.000000 0.000000 0.000000 -0.164927 0.000000 0.009290
# 5 -0.000452 0.000772 -0.002406 0.000000 0.034403 0.000000
# 6 0.000000 0.000000 0.000000 0.009290 0.000000 0.147074
#
#
# Mechanical properties :
#
#
# Convention : Reuss Voigt Hill
#
# Bulk Modulus (GPa) = 12.55202 48.79100 30.67151
# Shear Modulus (GPa) = 14.51474 20.80834 17.66154
#
# Velocity S-wave (km/s) = 2.76084 3.30564 3.04545
# Velocity P-wave (km/s) = 4.09323 6.33970 5.33602
#
# Compressibility (1/GPa) = 0.07966848
#
# Stress axis : x y z
#
# Youngs Moduli (GPa) = 125.64458 6.38412 38.57725
#
# Poissons Ratio (x) = 0.00433 0.02674
# Poissons Ratio (y) = 0.08516 2.08528
# Poissons Ratio (z) = 0.08708 0.34509
#
# Static dielectric constant tensor:
#      x y z
#    x 4.690530 0.000000 -0.026230 
#    y 0.000000 2.949210 0.000000 
#    z -0.026230 0.000000 3.704370 
# 
# 
# High freq. dielectric constant tensor:
#      x y z
#    x 1.780380 0.000000 0.001240 
#    y 0.000000 1.676060 0.000000 
#    z 0.001240 0.000000 1.760100 
# 
# From -- ./inp_files/371605.got.cif
#   From: 2010.06.25/outbox.cif.g09.slc.cpg/sg12_186_cif.got.tgz:371605.got - 2010.06.28 00:19:55.
