data_PCOD8084206
_publ_section_title
;
Structure prediction by ZEFSAII (Michael W. Deem and Ramdas Pophale) SiO2 
 PCOD8084206
Probable space group: C 2/M
;
_chemical_formula_sum "Si O2"
_cell_formula_units_Z 64
_cell_length_a 31.862492
_cell_length_b 17.104449
_cell_length_c 8.924112
_cell_angle_alpha 90.000000
_cell_angle_beta 39.609408
_cell_angle_gamma 90.000000
_cell_volume 3100.761982
_symmetry_space_group_name_H-M "C 2/M"
_symmetry_group_IT_number 12
_symmetry_cell_setting 'monoclinic'
loop_
_space_group_symop_operation_xyz
x,y,z
-x,y,-z
-x,-y,-z
x,-y,z
1/2+x,1/2+y,z
1/2-x,1/2+y,-z
1/2-x,1/2-y,-z
1/2+x,1/2-y,z
loop_
_atom_site_type_symbol
_atom_site_label
_atom_site_fract_x
_atom_site_fract_y
_atom_site_fract_z
Si Si1 0.655100 0.340009 0.078886
Si Si2 0.100909 0.413509 0.006521
Si Si3 0.289980 0.090551 0.754206
Si Si4 0.898461 0.681598 0.285363
Si Si5 0.979012 0.333414 0.352050
Si Si6 0.067511 0.196178 0.047350
Si Si7 0.464691 0.587647 0.437645
Si Si8 0.342102 0.832581 0.886909
O O1 0.603228 0.365187 0.350596
O O2 0.684663 0.255706 0.044090
O O3 0.714363 0.402062 0.912865
O O4 0.625756 0.337232 0.991541
O O5 0.127893 0.500000 0.944779
O O6 0.154022 0.362653 0.953439
O O7 0.023590 0.409276 0.267325
O O8 0.099540 0.386491 0.840051
O O9 0.331866 0.159840 0.558738
O O10 0.297239 0.109490 0.911507
O O11 0.312617 0.000000 0.662098
O O12 0.959733 0.674911 0.230081
O O13 0.902373 0.767525 0.191369
O O14 0.917500 0.333786 0.627183
O O15 0.030154 0.263029 0.245560
O O16 0.011748 0.128291 0.181919
O O17 0.500000 0.585481 0.500000
O O18 0.449260 0.500000 0.423780
#
# Coordination Sequence:
#
# PCOD8084206 Si02
#       8
#     8   8   8   8   8   8   8   8
#     4  11  20  36  63  85 117 157 204 242 295 355
#     4  11  21  33  55  85 119 154 197 246 299 349
#     4  11  25  41  57  85 123 160 206 251 288 347
#     4  10  22  38  59  81 119 166 197 234 296 352
#     4  10  20  34  57  85 117 154 193 242 295 358
#     4  10  18  34  60  89 117 148 198 243 290 360
#     4   9  18  31  57  93 120 145 183 250 311 343
#     4  11  21  37  58  86 116 156 202 244 304 349
#
# _framework density 20.640087999999999
#
# number of rings (size 3 to 8) (size 9 to 14) (size 15 to 20)
#    0.000    1.625    3.750    3.375    0.000    5.000 
#    0.000    0.000    0.000    1.500    0.000    0.000 
#    0.000    0.000    0.000    0.000    0.000    0.000 
#
# Total GULP energy -396446.257330 kJ/mol
# GULP energy per Si atom -12388.945542 kJ/mol
# Density = 2.059311 g / cm^3
# Si number density = 20.640088 Si / 1000 Ang^3
#
#
#
# Elastic Constant Matrix: (Units=GPa)
#
#
# Indices 1 2 3 4 5 6 
#
# 1 103.4804 35.0549 26.3048 0.0000 -1.0643 0.0000
# 2 35.0549 122.1962 26.7300 0.0000 3.4556 0.0000
# 3 26.3048 26.7300 43.5915 0.0000 -3.0772 0.0000
# 4 0.0000 0.0000 0.0000 27.8449 0.0000 -1.9958
# 5 -1.0643 3.4556 -3.0772 0.0000 27.4942 0.0000
# 6 0.0000 0.0000 0.0000 -1.9958 0.0000 20.2295
#
#
#
# Elastic Compliance Matrix: (Units=1/GPa)
#
#
# Indices 1 2 3 4 5 6 
#
# 1 0.011874 -0.002127 -0.005855 0.000000 0.000072 0.000000
# 2 -0.002127 0.009927 -0.004936 0.000000 -0.001882 0.000000
# 3 -0.005855 -0.004936 0.029763 0.000000 0.003725 0.000000
# 4 0.000000 0.000000 0.000000 0.036169 0.000000 0.003568
# 5 0.000072 -0.001882 0.003725 0.000000 0.037028 0.000000
# 6 0.000000 0.000000 0.000000 0.003568 0.000000 0.049785
#
#
# Mechanical properties :
#
#
# Convention : Reuss Voigt Hill
#
# Bulk Modulus (GPa) = 38.87144 49.49417 44.18281
# Shear Modulus (GPa) = 23.92817 27.19226 25.56021
#
# Velocity S-wave (km/s) = 3.40855 3.63361 3.52288
# Velocity P-wave (km/s) = 5.86215 6.45258 6.16444
#
# Compressibility (1/GPa) = 0.02572583
#
# Stress axis : x y z
#
# Youngs Moduli (GPa) = 84.22098 100.73664 33.59821
#
# Poissons Ratio (x) = 0.21430 0.19673
# Poissons Ratio (y) = 0.17917 0.16585
# Poissons Ratio (z) = 0.49315 0.49726
#
# Static dielectric constant tensor:
#      x y z
#    x 3.747360 0.000000 0.028930 
#    y 0.000000 3.925870 0.000000 
#    z 0.028930 0.000000 3.576570 
# 
# 
# High freq. dielectric constant tensor:
#      x y z
#    x 1.806510 0.000000 -0.001180 
#    y 0.000000 1.800530 0.000000 
#    z -0.001180 0.000000 1.778450 
# 
# From -- ./inp_files/112835.got.cif
#   From: 2010.06.25/outbox.cif.g09.slc.cpg/sg12_57_cif.got.tgz:112835.got - 2010.06.28 00:19:55.
