data_PCOD8084502
_publ_section_title
;
Structure prediction by ZEFSAII (Michael W. Deem and Ramdas Pophale) SiO2 
 PCOD8084502
Probable space group: C 2/M
;
_chemical_formula_sum "Si O2"
_cell_formula_units_Z 52
_cell_length_a 10.697422
_cell_length_b 27.461647
_cell_length_c 17.307251
_cell_angle_alpha 90.000000
_cell_angle_beta 29.392209
_cell_angle_gamma 90.000000
_cell_volume 2495.314739
_symmetry_space_group_name_H-M "C 2/M"
_symmetry_group_IT_number 12
_symmetry_cell_setting 'monoclinic'
loop_
_space_group_symop_operation_xyz
x,y,z
-x,y,-z
-x,-y,-z
x,-y,z
1/2+x,1/2+y,z
1/2-x,1/2+y,-z
1/2-x,1/2-y,-z
1/2+x,1/2-y,z
loop_
_atom_site_type_symbol
_atom_site_label
_atom_site_fract_x
_atom_site_fract_y
_atom_site_fract_z
Si Si1 0.140682 0.849844 0.714226
Si Si2 0.496897 0.152213 0.220138
Si Si3 0.279465 0.500000 0.888401
Si Si4 0.000000 0.200688 0.000000
Si Si5 0.947515 0.750759 0.176415
Si Si6 0.646151 0.098794 0.001387
Si Si7 0.176699 0.500000 0.480377
Si Si8 0.082058 0.392405 0.575515
O O1 0.308105 0.877333 0.688975
O O2 0.204471 0.869674 0.595168
O O3 0.167004 0.791492 0.703919
O O4 0.846586 0.857890 0.889909
O O5 0.793192 0.165364 0.072718
O O6 0.350424 0.199705 0.264429
O O7 0.371838 0.131084 0.365224
O O8 0.468378 0.109800 0.170838
O O9 0.294855 0.547782 0.933696
O O10 0.520170 0.500000 0.700685
O O11 0.000000 0.500000 0.000000
O O12 0.848745 0.235059 0.143369
O O13 0.250000 0.750000 0.000000
O O14 0.500000 0.097259 0.000000
O O15 0.000000 0.500000 0.500000
O O16 0.110335 0.451178 0.564579
#
# Coordination Sequence:
#
# PCOD8084502 Si02
#       8
#     8   8   4   4   8   8   4   8
#     4  11  20  40  62  93 126 169 206 268 325 391
#     4  11  22  37  60  95 126 167 216 273 323 385
#     4  10  22  41  66  93 126 179 224 267 323 403
#     4  10  18  36  60  89 124 159 214 276 322 370
#     4  10  20  33  60  87 122 167 208 260 327 380
#     4  11  22  38  64  88 124 166 222 264 312 389
#     4  12  20  39  72 103 131 178 218 271 354 403
#     4  11  23  38  67  95 136 163 212 273 339 391
#
# _framework density 20.839055999999999
#
# number of rings (size 3 to 8) (size 9 to 14) (size 15 to 20)
#    0.000    1.231    7.692    0.000    1.077    1.231 
#    0.000    0.769    0.000    5.538    0.000    0.000 
#    0.000    0.000    0.000    0.000    0.000    0.000 
#
# Total GULP energy -322156.124088 kJ/mol
# GULP energy per Si atom -12390.620157 kJ/mol
# Density = 2.079163 g / cm^3
# Si number density = 20.839056 Si / 1000 Ang^3
#
#
#
# Elastic Constant Matrix: (Units=GPa)
#
#
# Indices 1 2 3 4 5 6 
#
# 1 72.8267 38.4245 36.4545 0.0046 32.0404 -0.0031
# 2 38.4245 174.2868 45.2662 0.0007 33.1447 0.0026
# 3 36.4545 45.2662 68.3412 -0.0007 21.9376 0.0153
# 4 0.0046 0.0007 -0.0007 40.6249 -0.0069 11.0554
# 5 32.0404 33.1447 21.9376 -0.0069 50.2992 0.0024
# 6 -0.0031 0.0026 0.0153 11.0554 0.0024 26.1720
#
#
#
# Elastic Compliance Matrix: (Units=1/GPa)
#
#
# Indices 1 2 3 4 5 6 
#
# 1 0.022939 -0.000930 -0.008286 -0.000008 -0.010385 0.000012
# 2 -0.000930 0.007375 -0.003510 -0.000001 -0.002736 0.000002
# 3 -0.008286 -0.003510 0.022024 0.000005 -0.002014 -0.000016
# 4 -0.000008 -0.000001 0.000005 0.027813 0.000008 -0.011748
# 5 -0.010385 -0.002736 -0.002014 0.000008 0.029178 -0.000006
# 6 0.000012 0.000002 -0.000016 -0.011748 -0.000006 0.043172
#
#
# Mechanical properties :
#
#
# Convention : Reuss Voigt Hill
#
# Bulk Modulus (GPa) = 37.19649 61.74945 49.47297
# Shear Modulus (GPa) = 26.75022 36.43983 31.59503
#
# Velocity S-wave (km/s) = 3.58670 4.18620 3.89799
# Velocity P-wave (km/s) = 5.91952 7.28434 6.63711
#
# Compressibility (1/GPa) = 0.02688426
#
# Stress axis : x y z
#
# Youngs Moduli (GPa) = 43.59436 135.59741 45.40475
#
# Poissons Ratio (x) = 0.12613 0.37624
# Poissons Ratio (y) = 0.04055 0.15938
# Poissons Ratio (z) = 0.36123 0.47598
#
# Static dielectric constant tensor:
#      x y z
#    x 3.969540 -0.000040 0.316420 
#    y -0.000040 4.604000 -0.000080 
#    z 0.316420 -0.000080 3.681420 
# 
# 
# High freq. dielectric constant tensor:
#      x y z
#    x 1.797410 0.000000 0.010450 
#    y 0.000000 1.830390 0.000000 
#    z 0.010450 0.000000 1.796520 
# 
# From -- ./inp_files/265947.got.cif
#   From: 2010.06.25/outbox.cif.g09.slc.cpg/sg12_133_cif.got.tgz:265947.got - 2010.06.28 00:19:55.
