data_PCOD8084018
_publ_section_title
;
Structure prediction by ZEFSAII (Michael W. Deem and Ramdas Pophale) SiO2 
 PCOD8084018
Probable space group: C 2/M
;
_chemical_formula_sum "Si O2"
_cell_formula_units_Z 48
_cell_length_a 12.218868
_cell_length_b 25.872462
_cell_length_c 11.567663
_cell_angle_alpha 90.000000
_cell_angle_beta 132.230657
_cell_angle_gamma 90.000000
_cell_volume 2707.741542
_symmetry_space_group_name_H-M "C 2/M"
_symmetry_group_IT_number 12
_symmetry_cell_setting 'monoclinic'
loop_
_space_group_symop_operation_xyz
x,y,z
-x,y,-z
-x,-y,-z
x,-y,z
1/2+x,1/2+y,z
1/2-x,1/2+y,-z
1/2-x,1/2-y,-z
1/2+x,1/2-y,z
loop_
_atom_site_type_symbol
_atom_site_label
_atom_site_fract_x
_atom_site_fract_y
_atom_site_fract_z
Si Si1 0.314104 0.643826 0.212894
Si Si2 0.672981 0.443245 0.612433
Si Si3 0.346291 0.356598 0.574114
Si Si4 0.647970 0.792127 0.279309
Si Si5 0.313161 0.194348 0.082309
Si Si6 0.643439 0.681143 0.180918
O O1 0.270959 0.587597 0.233689
O O2 0.487882 0.654348 0.352688
O O3 0.220731 0.687367 0.213235
O O4 0.272210 0.649228 0.048849
O O5 0.500000 0.451490 0.500000
O O6 0.749547 0.500000 0.660006
O O7 0.712415 0.409682 0.526184
O O8 0.246824 0.308573 0.459214
O O9 0.338179 0.363410 0.708138
O O10 0.484502 0.814193 0.180542
O O11 0.629633 0.731047 0.253015
O O12 0.285088 0.184335 0.198326
O O13 0.250000 0.250000 0.000000
O O14 0.500000 0.672873 0.000000
#
# Coordination Sequence:
#
# PCOD8084018 Si02
#       6
#     8   8   8   8   8   8
#     4  10  18  34  56  77 103 138 174 215 260 303
#     4   8  16  32  56  81 102 127 168 225 273 300
#     4  10  21  35  53  78 102 135 177 220 254 307
#     4  11  21  34  50  74 105 140 181 213 245 299
#     4  12  21  33  50  73 108 150 173 204 254 308
#     4  12  21  33  50  70 108 145 176 204 256 306
#
# _framework density 17.726951
#
# number of rings (size 3 to 8) (size 9 to 14) (size 15 to 20)
#    0.000    1.500    5.000    2.500    0.000    0.667 
#    3.000    0.000    0.000    9.500    0.000    4.667 
#    0.000    0.000    0.000    0.000    0.000    0.000 
#
# Total GULP energy -297477.074563 kJ/mol
# GULP energy per Si atom -12394.878107 kJ/mol
# Density = 1.768660 g / cm^3
# Si number density = 17.726951 Si / 1000 Ang^3
#
#
#
# Elastic Constant Matrix: (Units=GPa)
#
#
# Indices 1 2 3 4 5 6 
#
# 1 88.4621 24.0300 39.5116 0.0000 -10.3209 0.0000
# 2 24.0300 87.5108 46.0120 0.0000 -18.0390 0.0000
# 3 39.5116 46.0120 104.8687 0.0000 -15.0044 0.0000
# 4 0.0000 0.0000 0.0000 15.6983 0.0000 -2.3947
# 5 -10.3209 -18.0390 -15.0044 0.0000 40.4913 0.0000
# 6 0.0000 0.0000 0.0000 -2.3947 0.0000 12.8560
#
#
#
# Elastic Compliance Matrix: (Units=1/GPa)
#
#
# Indices 1 2 3 4 5 6 
#
# 1 0.013780 -0.001143 -0.004499 0.000000 0.001336 0.000000
# 2 -0.001143 0.015744 -0.005824 0.000000 0.004565 0.000000
# 3 -0.004499 -0.005824 0.013993 0.000000 0.001444 0.000000
# 4 0.000000 0.000000 0.000000 0.065564 0.000000 0.012213
# 5 0.001336 0.004565 0.001444 0.000000 0.027606 0.000000
# 6 0.000000 0.000000 0.000000 0.012213 0.000000 0.080059
#
#
# Mechanical properties :
#
#
# Convention : Reuss Voigt Hill
#
# Bulk Modulus (GPa) = 48.58036 55.54988 52.06512
# Shear Modulus (GPa) = 20.28058 25.22833 22.75446
#
# Velocity S-wave (km/s) = 3.38606 3.77658 3.58663
# Velocity P-wave (km/s) = 6.53846 7.10078 6.82542
#
# Compressibility (1/GPa) = 0.02058445
#
# Stress axis : x y z
#
# Youngs Moduli (GPa) = 72.56754 63.51552 71.46444
#
# Poissons Ratio (x) = 0.07259 0.32155
# Poissons Ratio (y) = 0.08293 0.41622
# Poissons Ratio (z) = 0.32651 0.36993
#
# Static dielectric constant tensor:
#      x y z
#    x 3.360300 0.000000 -0.147340 
#    y 0.000000 3.252970 0.000000 
#    z -0.147340 0.000000 3.372450 
# 
# 
# High freq. dielectric constant tensor:
#      x y z
#    x 1.685170 0.000000 -0.008990 
#    y 0.000000 1.644000 0.000000 
#    z -0.008990 0.000000 1.686650 
# 
# From -- ./inp_files/52402.got.cif
#   From: 2010.06.25/outbox.cif.g09.slc.cpg/sg12_27_cif.got.tgz:52402.got - 2010.06.28 00:19:55.
