data_PCOD8084337
_publ_section_title
;
Structure prediction by ZEFSAII (Michael W. Deem and Ramdas Pophale) SiO2 
 PCOD8084337
Probable space group: C 2/M
;
_chemical_formula_sum "Si O2"
_cell_formula_units_Z 48
_cell_length_a 14.652739
_cell_length_b 8.918835
_cell_length_c 28.703254
_cell_angle_alpha 90.000000
_cell_angle_beta 138.741641
_cell_angle_gamma 90.000000
_cell_volume 2473.680294
_symmetry_space_group_name_H-M "C 2/M"
_symmetry_group_IT_number 12
_symmetry_cell_setting 'monoclinic'
loop_
_space_group_symop_operation_xyz
x,y,z
-x,y,-z
-x,-y,-z
x,-y,z
1/2+x,1/2+y,z
1/2-x,1/2+y,-z
1/2-x,1/2-y,-z
1/2+x,1/2-y,z
loop_
_atom_site_type_symbol
_atom_site_label
_atom_site_fract_x
_atom_site_fract_y
_atom_site_fract_z
Si Si1 0.591596 0.824997 0.990959
Si Si2 0.588518 0.827500 0.657841
Si Si3 0.363428 0.177742 0.743712
Si Si4 0.646827 0.826688 0.364087
Si Si5 0.588280 0.674947 0.892704
Si Si6 0.414953 0.332372 0.514212
O O1 0.753553 0.790939 0.061169
O O2 0.565043 0.000000 0.972025
O O3 0.500000 0.769283 0.000000
O O4 0.545617 0.738167 0.926908
O O5 0.724529 0.727519 0.716657
O O6 0.504920 0.803498 0.673418
O O7 0.491914 0.778319 0.578399
O O8 0.630361 0.000000 0.666527
O O9 0.352438 0.244269 0.687105
O O10 0.497589 0.246579 0.818804
O O11 0.377844 0.000000 0.750229
O O12 0.764633 0.759774 0.443814
O O13 0.687513 0.000000 0.374483
O O14 0.556675 0.500000 0.881256
O O15 0.500000 0.343054 0.500000
O O16 0.402819 0.500000 0.531665
#
# Coordination Sequence:
#
# PCOD8084337 Si02
#       6
#     8   8   8   8   8   8
#     4   9  19  38  63  89 118 151 186 221 265 326
#     4  11  22  36  55  83 112 139 185 242 289 327
#     4  11  22  40  59  77 110 155 191 222 276 339
#     4   9  20  37  56  78 108 147 187 230 280 339
#     4  10  21  37  58  88 120 147 183 230 274 318
#     4  10  18  35  59  78 105 146 189 227 279 345
#
# _framework density 19.404285000000002
#
# number of rings (size 3 to 8) (size 9 to 14) (size 15 to 20)
#    0.000    2.000    1.667    2.000    0.000    2.667 
#    0.000    7.500    0.000    0.000    0.000    0.000 
#    0.000    0.000    0.000    0.000    0.000    0.000 
#
# Total GULP energy -297606.222232 kJ/mol
# GULP energy per Si atom -12400.259260 kJ/mol
# Density = 1.936012 g / cm^3
# Si number density = 19.404285 Si / 1000 Ang^3
#
#
#
# Elastic Constant Matrix: (Units=GPa)
#
#
# Indices 1 2 3 4 5 6 
#
# 1 101.8869 29.9318 30.0410 0.0000 6.3012 0.0000
# 2 29.9318 58.6846 38.2979 0.0000 0.7064 0.0000
# 3 30.0410 38.2979 106.2612 0.0000 12.6219 0.0000
# 4 0.0000 0.0000 0.0000 29.2608 0.0000 9.4478
# 5 6.3012 0.7064 12.6219 0.0000 17.5997 0.0000
# 6 0.0000 0.0000 0.0000 9.4478 0.0000 18.8289
#
#
#
# Elastic Compliance Matrix: (Units=1/GPa)
#
#
# Indices 1 2 3 4 5 6 
#
# 1 0.011897 -0.005347 -0.001045 0.000000 -0.003295 0.000000
# 2 -0.005347 0.025148 -0.008373 0.000000 0.006910 0.000000
# 3 -0.001045 -0.008373 0.013817 0.000000 -0.009199 0.000000
# 4 0.000000 0.000000 0.000000 0.040783 0.000000 -0.020464
# 5 -0.003295 0.006910 -0.009199 0.000000 0.064318 0.000000
# 6 0.000000 0.000000 0.000000 -0.020464 0.000000 0.063378
#
#
# Mechanical properties :
#
#
# Convention : Reuss Voigt Hill
#
# Bulk Modulus (GPa) = 46.87556 51.48599 49.18078
# Shear Modulus (GPa) = 19.53265 24.37536 21.95400
#
# Velocity S-wave (km/s) = 3.17616 3.54811 3.36728
# Velocity P-wave (km/s) = 6.13681 6.58608 6.36541
#
# Compressibility (1/GPa) = 0.02133308
#
# Stress axis : x y z
#
# Youngs Moduli (GPa) = 84.05178 39.76410 72.37671
#
# Poissons Ratio (x) = 0.21260 0.07564
# Poissons Ratio (y) = 0.44938 0.60601
# Poissons Ratio (z) = 0.08784 0.33295
#
# Static dielectric constant tensor:
#      x y z
#    x 3.695300 0.000000 0.038020 
#    y 0.000000 3.464780 0.000000 
#    z 0.038020 0.000000 3.562920 
# 
# 
# High freq. dielectric constant tensor:
#      x y z
#    x 1.762400 0.000000 0.006030 
#    y 0.000000 1.743320 0.000000 
#    z 0.006030 0.000000 1.755040 
# 
# From -- ./inp_files/308589.got.cif
#   From: 2010.06.25/outbox.cif.g09.slc.cpg/sg12_155_cif.got.tgz:308589.got - 2010.06.28 00:19:55.
