data_PCOD8084139
_publ_section_title
;
Structure prediction by ZEFSAII (Michael W. Deem and Ramdas Pophale) SiO2 
 PCOD8084139
Probable space group: C 2/M
;
_chemical_formula_sum "Si O2"
_cell_formula_units_Z 64
_cell_length_a 19.381136
_cell_length_b 8.700904
_cell_length_c 24.373915
_cell_angle_alpha 90.000000
_cell_angle_beta 127.816375
_cell_angle_gamma 90.000000
_cell_volume 3247.019462
_symmetry_space_group_name_H-M "C 2/M"
_symmetry_group_IT_number 12
_symmetry_cell_setting 'monoclinic'
loop_
_space_group_symop_operation_xyz
x,y,z
-x,y,-z
-x,-y,-z
x,-y,z
1/2+x,1/2+y,z
1/2-x,1/2+y,-z
1/2-x,1/2-y,-z
1/2+x,1/2-y,z
loop_
_atom_site_type_symbol
_atom_site_label
_atom_site_fract_x
_atom_site_fract_y
_atom_site_fract_z
Si Si1 0.864060 0.328871 0.300379
Si Si2 0.836513 0.828316 0.791334
Si Si3 0.595279 0.316975 0.061366
Si Si4 0.746895 0.182965 0.937939
Si Si5 0.416762 0.182602 0.211762
Si Si6 0.403809 0.816659 0.437679
Si Si7 0.751830 0.818205 0.561257
Si Si8 0.612583 0.178993 0.292806
O O1 0.903948 0.500000 0.325087
O O2 0.762489 0.337299 0.237890
O O3 0.906792 0.246051 0.268352
O O4 0.883467 0.244677 0.367651
O O5 0.888383 0.760139 0.868544
O O6 0.843319 0.714887 0.743582
O O7 0.869267 0.000000 0.790876
O O8 0.597347 0.500000 0.061284
O O9 0.669038 0.255601 0.055243
O O10 0.500000 0.251297 0.000000
O O11 0.658173 0.245065 0.865647
O O12 0.747403 0.000000 0.941598
O O13 0.750000 0.250000 0.000000
O O14 0.512092 0.232239 0.237626
O O15 0.405957 0.000000 0.210491
O O16 0.500000 0.758853 0.500000
O O17 0.332307 0.754687 0.446153
O O18 0.396803 0.000000 0.433013
O O19 0.750000 0.750000 0.500000
O O20 0.840253 0.769151 0.635173
O O21 0.749288 0.000000 0.555720
O O22 0.620039 0.000000 0.309953
#
# Coordination Sequence:
#
# PCOD8084139 Si02
#       8
#     8   8   8   8   8   8   8   8
#     4   9  15  30  55  78 100 135 185 232 263 304
#     4  10  18  34  59  81 105 140 185 236 279 321
#     4   9  18  32  54  83 109 140 185 233 281 330
#     4  10  20  36  55  79 112 146 184 232 280 332
#     4   9  19  34  54  79 109 147 189 227 268 325
#     4   9  18  31  54  85 108 133 178 225 262 311
#     4  11  23  40  60  85 116 148 183 227 277 329
#     4  11  23  37  56  83 114 149 185 225 276 333
#
# _framework density 19.710384000000001
#
# number of rings (size 3 to 8) (size 9 to 14) (size 15 to 20)
#    0.000    2.250    2.500    0.750    3.500    0.000 
#    0.000    1.250    0.000    5.250    0.000    0.000 
#    0.000    0.000    0.000    0.000    0.000    0.000 
#
# Total GULP energy -396691.970149 kJ/mol
# GULP energy per Si atom -12396.624067 kJ/mol
# Density = 1.966552 g / cm^3
# Si number density = 19.710384 Si / 1000 Ang^3
#
#
#
# Elastic Constant Matrix: (Units=GPa)
#
#
# Indices 1 2 3 4 5 6 
#
# 1 101.3945 20.5362 53.2796 0.0000 -2.0309 0.0000
# 2 20.5362 28.3223 19.5240 0.0000 -1.0718 0.0000
# 3 53.2796 19.5240 159.9035 0.0000 -6.3698 0.0000
# 4 0.0000 0.0000 0.0000 25.2105 0.0000 -5.7284
# 5 -2.0309 -1.0718 -6.3698 0.0000 42.9817 0.0000
# 6 0.0000 0.0000 0.0000 -5.7284 0.0000 17.8694
#
#
#
# Elastic Compliance Matrix: (Units=1/GPa)
#
#
# Indices 1 2 3 4 5 6 
#
# 1 0.013149 -0.007114 -0.003516 0.000000 -0.000077 0.000000
# 2 -0.007114 0.042404 -0.002795 0.000000 0.000307 0.000000
# 3 -0.003516 -0.002795 0.007803 0.000000 0.000921 0.000000
# 4 0.000000 0.000000 0.000000 0.042782 0.000000 0.013715
# 5 -0.000077 0.000307 0.000921 0.000000 0.023406 0.000000
# 6 0.000000 0.000000 0.000000 0.013715 0.000000 0.060358
#
#
# Mechanical properties :
#
#
# Convention : Reuss Voigt Hill
#
# Bulk Modulus (GPa) = 27.39150 52.92220 40.15685
# Shear Modulus (GPa) = 21.84159 30.29770 26.06965
#
# Velocity S-wave (km/s) = 3.33246 3.92490 3.64075
# Velocity P-wave (km/s) = 5.36043 6.88825 6.17180
#
# Compressibility (1/GPa) = 0.03650768
#
# Stress axis : x y z
#
# Youngs Moduli (GPa) = 76.05072 23.58259 128.15314
#
# Poissons Ratio (x) = 0.16776 0.45056
# Poissons Ratio (y) = 0.54099 0.35819
# Poissons Ratio (z) = 0.26738 0.06591
#
# Static dielectric constant tensor:
#      x y z
#    x 3.730990 0.000000 0.035840 
#    y 0.000000 3.042560 0.000000 
#    z 0.035840 0.000000 3.833790 
# 
# 
# High freq. dielectric constant tensor:
#      x y z
#    x 1.777680 0.000000 -0.003620 
#    y 0.000000 1.707480 0.000000 
#    z -0.003620 0.000000 1.786720 
# 
# From -- ./inp_files/346250.got.cif
#   From: 2010.06.25/outbox.cif.g09.slc.cpg/sg12_174_cif.got.tgz:346250.got - 2010.06.28 00:19:55.
