data_PCOD8084278
_publ_section_title
;
Structure prediction by ZEFSAII (Michael W. Deem and Ramdas Pophale) SiO2 
 PCOD8084278
Probable space group: C 2/M
;
_chemical_formula_sum "Si O2"
_cell_formula_units_Z 60
_cell_length_a 9.606285
_cell_length_b 21.993364
_cell_length_c 19.051954
_cell_angle_alpha 90.000000
_cell_angle_beta 52.755007
_cell_angle_gamma 90.000000
_cell_volume 3204.274184
_symmetry_space_group_name_H-M "C 2/M"
_symmetry_group_IT_number 12
_symmetry_cell_setting 'monoclinic'
loop_
_space_group_symop_operation_xyz
x,y,z
-x,y,-z
-x,-y,-z
x,-y,z
1/2+x,1/2+y,z
1/2-x,1/2+y,-z
1/2-x,1/2-y,-z
1/2+x,1/2-y,z
loop_
_atom_site_type_symbol
_atom_site_label
_atom_site_fract_x
_atom_site_fract_y
_atom_site_fract_z
Si Si1 0.500000 0.884653 0.500000
Si Si2 0.598911 0.187178 0.897749
Si Si3 0.471416 0.750356 0.799852
Si Si4 0.499944 0.569290 0.348377
Si Si5 0.484281 0.873543 0.719213
Si Si6 0.721978 0.646167 0.685914
Si Si7 0.241638 0.431397 0.539878
Si Si8 0.388613 0.069030 0.189305
O O1 0.626146 0.839993 0.417218
O O2 0.607996 0.930408 0.515645
O O3 0.488321 0.222435 0.872570
O O4 0.794080 0.212581 0.845574
O O5 0.602545 0.115089 0.878877
O O6 0.500000 0.197359 0.000000
O O7 0.482407 0.802511 0.738217
O O8 0.638904 0.708504 0.736562
O O9 0.442938 0.500000 0.354903
O O10 0.424978 0.604504 0.304213
O O11 0.427513 0.590169 0.447951
O O12 0.706355 0.577972 0.285497
O O13 0.313496 0.888084 0.724132
O O14 0.667135 0.887415 0.622989
O O15 0.468276 0.913976 0.794910
O O16 0.255020 0.500000 0.566338
O O17 0.416351 0.000000 0.153615
#
# Coordination Sequence:
#
# PCOD8084278 Si02
#       8
#     4   8   8   8   8   8   8   8
#     4   8  17  28  48  78 104 148 191 226 264 308
#     4  11  23  40  64  86 108 141 181 231 284 339
#     4  11  21  39  58  84 110 141 186 230 274 337
#     4   9  18  32  54  80 110 150 192 229 265 319
#     4  10  21  33  53  80 111 149 182 227 275 312
#     4  10  18  35  54  76 111 148 190 228 264 316
#     4   9  16  29  49  77 110 146 190 228 264 313
#     4  10  21  37  57  85 115 143 179 226 286 338
#
# _framework density 18.724988
#
# number of rings (size 3 to 8) (size 9 to 14) (size 15 to 20)
#    0.000    2.133    2.667    1.000    0.000    4.533 
#    0.000   10.667    0.000    0.000    0.000    0.933 
#    0.000    0.000    0.000    0.000    0.000    0.000 
#
# Total GULP energy -371831.772827 kJ/mol
# GULP energy per Si atom -12394.392428 kJ/mol
# Density = 1.868237 g / cm^3
# Si number density = 18.724988 Si / 1000 Ang^3
#
#
#
# Elastic Constant Matrix: (Units=GPa)
#
#
# Indices 1 2 3 4 5 6 
#
# 1 67.7731 32.3866 23.3482 0.0000 9.7455 0.0000
# 2 32.3866 100.2907 43.5217 0.0000 7.9140 0.0000
# 3 23.3482 43.5217 81.0863 0.0000 8.5223 0.0000
# 4 0.0000 0.0000 0.0000 22.2237 0.0000 -1.2401
# 5 9.7455 7.9140 8.5223 0.0000 24.5514 0.0000
# 6 0.0000 0.0000 0.0000 -1.2401 0.0000 19.4752
#
#
#
# Elastic Compliance Matrix: (Units=1/GPa)
#
#
# Indices 1 2 3 4 5 6 
#
# 1 0.018461 -0.004545 -0.002345 0.000000 -0.005049 0.000000
# 2 -0.004545 0.014198 -0.006248 0.000000 -0.000603 0.000000
# 3 -0.002345 -0.006248 0.016660 0.000000 -0.002838 0.000000
# 4 0.000000 0.000000 0.000000 0.045157 0.000000 0.002875
# 5 -0.005049 -0.000603 -0.002838 0.000000 0.043915 0.000000
# 6 0.000000 0.000000 0.000000 0.002875 0.000000 0.051530
#
#
# Mechanical properties :
#
#
# Convention : Reuss Voigt Hill
#
# Bulk Modulus (GPa) = 43.40152 49.74037 46.57095
# Shear Modulus (GPa) = 22.33339 23.24295 22.78817
#
# Velocity S-wave (km/s) = 3.45730 3.52700 3.49233
# Velocity P-wave (km/s) = 6.25827 6.57325 6.41769
#
# Compressibility (1/GPa) = 0.02304067
#
# Stress axis : x y z
#
# Youngs Moduli (GPa) = 54.16756 70.43267 60.02464
#
# Poissons Ratio (x) = 0.32015 0.14079
# Poissons Ratio (y) = 0.24621 0.37505
# Poissons Ratio (z) = 0.12705 0.44008
#
# Static dielectric constant tensor:
#      x y z
#    x 3.568040 0.000000 0.033740 
#    y 0.000000 3.320220 0.000000 
#    z 0.033740 0.000000 3.356410 
# 
# 
# High freq. dielectric constant tensor:
#      x y z
#    x 1.740730 0.000000 0.009490 
#    y 0.000000 1.711810 0.000000 
#    z 0.009490 0.000000 1.711520 
# 
# From -- ./inp_files/259190.got.cif
#   From: 2010.06.25/outbox.cif.g09.slc.cpg/sg12_130_cif.got.tgz:259190.got - 2010.06.28 00:19:55.
