data_PCOD8084714
_publ_section_title
;
Structure prediction by ZEFSAII (Michael W. Deem and Ramdas Pophale) SiO2 
 PCOD8084714
Probable space group: C 2/M
;
_chemical_formula_sum "Si O2"
_cell_formula_units_Z 48
_cell_length_a 18.871019
_cell_length_b 9.478543
_cell_length_c 17.277108
_cell_angle_alpha 90.000000
_cell_angle_beta 61.790806
_cell_angle_gamma 90.000000
_cell_volume 2723.303734
_symmetry_space_group_name_H-M "C 2/M"
_symmetry_group_IT_number 12
_symmetry_cell_setting 'monoclinic'
loop_
_space_group_symop_operation_xyz
x,y,z
-x,y,-z
-x,-y,-z
x,-y,z
1/2+x,1/2+y,z
1/2-x,1/2+y,-z
1/2-x,1/2-y,-z
1/2+x,1/2-y,z
loop_
_atom_site_type_symbol
_atom_site_label
_atom_site_fract_x
_atom_site_fract_y
_atom_site_fract_z
Si Si1 0.614826 0.333955 0.889972
Si Si2 0.130071 0.842186 0.423813
Si Si3 0.425546 0.163433 0.774790
Si Si4 0.944507 0.166681 0.914972
Si Si5 0.778409 0.662583 0.735457
Si Si6 0.518963 0.658831 0.614354
O O1 0.623956 0.500000 0.890948
O O2 0.538665 0.295341 0.876168
O O3 0.695791 0.269743 0.810913
O O4 0.602454 0.280493 0.984194
O O5 0.199446 0.739799 0.356321
O O6 0.098603 0.794416 0.525177
O O7 0.055811 0.838479 0.404236
O O8 0.165289 0.000000 0.410419
O O9 0.408642 0.243861 0.863263
O O10 0.346090 0.183795 0.765105
O O11 0.503011 0.233108 0.692621
O O12 0.444715 0.000000 0.780105
O O13 0.932561 0.000000 0.906163
O O14 0.767203 0.500000 0.719564
O O15 0.530079 0.500000 0.641783
#
# Coordination Sequence:
#
# PCOD8084714 Si02
#       6
#     8   8   8   8   8   8
#     4   8  16  32  51  67  83 114 158 189 214 259
#     4   8  14  25  42  65  90 116 149 184 216 255
#     4  10  19  28  42  69  99 119 140 179 229 271
#     4   9  17  32  52  66  82 116 158 190 214 255
#     4   9  17  29  45  67  95 120 143 179 226 269
#     4   8  14  26  43  62  88 121 152 180 211 256
#
# _framework density 17.625648999999999
#
# number of rings (size 3 to 8) (size 9 to 14) (size 15 to 20)
#    0.000    3.333    0.000    2.500    0.000    2.000 
#    0.000    6.667    0.000    1.000    0.000    0.000 
#    0.000    0.000    0.000    0.000    0.000    0.000 
#
# Total GULP energy -297447.486255 kJ/mol
# GULP energy per Si atom -12393.645261 kJ/mol
# Density = 1.758553 g / cm^3
# Si number density = 17.625649 Si / 1000 Ang^3
#
#
#
# Elastic Constant Matrix: (Units=GPa)
#
#
# Indices 1 2 3 4 5 6 
#
# 1 27.2871 19.1658 28.0370 0.0000 -18.3046 0.0000
# 2 19.1658 65.0980 38.5155 0.0000 -13.6386 0.0001
# 3 28.0370 38.5155 97.5485 0.0000 -37.3440 0.0000
# 4 0.0000 0.0000 0.0000 32.7111 0.0000 1.4478
# 5 -18.3046 -13.6386 -37.3440 0.0000 25.6353 0.0000
# 6 0.0000 0.0001 0.0000 1.4478 0.0000 11.8579
#
#
#
# Elastic Compliance Matrix: (Units=1/GPa)
#
#
# Indices 1 2 3 4 5 6 
#
# 1 0.079330 -0.014078 0.003562 0.000000 0.054344 0.000000
# 2 -0.014078 0.022585 -0.009313 0.000000 -0.011603 0.000000
# 3 0.003562 -0.009313 0.027088 0.000000 0.037048 0.000000
# 4 0.000000 0.000000 0.000000 0.030737 0.000000 -0.003753
# 5 0.054344 -0.011603 0.037048 0.000000 0.125610 0.000000
# 6 0.000000 0.000000 0.000000 -0.003753 0.000000 0.084790
#
#
# Mechanical properties :
#
#
# Convention : Reuss Voigt Hill
#
# Bulk Modulus (GPa) = 11.19254 40.15222 25.67238
# Shear Modulus (GPa) = 11.37448 20.98854 16.18151
#
# Velocity S-wave (km/s) = 2.54310 3.45453 3.03325
# Velocity P-wave (km/s) = 3.87132 6.22429 5.18309
#
# Compressibility (1/GPa) = 0.08934526
#
# Stress axis : x y z
#
# Youngs Moduli (GPa) = 12.60550 44.27639 36.91686
#
# Poissons Ratio (x) = 0.62331 -0.13149
# Poissons Ratio (y) = 0.17746 0.34382
# Poissons Ratio (z) = -0.04490 0.41236
#
# Static dielectric constant tensor:
#      x y z
#    x 2.986050 0.000000 -0.311510 
#    y 0.000000 3.168090 0.000000 
#    z -0.311510 0.000000 3.751520 
# 
# 
# High freq. dielectric constant tensor:
#      x y z
#    x 1.639340 0.000000 -0.009060 
#    y 0.000000 1.661340 0.000000 
#    z -0.009060 0.000000 1.695790 
# 
# From -- ./inp_files/274052.got.cif
#   From: 2010.06.25/outbox.cif.g09.slc.cpg/sg12_138_cif.got.tgz:274052.got - 2010.06.28 00:19:55.
