data_PCOD8084584
_publ_section_title
;
Structure prediction by ZEFSAII (Michael W. Deem and Ramdas Pophale) SiO2 
 PCOD8084584
Probable space group: C 2/M
;
_chemical_formula_sum "Si O2"
_cell_formula_units_Z 48
_cell_length_a 15.139348
_cell_length_b 25.645380
_cell_length_c 9.350100
_cell_angle_alpha 90.000000
_cell_angle_beta 38.179709
_cell_angle_gamma 90.000000
_cell_volume 2243.946111
_symmetry_space_group_name_H-M "C 2/M"
_symmetry_group_IT_number 12
_symmetry_cell_setting 'monoclinic'
loop_
_space_group_symop_operation_xyz
x,y,z
-x,y,-z
-x,-y,-z
x,-y,z
1/2+x,1/2+y,z
1/2-x,1/2+y,-z
1/2-x,1/2-y,-z
1/2+x,1/2-y,z
loop_
_atom_site_type_symbol
_atom_site_label
_atom_site_fract_x
_atom_site_fract_y
_atom_site_fract_z
Si Si1 0.430272 0.123500 0.795215
Si Si2 0.427552 0.621942 0.247060
Si Si3 0.673520 0.557784 0.050116
Si Si4 0.295053 0.283769 0.574348
Si Si5 0.000000 0.713912 0.500000
Si Si6 0.500000 0.165078 0.000000
Si Si7 0.685517 0.057169 0.432420
O O1 0.422939 0.177755 0.717207
O O2 0.505358 0.129960 0.852749
O O3 0.534673 0.082883 0.583527
O O4 0.274635 0.097211 0.010597
O O5 0.519206 0.583888 0.231324
O O6 0.401785 0.672725 0.376315
O O7 0.275578 0.594242 0.421760
O O8 0.500000 0.635434 0.000000
O O9 0.662441 0.500000 0.136495
O O10 0.730068 0.550534 0.820026
O O11 0.250000 0.250000 0.500000
O O12 0.377736 0.249561 0.586538
O O13 0.146817 0.302647 0.833085
O O14 0.663023 0.000000 0.531262
#
# Coordination Sequence:
#
# PCOD8084584 Si02
#       7
#     8   8   8   8   4   4   8
#     4  12  23  43  65 100 137 172 224 277 336 408
#     4  10  22  40  67  98 140 173 220 280 333 396
#     4  10  21  37  68 104 131 170 224 281 337 393
#     4  12  27  46  68  99 135 181 229 282 339 399
#     4  12  26  44  71  98 129 188 234 272 340 400
#     4  12  28  46  67  92 138 174 221 282 342 400
#     4  10  18  37  68  98 133 174 219 276 336 397
#
# _framework density 21.390888
#
# number of rings (size 3 to 8) (size 9 to 14) (size 15 to 20)
#    0.000    1.000    5.000    1.000    5.833    4.000 
#    0.000    1.667    0.000    1.000    0.000    0.000 
#    0.000    0.000    0.000    0.000    0.000    0.000 
#
# Total GULP energy -297536.478029 kJ/mol
# GULP energy per Si atom -12397.353251 kJ/mol
# Density = 2.134220 g / cm^3
# Si number density = 21.390888 Si / 1000 Ang^3
#
#
#
# Elastic Constant Matrix: (Units=GPa)
#
#
# Indices 1 2 3 4 5 6 
#
# 1 134.4292 58.6890 27.7467 0.0000 -6.2001 0.0000
# 2 58.6890 140.5229 40.2151 0.0000 0.1703 0.0000
# 3 27.7467 40.2151 64.7206 0.0000 -14.4579 0.0000
# 4 0.0000 0.0000 0.0000 13.3573 0.0000 -7.9347
# 5 -6.2001 0.1703 -14.4579 0.0000 26.8248 0.0000
# 6 0.0000 0.0000 0.0000 -7.9347 0.0000 33.2541
#
#
#
# Elastic Compliance Matrix: (Units=1/GPa)
#
#
# Indices 1 2 3 4 5 6 
#
# 1 0.009329 -0.003453 -0.001555 0.000000 0.001340 0.000000
# 2 -0.003453 0.010208 -0.005747 0.000000 -0.003961 0.000000
# 3 -0.001555 -0.005747 0.022302 0.000000 0.011697 0.000000
# 4 0.000000 0.000000 0.000000 0.087229 0.000000 0.020813
# 5 0.001340 -0.003961 0.011697 0.000000 0.043918 0.000000
# 6 0.000000 0.000000 0.000000 0.020813 0.000000 0.035038
#
#
# Mechanical properties :
#
#
# Convention : Reuss Voigt Hill
#
# Bulk Modulus (GPa) = 49.19047 65.88602 57.53825
# Shear Modulus (GPa) = 21.15865 28.88870 25.02367
#
# Velocity S-wave (km/s) = 3.14848 3.67892 3.42399
# Velocity P-wave (km/s) = 6.02189 6.99384 6.52598
#
# Compressibility (1/GPa) = 0.02032914
#
# Stress axis : x y z
#
# Youngs Moduli (GPa) = 107.19217 97.96260 44.83963
#
# Poissons Ratio (x) = 0.33826 0.06970
# Poissons Ratio (y) = 0.37013 0.25771
# Poissons Ratio (z) = 0.16663 0.56302
#
# Static dielectric constant tensor:
#      x y z
#    x 3.861880 0.000000 -0.134030 
#    y 0.000000 4.510500 0.000000 
#    z -0.134030 0.000000 3.322100 
# 
# 
# High freq. dielectric constant tensor:
#      x y z
#    x 1.847710 0.000000 -0.019750 
#    y 0.000000 1.850000 0.000000 
#    z -0.019750 0.000000 1.817960 
# 
# From -- ./inp_files/67366.got.cif
#   From: 2010.06.25/outbox.cif.g09.slc.cpg/sg12_34_cif.got.tgz:67366.got - 2010.06.28 00:19:55.
