data_PCOD8084159
_publ_section_title
;
Structure prediction by ZEFSAII (Michael W. Deem and Ramdas Pophale) SiO2 
 PCOD8084159
Probable space group: C 2/M
;
_chemical_formula_sum "Si O2"
_cell_formula_units_Z 64
_cell_length_a 30.428205
_cell_length_b 9.071867
_cell_length_c 11.178453
_cell_angle_alpha 90.000000
_cell_angle_beta 94.199429
_cell_angle_gamma 90.000000
_cell_volume 3077.422710
_symmetry_space_group_name_H-M "C 2/M"
_symmetry_group_IT_number 12
_symmetry_cell_setting 'monoclinic'
loop_
_space_group_symop_operation_xyz
x,y,z
-x,y,-z
-x,-y,-z
x,-y,z
1/2+x,1/2+y,z
1/2-x,1/2+y,-z
1/2-x,1/2-y,-z
1/2+x,1/2-y,z
loop_
_atom_site_type_symbol
_atom_site_label
_atom_site_fract_x
_atom_site_fract_y
_atom_site_fract_z
Si Si1 0.050816 0.334288 0.482776
Si Si2 0.859731 0.331665 0.871543
Si Si3 0.897717 0.325158 0.122813
Si Si4 0.862958 0.668218 0.359031
Si Si5 0.994245 0.661395 0.136913
Si Si6 0.757504 0.331518 0.873251
Si Si7 0.926456 0.829505 0.736942
Si Si8 0.722290 0.676151 0.603954
O O1 0.053991 0.500000 0.429885
O O2 0.085141 0.318082 0.598067
O O3 0.067540 0.208333 0.399022
O O4 0.000000 0.298459 0.500000
O O5 0.875370 0.500000 0.865215
O O6 0.808153 0.316868 0.851322
O O7 0.880869 0.244235 0.766886
O O8 0.877086 0.259041 0.998079
O O9 0.902115 0.500000 0.112604
O O10 0.863360 0.283217 0.220129
O O11 0.946962 0.263237 0.154961
O O12 0.846844 0.500000 0.373764
O O13 0.828723 0.772631 0.423135
O O14 0.998431 0.500000 0.202429
O O15 0.031628 0.771472 0.184113
O O16 0.000000 0.633439 0.000000
O O17 0.743189 0.500000 0.892259
O O18 0.735142 0.272428 0.743809
O O19 0.750000 0.250000 0.000000
O O20 0.922198 0.000000 0.758161
O O21 0.726773 0.500000 0.592403
O O22 0.750000 0.750000 0.500000
#
# Coordination Sequence:
#
# PCOD8084159 Si02
#       8
#     8   8   8   8   8   8   8   8
#     4  10  22  42  67  90 117 159 213 261 302 366
#     4  10  20  38  62  88 118 158 205 251 300 366
#     4   9  17  33  61  92 117 150 203 256 304 359
#     4  10  21  39  66  95 122 158 207 260 314 368
#     4  10  18  34  59  84 115 160 209 252 295 357
#     4  10  23  42  68  96 126 163 210 265 321 382
#     4  12  25  37  54  86 126 161 199 250 313 370
#     4  11  25  44  65  96 133 171 216 263 322 387
#
# _framework density 20.796621999999999
#
# number of rings (size 3 to 8) (size 9 to 14) (size 15 to 20)
#    0.000    1.750    1.250    3.000    1.750    5.500 
#    0.000    2.500    0.000    0.000    0.000    0.000 
#    0.000    0.000    0.000    0.000    0.000    0.000 
#
# Total GULP energy -396494.862803 kJ/mol
# GULP energy per Si atom -12390.464463 kJ/mol
# Density = 2.074929 g / cm^3
# Si number density = 20.796622 Si / 1000 Ang^3
#
#
#
# Elastic Constant Matrix: (Units=GPa)
#
#
# Indices 1 2 3 4 5 6 
#
# 1 98.6727 41.4009 39.3552 0.0000 -15.5387 0.0000
# 2 41.4009 83.9656 39.8994 0.0000 -8.9806 0.0000
# 3 39.3552 39.8994 105.0391 0.0000 -9.9949 0.0000
# 4 0.0000 0.0000 0.0000 25.2540 0.0000 -2.0464
# 5 -15.5387 -8.9806 -9.9949 0.0000 30.1955 0.0000
# 6 0.0000 0.0000 0.0000 -2.0464 0.0000 16.1016
#
#
#
# Elastic Compliance Matrix: (Units=1/GPa)
#
#
# Indices 1 2 3 4 5 6 
#
# 1 0.014199 -0.005095 -0.002926 0.000000 0.004823 0.000000
# 2 -0.005095 0.016558 -0.004297 0.000000 0.000880 0.000000
# 3 -0.002926 -0.004297 0.012373 0.000000 0.001312 0.000000
# 4 0.000000 0.000000 0.000000 0.040010 0.000000 0.005085
# 5 0.004823 0.000880 0.001312 0.000000 0.036296 0.000000
# 6 0.000000 0.000000 0.000000 0.005085 0.000000 0.062752
#
#
# Mechanical properties :
#
#
# Convention : Reuss Voigt Hill
#
# Bulk Modulus (GPa) = 54.06810 58.77650 56.42230
# Shear Modulus (GPa) = 23.47566 25.44501 24.46034
#
# Velocity S-wave (km/s) = 3.36344 3.50168 3.43325
# Velocity P-wave (km/s) = 6.41394 6.68378 6.55024
#
# Compressibility (1/GPa) = 0.01849519
#
# Stress axis : x y z
#
# Youngs Moduli (GPa) = 70.42968 60.39481 80.81838
#
# Poissons Ratio (x) = 0.30770 0.23644
# Poissons Ratio (y) = 0.35883 0.34726
# Poissons Ratio (z) = 0.20605 0.25951
#
# Static dielectric constant tensor:
#      x y z
#    x 3.821460 0.000000 -0.070160 
#    y 0.000000 3.491390 0.000000 
#    z -0.070160 0.000000 3.754170 
# 
# 
# High freq. dielectric constant tensor:
#      x y z
#    x 1.828300 0.000000 -0.002270 
#    y 0.000000 1.779090 0.000000 
#    z -0.002270 0.000000 1.822400 
# 
# From -- ./inp_files/187558.got.cif
#   From: 2010.06.25/outbox.cif.g09.slc.cpg/sg12_94_cif.got.tgz:187558.got - 2010.06.28 00:19:55.
