data_PCOD8084767
_publ_section_title
;
Structure prediction by ZEFSAII (Michael W. Deem and Ramdas Pophale) SiO2 
 PCOD8084767
Probable space group: C 2/M
;
_chemical_formula_sum "Si O2"
_cell_formula_units_Z 64
_cell_length_a 27.725610
_cell_length_b 9.278523
_cell_length_c 16.039410
_cell_angle_alpha 90.000000
_cell_angle_beta 86.759213
_cell_angle_gamma 90.000000
_cell_volume 4119.582992
_symmetry_space_group_name_H-M "C 2/M"
_symmetry_group_IT_number 12
_symmetry_cell_setting 'monoclinic'
loop_
_space_group_symop_operation_xyz
x,y,z
-x,y,-z
-x,-y,-z
x,-y,z
1/2+x,1/2+y,z
1/2-x,1/2+y,-z
1/2-x,1/2-y,-z
1/2+x,1/2-y,z
loop_
_atom_site_type_symbol
_atom_site_label
_atom_site_fract_x
_atom_site_fract_y
_atom_site_fract_z
Si Si1 0.818804 0.659189 0.456446
Si Si2 0.929485 0.333672 0.147208
Si Si3 0.288650 0.338962 0.603352
Si Si4 0.393727 0.167816 0.967489
Si Si5 0.748679 0.831683 0.243595
Si Si6 0.482043 0.337201 0.907531
Si Si7 0.286471 0.166680 0.938083
Si Si8 0.155932 0.331180 0.724349
O O1 0.834259 0.500000 0.485455
O O2 0.763837 0.655809 0.431707
O O3 0.825614 0.768830 0.532646
O O4 0.850545 0.707005 0.373137
O O5 0.944843 0.500000 0.148992
O O6 0.893883 0.291824 0.225741
O O7 0.977891 0.240155 0.153694
O O8 0.902263 0.298727 0.063773
O O9 0.306850 0.500000 0.622992
O O10 0.287154 0.242776 0.686600
O O11 0.431235 0.254476 0.905863
O O12 0.340467 0.222924 0.949936
O O13 0.400570 0.000000 0.946539
O O14 0.725509 0.804871 0.156449
O O15 0.801569 0.761490 0.238765
O O16 0.753329 0.000000 0.265196
O O17 0.475163 0.500000 0.876585
O O18 0.500000 0.331219 0.000000
O O19 0.282282 0.000000 0.962408
O O20 0.250000 0.250000 0.000000
O O21 0.169295 0.500000 0.734128
#
# Coordination Sequence:
#
# PCOD8084767 Si02
#       8
#     8   8   8   8   8   8   8   8
#     4   8  14  24  38  57  80 105 134 169 205 241
#     4   9  16  27  44  62  81 108 138 167 203 248
#     4   9  16  26  40  56  76 106 141 172 204 244
#     4   9  17  30  45  59  79 109 143 174 204 241
#     4  10  19  29  41  59  83 111 143 177 211 242
#     4   9  17  28  42  61  82 103 132 171 211 247
#     4  10  21  33  45  62  84 112 145 179 211 243
#     4   9  17  28  42  61  85 113 142 169 203 249
#
# _framework density 15.535553
#
# number of rings (size 3 to 8) (size 9 to 14) (size 15 to 20)
#    0.000    2.875    0.000    2.625    0.000    7.500 
#    0.000    2.500    0.000    0.000    0.000    0.000 
#    0.000    1.000    0.000   11.500    0.000    4.750 
#
# Total GULP energy -396745.741970 kJ/mol
# GULP energy per Si atom -12398.304437 kJ/mol
# Density = 1.550019 g / cm^3
# Si number density = 15.535553 Si / 1000 Ang^3
#
#
#
# Elastic Constant Matrix: (Units=GPa)
#
#
# Indices 1 2 3 4 5 6 
#
# 1 101.6756 57.2145 53.2185 0.0000 -21.4364 0.0000
# 2 57.2145 96.8576 54.5884 0.0000 -15.2456 0.0000
# 3 53.2185 54.5884 84.8786 0.0000 -25.6907 0.0000
# 4 0.0000 0.0000 0.0000 23.5031 0.0000 -6.0579
# 5 -21.4364 -15.2456 -25.6907 0.0000 22.3834 0.0000
# 6 0.0000 0.0000 0.0000 -6.0579 0.0000 21.6237
#
#
#
# Elastic Compliance Matrix: (Units=1/GPa)
#
#
# Indices 1 2 3 4 5 6 
#
# 1 0.017409 -0.006624 -0.004558 0.000000 0.006930 0.000000
# 2 -0.006624 0.018744 -0.009129 0.000000 -0.004055 0.000000
# 3 -0.004558 -0.009129 0.026521 0.000000 0.019856 0.000000
# 4 0.000000 0.000000 0.000000 0.045859 0.000000 0.012847
# 5 0.006930 -0.004055 0.019856 0.000000 0.071341 0.000000
# 6 0.000000 0.000000 0.000000 0.012847 0.000000 0.049845
#
#
# Mechanical properties :
#
#
# Convention : Reuss Voigt Hill
#
# Bulk Modulus (GPa) = 45.34788 68.16164 56.75476
# Shear Modulus (GPa) = 18.00556 21.39472 19.70014
#
# Velocity S-wave (km/s) = 3.40809 3.71502 3.56486
# Velocity P-wave (km/s) = 6.68879 7.89757 7.31818
#
# Compressibility (1/GPa) = 0.02205175
#
# Stress axis : x y z
#
# Youngs Moduli (GPa) = 57.43992 53.34956 37.70664
#
# Poissons Ratio (x) = 0.35341 0.17186
# Poissons Ratio (y) = 0.38050 0.34423
# Poissons Ratio (z) = 0.26180 0.48703
#
# Static dielectric constant tensor:
#      x y z
#    x 2.786960 0.000000 -0.261470 
#    y 0.000000 3.131800 0.000000 
#    z -0.261470 0.000000 3.004610 
# 
# 
# High freq. dielectric constant tensor:
#      x y z
#    x 1.560430 0.000000 -0.027080 
#    y 0.000000 1.604650 0.000000 
#    z -0.027080 0.000000 1.580570 
# 
# From -- ./inp_files/248433.got.cif
#   From: 2010.06.25/outbox.cif.g09.slc.cpg/sg12_125_cif.got.tgz:248433.got - 2010.06.28 00:19:55.
