data_PCOD8084539
_publ_section_title
;
Structure prediction by ZEFSAII (Michael W. Deem and Ramdas Pophale) SiO2 
 PCOD8084539
Probable space group: C 2/M
;
_chemical_formula_sum "Si O2"
_cell_formula_units_Z 40
_cell_length_a 17.339584
_cell_length_b 19.788268
_cell_length_c 9.287089
_cell_angle_alpha 90.000000
_cell_angle_beta 136.930579
_cell_angle_gamma 90.000000
_cell_volume 2176.070659
_symmetry_space_group_name_H-M "C 2/M"
_symmetry_group_IT_number 12
_symmetry_cell_setting 'monoclinic'
loop_
_space_group_symop_operation_xyz
x,y,z
-x,y,-z
-x,-y,-z
x,-y,z
1/2+x,1/2+y,z
1/2-x,1/2+y,-z
1/2-x,1/2-y,-z
1/2+x,1/2-y,z
loop_
_atom_site_type_symbol
_atom_site_label
_atom_site_fract_x
_atom_site_fract_y
_atom_site_fract_z
Si Si1 0.783608 0.804378 0.843563
Si Si2 0.433996 0.801162 0.640351
Si Si3 0.740055 0.655889 0.878759
Si Si4 0.444677 0.923339 0.080358
Si Si5 0.000000 0.223716 0.000000
Si Si6 0.000000 0.801093 0.500000
O O1 0.690118 0.812244 0.592706
O O2 0.795402 0.726733 0.908931
O O3 0.755221 0.851806 0.941094
O O4 0.906739 0.824199 0.948491
O O5 0.494304 0.874136 0.722247
O O6 0.429331 0.771599 0.794874
O O7 0.507741 0.748304 0.647914
O O8 0.610588 0.651775 0.647243
O O9 0.811515 0.596687 0.898992
O O10 0.457460 0.000000 0.151669
O O11 0.500000 0.914515 0.000000
#
# Coordination Sequence:
#
# PCOD8084539 Si02
#       6
#     8   8   8   8   4   4
#     4  10  20  31  55  80 118 143 175 229 285 330
#     4  11  19  33  53  85 113 145 179 225 279 327
#     4  10  18  37  52  82 111 147 183 224 277 330
#     4  11  22  37  56  79 112 150 188 228 266 325
#     4  12  18  32  51  88 113 142 182 222 286 334
#     4  10  20  34  62  84 114 144 178 230 284 332
#
# _framework density 18.381755999999999
#
# number of rings (size 3 to 8) (size 9 to 14) (size 15 to 20)
#    0.000    1.400    5.000    3.000    0.000    1.600 
#    0.000    5.000    0.000    0.000    0.000    1.400 
#    0.000    0.000    0.000    0.000    0.000    0.000 
#
# Total GULP energy -247982.801906 kJ/mol
# GULP energy per Si atom -12399.140095 kJ/mol
# Density = 1.833992 g / cm^3
# Si number density = 18.381756 Si / 1000 Ang^3
#
#
#
# Elastic Constant Matrix: (Units=GPa)
#
#
# Indices 1 2 3 4 5 6 
#
# 1 137.1184 38.7597 52.8957 0.0000 18.0383 0.0000
# 2 38.7597 71.9700 34.7470 0.0000 3.8577 0.0000
# 3 52.8957 34.7470 119.8997 0.0000 5.8100 0.0000
# 4 0.0000 0.0000 0.0000 14.2355 0.0000 3.8534
# 5 18.0383 3.8577 5.8100 0.0000 34.9762 0.0000
# 6 0.0000 0.0000 0.0000 3.8534 0.0000 15.5250
#
#
#
# Elastic Compliance Matrix: (Units=1/GPa)
#
#
# Indices 1 2 3 4 5 6 
#
# 1 0.010130 -0.003684 -0.003194 0.000000 -0.004288 0.000000
# 2 -0.003684 0.017530 -0.003481 0.000000 0.000545 0.000000
# 3 -0.003194 -0.003481 0.010746 0.000000 0.000246 0.000000
# 4 0.000000 0.000000 0.000000 0.075307 0.000000 -0.018692
# 5 -0.004288 0.000545 0.000246 0.000000 0.030701 0.000000
# 6 0.000000 0.000000 0.000000 -0.018692 0.000000 0.069051
#
#
# Mechanical properties :
#
#
# Convention : Reuss Voigt Hill
#
# Bulk Modulus (GPa) = 56.53358 64.64364 60.58861
# Shear Modulus (GPa) = 20.82628 26.45306 23.63967
#
# Velocity S-wave (km/s) = 3.36964 3.79765 3.59003
# Velocity P-wave (km/s) = 6.77948 7.38060 7.08641
#
# Compressibility (1/GPa) = 0.01768860
#
# Stress axis : x y z
#
# Youngs Moduli (GPa) = 98.71221 57.04395 93.05517
#
# Poissons Ratio (x) = 0.21015 0.29720
# Poissons Ratio (y) = 0.36366 0.32397
# Poissons Ratio (z) = 0.31527 0.19860
#
# Static dielectric constant tensor:
#      x y z
#    x 3.583580 0.000000 -0.014430 
#    y 0.000000 2.923340 0.000000 
#    z -0.014430 0.000000 3.426650 
# 
# 
# High freq. dielectric constant tensor:
#      x y z
#    x 1.734460 0.000000 0.003830 
#    y 0.000000 1.643370 0.000000 
#    z 0.003830 0.000000 1.722030 
# 
# From -- ./inp_files/75537.got.cif
#   From: 2010.06.25/outbox.cif.g09.slc.cpg/sg12_38_cif.got.tgz:75537.got - 2010.06.28 00:19:55.
