data_PCOD8084647
_publ_section_title
;
Structure prediction by ZEFSAII (Michael W. Deem and Ramdas Pophale) SiO2 
 PCOD8084647
Probable space group: C 2/M
;
_chemical_formula_sum "Si O2"
_cell_formula_units_Z 52
_cell_length_a 17.743862
_cell_length_b 14.388562
_cell_length_c 18.063701
_cell_angle_alpha 90.000000
_cell_angle_beta 34.782383
_cell_angle_gamma 90.000000
_cell_volume 2630.863301
_symmetry_space_group_name_H-M "C 2/M"
_symmetry_group_IT_number 12
_symmetry_cell_setting 'monoclinic'
loop_
_space_group_symop_operation_xyz
x,y,z
-x,y,-z
-x,-y,-z
x,-y,z
1/2+x,1/2+y,z
1/2-x,1/2+y,-z
1/2-x,1/2-y,-z
1/2+x,1/2-y,z
loop_
_atom_site_type_symbol
_atom_site_label
_atom_site_fract_x
_atom_site_fract_y
_atom_site_fract_z
Si Si1 0.883752 0.110294 0.888389
Si Si2 0.041630 0.397513 0.762139
Si Si3 0.326394 0.890271 0.825012
Si Si4 0.818930 0.397808 0.065468
Si Si5 0.650090 0.108986 0.360053
Si Si6 0.379477 0.287959 0.244089
Si Si7 0.000000 0.732226 0.000000
O O1 0.816921 0.137398 0.863379
O O2 0.028012 0.156560 0.772970
O O3 0.897421 0.000000 0.884371
O O4 0.792999 0.151220 0.028916
O O5 0.110762 0.500000 0.699449
O O6 0.143161 0.317279 0.706963
O O7 0.971223 0.367209 0.742105
O O8 0.926088 0.404452 0.914679
O O9 0.317301 0.852474 0.748524
O O10 0.310554 0.000000 0.837238
O O11 0.797721 0.500000 0.117849
O O12 0.870083 0.330359 0.088293
O O13 0.500000 0.131419 0.500000
O O14 0.738759 0.162770 0.348798
O O15 0.680715 0.000000 0.341980
O O16 0.458520 0.294570 0.102708
#
# Coordination Sequence:
#
# PCOD8084647 Si02
#       7
#     8   8   8   8   8   8   4
#     4   9  17  29  46  70  98 125 153 188 228 270
#     4   8  16  30  47  68  93 124 157 185 219 269
#     4   8  15  30  50  69  93 124 154 185 225 275
#     4   8  15  28  44  66 100 133 156 181 219 271
#     4  10  21  36  51  67  90 120 154 194 238 282
#     4  11  20  29  47  72  97 123 153 191 232 274
#     4  10  19  26  43  74 100 126 154 184 224 270
#
# _framework density 19.765376
#
# number of rings (size 3 to 8) (size 9 to 14) (size 15 to 20)
#    0.000    2.923    0.000    3.462    0.000    7.385 
#    0.000    3.846    0.000    0.462    0.000    0.000 
#    0.000    0.000    0.000    0.000    0.000    0.000 
#
# Total GULP energy -322241.261518 kJ/mol
# GULP energy per Si atom -12393.894674 kJ/mol
# Density = 1.972039 g / cm^3
# Si number density = 19.765376 Si / 1000 Ang^3
#
#
#
# Elastic Constant Matrix: (Units=GPa)
#
#
# Indices 1 2 3 4 5 6 
#
# 1 98.5690 47.3510 28.3081 -0.0001 -33.2205 0.0001
# 2 47.3510 76.0977 30.0623 -0.0003 -26.5361 0.0001
# 3 28.3081 30.0623 39.6461 -0.0005 -23.4708 0.0003
# 4 -0.0001 -0.0003 -0.0005 14.7359 0.0001 -9.2266
# 5 -33.2205 -26.5361 -23.4708 0.0001 26.1442 -0.0001
# 6 0.0001 0.0001 0.0003 -9.2266 -0.0001 29.6265
#
#
#
# Elastic Compliance Matrix: (Units=1/GPa)
#
#
# Indices 1 2 3 4 5 6 
#
# 1 0.019236 -0.005780 0.003511 0.000000 0.021728 0.000000
# 2 -0.005780 0.022982 -0.008192 0.000000 0.008629 0.000000
# 3 0.003511 -0.008192 0.056873 0.000001 0.047203 0.000000
# 4 0.000000 0.000000 0.000001 0.084299 0.000001 0.026253
# 5 0.021728 0.008629 0.047203 0.000001 0.116993 0.000000
# 6 0.000000 0.000000 0.000000 0.026253 0.000000 0.041930
#
#
# Mechanical properties :
#
#
# Convention : Reuss Voigt Hill
#
# Bulk Modulus (GPa) = 12.79259 47.30619 30.04939
# Shear Modulus (GPa) = 12.84383 21.34074 17.09229
#
# Velocity S-wave (km/s) = 2.55191 3.28945 2.94387
# Velocity P-wave (km/s) = 3.89478 6.19783 5.17602
#
# Compressibility (1/GPa) = 0.07817028
#
# Stress axis : x y z
#
# Youngs Moduli (GPa) = 51.98462 43.51142 17.58318
#
# Poissons Ratio (x) = 0.25148 -0.06173
# Poissons Ratio (y) = 0.30045 0.14403
# Poissons Ratio (z) = -0.18250 0.35643
#
# Static dielectric constant tensor:
#      x y z
#    x 3.969800 0.000000 -0.102190 
#    y 0.000000 3.776480 0.000000 
#    z -0.102190 0.000000 2.982830 
# 
# 
# High freq. dielectric constant tensor:
#      x y z
#    x 1.782790 0.000000 -0.019220 
#    y 0.000000 1.770740 0.000000 
#    z -0.019220 0.000000 1.692040 
# 
# From -- ./inp_files/155397.got.cif
#   From: 2010.06.25/outbox.cif.g09.slc.cpg/sg12_78_cif.got.tgz:155397.got - 2010.06.28 00:19:55.
