data_PCOD8084129
_publ_section_title
;
Structure prediction by ZEFSAII (Michael W. Deem and Ramdas Pophale) SiO2 
 PCOD8084129
Probable space group: C 2/M
;
_chemical_formula_sum "Si O2"
_cell_formula_units_Z 56
_cell_length_a 18.515306
_cell_length_b 21.843415
_cell_length_c 8.811580
_cell_angle_alpha 90.000000
_cell_angle_beta 52.429195
_cell_angle_gamma 90.000000
_cell_volume 2824.616737
_symmetry_space_group_name_H-M "C 2/M"
_symmetry_group_IT_number 12
_symmetry_cell_setting 'monoclinic'
loop_
_space_group_symop_operation_xyz
x,y,z
-x,y,-z
-x,-y,-z
x,-y,z
1/2+x,1/2+y,z
1/2-x,1/2+y,-z
1/2-x,1/2-y,-z
1/2+x,1/2-y,z
loop_
_atom_site_type_symbol
_atom_site_label
_atom_site_fract_x
_atom_site_fract_y
_atom_site_fract_z
Si Si1 0.233386 0.070048 0.530477
Si Si2 0.099513 0.152164 0.891925
Si Si3 0.894872 0.355872 0.793178
Si Si4 0.094538 0.623771 0.563575
Si Si5 0.649545 0.278235 0.132620
Si Si6 0.749890 0.146613 0.782970
Si Si7 0.345855 0.769965 0.316489
O O1 0.175626 0.105728 0.731998
O O2 0.340919 0.075608 0.431540
O O3 0.217489 0.097308 0.382623
O O4 0.202617 0.000000 0.568777
O O5 0.092154 0.211399 0.793425
O O6 0.124840 0.175349 0.027798
O O7 0.000000 0.120653 0.000000
O O8 0.871817 0.374335 0.651637
O O9 0.914642 0.281734 0.773827
O O10 0.987616 0.391931 0.720573
O O11 0.810025 0.381292 0.001304
O O12 0.104547 0.690750 0.621359
O O13 0.656832 0.321125 0.274852
O O14 0.750000 0.250000 0.000000
O O15 0.674769 0.193748 0.812133
O O16 0.250000 0.750000 0.500000
#
# Coordination Sequence:
#
# PCOD8084129 Si02
#       7
#     8   8   8   8   8   8   8
#     4  11  25  44  60  77 113 168 220 257 289 338
#     4  12  23  37  61  93 121 155 202 246 307 363
#     4  10  19  33  56  95 128 152 181 242 309 376
#     4  10  21  35  57  89 127 160 192 235 306 367
#     4  10  18  34  58  93 129 153 181 232 308 382
#     4  10  20  34  59  84 122 155 196 241 298 363
#     4  11  18  31  53  88 120 152 182 235 299 366
#
# _framework density 19.825699
#
# number of rings (size 3 to 8) (size 9 to 14) (size 15 to 20)
#    0.000    1.429    5.714    3.429    0.000    2.000 
#    0.000    5.714    0.000    0.857    0.000    0.000 
#    0.000    0.000    0.000    0.000    0.000    0.000 
#
# Total GULP energy -346930.489801 kJ/mol
# GULP energy per Si atom -12390.374636 kJ/mol
# Density = 1.978057 g / cm^3
# Si number density = 19.825699 Si / 1000 Ang^3
#
#
#
# Elastic Constant Matrix: (Units=GPa)
#
#
# Indices 1 2 3 4 5 6 
#
# 1 91.6919 15.5492 19.4227 0.0000 6.7749 0.0000
# 2 15.5492 77.5697 6.3934 0.0000 3.0588 0.0000
# 3 19.4227 6.3934 53.0193 0.0000 2.5617 0.0000
# 4 0.0000 0.0000 0.0000 10.3830 0.0000 0.8321
# 5 6.7749 3.0588 2.5617 0.0000 25.6641 0.0000
# 6 0.0000 0.0000 0.0000 0.8321 0.0000 16.1309
#
#
#
# Elastic Compliance Matrix: (Units=1/GPa)
#
#
# Indices 1 2 3 4 5 6 
#
# 1 0.012319 -0.002026 -0.004143 0.000000 -0.002597 0.000000
# 2 -0.002026 0.013404 -0.000827 0.000000 -0.000980 0.000000
# 3 -0.004143 -0.000827 0.020520 0.000000 -0.000856 0.000000
# 4 0.000000 0.000000 0.000000 0.096711 0.000000 -0.004989
# 5 -0.002597 -0.000980 -0.000856 0.000000 0.039853 0.000000
# 6 0.000000 0.000000 0.000000 -0.004989 0.000000 0.062250
#
#
# Mechanical properties :
#
#
# Convention : Reuss Voigt Hill
#
# Bulk Modulus (GPa) = 31.00572 33.89015 32.44794
# Shear Modulus (GPa) = 18.53225 22.49664 20.51444
#
# Velocity S-wave (km/s) = 3.06070 3.37222 3.22023
# Velocity P-wave (km/s) = 5.30694 5.68275 5.49806
#
# Compressibility (1/GPa) = 0.03225212
#
# Stress axis : x y z
#
# Youngs Moduli (GPa) = 81.17485 74.60198 48.73316
#
# Poissons Ratio (x) = 0.15111 0.20191
# Poissons Ratio (y) = 0.16442 0.04030
# Poissons Ratio (z) = 0.33632 0.06170
#
# Static dielectric constant tensor:
#      x y z
#    x 3.450110 0.000000 0.152810 
#    y 0.000000 3.254480 0.000000 
#    z 0.152810 0.000000 3.670040 
# 
# 
# High freq. dielectric constant tensor:
#      x y z
#    x 1.780800 0.000000 0.015330 
#    y 0.000000 1.721800 0.000000 
#    z 0.015330 0.000000 1.774250 
# 
# From -- ./inp_files/90326.got.cif
#   From: 2010.06.25/outbox.cif.g09.slc.cpg/sg12_46_cif.got.tgz:90326.got - 2010.06.28 00:19:55.
