data_PCOD8084663
_publ_section_title
;
Structure prediction by ZEFSAII (Michael W. Deem and Ramdas Pophale) SiO2 
 PCOD8084663
Probable space group: C 2/M
;
_chemical_formula_sum "Si O2"
_cell_formula_units_Z 64
_cell_length_a 11.963590
_cell_length_b 20.793703
_cell_length_c 14.440511
_cell_angle_alpha 90.000000
_cell_angle_beta 100.570666
_cell_angle_gamma 90.000000
_cell_volume 3531.363513
_symmetry_space_group_name_H-M "C 2/M"
_symmetry_group_IT_number 12
_symmetry_cell_setting 'monoclinic'
loop_
_space_group_symop_operation_xyz
x,y,z
-x,y,-z
-x,-y,-z
x,-y,z
1/2+x,1/2+y,z
1/2-x,1/2+y,-z
1/2-x,1/2-y,-z
1/2+x,1/2-y,z
loop_
_atom_site_type_symbol
_atom_site_label
_atom_site_fract_x
_atom_site_fract_y
_atom_site_fract_z
Si Si1 0.988522 0.343048 0.605151
Si Si2 0.847319 0.371288 0.069397
Si Si3 0.111730 0.196299 0.070246
Si Si4 0.848330 0.828305 0.721661
Si Si5 0.781682 0.684524 0.686825
Si Si6 0.340742 0.073370 0.261050
Si Si7 0.402334 0.161105 0.889272
Si Si8 0.533372 0.303142 0.609703
O O1 0.855235 0.339285 0.610505
O O2 0.000000 0.363500 0.500000
O O3 0.044509 0.395834 0.680586
O O4 0.041698 0.272846 0.633184
O O5 0.731160 0.331158 0.052461
O O6 0.836585 0.425785 0.147380
O O7 0.964163 0.334775 0.117419
O O8 0.869799 0.392342 0.964560
O O9 0.086917 0.175374 0.171280
O O10 0.127435 0.272494 0.063799
O O11 0.000000 0.170655 0.000000
O O12 0.782721 0.761595 0.694952
O O13 0.761803 0.887518 0.707790
O O14 0.941099 0.839990 0.657116
O O15 0.827499 0.650231 0.786835
O O16 0.653189 0.663148 0.649441
O O17 0.332276 0.000000 0.291994
O O18 0.500000 0.315103 0.500000
#
# Coordination Sequence:
#
# PCOD8084663 Si02
#       8
#     8   8   8   8   8   8   8   8
#     4  10  21  34  57  84 117 144 185 232 284 330
#     4  10  20  34  48  79 111 139 187 219 278 327
#     4  10  19  27  48  79 111 144 170 222 276 335
#     4   9  21  33  52  82 113 145 188 218 282 334
#     4  10  19  33  56  86 119 142 172 234 291 340
#     4  11  22  40  58  75 109 152 198 232 261 327
#     4  10  19  29  52  77 116 142 170 227 279 337
#     4  10  21  33  56  88 119 146 172 226 296 349
#
# _framework density 18.123311999999999
#
# number of rings (size 3 to 8) (size 9 to 14) (size 15 to 20)
#    0.000    2.000    3.750    0.375    3.500    1.750 
#    0.000    1.250    0.000    7.125    0.000    0.000 
#    0.000    0.000    0.000    0.000    0.000    0.000 
#
# Total GULP energy -396511.290785 kJ/mol
# GULP energy per Si atom -12390.977837 kJ/mol
# Density = 1.808206 g / cm^3
# Si number density = 18.123312 Si / 1000 Ang^3
#
#
#
# Elastic Constant Matrix: (Units=GPa)
#
#
# Indices 1 2 3 4 5 6 
#
# 1 134.0257 26.9588 65.5938 0.0000 -1.9650 0.0000
# 2 26.9588 55.5482 25.1000 0.0000 -3.8684 0.0000
# 3 65.5938 25.1000 98.7564 0.0000 -6.1958 0.0000
# 4 0.0000 0.0000 0.0000 11.6386 0.0000 0.4776
# 5 -1.9650 -3.8684 -6.1958 0.0000 36.3218 0.0000
# 6 0.0000 0.0000 0.0000 0.4776 0.0000 12.1264
#
#
#
# Elastic Compliance Matrix: (Units=1/GPa)
#
#
# Indices 1 2 3 4 5 6 
#
# 1 0.011349 -0.002413 -0.006977 0.000000 -0.000833 0.000000
# 2 -0.002413 0.020912 -0.003619 0.000000 0.001479 0.000000
# 3 -0.006977 -0.003619 0.015801 0.000000 0.001932 0.000000
# 4 0.000000 0.000000 0.000000 0.086060 0.000000 -0.003390
# 5 -0.000833 0.001479 0.001932 0.000000 0.027974 0.000000
# 6 0.000000 0.000000 0.000000 -0.003390 0.000000 0.082599
#
#
# Mechanical properties :
#
#
# Convention : Reuss Voigt Hill
#
# Bulk Modulus (GPa) = 45.36562 58.18172 51.77367
# Shear Modulus (GPa) = 17.98165 23.39587 20.68876
#
# Velocity S-wave (km/s) = 3.15331 3.59685 3.38236
# Velocity P-wave (km/s) = 6.19224 7.03013 6.62444
#
# Compressibility (1/GPa) = 0.02204312
#
# Stress axis : x y z
#
# Youngs Moduli (GPa) = 88.11295 47.81924 63.28677
#
# Poissons Ratio (x) = 0.11541 0.44155
# Poissons Ratio (y) = 0.21265 0.22905
# Poissons Ratio (z) = 0.61476 0.17307
#
# Static dielectric constant tensor:
#      x y z
#    x 3.405170 0.000000 -0.098450 
#    y 0.000000 2.769560 0.000000 
#    z -0.098450 0.000000 3.529460 
# 
# 
# High freq. dielectric constant tensor:
#      x y z
#    x 1.716670 0.000000 -0.005550 
#    y 0.000000 1.627720 0.000000 
#    z -0.005550 0.000000 1.717920 
# 
# From -- ./inp_files/207716.got.cif
#   From: 2010.06.25/outbox.cif.g09.slc.cpg/sg12_104_cif.got.tgz:207716.got - 2010.06.28 00:19:55.
