data_PCOD8084667
_publ_section_title
;
Structure prediction by ZEFSAII (Michael W. Deem and Ramdas Pophale) SiO2 
 PCOD8084667
Probable space group: C 2/M
;
_chemical_formula_sum "Si O2"
_cell_formula_units_Z 64
_cell_length_a 24.688531
_cell_length_b 9.351153
_cell_length_c 16.983739
_cell_angle_alpha 90.000000
_cell_angle_beta 93.217994
_cell_angle_gamma 90.000000
_cell_volume 3914.789155
_symmetry_space_group_name_H-M "C 2/M"
_symmetry_group_IT_number 12
_symmetry_cell_setting 'monoclinic'
loop_
_space_group_symop_operation_xyz
x,y,z
-x,y,-z
-x,-y,-z
x,-y,z
1/2+x,1/2+y,z
1/2-x,1/2+y,-z
1/2-x,1/2-y,-z
1/2+x,1/2-y,z
loop_
_atom_site_type_symbol
_atom_site_label
_atom_site_fract_x
_atom_site_fract_y
_atom_site_fract_z
Si Si1 0.973570 0.170684 0.830363
Si Si2 0.109631 0.831441 0.047042
Si Si3 0.701119 0.667875 0.171798
Si Si4 0.385645 0.331726 0.709190
Si Si5 0.693304 0.668372 0.778347
Si Si6 0.215561 0.165830 0.605171
Si Si7 0.592616 0.670467 0.871407
Si Si8 0.320195 0.666474 0.563053
O O1 0.034541 0.232127 0.837826
O O2 0.939712 0.227259 0.903108
O O3 0.942594 0.228447 0.748587
O O4 0.975552 0.000000 0.831416
O O5 0.167916 0.793339 0.089715
O O6 0.103027 0.000000 0.041991
O O7 0.105679 0.766210 0.959133
O O8 0.714166 0.500000 0.177709
O O9 0.665361 0.720913 0.243006
O O10 0.756858 0.754204 0.175332
O O11 0.389099 0.500000 0.720163
O O12 0.374410 0.288103 0.616791
O O13 0.701378 0.500000 0.790872
O O14 0.688467 0.709312 0.685560
O O15 0.638239 0.723704 0.814374
O O16 0.269895 0.252913 0.596792
O O17 0.173631 0.200196 0.529637
O O18 0.231615 0.000000 0.605959
O O19 0.591249 0.500000 0.873799
O O20 0.308658 0.500000 0.576070
#
# Coordination Sequence:
#
# PCOD8084667 Si02
#       8
#     8   8   8   8   8   8   8   8
#     4   8  13  22  38  59  80 101 132 173 207 231
#     4   8  14  24  40  60  78  99 136 179 205 227
#     4   9  16  27  42  60  81 105 135 169 202 234
#     4   8  13  22  39  61  79  97 128 171 207 230
#     4  10  19  28  38  57  88 115 133 156 195 249
#     4   9  17  26  37  57  84 110 132 158 192 238
#     4   9  16  25  37  55  82 113 135 160 203 244
#     4   9  15  25  42  60  79 103 133 166 199 230
#
# _framework density 16.348262999999999
#
# number of rings (size 3 to 8) (size 9 to 14) (size 15 to 20)
#    0.000    3.250    1.250    1.875    0.000    2.000 
#    0.000    0.000    0.000    0.750    0.000    9.625 
#    0.000    5.000    0.000    7.375    0.000    7.750 
#
# Total GULP energy -396448.162644 kJ/mol
# GULP energy per Si atom -12389.005083 kJ/mol
# Density = 1.631105 g / cm^3
# Si number density = 16.348263 Si / 1000 Ang^3
#
#
#
# Elastic Constant Matrix: (Units=GPa)
#
#
# Indices 1 2 3 4 5 6 
#
# 1 135.7974 20.2879 88.0796 0.0000 12.7498 0.0000
# 2 20.2879 14.1062 18.7859 0.0000 1.9387 0.0000
# 3 88.0796 18.7859 133.9625 0.0000 23.6847 0.0000
# 4 0.0000 0.0000 0.0000 11.6932 0.0000 1.9213
# 5 12.7498 1.9387 23.6847 0.0000 24.7368 0.0000
# 6 0.0000 0.0000 0.0000 1.9213 0.0000 15.2432
#
#
#
# Elastic Compliance Matrix: (Units=1/GPa)
#
#
# Indices 1 2 3 4 5 6 
#
# 1 0.013846 -0.009426 -0.008006 0.000000 0.001268 0.000000
# 2 -0.009426 0.094300 -0.007919 0.000000 0.005050 0.000000
# 3 -0.008006 -0.007919 0.015649 0.000000 -0.010236 0.000000
# 4 0.000000 0.000000 0.000000 0.087328 0.000000 -0.011007
# 5 0.001268 0.005050 -0.010236 0.000000 0.049177 0.000000
# 6 0.000000 0.000000 0.000000 -0.011007 0.000000 0.066990
#
#
# Mechanical properties :
#
#
# Convention : Reuss Voigt Hill
#
# Bulk Modulus (GPa) = 13.68133 59.79700 36.73917
# Shear Modulus (GPa) = 12.42679 20.78215 16.60447
#
# Velocity S-wave (km/s) = 2.76004 3.56928 3.19042
# Velocity P-wave (km/s) = 4.30626 7.32412 6.00777
#
# Compressibility (1/GPa) = 0.07309229
#
# Stress axis : x y z
#
# Youngs Moduli (GPa) = 72.22438 10.60450 63.90224
#
# Poissons Ratio (x) = 0.09996 0.51159
# Poissons Ratio (y) = 0.68077 0.50607
# Poissons Ratio (z) = 0.57822 0.08398
#
# Static dielectric constant tensor:
#      x y z
#    x 3.168720 0.000000 0.276640 
#    y 0.000000 2.617520 0.000000 
#    z 0.276640 0.000000 3.525270 
# 
# 
# High freq. dielectric constant tensor:
#      x y z
#    x 1.611380 0.000000 0.023350 
#    y 0.000000 1.574070 0.000000 
#    z 0.023350 0.000000 1.638760 
# 
# From -- ./inp_files/282600.got.cif
#   From: 2010.06.25/outbox.cif.g09.slc.cpg/sg12_142_cif.got.tgz:282600.got - 2010.06.28 00:19:55.
