data_PCOD8084387
_publ_section_title
;
Structure prediction by ZEFSAII (Michael W. Deem and Ramdas Pophale) SiO2 
 PCOD8084387
Probable space group: C 2/M
;
_chemical_formula_sum "Si O2"
_cell_formula_units_Z 64
_cell_length_a 15.399316
_cell_length_b 9.058800
_cell_length_c 33.587582
_cell_angle_alpha 90.000000
_cell_angle_beta 45.064966
_cell_angle_gamma 90.000000
_cell_volume 3316.864423
_symmetry_space_group_name_H-M "C 2/M"
_symmetry_group_IT_number 12
_symmetry_cell_setting 'monoclinic'
loop_
_space_group_symop_operation_xyz
x,y,z
-x,y,-z
-x,-y,-z
x,-y,z
1/2+x,1/2+y,z
1/2-x,1/2+y,-z
1/2-x,1/2-y,-z
1/2+x,1/2-y,z
loop_
_atom_site_type_symbol
_atom_site_label
_atom_site_fract_x
_atom_site_fract_y
_atom_site_fract_z
Si Si1 0.833289 0.826004 0.940550
Si Si2 0.295734 0.826081 0.242385
Si Si3 0.387827 0.674121 0.137276
Si Si4 0.952566 0.825434 0.632930
Si Si5 0.089999 0.674462 0.435516
Si Si6 0.863578 0.825360 0.360540
Si Si7 0.260879 0.331173 0.876165
Si Si8 0.024943 0.169578 0.758119
O O1 0.788906 0.774926 0.911472
O O2 0.972969 0.774457 0.900968
O O3 0.822614 0.000000 0.949074
O O4 0.750000 0.750000 0.000000
O O5 0.299727 0.749458 0.198225
O O6 0.171654 0.778076 0.304663
O O7 0.410792 0.772992 0.230663
O O8 0.301782 0.000000 0.233918
O O9 0.373640 0.500000 0.145195
O O10 0.346029 0.729410 0.107287
O O11 0.961060 0.747085 0.587863
O O12 0.067372 0.767770 0.622271
O O13 0.957139 0.000000 0.624840
O O14 0.093475 0.500000 0.427838
O O15 0.225133 0.736692 0.402749
O O16 0.000000 0.720863 0.500000
O O17 0.939314 0.774117 0.297316
O O18 0.861123 0.000000 0.363097
O O19 0.215590 0.500000 0.891504
O O20 0.380193 0.314940 0.809881
O O21 0.066790 0.000000 0.751816
#
# Coordination Sequence:
#
# PCOD8084387 Si02
#       8
#     8   8   8   8   8   8   8   8
#     4  10  23  42  62  84 116 155 197 240 286 338
#     4  11  21  34  57  88 118 147 188 237 285 342
#     4  11  23  40  61  88 119 154 192 233 288 347
#     4  10  21  37  57  82 112 149 188 228 281 344
#     4  10  21  37  57  81 109 146 194 241 284 335
#     4   9  18  34  57  80 110 151 183 221 286 344
#     4  10  21  39  61  87 117 151 192 236 285 346
#     4  10  18  35  61  83 114 155 188 225 288 353
#
# _framework density 19.295331999999998
#
# number of rings (size 3 to 8) (size 9 to 14) (size 15 to 20)
#    0.000    1.875    2.500    1.500    0.000    5.750 
#    0.000    3.750    0.000    0.000    0.000    0.000 
#    0.000    0.000    0.000    0.000    0.000    0.000 
#
# Total GULP energy -396895.423627 kJ/mol
# GULP energy per Si atom -12402.981988 kJ/mol
# Density = 1.925142 g / cm^3
# Si number density = 19.295332 Si / 1000 Ang^3
#
#
#
# Elastic Constant Matrix: (Units=GPa)
#
#
# Indices 1 2 3 4 5 6 
#
# 1 147.6195 38.8267 59.9172 0.0002 24.8958 0.0008
# 2 38.8267 43.4485 39.8917 0.0002 6.3275 0.0008
# 3 59.9172 39.8917 137.5432 0.0006 17.3631 0.0005
# 4 0.0002 0.0002 0.0006 28.3936 0.0001 6.7782
# 5 24.8958 6.3275 17.3631 0.0001 19.0559 0.0005
# 6 0.0008 0.0008 0.0005 6.7782 0.0005 33.8903
#
#
#
# Elastic Compliance Matrix: (Units=1/GPa)
#
#
# Indices 1 2 3 4 5 6 
#
# 1 0.010993 -0.006960 -0.001411 0.000000 -0.010765 0.000000
# 2 -0.006960 0.035873 -0.007928 0.000000 0.004406 -0.000001
# 3 -0.001411 -0.007928 0.010870 0.000000 -0.005428 0.000000
# 4 0.000000 0.000000 0.000000 0.036985 0.000000 -0.007397
# 5 -0.010765 0.004406 -0.005428 0.000000 0.070024 -0.000001
# 6 0.000000 -0.000001 0.000000 -0.007397 -0.000001 0.030986
#
#
# Mechanical properties :
#
#
# Convention : Reuss Voigt Hill
#
# Bulk Modulus (GPa) = 39.78285 67.32029 53.55157
# Shear Modulus (GPa) = 21.12282 28.93302 25.02792
#
# Velocity S-wave (km/s) = 3.31223 3.87652 3.60543
# Velocity P-wave (km/s) = 5.94058 7.41631 6.71908
#
# Compressibility (1/GPa) = 0.02513646
#
# Stress axis : x y z
#
# Youngs Moduli (GPa) = 90.96538 27.87577 91.99714
#
# Poissons Ratio (x) = 0.19402 0.12983
# Poissons Ratio (y) = 0.63315 0.72939
# Poissons Ratio (z) = 0.12837 0.22101
#
# Static dielectric constant tensor:
#      x y z
#    x 3.743670 0.000000 -0.011150 
#    y 0.000000 3.296470 0.000000 
#    z -0.011150 0.000000 3.590790 
# 
# 
# High freq. dielectric constant tensor:
#      x y z
#    x 1.764800 0.000000 0.004890 
#    y 0.000000 1.729550 0.000000 
#    z 0.004890 0.000000 1.751510 
# 
# From -- ./inp_files/375510.got.cif
#   From: 2010.06.25/outbox.cif.g09.slc.cpg/sg12_188_cif.got.tgz:375510.got - 2010.06.28 00:19:55.
