data_PCOD8084661
_publ_section_title
;
Structure prediction by ZEFSAII (Michael W. Deem and Ramdas Pophale) SiO2 
 PCOD8084661
Probable space group: C 2/M
;
_chemical_formula_sum "Si O2"
_cell_formula_units_Z 48
_cell_length_a 29.888003
_cell_length_b 7.874340
_cell_length_c 22.483024
_cell_angle_alpha 90.000000
_cell_angle_beta 31.623452
_cell_angle_gamma 90.000000
_cell_volume 2774.432787
_symmetry_space_group_name_H-M "C 2/M"
_symmetry_group_IT_number 12
_symmetry_cell_setting 'monoclinic'
loop_
_space_group_symop_operation_xyz
x,y,z
-x,y,-z
-x,-y,-z
x,-y,z
1/2+x,1/2+y,z
1/2-x,1/2+y,-z
1/2-x,1/2-y,-z
1/2+x,1/2-y,z
loop_
_atom_site_type_symbol
_atom_site_label
_atom_site_fract_x
_atom_site_fract_y
_atom_site_fract_z
Si Si1 0.150195 0.198225 0.486054
Si Si2 0.192913 0.304962 0.618951
Si Si3 0.864185 0.309287 0.901282
Si Si4 0.042049 0.190605 0.725162
Si Si5 0.807168 0.808142 0.844851
Si Si6 0.915322 0.500000 0.517752
Si Si7 0.890099 0.500000 0.685450
O O1 0.251395 0.231013 0.384754
O O2 0.095234 0.244083 0.606618
O O3 0.123617 0.326609 0.464558
O O4 0.135925 0.000000 0.483838
O O5 0.170191 0.500000 0.639158
O O6 0.250000 0.250000 0.500000
O O7 0.101672 0.209951 0.716699
O O8 0.845943 0.500000 0.900102
O O9 0.859844 0.194457 0.847161
O O10 0.956543 0.300927 0.827722
O O11 0.791450 0.257810 0.031013
O O12 0.010122 0.000000 0.756406
O O13 0.842710 0.672442 0.758024
O O14 0.815358 0.000000 0.809430
O O15 0.893385 0.500000 0.611300
O O16 0.016197 0.500000 0.391623
#
# Coordination Sequence:
#
# PCOD8084661 Si02
#       7
#     8   8   8   8   8   4   4
#     4   9  20  34  49  75 105 139 176 211 254 307
#     4   9  17  28  44  69 104 138 168 208 256 305
#     4  10  19  31  51  79 106 139 170 200 259 317
#     4  10  19  27  46  79 110 140 168 204 255 314
#     4  10  21  36  54  74 106 138 168 216 260 307
#     4  11  24  36  58  73  97 143 181 217 257 298
#     4  11  24  40  52  79 101 133 183 220 257 299
#
# _framework density 17.300833000000001
#
# number of rings (size 3 to 8) (size 9 to 14) (size 15 to 20)
#    0.000    2.167    0.833    3.500    9.333    2.667 
#    0.000    1.667    0.000    0.000    0.000    2.333 
#    0.000    5.333    0.000    0.000    0.000    0.000 
#
# Total GULP energy -297450.136252 kJ/mol
# GULP energy per Si atom -12393.755677 kJ/mol
# Density = 1.726146 g / cm^3
# Si number density = 17.300833 Si / 1000 Ang^3
#
#
#
# Elastic Constant Matrix: (Units=GPa)
#
#
# Indices 1 2 3 4 5 6 
#
# 1 80.2559 41.2821 43.5570 0.0169 -22.8152 -0.0099
# 2 41.2821 89.4804 37.6375 0.0293 -0.0939 -0.0228
# 3 43.5570 37.6375 83.1921 0.0124 -20.9946 -0.0146
# 4 0.0169 0.0293 0.0124 23.8012 -0.0253 -3.9669
# 5 -22.8152 -0.0939 -20.9946 -0.0253 29.4580 0.0155
# 6 -0.0099 -0.0228 -0.0146 -3.9669 0.0155 25.3548
#
#
#
# Elastic Compliance Matrix: (Units=1/GPa)
#
#
# Indices 1 2 3 4 5 6 
#
# 1 0.023979 -0.009125 -0.004569 0.000011 0.015287 -0.000009
# 2 -0.009125 0.018009 -0.006266 -0.000023 -0.011476 0.000013
# 3 -0.004569 -0.006266 0.019935 0.000012 0.010649 -0.000001
# 4 0.000011 -0.000023 0.000012 0.043140 0.000051 0.006749
# 5 0.015287 -0.011476 0.010649 0.000051 0.053339 -0.000023
# 6 -0.000009 0.000013 -0.000001 0.006749 -0.000023 0.040496
#
#
# Mechanical properties :
#
#
# Convention : Reuss Voigt Hill
#
# Bulk Modulus (GPa) = 45.44767 55.32019 50.38393
# Shear Modulus (GPa) = 20.31262 24.41959 22.36610
#
# Velocity S-wave (km/s) = 3.43021 3.76103 3.59942
# Velocity P-wave (km/s) = 6.48186 7.13480 6.81615
#
# Compressibility (1/GPa) = 0.02200333
#
# Stress axis : x y z
#
# Youngs Moduli (GPa) = 41.70277 55.52727 50.16398
#
# Poissons Ratio (x) = 0.50670 0.22918
# Poissons Ratio (y) = 0.38055 0.31433
# Poissons Ratio (z) = 0.19052 0.34794
#
# Static dielectric constant tensor:
#      x y z
#    x 3.154920 0.000500 -0.421380 
#    y 0.000500 3.733770 -0.000320 
#    z -0.421380 -0.000320 3.128320 
# 
# 
# High freq. dielectric constant tensor:
#      x y z
#    x 1.640450 0.000000 -0.042080 
#    y 0.000000 1.687040 0.000010 
#    z -0.042080 0.000010 1.642010 
# 
# From -- ./inp_files/352689.got.cif
#   From: 2010.06.25/outbox.cif.g09.slc.cpg/sg12_177_cif.got.tgz:352689.got - 2010.06.28 00:19:55.
