data_PCOD8084235
_publ_section_title
;
Structure prediction by ZEFSAII (Michael W. Deem and Ramdas Pophale) SiO2 
 PCOD8084235
Probable space group: C 2/M
;
_chemical_formula_sum "Si O2"
_cell_formula_units_Z 64
_cell_length_a 23.347811
_cell_length_b 28.898084
_cell_length_c 9.097068
_cell_angle_alpha 90.000000
_cell_angle_beta 149.581542
_cell_angle_gamma 90.000000
_cell_volume 3107.667429
_symmetry_space_group_name_H-M "C 2/M"
_symmetry_group_IT_number 12
_symmetry_cell_setting 'monoclinic'
loop_
_space_group_symop_operation_xyz
x,y,z
-x,y,-z
-x,-y,-z
x,-y,z
1/2+x,1/2+y,z
1/2-x,1/2+y,-z
1/2-x,1/2-y,-z
1/2+x,1/2-y,z
loop_
_atom_site_type_symbol
_atom_site_label
_atom_site_fract_x
_atom_site_fract_y
_atom_site_fract_z
Si Si1 0.950209 0.144866 0.739966
Si Si2 0.197963 0.355620 0.102885
Si Si3 0.279661 0.828348 0.174159
Si Si4 0.319129 0.573062 0.059177
Si Si5 0.007125 0.695035 0.841605
Si Si6 0.937816 0.784145 0.214575
Si Si7 0.374060 0.949070 0.182542
Si Si8 0.481375 0.448205 0.685144
O O1 0.817542 0.155600 0.440873
O O2 0.011675 0.167733 0.735422
O O3 0.974591 0.089528 0.798826
O O4 0.000000 0.166254 0.000000
O O5 0.186310 0.327573 0.923127
O O6 0.184078 0.410920 0.049818
O O7 0.103532 0.340633 0.008232
O O8 0.390494 0.823525 0.517082
O O9 0.210824 0.875073 0.055014
O O10 0.194749 0.787560 0.036229
O O11 0.389050 0.548054 0.085600
O O12 0.397446 0.572299 0.377078
O O13 0.201082 0.547158 0.834604
O O14 0.041027 0.745675 0.861308
O O15 0.000000 0.696276 0.000000
O O16 0.000000 0.769019 0.500000
O O17 0.500000 0.932202 0.500000
O O18 0.377540 0.000000 0.114612
O O19 0.444254 0.500000 0.653502
#
# Coordination Sequence:
#
# PCOD8084235 Si02
#       8
#     8   8   8   8   8   8   8   8
#     4  12  26  41  64  98 136 178 216 270 340 403
#     4  11  23  44  68  94 132 174 226 272 327 394
#     4  11  22  42  72  94 130 171 223 273 326 391
#     4  10  18  34  61  96 124 166 219 274 322 379
#     4  12  30  45  66 100 135 177 219 275 339 397
#     4  12  24  46  73  98 129 169 225 275 332 393
#     4  10  19  33  60  97 131 165 216 280 331 379
#     4  11  20  35  61  95 134 171 217 271 333 396
#
# _framework density 20.594223
#
# number of rings (size 3 to 8) (size 9 to 14) (size 15 to 20)
#    0.000    0.875    5.000    4.500    3.500    1.750 
#    0.000    0.000    0.000    0.375    0.000    0.000 
#    0.000    0.000    0.000    0.000    0.000    0.000 
#
# Total GULP energy -396728.691760 kJ/mol
# GULP energy per Si atom -12397.771617 kJ/mol
# Density = 2.054735 g / cm^3
# Si number density = 20.594223 Si / 1000 Ang^3
#
#
#
# Elastic Constant Matrix: (Units=GPa)
#
#
# Indices 1 2 3 4 5 6 
#
# 1 121.5877 40.0249 69.2263 0.0000 8.0697 0.0000
# 2 40.0249 101.1980 25.3938 0.0000 -3.0872 0.0000
# 3 69.2263 25.3938 132.1255 0.0000 9.0291 0.0000
# 4 0.0000 0.0000 0.0000 10.5991 0.0000 6.1888
# 5 8.0697 -3.0872 9.0291 0.0000 40.6570 0.0000
# 6 0.0000 0.0000 0.0000 6.1888 0.0000 22.9560
#
#
#
# Elastic Compliance Matrix: (Units=1/GPa)
#
#
# Indices 1 2 3 4 5 6 
#
# 1 0.012927 -0.003662 -0.005966 0.000000 -0.001519 0.000000
# 2 -0.003662 0.011483 -0.000403 0.000000 0.001688 0.000000
# 3 -0.005966 -0.000403 0.010858 0.000000 -0.001258 0.000000
# 4 0.000000 0.000000 0.000000 0.111974 0.000000 -0.030188
# 5 -0.001519 0.001688 -0.001258 0.000000 0.025305 0.000000
# 6 0.000000 0.000000 0.000000 -0.030188 0.000000 0.051700
#
#
# Mechanical properties :
#
#
# Convention : Reuss Voigt Hill
#
# Bulk Modulus (GPa) = 65.76669 69.35568 67.56118
# Shear Modulus (GPa) = 20.04983 29.52683 24.78833
#
# Velocity S-wave (km/s) = 3.12359 3.79059 3.47314
# Velocity P-wave (km/s) = 6.70917 7.27382 6.99719
#
# Compressibility (1/GPa) = 0.01520527
#
# Stress axis : x y z
#
# Youngs Moduli (GPa) = 77.35485 87.08628 92.10065
#
# Poissons Ratio (x) = 0.31894 0.54943
# Poissons Ratio (y) = 0.28330 0.03716
# Poissons Ratio (z) = 0.46146 0.03514
#
# Static dielectric constant tensor:
#      x y z
#    x 3.794320 0.000000 0.384880 
#    y 0.000000 3.735040 0.000000 
#    z 0.384880 0.000000 3.653100 
# 
# 
# High freq. dielectric constant tensor:
#      x y z
#    x 1.796530 0.000000 0.034140 
#    y 0.000000 1.814360 0.000000 
#    z 0.034140 0.000000 1.795120 
# 
# From -- ./inp_files/100226.got.cif
#   From: 2010.06.25/outbox.cif.g09.slc.cpg/sg12_51_cif.got.tgz:100226.got - 2010.06.28 00:19:55.
