data_PCOD8084561
_publ_section_title
;
Structure prediction by ZEFSAII (Michael W. Deem and Ramdas Pophale) SiO2 
 PCOD8084561
Probable space group: C 2/M
;
_chemical_formula_sum "Si O2"
_cell_formula_units_Z 56
_cell_length_a 14.223510
_cell_length_b 23.296834
_cell_length_c 9.360797
_cell_angle_alpha 90.000000
_cell_angle_beta 59.746109
_cell_angle_gamma 90.000000
_cell_volume 2679.355646
_symmetry_space_group_name_H-M "C 2/M"
_symmetry_group_IT_number 12
_symmetry_cell_setting 'monoclinic'
loop_
_space_group_symop_operation_xyz
x,y,z
-x,y,-z
-x,-y,-z
x,-y,z
1/2+x,1/2+y,z
1/2-x,1/2+y,-z
1/2-x,1/2-y,-z
1/2+x,1/2-y,z
loop_
_atom_site_type_symbol
_atom_site_label
_atom_site_fract_x
_atom_site_fract_y
_atom_site_fract_z
Si Si1 0.373586 0.935735 0.622880
Si Si2 0.426473 0.763235 0.325789
Si Si3 0.137141 0.663997 0.152551
Si Si4 0.723611 0.248808 0.303317
Si Si5 0.289224 0.433547 0.500803
Si Si6 0.494192 0.362061 0.338584
Si Si7 0.280800 0.370425 0.790738
O O1 0.500000 0.931005 0.500000
O O2 0.343568 0.892974 0.771630
O O3 0.312024 0.919603 0.523860
O O4 0.340959 0.000000 0.696973
O O5 0.512116 0.814893 0.237605
O O6 0.349728 0.781600 0.518193
O O7 0.351243 0.752736 0.245088
O O8 0.490666 0.704903 0.303949
O O9 0.211472 0.714001 0.165111
O O10 0.176627 0.646958 0.964150
O O11 0.679264 0.313494 0.325808
O O12 0.321583 0.500000 0.475050
O O13 0.391206 0.397566 0.358038
O O14 0.252591 0.417023 0.690641
O O15 0.500000 0.375976 0.500000
O O16 0.612768 0.386491 0.193076
#
# Coordination Sequence:
#
# PCOD8084561 Si02
#       7
#     8   8   8   8   8   8   8
#     4  10  23  44  67  91 121 167 224 264 306 382
#     4  11  21  36  63  87 124 172 216 257 310 377
#     4  12  24  39  63  95 132 171 203 265 340 376
#     4  11  22  37  59  91 125 168 217 259 303 384
#     4  10  22  43  70  94 122 169 222 268 314 377
#     4  10  18  37  60  87 125 160 210 259 307 381
#     4  11  24  39  58  95 135 158 208 264 325 389
#
# _framework density 20.900547
#
# number of rings (size 3 to 8) (size 9 to 14) (size 15 to 20)
#    0.000    1.286    4.286    2.571    4.000    3.714 
#    0.000    2.143    0.000    4.286    0.000    0.000 
#    0.000    0.000    0.000    0.000    0.000    0.000 
#
# Total GULP energy -347102.945771 kJ/mol
# GULP energy per Si atom -12396.533778 kJ/mol
# Density = 2.085298 g / cm^3
# Si number density = 20.900547 Si / 1000 Ang^3
#
#
#
# Elastic Constant Matrix: (Units=GPa)
#
#
# Indices 1 2 3 4 5 6 
#
# 1 153.1374 36.0694 38.7657 0.0000 -10.7607 0.0000
# 2 36.0694 88.7658 27.7710 0.0000 -5.6153 0.0000
# 3 38.7657 27.7710 79.7345 0.0000 -12.9294 0.0000
# 4 0.0000 0.0000 0.0000 14.8462 0.0000 1.6586
# 5 -10.7607 -5.6153 -12.9294 0.0000 15.9382 0.0000
# 6 0.0000 0.0000 0.0000 1.6586 0.0000 31.7396
#
#
#
# Elastic Compliance Matrix: (Units=1/GPa)
#
#
# Indices 1 2 3 4 5 6 
#
# 1 0.007899 -0.002220 -0.002682 0.000000 0.002375 0.000000
# 2 -0.002220 0.013282 -0.003490 0.000000 0.000349 0.000000
# 3 -0.002682 -0.003490 0.016775 0.000000 0.010568 0.000000
# 4 0.000000 0.000000 0.000000 0.067753 0.000000 -0.003540
# 5 0.002375 0.000349 0.010568 0.000000 0.073042 0.000000
# 6 0.000000 0.000000 0.000000 -0.003540 0.000000 0.031691
#
#
# Mechanical properties :
#
#
# Convention : Reuss Voigt Hill
#
# Bulk Modulus (GPa) = 47.23398 58.53888 52.88643
# Shear Modulus (GPa) = 21.34177 27.10690 24.22434
#
# Velocity S-wave (km/s) = 3.19895 3.60522 3.40814
# Velocity P-wave (km/s) = 6.02435 6.73790 6.39109
#
# Compressibility (1/GPa) = 0.02117120
#
# Stress axis : x y z
#
# Youngs Moduli (GPa) = 126.60094 75.29137 59.61405
#
# Poissons Ratio (x) = 0.16717 0.15987
# Poissons Ratio (y) = 0.28110 0.20804
# Poissons Ratio (z) = 0.33952 0.26275
#
# Static dielectric constant tensor:
#      x y z
#    x 4.238930 0.000000 -0.120410 
#    y 0.000000 3.800520 0.000000 
#    z -0.120410 0.000000 3.474200 
# 
# 
# High freq. dielectric constant tensor:
#      x y z
#    x 1.841710 0.000000 -0.006200 
#    y 0.000000 1.812420 0.000000 
#    z -0.006200 0.000000 1.782760 
# 
# From -- ./inp_files/65768.got.cif
#   From: 2010.06.25/outbox.cif.g09.slc.cpg/sg12_33_cif.got.tgz:65768.got - 2010.06.28 00:19:55.
