data_PCOD8084396
_publ_section_title
;
Structure prediction by ZEFSAII (Michael W. Deem and Ramdas Pophale) SiO2 
 PCOD8084396
Probable space group: C 2/M
;
_chemical_formula_sum "Si O2"
_cell_formula_units_Z 56
_cell_length_a 15.152747
_cell_length_b 8.894597
_cell_length_c 24.104737
_cell_angle_alpha 90.000000
_cell_angle_beta 117.198358
_cell_angle_gamma 90.000000
_cell_volume 2889.558967
_symmetry_space_group_name_H-M "C 2/M"
_symmetry_group_IT_number 12
_symmetry_cell_setting 'monoclinic'
loop_
_space_group_symop_operation_xyz
x,y,z
-x,y,-z
-x,-y,-z
x,-y,z
1/2+x,1/2+y,z
1/2-x,1/2+y,-z
1/2-x,1/2-y,-z
1/2+x,1/2-y,z
loop_
_atom_site_type_symbol
_atom_site_label
_atom_site_fract_x
_atom_site_fract_y
_atom_site_fract_z
Si Si1 0.096485 0.169808 0.490316
Si Si2 0.754760 0.176073 0.376750
Si Si3 0.842525 0.178402 0.287608
Si Si4 0.232808 0.823010 0.154087
Si Si5 0.028039 0.325463 0.071021
Si Si6 0.547678 0.824900 0.363672
Si Si7 0.677437 0.175600 0.935716
O O1 0.186453 0.239577 0.552724
O O2 0.079867 0.279321 0.434327
O O3 0.000000 0.167695 0.500000
O O4 0.119225 0.000000 0.475681
O O5 0.796522 0.244729 0.331505
O O6 0.638308 0.211213 0.348077
O O7 0.777143 0.000000 0.382625
O O8 0.777564 0.239231 0.219136
O O9 0.955420 0.231514 0.314294
O O10 0.839308 0.000000 0.285664
O O11 0.118578 0.778023 0.115184
O O12 0.295001 0.770573 0.118098
O O13 0.240888 0.000000 0.165606
O O14 0.057510 0.500000 0.086017
O O15 0.936220 0.281472 0.084241
O O16 0.000000 0.288046 0.000000
O O17 0.520485 0.000000 0.355445
O O18 0.694143 0.000000 0.947342
O O19 0.750000 0.250000 0.000000
#
# Coordination Sequence:
#
# PCOD8084396 Si02
#       7
#     8   8   8   8   8   8   8
#     4  10  18  35  61  86 116 155 199 238 287 355
#     4   9  20  38  60  84 115 156 196 240 292 347
#     4  11  23  43  63  80 112 162 204 234 284 356
#     4  11  24  40  59  89 123 152 189 245 299 338
#     4  10  20  37  62  89 116 152 195 231 277 350
#     4  11  22  37  59  89 120 148 192 250 301 340
#     4  10  21  37  60  88 120 152 188 234 289 343
#
# _framework density 19.380120999999999
#
# number of rings (size 3 to 8) (size 9 to 14) (size 15 to 20)
#    0.000    1.714    2.857    1.714    0.000    2.857 
#    0.000    9.286    0.000    0.000    0.000    0.000 
#    0.000    0.000    0.000    0.000    0.000    0.000 
#
# Total GULP energy -347274.789366 kJ/mol
# GULP energy per Si atom -12402.671049 kJ/mol
# Density = 1.933601 g / cm^3
# Si number density = 19.380121 Si / 1000 Ang^3
#
#
#
# Elastic Constant Matrix: (Units=GPa)
#
#
# Indices 1 2 3 4 5 6 
#
# 1 115.2495 32.1001 45.7179 0.0000 13.8872 0.0000
# 2 32.1001 55.2878 35.0454 0.0000 6.0514 0.0000
# 3 45.7179 35.0454 104.3791 0.0000 16.9741 0.0000
# 4 0.0000 0.0000 0.0000 20.1816 0.0000 11.8008
# 5 13.8872 6.0514 16.9741 0.0000 20.8452 0.0000
# 6 0.0000 0.0000 0.0000 11.8008 0.0000 26.6347
#
#
#
# Elastic Compliance Matrix: (Units=1/GPa)
#
#
# Indices 1 2 3 4 5 6 
#
# 1 0.011551 -0.004413 -0.002921 0.000000 -0.004035 0.000000
# 2 -0.004413 0.024667 -0.006527 0.000000 0.001094 0.000000
# 3 -0.002921 -0.006527 0.014324 0.000000 -0.007822 0.000000
# 4 0.000000 0.000000 0.000000 0.066876 0.000000 -0.029630
# 5 -0.004035 0.001094 -0.007822 0.000000 0.056713 0.000000
# 6 0.000000 0.000000 0.000000 -0.029630 0.000000 0.050673
#
#
# Mechanical properties :
#
#
# Convention : Reuss Voigt Hill
#
# Bulk Modulus (GPa) = 43.82371 55.62703 49.72537
# Shear Modulus (GPa) = 19.22100 24.33585 21.77842
#
# Velocity S-wave (km/s) = 3.15269 3.54745 3.35588
# Velocity P-wave (km/s) = 5.99286 6.74868 6.38197
#
# Compressibility (1/GPa) = 0.02281870
#
# Stress axis : x y z
#
# Youngs Moduli (GPa) = 86.57158 40.54018 69.81505
#
# Poissons Ratio (x) = 0.17891 0.20396
# Poissons Ratio (y) = 0.38205 0.45568
# Poissons Ratio (z) = 0.25291 0.26460
#
# Static dielectric constant tensor:
#      x y z
#    x 3.931980 0.000000 0.004350 
#    y 0.000000 3.425790 0.000000 
#    z 0.004350 0.000000 3.621130 
# 
# 
# High freq. dielectric constant tensor:
#      x y z
#    x 1.769960 0.000000 0.002680 
#    y 0.000000 1.741150 0.000000 
#    z 0.002680 0.000000 1.755340 
# 
# From -- ./inp_files/339034.got.cif
#   From: 2010.06.25/outbox.cif.g09.slc.cpg/sg12_170_cif.got.tgz:339034.got - 2010.06.28 00:19:55.
