data_PCOD8084287
_publ_section_title
;
Structure prediction by ZEFSAII (Michael W. Deem and Ramdas Pophale) SiO2 
 PCOD8084287
Probable space group: C 2/M
;
_chemical_formula_sum "Si O2"
_cell_formula_units_Z 44
_cell_length_a 9.486061
_cell_length_b 23.334753
_cell_length_c 12.056701
_cell_angle_alpha 90.000000
_cell_angle_beta 111.489370
_cell_angle_gamma 90.000000
_cell_volume 2483.288883
_symmetry_space_group_name_H-M "C 2/M"
_symmetry_group_IT_number 12
_symmetry_cell_setting 'monoclinic'
loop_
_space_group_symop_operation_xyz
x,y,z
-x,y,-z
-x,-y,-z
x,-y,z
1/2+x,1/2+y,z
1/2-x,1/2+y,-z
1/2-x,1/2-y,-z
1/2+x,1/2-y,z
loop_
_atom_site_type_symbol
_atom_site_label
_atom_site_fract_x
_atom_site_fract_y
_atom_site_fract_z
Si Si1 0.139571 0.000000 0.300840
Si Si2 0.092933 0.222079 0.420889
Si Si3 0.472847 0.842462 0.660903
Si Si4 0.951254 0.591854 0.865965
Si Si5 0.259637 0.879868 0.401111
Si Si6 0.805106 0.500000 0.116581
Si Si7 0.707676 0.500000 0.847653
O O1 0.197924 0.055571 0.383862
O O2 0.958561 0.000000 0.251408
O O3 0.199007 0.000000 0.192769
O O4 0.250000 0.250000 0.500000
O O5 0.002688 0.273672 0.335026
O O6 0.121330 0.166181 0.352065
O O7 0.000000 0.200554 0.500000
O O8 0.424045 0.856746 0.772246
O O9 0.345493 0.866882 0.541006
O O10 0.631396 0.871487 0.672795
O O11 0.797290 0.555880 0.831969
O O12 0.086976 0.554846 0.854141
O O13 0.000000 0.616388 0.000000
O O14 0.697105 0.500000 0.977905
#
# Coordination Sequence:
#
# PCOD8084287 Si02
#       7
#     4   8   8   8   8   4   4
#     4  12  21  33  52  86 122 135 171 239 282 319
#     4  10  18  35  55  78 106 143 185 212 260 335
#     4  10  18  36  58  80 108 143 189 228 261 330
#     4   9  18  35  58  79 102 147 194 223 262 322
#     4  10  22  33  54  88 110 147 179 218 286 324
#     4   9  17  34  57  71 107 153 191 213 256 348
#     4   9  21  34  48  81 112 152 183 215 273 323
#
# _framework density 17.718437999999999
#
# number of rings (size 3 to 8) (size 9 to 14) (size 15 to 20)
#    0.000    2.182    5.455    1.364    0.000    5.818 
#    0.000    1.364    0.000    3.273    0.000    0.000 
#    0.000    0.000    0.000    0.000    0.000    0.000 
#
# Total GULP energy -272680.224033 kJ/mol
# GULP energy per Si atom -12394.555638 kJ/mol
# Density = 1.767811 g / cm^3
# Si number density = 17.718438 Si / 1000 Ang^3
#
#
#
# Elastic Constant Matrix: (Units=GPa)
#
#
# Indices 1 2 3 4 5 6 
#
# 1 95.2836 40.1453 37.6235 0.0000 -2.7896 0.0000
# 2 40.1453 134.8794 47.4069 0.0000 -3.7208 0.0000
# 3 37.6235 47.4069 80.9827 0.0000 -20.3943 0.0000
# 4 0.0000 0.0000 0.0000 14.5495 0.0000 -5.9757
# 5 -2.7896 -3.7208 -20.3943 0.0000 27.4655 0.0000
# 6 0.0000 0.0000 0.0000 -5.9757 0.0000 25.5440
#
#
#
# Elastic Compliance Matrix: (Units=1/GPa)
#
#
# Indices 1 2 3 4 5 6 
#
# 1 0.013615 -0.002048 -0.005963 0.000000 -0.003323 0.000000
# 2 -0.002048 0.009914 -0.005616 0.000000 -0.003035 0.000000
# 3 -0.005963 -0.005616 0.022217 0.000000 0.015131 0.000000
# 4 0.000000 0.000000 0.000000 0.076036 0.000000 0.017788
# 5 -0.003323 -0.003035 0.015131 0.000000 0.046896 0.000000
# 6 0.000000 0.000000 0.000000 0.017788 0.000000 0.043309
#
#
# Mechanical properties :
#
#
# Convention : Reuss Voigt Hill
#
# Bulk Modulus (GPa) = 54.08173 62.38858 58.23516
# Shear Modulus (GPa) = 20.37432 25.90981 23.14207
#
# Velocity S-wave (km/s) = 3.39469 3.82816 3.61792
# Velocity P-wave (km/s) = 6.77896 7.40455 7.09865
#
# Compressibility (1/GPa) = 0.01849053
#
# Stress axis : x y z
#
# Youngs Moduli (GPa) = 73.44688 100.86786 45.01055
#
# Poissons Ratio (x) = 0.20659 0.26841
# Poissons Ratio (y) = 0.15043 0.25280
# Poissons Ratio (z) = 0.43798 0.56652
#
# Static dielectric constant tensor:
#      x y z
#    x 3.373840 0.000000 -0.080520 
#    y 0.000000 3.537710 0.000000 
#    z -0.080520 0.000000 3.014490 
# 
# 
# High freq. dielectric constant tensor:
#      x y z
#    x 1.694030 0.000000 -0.013080 
#    y 0.000000 1.680260 0.000000 
#    z -0.013080 0.000000 1.653880 
# 
# From -- ./inp_files/122140.got.cif
#   From: 2010.06.25/outbox.cif.g09.slc.cpg/sg12_62_cif.got.tgz:122140.got - 2010.06.28 00:19:55.
