data_PCOD8084686
_publ_section_title
;
Structure prediction by ZEFSAII (Michael W. Deem and Ramdas Pophale) SiO2 
 PCOD8084686
Probable space group: C 2/M
;
_chemical_formula_sum "Si O2"
_cell_formula_units_Z 64
_cell_length_a 27.819309
_cell_length_b 8.912676
_cell_length_c 16.154762
_cell_angle_alpha 90.000000
_cell_angle_beta 86.388757
_cell_angle_gamma 90.000000
_cell_volume 3997.530850
_symmetry_space_group_name_H-M "C 2/M"
_symmetry_group_IT_number 12
_symmetry_cell_setting 'monoclinic'
loop_
_space_group_symop_operation_xyz
x,y,z
-x,y,-z
-x,-y,-z
x,-y,z
1/2+x,1/2+y,z
1/2-x,1/2+y,-z
1/2-x,1/2-y,-z
1/2+x,1/2-y,z
loop_
_atom_site_type_symbol
_atom_site_label
_atom_site_fract_x
_atom_site_fract_y
_atom_site_fract_z
Si Si1 0.290149 0.668877 0.102939
Si Si2 0.344877 0.674797 0.782558
Si Si3 0.417494 0.171636 0.656223
Si Si4 0.212730 0.176771 0.566354
Si Si5 0.515260 0.176946 0.584503
Si Si6 0.318960 0.168277 0.945375
Si Si7 0.239361 0.676319 0.734461
Si Si8 0.616326 0.171847 0.528746
O O1 0.307342 0.500000 0.120805
O O2 0.236342 0.668653 0.074761
O O3 0.293033 0.769329 0.185052
O O4 0.325303 0.739689 0.029921
O O5 0.346234 0.500000 0.801223
O O6 0.388627 0.719259 0.719101
O O7 0.350635 0.757463 0.869689
O O8 0.295059 0.719149 0.743135
O O9 0.474416 0.220531 0.656850
O O10 0.399399 0.190743 0.564462
O O11 0.409907 0.000000 0.686006
O O12 0.250000 0.250000 0.500000
O O13 0.221437 0.236415 0.656793
O O14 0.159078 0.215375 0.543577
O O15 0.220293 0.000000 0.563684
O O16 0.500000 0.254905 0.500000
O O17 0.571413 0.217963 0.594834
O O18 0.512072 0.000000 0.572755
O O19 0.337672 0.000000 0.958066
O O20 0.232066 0.500000 0.722666
O O21 0.632428 0.000000 0.543899
#
# Coordination Sequence:
#
# PCOD8084686 Si02
#       8
#     8   8   8   8   8   8   8   8
#     4   9  16  27  43  62  84 110 142 179 217 255
#     4  10  19  28  40  61  89 117 145 180 219 258
#     4   9  16  27  45  66  87 113 144 176 214 263
#     4  12  24  35  46  62  86 116 151 187 222 257
#     4   7  12  25  45  66  84 106 139 176 214 259
#     4   9  16  26  41  60  83 113 145 175 211 257
#     4  10  20  33  46  61  84 116 153 186 217 255
#     4   9  17  31  49  65  84 112 146 183 220 257
#
# _framework density 16.009884
#
# number of rings (size 3 to 8) (size 9 to 14) (size 15 to 20)
#    0.000    2.625    0.000    4.875    0.000    7.000 
#    0.000    0.625    0.000    2.250    0.000    0.000 
#    0.000    1.000    0.000   10.750    0.000    5.250 
#
# Total GULP energy -396594.516305 kJ/mol
# GULP energy per Si atom -12393.578635 kJ/mol
# Density = 1.597344 g / cm^3
# Si number density = 16.009884 Si / 1000 Ang^3
#
#
#
# Elastic Constant Matrix: (Units=GPa)
#
#
# Indices 1 2 3 4 5 6 
#
# 1 71.4676 30.9238 39.3471 0.0000 -17.2268 0.0000
# 2 30.9238 85.7162 38.4427 0.0000 -5.9848 0.0000
# 3 39.3471 38.4427 86.8255 0.0000 -13.5637 0.0000
# 4 0.0000 0.0000 0.0000 29.7846 0.0000 -2.7643
# 5 -17.2268 -5.9848 -13.5637 0.0000 15.9804 0.0000
# 6 0.0000 0.0000 0.0000 -2.7643 0.0000 19.0857
#
#
#
# Elastic Compliance Matrix: (Units=1/GPa)
#
#
# Indices 1 2 3 4 5 6 
#
# 1 0.023742 -0.004672 -0.005725 0.000000 0.018985 0.000000
# 2 -0.004672 0.015477 -0.005322 0.000000 -0.003758 0.000000
# 3 -0.005725 -0.005322 0.017515 0.000000 0.006702 0.000000
# 4 0.000000 0.000000 0.000000 0.034032 0.000000 0.004929
# 5 0.018985 -0.003758 0.006702 0.000000 0.087323 0.000000
# 6 0.000000 0.000000 0.000000 0.004929 0.000000 0.053109
#
#
# Mechanical properties :
#
#
# Convention : Reuss Voigt Hill
#
# Bulk Modulus (GPa) = 39.53306 51.27075 45.40190
# Shear Modulus (GPa) = 18.44555 21.98985 20.21770
#
# Velocity S-wave (km/s) = 3.39799 3.71012 3.55748
# Velocity P-wave (km/s) = 6.33574 7.10262 6.73012
#
# Compressibility (1/GPa) = 0.02529529
#
# Stress axis : x y z
#
# Youngs Moduli (GPa) = 42.11914 64.61394 57.09401
#
# Poissons Ratio (x) = 0.30190 0.32685
# Poissons Ratio (y) = 0.19680 0.30385
# Poissons Ratio (z) = 0.24112 0.34388
#
# Static dielectric constant tensor:
#      x y z
#    x 2.979080 0.000000 -0.244990 
#    y 0.000000 3.041620 0.000000 
#    z -0.244990 0.000000 3.077290 
# 
# 
# High freq. dielectric constant tensor:
#      x y z
#    x 1.577720 0.000000 -0.025550 
#    y 0.000000 1.616610 0.000000 
#    z -0.025550 0.000000 1.605120 
# 
# From -- ./inp_files/243930.got.cif
#   From: 2010.06.25/outbox.cif.g09.slc.cpg/sg12_122_cif.got.tgz:243930.got - 2010.06.28 00:19:55.
