data_PCOD8084248
_publ_section_title
;
Structure prediction by ZEFSAII (Michael W. Deem and Ramdas Pophale) SiO2 
 PCOD8084248
Probable space group: C 2/M
;
_chemical_formula_sum "Si O2"
_cell_formula_units_Z 64
_cell_length_a 15.978734
_cell_length_b 28.293248
_cell_length_c 8.909622
_cell_angle_alpha 90.000000
_cell_angle_beta 45.048722
_cell_angle_gamma 90.000000
_cell_volume 2850.614219
_symmetry_space_group_name_H-M "C 2/M"
_symmetry_group_IT_number 12
_symmetry_cell_setting 'monoclinic'
loop_
_space_group_symop_operation_xyz
x,y,z
-x,y,-z
-x,-y,-z
x,-y,z
1/2+x,1/2+y,z
1/2-x,1/2+y,-z
1/2-x,1/2-y,-z
1/2+x,1/2-y,z
loop_
_atom_site_type_symbol
_atom_site_label
_atom_site_fract_x
_atom_site_fract_y
_atom_site_fract_z
Si Si1 0.365227 0.051053 0.670696
Si Si2 0.830750 0.700260 0.553562
Si Si3 0.190667 0.355519 0.125594
Si Si4 0.695389 0.050838 0.589514
Si Si5 0.530415 0.866878 0.807749
Si Si6 0.426810 0.720719 0.235538
Si Si7 0.949965 0.142159 0.728422
Si Si8 0.963513 0.944546 0.217960
O O1 0.500000 0.069696 0.500000
O O2 0.284081 0.093017 0.835587
O O3 0.322537 0.041095 0.560739
O O4 0.354750 0.000000 0.771231
O O5 0.846366 0.686007 0.709343
O O6 0.861112 0.654021 0.421067
O O7 0.698557 0.712717 0.681865
O O8 0.919443 0.741583 0.382815
O O9 0.088480 0.365342 0.136524
O O10 0.313488 0.340544 0.892958
O O11 0.587846 0.083104 0.787151
O O12 0.829298 0.070565 0.431980
O O13 0.686582 0.000000 0.684952
O O14 0.500000 0.839294 0.000000
O O15 0.480956 0.673139 0.235135
O O16 0.500000 0.740032 0.000000
O O17 0.000000 0.150103 0.500000
O O18 0.957376 0.087654 0.771576
O O19 0.986781 0.000000 0.222065
O O20 0.000000 0.933283 0.000000
#
# Coordination Sequence:
#
# PCOD8084248 Si02
#       8
#     8   8   8   8   8   8   8   8
#     4  10  18  34  62  98 134 174 227 278 328 395
#     4  11  24  46  77 100 133 170 229 284 339 412
#     4  12  24  44  69 102 136 185 225 283 342 402
#     4  10  20  37  63  93 131 175 230 286 335 397
#     4  12  26  41  66  98 140 180 224 279 347 406
#     4  11  24  49  76 105 134 177 222 281 347 406
#     4  12  28  44  67 102 146 183 226 279 345 415
#     4  10  22  42  71 100 132 183 240 288 339 403
#
# _framework density 22.451301999999998
#
# number of rings (size 3 to 8) (size 9 to 14) (size 15 to 20)
#    0.000    1.000    3.750    2.625    3.500    3.000 
#    0.000    1.250    0.000    0.000    0.000    0.000 
#    0.000    0.000    0.000    0.000    0.000    0.000 
#
# Total GULP energy -396479.753261 kJ/mol
# GULP energy per Si atom -12389.992289 kJ/mol
# Density = 2.240020 g / cm^3
# Si number density = 22.451302 Si / 1000 Ang^3
#
#
#
# Elastic Constant Matrix: (Units=GPa)
#
#
# Indices 1 2 3 4 5 6 
#
# 1 65.3554 27.1557 45.2993 0.0000 -8.9667 0.0000
# 2 27.1557 83.5136 35.4447 0.0000 -4.2195 0.0000
# 3 45.2993 35.4447 143.5781 0.0000 -5.2307 0.0000
# 4 0.0000 0.0000 0.0000 -6.4129 0.0000 -13.3856
# 5 -8.9667 -4.2195 -5.2307 0.0000 33.3260 0.0000
# 6 0.0000 0.0000 0.0000 -13.3856 0.0000 19.7760
#
#
#
# Elastic Compliance Matrix: (Units=1/GPa)
#
#
# Indices 1 2 3 4 5 6 
#
# 1 0.021601 -0.004443 -0.005559 0.000000 0.004377 0.000000
# 2 -0.004443 0.014336 -0.002127 0.000000 0.000286 0.000000
# 3 -0.005559 -0.002127 0.009232 0.000000 -0.000316 0.000000
# 4 0.000000 0.000000 0.000000 -0.064629 0.000000 -0.043745
# 5 0.004377 0.000286 -0.000316 0.000000 0.031171 0.000000
# 6 0.000000 0.000000 0.000000 -0.043745 0.000000 0.020957
#
#
# Mechanical properties :
#
#
# Convention : Reuss Voigt Hill
#
# Bulk Modulus (GPa) = 47.82162 56.47184 52.14673
# Shear Modulus (GPa) = 78.25173 21.64098 49.94635
#
# Velocity S-wave (km/s) = 5.91013 3.10805 4.72174
# Velocity P-wave (km/s) = 8.24131 6.17152 7.28035
#
# Compressibility (1/GPa) = 0.02091104
#
# Stress axis : x y z
#
# Youngs Moduli (GPa) = 46.29508 69.75436 108.31723
#
# Poissons Ratio (x) = 0.30995 0.60210
# Poissons Ratio (y) = 0.20571 0.23037
# Poissons Ratio (z) = 0.25734 0.14835
#
# Static dielectric constant tensor:
#      x y z
#    x 3.707270 0.000000 0.000650 
#    y 0.000000 4.409640 0.000000 
#    z 0.000650 0.000000 4.106010 
# 
# 
# High freq. dielectric constant tensor:
#      x y z
#    x 1.875660 0.000000 -0.017190 
#    y 0.000000 1.889990 0.000000 
#    z -0.017190 0.000000 1.884840 
# 
# From -- ./inp_files/80724.got.cif
#   From: 2010.06.25/outbox.cif.g09.slc.cpg/sg12_41_cif.got.tgz:80724.got - 2010.06.28 00:19:55.
