data_PCOD8084856
_publ_section_title
;
Structure prediction by ZEFSAII (Michael W. Deem and Ramdas Pophale) SiO2 
 PCOD8084856
Probable space group: C 2/M
;
_chemical_formula_sum "Si O2"
_cell_formula_units_Z 48
_cell_length_a 27.898215
_cell_length_b 9.022153
_cell_length_c 24.134109
_cell_angle_alpha 90.000000
_cell_angle_beta 150.781344
_cell_angle_gamma 90.000000
_cell_volume 2965.280006
_symmetry_space_group_name_H-M "C 2/M"
_symmetry_group_IT_number 12
_symmetry_cell_setting 'monoclinic'
loop_
_space_group_symop_operation_xyz
x,y,z
-x,y,-z
-x,-y,-z
x,-y,z
1/2+x,1/2+y,z
1/2-x,1/2+y,-z
1/2-x,1/2-y,-z
1/2+x,1/2-y,z
loop_
_atom_site_type_symbol
_atom_site_label
_atom_site_fract_x
_atom_site_fract_y
_atom_site_fract_z
Si Si1 0.794528 0.672918 0.623890
Si Si2 0.888323 0.324632 0.829446
Si Si3 0.598141 0.326827 0.364990
Si Si4 0.896288 0.672833 0.174257
Si Si5 0.607922 0.176160 0.045170
Si Si6 0.222205 0.326416 0.054707
O O1 0.819398 0.500000 0.641030
O O2 0.812073 0.725644 0.704978
O O3 0.682257 0.707202 0.495246
O O4 0.869623 0.762509 0.661479
O O5 0.895432 0.500000 0.839009
O O6 0.853341 0.269696 0.855150
O O7 0.997091 0.263167 0.925124
O O8 0.578748 0.500000 0.338535
O O9 0.500643 0.249286 0.288346
O O10 0.908086 0.500000 0.197284
O O11 0.822331 0.738922 0.144965
O O12 0.856990 0.706479 0.073075
O O13 0.677818 0.237927 0.067211
O O14 0.607913 0.000000 0.040543
O O15 0.246951 0.500000 0.082548
#
# Coordination Sequence:
#
# PCOD8084856 Si02
#       6
#     8   8   8   8   8   8
#     4   9  17  29  45  65  89 115 143 176 213 253
#     4   8  13  23  41  66  91 112 137 170 211 255
#     4  10  19  29  43  64  89 116 145 177 212 252
#     4  10  19  30  45  64  87 115 144 176 215 257
#     4   8  13  22  41  67  90 111 136 171 213 255
#     4   9  17  29  45  66  89 112 141 177 216 256
#
# _framework density 16.187342999999998
#
# number of rings (size 3 to 8) (size 9 to 14) (size 15 to 20)
#    0.000    3.000    0.000    3.000    0.000    4.000 
#    0.000    0.000    0.000    2.000    0.000   10.500 
#    0.000    0.000    0.000    0.000    0.000    0.000 
#
# Total GULP energy -297504.180663 kJ/mol
# GULP energy per Si atom -12396.007528 kJ/mol
# Density = 1.615050 g / cm^3
# Si number density = 16.187343 Si / 1000 Ang^3
#
#
#
# Elastic Constant Matrix: (Units=GPa)
#
#
# Indices 1 2 3 4 5 6 
#
# 1 155.6742 39.3364 75.2408 0.0000 0.3317 0.0000
# 2 39.3364 44.2061 35.5770 0.0000 7.1614 0.0000
# 3 75.2408 35.5770 102.5546 0.0000 -0.0229 0.0000
# 4 0.0000 0.0000 0.0000 19.0528 0.0000 4.7281
# 5 0.3317 7.1614 -0.0229 0.0000 29.0481 0.0000
# 6 0.0000 0.0000 0.0000 4.7281 0.0000 21.0790
#
#
#
# Elastic Compliance Matrix: (Units=1/GPa)
#
#
# Indices 1 2 3 4 5 6 
#
# 1 0.010557 -0.004613 -0.006145 0.000000 0.001012 0.000000
# 2 -0.004613 0.035244 -0.008844 0.000000 -0.008643 0.000000
# 3 -0.006145 -0.008844 0.017328 0.000000 0.002264 0.000000
# 4 0.000000 0.000000 0.000000 0.055579 0.000000 -0.012467
# 5 0.001012 -0.008643 0.002264 0.000000 0.036547 0.000000
# 6 0.000000 0.000000 0.000000 -0.012467 0.000000 0.050237
#
#
# Mechanical properties :
#
#
# Convention : Reuss Voigt Hill
#
# Bulk Modulus (GPa) = 41.79691 66.97148 54.38420
# Shear Modulus (GPa) = 19.78865 23.98803 21.88834
#
# Velocity S-wave (km/s) = 3.50019 3.85372 3.68120
# Velocity P-wave (km/s) = 6.49707 7.82714 7.19291
#
# Compressibility (1/GPa) = 0.02392521
#
# Stress axis : x y z
#
# Youngs Moduli (GPa) = 94.72353 28.37386 57.71036
#
# Poissons Ratio (x) = 0.13087 0.35463
# Poissons Ratio (y) = 0.43691 0.51040
# Poissons Ratio (z) = 0.58208 0.25094
#
# Static dielectric constant tensor:
#      x y z
#    x 3.242660 0.000000 -0.133520 
#    y 0.000000 2.826290 0.000000 
#    z -0.133520 0.000000 3.096150 
# 
# 
# High freq. dielectric constant tensor:
#      x y z
#    x 1.618410 0.000000 -0.001860 
#    y 0.000000 1.596960 0.000000 
#    z -0.001860 0.000000 1.613130 
# 
# From -- ./inp_files/185719.got.cif
#   From: 2010.06.25/outbox.cif.g09.slc.cpg/sg12_93_cif.got.tgz:185719.got - 2010.06.28 00:19:55.
