data_PCOD8084791
_publ_section_title
;
Structure prediction by ZEFSAII (Michael W. Deem and Ramdas Pophale) SiO2 
 PCOD8084791
Probable space group: C 2/M
;
_chemical_formula_sum "Si O2"
_cell_formula_units_Z 48
_cell_length_a 22.797093
_cell_length_b 9.077301
_cell_length_c 23.903359
_cell_angle_alpha 90.000000
_cell_angle_beta 35.515442
_cell_angle_gamma 90.000000
_cell_volume 2873.513404
_symmetry_space_group_name_H-M "C 2/M"
_symmetry_group_IT_number 12
_symmetry_cell_setting 'monoclinic'
loop_
_space_group_symop_operation_xyz
x,y,z
-x,y,-z
-x,-y,-z
x,-y,z
1/2+x,1/2+y,z
1/2-x,1/2+y,-z
1/2-x,1/2-y,-z
1/2+x,1/2-y,z
loop_
_atom_site_type_symbol
_atom_site_label
_atom_site_fract_x
_atom_site_fract_y
_atom_site_fract_z
Si Si1 0.865818 0.171173 0.964551
Si Si2 0.458540 0.325311 0.090749
Si Si3 0.162230 0.171612 0.141058
Si Si4 0.417345 0.839047 0.516299
Si Si5 0.922754 0.324109 0.690209
Si Si6 0.265541 0.823736 0.719606
O O1 0.880187 0.203559 0.887901
O O2 0.967415 0.222591 0.916715
O O3 0.842406 0.000000 0.994156
O O4 0.773628 0.262228 0.061723
O O5 0.449998 0.500000 0.093198
O O6 0.347530 0.259215 0.189172
O O7 0.500000 0.261303 0.000000
O O8 0.085261 0.249427 0.243193
O O9 0.167417 0.000000 0.150364
O O10 0.500000 0.858789 0.500000
O O11 0.473448 0.762458 0.419748
O O12 0.320642 0.758255 0.620364
O O13 0.381772 0.000000 0.523444
O O14 0.927063 0.500000 0.693011
O O15 0.826040 0.275782 0.728246
O O16 0.266850 0.000000 0.714220
#
# Coordination Sequence:
#
# PCOD8084791 Si02
#       6
#     8   8   8   8   8   8
#     4   9  18  31  44  60  82 108 138 169 203 242
#     4   9  15  23  40  65  86 103 129 168 209 244
#     4  10  19  29  42  60  83 110 138 169 203 241
#     4   7  11  20  36  61  87 106 129 166 207 239
#     4   9  15  25  44  66  85 106 135 170 205 241
#     4   8  13  22  40  66  89 106 131 171 210 240
#
# _framework density 16.704287999999998
#
# number of rings (size 3 to 8) (size 9 to 14) (size 15 to 20)
#    0.000    3.333    0.000    3.500    0.000    3.333 
#    0.000    0.000    0.000   10.000    0.000    0.000 
#    0.000    0.000    0.000    0.000    0.000    0.500 
#
# Total GULP energy -297337.080894 kJ/mol
# GULP energy per Si atom -12389.045037 kJ/mol
# Density = 1.666627 g / cm^3
# Si number density = 16.704288 Si / 1000 Ang^3
#
#
#
# Elastic Constant Matrix: (Units=GPa)
#
#
# Indices 1 2 3 4 5 6 
#
# 1 78.0907 17.2190 64.0776 -0.0001 0.7956 0.0001
# 2 17.2190 25.7047 28.8276 -0.0005 7.3724 0.0010
# 3 64.0776 28.8276 175.1221 -0.0001 10.9617 0.0001
# 4 -0.0001 -0.0005 -0.0001 14.1818 0.0000 5.4260
# 5 0.7956 7.3724 10.9617 0.0000 27.0953 0.0000
# 6 0.0001 0.0010 0.0001 5.4260 0.0000 14.5591
#
#
#
# Elastic Compliance Matrix: (Units=1/GPa)
#
#
# Indices 1 2 3 4 5 6 
#
# 1 0.019409 -0.007209 -0.006158 0.000000 0.003883 0.000001
# 2 -0.007209 0.053220 -0.005366 0.000004 -0.012098 -0.000005
# 3 -0.006158 -0.005366 0.008971 0.000000 -0.001989 0.000000
# 4 0.000000 0.000004 0.000000 0.082240 -0.000001 -0.030650
# 5 0.003883 -0.012098 -0.001989 -0.000001 0.040889 0.000001
# 6 0.000001 -0.000005 0.000000 -0.030650 0.000001 0.080108
#
#
# Mechanical properties :
#
#
# Convention : Reuss Voigt Hill
#
# Bulk Modulus (GPa) = 22.65788 55.46287 39.06037
# Shear Modulus (GPa) = 14.83617 22.42011 18.62814
#
# Velocity S-wave (km/s) = 2.98344 3.66755 3.34304
# Velocity P-wave (km/s) = 5.04594 7.15607 6.19156
#
# Compressibility (1/GPa) = 0.04413476
#
# Stress axis : x y z
#
# Youngs Moduli (GPa) = 51.52351 18.78988 111.46659
#
# Poissons Ratio (x) = 0.13545 0.68641
# Poissons Ratio (y) = 0.37143 0.59810
# Poissons Ratio (z) = 0.31728 0.10082
#
# Static dielectric constant tensor:
#      x y z
#    x 2.960970 0.000000 0.053130 
#    y 0.000000 2.646280 0.000000 
#    z 0.053130 0.000000 3.624130 
# 
# 
# High freq. dielectric constant tensor:
#      x y z
#    x 1.615130 0.000000 0.012800 
#    y 0.000000 1.588330 0.000000 
#    z 0.012800 0.000000 1.661770 
# 
# From -- ./inp_files/367221.got.cif
#   From: 2010.06.25/outbox.cif.g09.slc.cpg/sg12_184_cif.got.tgz:367221.got - 2010.06.28 00:19:55.
