data_PCOD8084262
_publ_section_title
;
Structure prediction by ZEFSAII (Michael W. Deem and Ramdas Pophale) SiO2 
 PCOD8084262
Probable space group: C 2/M
;
_chemical_formula_sum "Si O2"
_cell_formula_units_Z 56
_cell_length_a 23.303241
_cell_length_b 18.241960
_cell_length_c 10.018092
_cell_angle_alpha 90.000000
_cell_angle_beta 131.493032
_cell_angle_gamma 90.000000
_cell_volume 3189.889993
_symmetry_space_group_name_H-M "C 2/M"
_symmetry_group_IT_number 12
_symmetry_cell_setting 'monoclinic'
loop_
_space_group_symop_operation_xyz
x,y,z
-x,y,-z
-x,-y,-z
x,-y,z
1/2+x,1/2+y,z
1/2-x,1/2+y,-z
1/2-x,1/2-y,-z
1/2+x,1/2-y,z
loop_
_atom_site_type_symbol
_atom_site_label
_atom_site_fract_x
_atom_site_fract_y
_atom_site_fract_z
Si Si1 0.739769 0.583041 0.384637
Si Si2 0.211598 0.692736 0.765194
Si Si3 0.887771 0.825612 0.429995
Si Si4 0.574591 0.416458 0.039937
Si Si5 0.661126 0.191941 0.973221
Si Si6 0.256980 0.913531 0.711049
Si Si7 0.945826 0.813286 0.224906
O O1 0.764143 0.500000 0.392516
O O2 0.776660 0.629364 0.323514
O O3 0.647756 0.590398 0.249004
O O4 0.770166 0.607691 0.576585
O O5 0.150303 0.746997 0.604794
O O6 0.180421 0.659220 0.856643
O O7 0.288249 0.736951 0.915363
O O8 0.828184 0.889724 0.375142
O O9 0.909668 0.835725 0.309962
O O10 0.963046 0.826315 0.637873
O O11 0.560334 0.500000 0.972463
O O12 0.500000 0.385356 0.000000
O O13 0.592167 0.368404 0.937877
O O14 0.575398 0.227635 0.842398
O O15 0.675766 0.127855 0.103053
O O16 0.264881 0.000000 0.747243
#
# Coordination Sequence:
#
# PCOD8084262 Si02
#       7
#     8   8   8   8   8   8   8
#     4  10  20  33  51  72 102 138 169 206 254 304
#     4   9  17  34  50  75  99 129 174 215 253 299
#     4   9  20  32  54  73 104 136 166 213 258 305
#     4  10  20  32  47  70 106 141 169 202 243 304
#     4   9  18  32  54  74 100 132 172 220 250 296
#     4  10  21  35  50  76 107 137 171 213 258 303
#     4  10  18  35  50  76 103 136 172 207 257 305
#
# _framework density 17.555464000000001
#
# number of rings (size 3 to 8) (size 9 to 14) (size 15 to 20)
#    0.000    2.429    1.429    1.714    0.000    5.143 
#    2.571    1.429    0.000    0.857    0.000    6.000 
#    0.000    0.000    0.000    0.000    0.000    0.000 
#
# Total GULP energy -347096.059423 kJ/mol
# GULP energy per Si atom -12396.287837 kJ/mol
# Density = 1.751551 g / cm^3
# Si number density = 17.555464 Si / 1000 Ang^3
#
#
#
# Elastic Constant Matrix: (Units=GPa)
#
#
# Indices 1 2 3 4 5 6 
#
# 1 51.3618 37.2039 21.3345 0.0000 -16.1356 0.0000
# 2 37.2039 84.6822 48.0436 0.0000 -20.1926 0.0000
# 3 21.3345 48.0436 80.1857 0.0000 -19.7337 0.0000
# 4 0.0000 0.0000 0.0000 24.1560 0.0000 -3.9542
# 5 -16.1356 -20.1926 -19.7337 0.0000 23.5292 0.0000
# 6 0.0000 0.0000 0.0000 -3.9542 0.0000 31.3602
#
#
#
# Elastic Compliance Matrix: (Units=1/GPa)
#
#
# Indices 1 2 3 4 5 6 
#
# 1 0.031234 -0.011706 0.001893 0.000000 0.012961 0.000000
# 2 -0.011706 0.023564 -0.010084 0.000000 0.003738 0.000000
# 3 0.001893 -0.010084 0.020412 0.000000 0.009763 0.000000
# 4 0.000000 0.000000 0.000000 0.042270 0.000000 0.005330
# 5 0.012961 0.003738 0.009763 0.000000 0.062785 0.000000
# 6 0.000000 0.000000 0.000000 0.005330 0.000000 0.032560
#
#
# Mechanical properties :
#
#
# Convention : Reuss Voigt Hill
#
# Bulk Modulus (GPa) = 28.23528 47.71041 37.97284
# Shear Modulus (GPa) = 18.90902 23.11892 21.01397
#
# Velocity S-wave (km/s) = 3.28548 3.63286 3.46353
# Velocity P-wave (km/s) = 5.52367 6.69573 6.13774
#
# Compressibility (1/GPa) = 0.03541669
#
# Stress axis : x y z
#
# Youngs Moduli (GPa) = 32.01608 42.43771 48.99050
#
# Poissons Ratio (x) = 0.49676 -0.09274
# Poissons Ratio (y) = 0.37477 0.49403
# Poissons Ratio (z) = -0.06061 0.42795
#
# Static dielectric constant tensor:
#      x y z
#    x 3.206260 0.000000 0.071800 
#    y 0.000000 3.101910 0.000000 
#    z 0.071800 0.000000 3.462390 
# 
# 
# High freq. dielectric constant tensor:
#      x y z
#    x 1.661990 0.000000 -0.009680 
#    y 0.000000 1.662290 0.000000 
#    z -0.009680 0.000000 1.686210 
# 
# From -- ./inp_files/98216.got.cif
#   From: 2010.06.25/outbox.cif.g09.slc.cpg/sg12_50_cif.got.tgz:98216.got - 2010.06.28 00:19:55.
