data_PCOD8084410
_publ_section_title
;
Structure prediction by ZEFSAII (Michael W. Deem and Ramdas Pophale) SiO2 
 PCOD8084410
Probable space group: C 2/M
;
_chemical_formula_sum "Si O2"
_cell_formula_units_Z 48
_cell_length_a 20.623911
_cell_length_b 18.200993
_cell_length_c 17.481099
_cell_angle_alpha 90.000000
_cell_angle_beta 159.143469
_cell_angle_gamma 90.000000
_cell_volume 2336.255746
_symmetry_space_group_name_H-M "C 2/M"
_symmetry_group_IT_number 12
_symmetry_cell_setting 'monoclinic'
loop_
_space_group_symop_operation_xyz
x,y,z
-x,y,-z
-x,-y,-z
x,-y,z
1/2+x,1/2+y,z
1/2-x,1/2+y,-z
1/2-x,1/2-y,-z
1/2+x,1/2-y,z
loop_
_atom_site_type_symbol
_atom_site_label
_atom_site_fract_x
_atom_site_fract_y
_atom_site_fract_z
Si Si1 0.278964 0.647250 0.850114
Si Si2 0.164261 0.160054 0.331624
Si Si3 0.787444 0.418154 0.772179
Si Si4 0.580466 0.914495 0.486557
Si Si5 0.850865 0.201782 0.274952
Si Si6 0.148979 0.188181 0.490378
O O1 0.215029 0.626467 0.694644
O O2 0.300460 0.734970 0.888133
O O3 0.127805 0.613351 0.740787
O O4 0.485359 0.622988 0.095261
O O5 0.333575 0.105192 0.500818
O O6 0.134183 0.159301 0.388541
O O7 0.219619 0.240703 0.360667
O O8 0.701565 0.500000 0.679782
O O9 0.729113 0.376847 0.786567
O O10 0.722519 0.375466 0.625959
O O11 0.000000 0.424161 0.000000
O O12 0.582269 0.000000 0.506857
O O13 0.000000 0.229099 0.500000
O O14 0.942226 0.202513 0.291571
#
# Coordination Sequence:
#
# PCOD8084410 Si02
#       6
#     8   8   8   8   8   8
#     4  11  20  38  63  89 116 157 204 249 294 352
#     4  11  23  39  62  88 123 161 202 239 305 358
#     4  10  21  38  60  87 117 156 200 245 299 355
#     4  11  23  40  60  89 124 156 202 253 297 355
#     4  10  18  35  62  85 116 149 198 250 290 341
#     4  10  22  40  58  91 120 155 200 251 293 358
#
# _framework density 20.545694999999998
#
# number of rings (size 3 to 8) (size 9 to 14) (size 15 to 20)
#    0.000    1.500    3.333    3.500    0.000    6.333 
#    3.000    0.000    0.000    0.000    0.000    0.000 
#    0.000    0.000    0.000    0.000    0.000    0.000 
#
# Total GULP energy -297446.696527 kJ/mol
# GULP energy per Si atom -12393.612355 kJ/mol
# Density = 2.049893 g / cm^3
# Si number density = 20.545695 Si / 1000 Ang^3
#
#
#
# Elastic Constant Matrix: (Units=GPa)
#
#
# Indices 1 2 3 4 5 6 
#
# 1 140.6807 47.0301 22.2964 0.0196 23.1741 0.0085
# 2 47.0301 137.9032 23.3794 0.0304 7.6443 0.0169
# 3 22.2964 23.3794 67.6535 0.0393 18.8505 0.0203
# 4 0.0196 0.0304 0.0393 19.1925 0.0205 5.2026
# 5 23.1741 7.6443 18.8505 0.0205 20.5987 0.0075
# 6 0.0085 0.0169 0.0203 5.2026 0.0075 27.4496
#
#
#
# Elastic Compliance Matrix: (Units=1/GPa)
#
#
# Indices 1 2 3 4 5 6 
#
# 1 0.009670 -0.002838 0.000714 0.000004 -0.010479 0.000000
# 2 -0.002838 0.008541 -0.002715 -0.000007 0.002508 -0.000002
# 3 0.000714 -0.002715 0.020707 -0.000017 -0.018745 -0.000005
# 4 0.000004 -0.000007 -0.000017 0.054926 -0.000037 -0.010410
# 5 -0.010479 0.002508 -0.018745 -0.000037 0.076560 0.000002
# 6 0.000000 -0.000002 -0.000005 -0.010410 0.000002 0.038403
#
#
# Mechanical properties :
#
#
# Convention : Reuss Voigt Hill
#
# Bulk Modulus (GPa) = 34.20033 59.07211 46.63622
# Shear Modulus (GPa) = 21.90752 30.35026 26.12889
#
# Velocity S-wave (km/s) = 3.26894 3.84762 3.57002
# Velocity P-wave (km/s) = 5.56148 6.96799 6.30408
#
# Compressibility (1/GPa) = 0.02923948
#
# Stress axis : x y z
#
# Youngs Moduli (GPa) = 103.41106 117.08821 48.29221
#
# Poissons Ratio (x) = 0.33229 -0.03446
# Poissons Ratio (y) = 0.29348 0.13111
# Poissons Ratio (z) = -0.07379 0.31788
#
# Static dielectric constant tensor:
#      x y z
#    x 3.914040 0.000000 0.389110 
#    y 0.000000 3.896730 0.000000 
#    z 0.389110 0.000000 3.511890 
# 
# 
# High freq. dielectric constant tensor:
#      x y z
#    x 1.808690 0.000000 0.031850 
#    y 0.000000 1.801430 0.000000 
#    z 0.031850 0.000000 1.784430 
# 
# From -- ./inp_files/285447.got.cif
#   From: 2010.06.25/outbox.cif.g09.slc.cpg/sg12_143_cif.got.tgz:285447.got - 2010.06.28 00:19:55.
