data_PCOD8084874
_publ_section_title
;
Structure prediction by ZEFSAII (Michael W. Deem and Ramdas Pophale) SiO2 
 PCOD8084874
Probable space group: C 2/M
;
_chemical_formula_sum "Si O2"
_cell_formula_units_Z 48
_cell_length_a 33.334014
_cell_length_b 14.348156
_cell_length_c 12.728444
_cell_angle_alpha 90.000000
_cell_angle_beta 152.074748
_cell_angle_gamma 90.000000
_cell_volume 2851.025153
_symmetry_space_group_name_H-M "C 2/M"
_symmetry_group_IT_number 12
_symmetry_cell_setting 'monoclinic'
loop_
_space_group_symop_operation_xyz
x,y,z
-x,y,-z
-x,-y,-z
x,-y,z
1/2+x,1/2+y,z
1/2-x,1/2+y,-z
1/2-x,1/2-y,-z
1/2+x,1/2-y,z
loop_
_atom_site_type_symbol
_atom_site_label
_atom_site_fract_x
_atom_site_fract_y
_atom_site_fract_z
Si Si1 0.379805 0.746028 0.796231
Si Si2 0.756183 0.395951 0.568259
Si Si3 0.869754 0.390080 0.158799
Si Si4 0.804269 0.103902 0.334597
Si Si5 0.032591 0.609776 0.409645
Si Si6 0.561945 0.252105 0.300621
O O1 0.313479 0.661379 0.661039
O O2 0.346353 0.841325 0.772113
O O3 0.389558 0.769827 0.695469
O O4 0.466736 0.712701 0.052795
O O5 0.766962 0.500000 0.546050
O O6 0.725427 0.403046 0.615162
O O7 0.867752 0.500000 0.137879
O O8 0.895542 0.364890 0.337183
O O9 0.941104 0.352629 0.241464
O O10 0.774669 0.350884 0.914209
O O11 0.888409 0.168006 0.519022
O O12 0.827777 0.000000 0.347846
O O13 0.030039 0.500000 0.381926
O O14 0.058073 0.659054 0.360602
#
# Coordination Sequence:
#
# PCOD8084874 Si02
#       6
#     8   8   8   8   8   8
#     4   9  19  31  42  65  92 112 146 182 207 252
#     4   9  17  31  49  63  83 118 149 176 212 251
#     4   8  15  29  47  66  86 109 145 184 211 252
#     4   9  17  29  46  66  86 113 148 180 212 251
#     4   9  17  29  46  67  89 113 141 177 220 258
#     4  10  19  29  43  65  93 117 138 176 221 256
#
# _framework density 16.836048999999999
#
# number of rings (size 3 to 8) (size 9 to 14) (size 15 to 20)
#    0.000    3.000    0.000    2.000    0.000    4.000 
#    0.000    5.000    0.000    0.000    0.000    2.333 
#    0.000    0.000    0.000    0.000    0.000    0.000 
#
# Total GULP energy -297481.207023 kJ/mol
# GULP energy per Si atom -12395.050293 kJ/mol
# Density = 1.679773 g / cm^3
# Si number density = 16.836049 Si / 1000 Ang^3
#
#
#
# Elastic Constant Matrix: (Units=GPa)
#
#
# Indices 1 2 3 4 5 6 
#
# 1 32.4526 23.1792 23.4204 0.0000 1.8933 0.0000
# 2 23.1792 78.8199 47.2637 0.0000 3.6780 0.0000
# 3 23.4204 47.2637 128.7760 0.0000 5.8640 0.0000
# 4 0.0000 0.0000 0.0000 23.1600 0.0000 0.7202
# 5 1.8933 3.6780 5.8640 0.0000 20.4783 0.0000
# 6 0.0000 0.0000 0.0000 0.7202 0.0000 21.9092
#
#
#
# Elastic Compliance Matrix: (Units=1/GPa)
#
#
# Indices 1 2 3 4 5 6 
#
# 1 0.040449 -0.009573 -0.003801 0.000000 -0.000932 0.000000
# 2 -0.009573 0.018563 -0.005026 0.000000 -0.001010 0.000000
# 3 -0.003801 -0.005026 0.010380 0.000000 -0.001718 0.000000
# 4 0.000000 0.000000 0.000000 0.043222 0.000000 -0.001421
# 5 -0.000932 -0.001010 -0.001718 0.000000 0.049592 0.000000
# 6 0.000000 0.000000 0.000000 -0.001421 0.000000 0.045690
#
#
# Mechanical properties :
#
#
# Convention : Reuss Voigt Hill
#
# Bulk Modulus (GPa) = 30.68165 47.53056 39.10610
# Shear Modulus (GPa) = 19.56505 22.85518 21.21011
#
# Velocity S-wave (km/s) = 3.41265 3.68844 3.55322
# Velocity P-wave (km/s) = 5.81305 6.81412 6.33339
#
# Compressibility (1/GPa) = 0.03259278
#
# Stress axis : x y z
#
# Youngs Moduli (GPa) = 24.72275 53.86986 96.34292
#
# Poissons Ratio (x) = 0.51567 0.36616
# Poissons Ratio (y) = 0.23666 0.48424
# Poissons Ratio (z) = 0.09396 0.27076
#
# Static dielectric constant tensor:
#      x y z
#    x 2.906860 0.000000 0.029340 
#    y 0.000000 3.132700 0.000000 
#    z 0.029340 0.000000 3.578970 
# 
# 
# High freq. dielectric constant tensor:
#      x y z
#    x 1.622600 0.000000 0.000690 
#    y 0.000000 1.625210 0.000000 
#    z 0.000690 0.000000 1.664030 
# 
# From -- ./inp_files/143069.got.cif
#   From: 2010.06.25/outbox.cif.g09.slc.cpg/sg12_72_cif.got.tgz:143069.got - 2010.06.28 00:19:55.
