data_PCOD8084556
_publ_section_title
;
Structure prediction by ZEFSAII (Michael W. Deem and Ramdas Pophale) SiO2 
 PCOD8084556
Probable space group: C 2/M
;
_chemical_formula_sum "Si O2"
_cell_formula_units_Z 60
_cell_length_a 24.078139
_cell_length_b 17.289039
_cell_length_c 14.666513
_cell_angle_alpha 90.000000
_cell_angle_beta 32.723532
_cell_angle_gamma 90.000000
_cell_volume 3300.542661
_symmetry_space_group_name_H-M "C 2/M"
_symmetry_group_IT_number 12
_symmetry_cell_setting 'monoclinic'
loop_
_space_group_symop_operation_xyz
x,y,z
-x,y,-z
-x,-y,-z
x,-y,z
1/2+x,1/2+y,z
1/2-x,1/2+y,-z
1/2-x,1/2-y,-z
1/2+x,1/2-y,z
loop_
_atom_site_type_symbol
_atom_site_label
_atom_site_fract_x
_atom_site_fract_y
_atom_site_fract_z
Si Si1 0.257911 0.296563 0.397952
Si Si2 0.435316 0.588616 0.174304
Si Si3 0.868528 0.407647 0.969185
Si Si4 0.042925 0.317153 0.626615
Si Si5 0.315278 0.680215 0.866605
Si Si6 0.900177 0.287827 0.072659
Si Si7 0.000000 0.743363 0.500000
Si Si8 0.551364 0.673885 0.155426
O O1 0.250000 0.250000 0.500000
O O2 0.329286 0.368281 0.319562
O O3 0.154524 0.339156 0.509039
O O4 0.299444 0.234466 0.268001
O O5 0.411173 0.500000 0.193428
O O6 0.493298 0.601659 0.190173
O O7 0.500000 0.622094 0.000000
O O8 0.870675 0.500000 0.973043
O O9 0.959268 0.378254 0.777738
O O10 0.758659 0.380439 0.081256
O O11 0.885922 0.372229 0.046381
O O12 0.042568 0.314959 0.517882
O O13 0.025338 0.229285 0.683816
O O14 0.404470 0.706401 0.672277
O O15 0.366089 0.640579 0.886277
O O16 0.250000 0.750000 0.000000
O O17 0.901836 0.225453 0.989751
O O18 0.000000 0.287386 0.000000
#
# Coordination Sequence:
#
# PCOD8084556 Si02
#       8
#     8   8   8   8   8   8   4   8
#     4  12  20  34  61  87 115 156 204 242 295 366
#     4  11  22  37  56  86 120 147 189 253 307 349
#     4  11  24  42  59  88 129 161 200 256 309 361
#     4  10  21  34  62  87 118 157 200 248 293 361
#     4  11  20  38  67  91 117 159 210 252 301 359
#     4  11  19  36  63  87 112 159 207 246 294 366
#     4  10  20  36  64  98 112 148 214 258 286 356
#     4  10  18  37  59  88 109 153 203 243 289 360
#
# _framework density 18.178829
#
# number of rings (size 3 to 8) (size 9 to 14) (size 15 to 20)
#    0.000    1.200    8.000    1.600    0.000    1.333 
#    0.000    1.333    0.000    0.000    0.000    0.000 
#    0.000    0.000    0.000    0.000    0.000    0.000 
#
# Total GULP energy -371837.649988 kJ/mol
# GULP energy per Si atom -12394.588333 kJ/mol
# Density = 1.813745 g / cm^3
# Si number density = 18.178829 Si / 1000 Ang^3
#
#
#
# Elastic Constant Matrix: (Units=GPa)
#
#
# Indices 1 2 3 4 5 6 
#
# 1 141.8085 39.9535 58.8850 0.0000 -5.0597 0.0000
# 2 39.9535 80.2747 37.7034 0.0000 -4.2787 0.0000
# 3 58.8850 37.7034 118.3792 0.0000 -5.0161 0.0000
# 4 0.0000 0.0000 0.0000 19.5841 0.0000 -3.7642
# 5 -5.0597 -4.2787 -5.0161 0.0000 38.1828 0.0000
# 6 0.0000 0.0000 0.0000 -3.7642 0.0000 23.7205
#
#
#
# Elastic Compliance Matrix: (Units=1/GPa)
#
#
# Indices 1 2 3 4 5 6 
#
# 1 0.009447 -0.002917 -0.003752 0.000000 0.000432 0.000000
# 2 -0.002917 0.015590 -0.003476 0.000000 0.000904 0.000000
# 3 -0.003752 -0.003476 0.011447 0.000000 0.000617 0.000000
# 4 0.000000 0.000000 0.000000 0.052668 0.000000 0.008358
# 5 0.000432 0.000904 0.000617 0.000000 0.026429 0.000000
# 6 0.000000 0.000000 0.000000 0.008358 0.000000 0.043484
#
#
# Mechanical properties :
#
#
# Convention : Reuss Voigt Hill
#
# Bulk Modulus (GPa) = 61.75023 68.17180 64.96101
# Shear Modulus (GPa) = 27.06321 29.89218 28.47769
#
# Velocity S-wave (km/s) = 3.86258 4.05945 3.96224
# Velocity P-wave (km/s) = 7.34402 7.71714 7.53289
#
# Compressibility (1/GPa) = 0.01619427
#
# Stress axis : x y z
#
# Youngs Moduli (GPa) = 105.85538 64.14491 87.35895
#
# Poissons Ratio (x) = 0.18708 0.32776
# Poissons Ratio (y) = 0.30873 0.30368
# Poissons Ratio (z) = 0.39716 0.22298
#
# Static dielectric constant tensor:
#      x y z
#    x 3.965460 0.000000 -0.021950 
#    y 0.000000 3.071790 0.000000 
#    z -0.021950 0.000000 3.426980 
# 
# 
# High freq. dielectric constant tensor:
#      x y z
#    x 1.729930 0.000000 -0.000210 
#    y 0.000000 1.667920 0.000000 
#    z -0.000210 0.000000 1.710260 
# 
# From -- ./inp_files/241287.got.cif
#   From: 2010.06.25/outbox.cif.g09.slc.cpg/sg12_121_cif.got.tgz:241287.got - 2010.06.28 00:19:55.
