data_PCOD8084458
_publ_section_title
;
Structure prediction by ZEFSAII (Michael W. Deem and Ramdas Pophale) SiO2 
 PCOD8084458
Probable space group: C 2/M
;
_chemical_formula_sum "Si O2"
_cell_formula_units_Z 56
_cell_length_a 8.878277
_cell_length_b 23.663033
_cell_length_c 15.306339
_cell_angle_alpha 90.000000
_cell_angle_beta 114.440511
_cell_angle_gamma 90.000000
_cell_volume 2927.511093
_symmetry_space_group_name_H-M "C 2/M"
_symmetry_group_IT_number 12
_symmetry_cell_setting 'monoclinic'
loop_
_space_group_symop_operation_xyz
x,y,z
-x,y,-z
-x,-y,-z
x,-y,z
1/2+x,1/2+y,z
1/2-x,1/2+y,-z
1/2-x,1/2-y,-z
1/2+x,1/2-y,z
loop_
_atom_site_type_symbol
_atom_site_label
_atom_site_fract_x
_atom_site_fract_y
_atom_site_fract_z
Si Si1 0.616095 0.166270 0.261611
Si Si2 0.406044 0.379492 0.235008
Si Si3 0.636163 0.289657 0.216465
Si Si4 0.438727 0.832796 0.391232
Si Si5 0.221521 0.620716 0.863040
Si Si6 0.808796 0.433610 0.965871
Si Si7 0.734837 0.435439 0.304011
O O1 0.794342 0.137284 0.291516
O O2 0.601415 0.223456 0.200133
O O3 0.587464 0.177214 0.357828
O O4 0.476838 0.124214 0.191175
O O5 0.469857 0.321434 0.206620
O O6 0.293854 0.415070 0.142190
O O7 0.559020 0.417837 0.304960
O O8 0.779263 0.296934 0.324030
O O9 0.698913 0.317526 0.139953
O O10 0.500000 0.812233 0.500000
O O11 0.384584 0.898809 0.380497
O O12 0.284850 0.576755 0.804476
O O13 0.270839 0.598768 0.970041
O O14 0.789562 0.500000 0.976960
O O15 0.000000 0.416695 0.000000
O O16 0.775819 0.500000 0.333060
#
# Coordination Sequence:
#
# PCOD8084458 Si02
#       7
#     8   8   8   8   8   8   8
#     4  10  18  36  56  76 107 143 174 215 269 321
#     4  10  19  34  53  78 107 138 180 224 262 306
#     4   9  20  35  55  77 107 141 174 215 268 321
#     4   9  20  36  56  81 105 136 177 217 263 328
#     4   9  19  35  52  76 107 144 181 214 258 316
#     4  11  21  33  52  79 109 138 183 233 260 292
#     4   9  19  35  54  76 107 142 177 216 269 321
#
# _framework density 19.128876999999999
#
# number of rings (size 3 to 8) (size 9 to 14) (size 15 to 20)
#    0.000    3.000    1.429    2.571    0.000    3.143 
#    0.000   11.429    0.000    0.857    0.000    0.000 
#    0.000    0.000    0.000    0.000    0.000    0.000 
#
# Total GULP energy -347074.640342 kJ/mol
# GULP energy per Si atom -12395.522869 kJ/mol
# Density = 1.908534 g / cm^3
# Si number density = 19.128877 Si / 1000 Ang^3
#
#
#
# Elastic Constant Matrix: (Units=GPa)
#
#
# Indices 1 2 3 4 5 6 
#
# 1 119.8639 28.1591 16.7502 0.0000 -13.4884 0.0000
# 2 28.1591 76.4896 3.7047 0.0000 -3.2309 0.0000
# 3 16.7502 3.7047 64.6659 0.0000 -13.5191 0.0000
# 4 0.0000 0.0000 0.0000 12.4561 0.0000 0.4524
# 5 -13.4884 -3.2309 -13.5191 0.0000 21.9755 0.0000
# 6 0.0000 0.0000 0.0000 0.4524 0.0000 22.5064
#
#
#
# Elastic Compliance Matrix: (Units=1/GPa)
#
#
# Indices 1 2 3 4 5 6 
#
# 1 0.009855 -0.003362 -0.001376 0.000000 0.004708 0.000000
# 2 -0.003362 0.014312 0.000068 0.000000 0.000082 0.000000
# 3 -0.001376 0.000068 0.017951 0.000000 0.010209 0.000000
# 4 0.000000 0.000000 0.000000 0.080341 0.000000 -0.001615
# 5 0.004708 0.000082 0.010209 0.000000 0.054687 0.000000
# 6 0.000000 0.000000 0.000000 -0.001615 0.000000 0.044464
#
#
# Mechanical properties :
#
#
# Convention : Reuss Voigt Hill
#
# Bulk Modulus (GPa) = 30.50885 39.80525 35.15705
# Shear Modulus (GPa) = 20.67183 25.54797 23.10990
#
# Velocity S-wave (km/s) = 3.29091 3.65851 3.47957
# Velocity P-wave (km/s) = 5.51578 6.22097 5.87896
#
# Compressibility (1/GPa) = 0.03277738
#
# Stress axis : x y z
#
# Youngs Moduli (GPa) = 101.47357 69.87282 55.70789
#
# Poissons Ratio (x) = 0.23494 0.07664
# Poissons Ratio (y) = 0.34120 -0.00380
# Poissons Ratio (z) = 0.13960 -0.00477
#
# Static dielectric constant tensor:
#      x y z
#    x 3.767360 0.000000 -0.088240 
#    y 0.000000 3.400380 0.000000 
#    z -0.088240 0.000000 3.039060 
# 
# 
# High freq. dielectric constant tensor:
#      x y z
#    x 1.761210 0.000000 -0.002530 
#    y 0.000000 1.736780 0.000000 
#    z -0.002530 0.000000 1.698940 
# 
# From -- ./inp_files/198518.got.cif
#   From: 2010.06.25/outbox.cif.g09.slc.cpg/sg12_100_cif.got.tgz:198518.got - 2010.06.28 00:19:55.
