data_PCOD8084799
_publ_section_title
;
Structure prediction by ZEFSAII (Michael W. Deem and Ramdas Pophale) SiO2 
 PCOD8084799
Probable space group: C 2/M
;
_chemical_formula_sum "Si O2"
_cell_formula_units_Z 64
_cell_length_a 28.080209
_cell_length_b 16.634895
_cell_length_c 9.307474
_cell_angle_alpha 90.000000
_cell_angle_beta 65.341019
_cell_angle_gamma 90.000000
_cell_volume 3951.153882
_symmetry_space_group_name_H-M "C 2/M"
_symmetry_group_IT_number 12
_symmetry_cell_setting 'monoclinic'
loop_
_space_group_symop_operation_xyz
x,y,z
-x,y,-z
-x,-y,-z
x,-y,z
1/2+x,1/2+y,z
1/2-x,1/2+y,-z
1/2-x,1/2-y,-z
1/2+x,1/2-y,z
loop_
_atom_site_type_symbol
_atom_site_label
_atom_site_fract_x
_atom_site_fract_y
_atom_site_fract_z
Si Si1 0.884675 0.408623 0.017552
Si Si2 0.131808 0.590207 0.272693
Si Si3 0.535473 0.907623 0.586113
Si Si4 0.292781 0.797765 0.687737
Si Si5 0.048423 0.304596 0.848252
Si Si6 0.352021 0.724130 0.364563
Si Si7 0.715552 0.833482 0.758093
Si Si8 0.774858 0.907058 0.434758
O O1 0.889012 0.500000 0.062705
O O2 0.919804 0.360738 0.083734
O O3 0.823455 0.382305 0.090701
O O4 0.902740 0.396111 0.829105
O O5 0.155466 0.500000 0.237712
O O6 0.095665 0.599074 0.459075
O O7 0.178975 0.654598 0.219125
O O8 0.500000 0.874497 0.500000
O O9 0.527217 0.855793 0.740127
O O10 0.520322 0.000000 0.640268
O O11 0.338290 0.751152 0.543103
O O12 0.252593 0.729779 0.798015
O O13 0.262779 0.863946 0.631265
O O14 0.085803 0.232474 0.745477
O O15 0.000000 0.267913 0.000000
O O16 0.319112 0.782926 0.307114
O O17 0.332987 0.632882 0.359363
O O18 0.750784 0.896167 0.624002
O O19 0.780452 0.000000 0.387745
#
# Coordination Sequence:
#
# PCOD8084799 Si02
#       8
#     8   8   8   8   8   8   8   8
#     4  10  20  31  42  64  94 121 152 181 214 258
#     4  10  19  29  42  61  90 123 151 183 215 254
#     4  10  20  32  45  63  86 115 151 187 220 258
#     4   9  15  28  44  63  90 119 152 180 215 258
#     4  11  20  32  49  63  84 120 149 185 224 262
#     4   8  16  29  42  65  90 113 146 185 219 261
#     4   8  16  27  43  64  90 119 148 183 213 253
#     4   9  15  25  46  69  90 115 147 183 221 262
#
# _framework density 16.197799
#
# number of rings (size 3 to 8) (size 9 to 14) (size 15 to 20)
#    0.000    2.625    1.250    3.375    0.000    2.500 
#    0.000    0.000    0.000    0.375    0.000    0.000 
#    0.000    0.500    0.000    0.000    0.000    0.375 
#
# Total GULP energy -396545.837950 kJ/mol
# GULP energy per Si atom -12392.057436 kJ/mol
# Density = 1.616093 g / cm^3
# Si number density = 16.197799 Si / 1000 Ang^3
#
#
#
# Elastic Constant Matrix: (Units=GPa)
#
#
# Indices 1 2 3 4 5 6 
#
# 1 69.8023 23.6203 19.6707 0.0000 -3.6702 0.0000
# 2 23.6203 58.8415 8.8850 0.0000 -5.2168 0.0000
# 3 19.6707 8.8850 53.2339 0.0000 -6.7268 0.0000
# 4 0.0000 0.0000 0.0000 15.9161 0.0000 0.1805
# 5 -3.6702 -5.2168 -6.7268 0.0000 30.1556 0.0000
# 6 0.0000 0.0000 0.0000 0.1805 0.0000 20.8583
#
#
#
# Elastic Compliance Matrix: (Units=1/GPa)
#
#
# Indices 1 2 3 4 5 6 
#
# 1 0.018076 -0.006421 -0.005629 0.000000 -0.000166 0.000000
# 2 -0.006421 0.019891 -0.000629 0.000000 0.002519 0.000000
# 3 -0.005629 -0.000629 0.021475 0.000000 0.003997 0.000000
# 4 0.000000 0.000000 0.000000 0.062836 0.000000 -0.000544
# 5 -0.000166 0.002519 0.003997 0.000000 0.034468 0.000000
# 6 0.000000 0.000000 0.000000 -0.000544 0.000000 0.047947
#
#
# Mechanical properties :
#
#
# Convention : Reuss Voigt Hill
#
# Bulk Modulus (GPa) = 29.33876 31.80328 30.57102
# Shear Modulus (GPa) = 20.71143 22.03278 21.37211
#
# Velocity S-wave (km/s) = 3.57971 3.69213 3.63636
# Velocity P-wave (km/s) = 5.93615 6.15246 6.04527
#
# Compressibility (1/GPa) = 0.03408460
#
# Stress axis : x y z
#
# Youngs Moduli (GPa) = 55.32047 50.27472 46.56596
#
# Poissons Ratio (x) = 0.32282 0.26211
# Poissons Ratio (y) = 0.35522 0.02928
# Poissons Ratio (z) = 0.31139 0.03161
#
# Static dielectric constant tensor:
#      x y z
#    x 3.109630 0.000000 -0.242860 
#    y 0.000000 2.931070 0.000000 
#    z -0.242860 0.000000 3.167330 
# 
# 
# High freq. dielectric constant tensor:
#      x y z
#    x 1.612030 0.000000 -0.003680 
#    y 0.000000 1.591650 0.000000 
#    z -0.003680 0.000000 1.618370 
# 
# From -- ./inp_files/112322.got.cif
#   From: 2010.06.25/outbox.cif.g09.slc.cpg/sg12_57_cif.got.tgz:112322.got - 2010.06.28 00:19:55.
