data_PCOD8084131
_publ_section_title
;
Structure prediction by ZEFSAII (Michael W. Deem and Ramdas Pophale) SiO2 
 PCOD8084131
Probable space group: C 2/M
;
_chemical_formula_sum "Si O2"
_cell_formula_units_Z 52
_cell_length_a 20.839742
_cell_length_b 17.233623
_cell_length_c 16.617775
_cell_angle_alpha 90.000000
_cell_angle_beta 151.585798
_cell_angle_gamma 90.000000
_cell_volume 2839.911372
_symmetry_space_group_name_H-M "C 2/M"
_symmetry_group_IT_number 12
_symmetry_cell_setting 'monoclinic'
loop_
_space_group_symop_operation_xyz
x,y,z
-x,y,-z
-x,-y,-z
x,-y,z
1/2+x,1/2+y,z
1/2-x,1/2+y,-z
1/2-x,1/2-y,-z
1/2+x,1/2-y,z
loop_
_atom_site_type_symbol
_atom_site_label
_atom_site_fract_x
_atom_site_fract_y
_atom_site_fract_z
Si Si1 0.806310 0.587764 0.506450
Si Si2 0.335571 0.764848 0.450364
Si Si3 0.500000 0.311493 0.500000
Si Si4 0.544255 0.335730 0.284720
Si Si5 0.964457 0.735708 0.874043
Si Si6 0.136901 0.911545 0.789920
Si Si7 0.057361 0.586845 0.900098
O O1 0.783741 0.500000 0.452002
O O2 0.817786 0.642272 0.440121
O O3 0.679170 0.614063 0.419966
O O4 0.943942 0.595974 0.707558
O O5 0.394295 0.744571 0.428005
O O6 0.429512 0.735620 0.626251
O O7 0.194495 0.721368 0.307156
O O8 0.579535 0.363189 0.651773
O O9 0.487467 0.298058 0.139785
O O10 0.430629 0.389342 0.199506
O O11 0.036056 0.652028 0.944492
O O12 0.000000 0.771357 0.000000
O O13 0.101605 0.000000 0.731307
O O14 0.296178 0.898881 0.977305
O O15 0.050157 0.500000 0.930476
#
# Coordination Sequence:
#
# PCOD8084131 Si02
#       7
#     8   8   4   8   8   8   8
#     4  10  18  34  59  78 102 141 183 221 262 311
#     4  10  19  37  54  79 108 141 184 220 258 326
#     4  10  21  36  55  80 108 146 172 218 273 316
#     4  10  19  36  57  79 104 146 185 214 261 320
#     4  11  20  34  54  81 110 139 179 227 266 311
#     4  10  21  36  55  81 113 139 175 218 267 325
#     4  10  20  34  52  82 110 137 174 222 270 315
#
# _framework density 18.310431000000001
#
# number of rings (size 3 to 8) (size 9 to 14) (size 15 to 20)
#    0.000    1.846    3.077    2.538    0.000    0.923 
#    2.769    1.154    0.000   11.538    0.000    0.000 
#    0.000    0.000    0.000    0.000    0.000    0.000 
#
# Total GULP energy -322366.414742 kJ/mol
# GULP energy per Si atom -12398.708259 kJ/mol
# Density = 1.826876 g / cm^3
# Si number density = 18.310431 Si / 1000 Ang^3
#
#
#
# Elastic Constant Matrix: (Units=GPa)
#
#
# Indices 1 2 3 4 5 6 
#
# 1 137.9322 75.2764 45.2584 -0.0001 0.4442 -0.0001
# 2 75.2764 128.7809 39.6380 0.0000 4.3331 0.0001
# 3 45.2584 39.6380 73.0586 -0.0002 1.0576 -0.0002
# 4 -0.0001 0.0000 -0.0002 19.7057 -0.0002 5.6952
# 5 0.4442 4.3331 1.0576 -0.0002 32.4525 -0.0002
# 6 -0.0001 0.0001 -0.0002 5.6952 -0.0002 25.3785
#
#
#
# Elastic Compliance Matrix: (Units=1/GPa)
#
#
# Indices 1 2 3 4 5 6 
#
# 1 0.011656 -0.005536 -0.004227 0.000000 0.000717 0.000000
# 2 -0.005536 0.011989 -0.003055 0.000000 -0.001426 0.000000
# 3 -0.004227 -0.003055 0.017965 0.000000 -0.000120 0.000000
# 4 0.000000 0.000000 0.000000 0.054266 0.000000 -0.012178
# 5 0.000717 -0.001426 -0.000120 0.000000 0.030999 0.000000
# 6 0.000000 0.000000 0.000000 -0.012178 0.000000 0.042136
#
#
# Mechanical properties :
#
#
# Convention : Reuss Voigt Hill
#
# Bulk Modulus (GPa) = 62.60026 73.34635 67.97331
# Shear Modulus (GPa) = 25.00326 27.48060 26.24193
#
# Velocity S-wave (km/s) = 3.69930 3.87824 3.78983
# Velocity P-wave (km/s) = 7.24631 7.75877 7.50691
#
# Compressibility (1/GPa) = 0.01597437
#
# Stress axis : x y z
#
# Youngs Moduli (GPa) = 85.79125 83.40667 55.66246
#
# Poissons Ratio (x) = 0.46177 0.23531
# Poissons Ratio (y) = 0.47497 0.17002
# Poissons Ratio (z) = 0.36267 0.25477
#
# Static dielectric constant tensor:
#      x y z
#    x 3.425030 0.000000 0.155990 
#    y 0.000000 3.496970 0.000000 
#    z 0.155990 0.000000 3.246920 
# 
# 
# High freq. dielectric constant tensor:
#      x y z
#    x 1.705680 0.000000 0.015780 
#    y 0.000000 1.711780 0.000000 
#    z 0.015780 0.000000 1.699440 
# 
# From -- ./inp_files/234490.got.cif
#   From: 2010.06.25/outbox.cif.g09.slc.cpg/sg12_118_cif.got.tgz:234490.got - 2010.06.28 00:19:55.
