data_PCOD8084096
_publ_section_title
;
Structure prediction by ZEFSAII (Michael W. Deem and Ramdas Pophale) SiO2 
 PCOD8084096
Probable space group: C 2/M
;
_chemical_formula_sum "Si O2"
_cell_formula_units_Z 64
_cell_length_a 20.123306
_cell_length_b 8.982994
_cell_length_c 21.844489
_cell_angle_alpha 90.000000
_cell_angle_beta 60.162512
_cell_angle_gamma 90.000000
_cell_volume 3425.325337
_symmetry_space_group_name_H-M "C 2/M"
_symmetry_group_IT_number 12
_symmetry_cell_setting 'monoclinic'
loop_
_space_group_symop_operation_xyz
x,y,z
-x,y,-z
-x,-y,-z
x,-y,z
1/2+x,1/2+y,z
1/2-x,1/2+y,-z
1/2-x,1/2-y,-z
1/2+x,1/2-y,z
loop_
_atom_site_type_symbol
_atom_site_label
_atom_site_fract_x
_atom_site_fract_y
_atom_site_fract_z
Si Si1 0.885506 0.828320 0.208580
Si Si2 0.731795 0.677075 0.944019
Si Si3 0.640486 0.327833 0.589173
Si Si4 0.082488 0.176823 0.942286
Si Si5 0.525358 0.175842 0.725348
Si Si6 0.852313 0.323798 0.789161
Si Si7 0.790090 0.172089 0.569267
Si Si8 0.207428 0.328461 0.311836
O O1 0.897957 0.765806 0.134571
O O2 0.937047 0.731073 0.229580
O O3 0.798107 0.807980 0.267101
O O4 0.910897 0.000000 0.201935
O O5 0.735736 0.500000 0.948737
O O6 0.647966 0.730433 0.959521
O O7 0.794296 0.737635 0.866948
O O8 0.750000 0.750000 0.000000
O O9 0.635232 0.500000 0.609921
O O10 0.564725 0.245656 0.647269
O O11 0.713969 0.263251 0.589628
O O12 0.647370 0.305011 0.512999
O O13 0.081053 0.000000 0.942487
O O14 0.000000 0.242213 0.000000
O O15 0.437471 0.228156 0.766662
O O16 0.532840 0.000000 0.717293
O O17 0.843610 0.500000 0.790683
O O18 0.829815 0.261354 0.732653
O O19 0.825617 0.234227 0.615944
O O20 0.767513 0.000000 0.586312
O O21 0.184434 0.500000 0.331816
#
# Coordination Sequence:
#
# PCOD8084096 Si02
#       8
#     8   8   8   8   8   8   8   8
#     4  10  19  33  56  81 106 139 184 231 273 318
#     4  10  20  37  57  78 109 145 181 220 269 325
#     4  10  20  35  53  78 112 146 179 218 270 329
#     4   9  18  33  55  82 109 140 181 226 267 318
#     4  11  22  35  54  80 111 144 183 230 274 319
#     4   9  20  38  56  76 109 152 186 217 268 330
#     4  10  20  33  54  83 112 140 175 224 276 321
#     4  10  18  34  58  79 103 145 190 223 262 321
#
# _framework density 18.684356000000001
#
# number of rings (size 3 to 8) (size 9 to 14) (size 15 to 20)
#    0.000    2.125    2.500    1.125    1.750    1.500 
#    0.000    3.750    0.000    4.500    0.000    0.000 
#    0.000    0.000    0.000    0.000    0.000    0.000 
#
# Total GULP energy -396831.264095 kJ/mol
# GULP energy per Si atom -12400.977003 kJ/mol
# Density = 1.864183 g / cm^3
# Si number density = 18.684356 Si / 1000 Ang^3
#
#
#
# Elastic Constant Matrix: (Units=GPa)
#
#
# Indices 1 2 3 4 5 6 
#
# 1 130.5699 44.6671 70.8644 0.0000 6.6872 -0.0002
# 2 44.6671 62.5495 43.5077 -0.0001 3.4288 -0.0009
# 3 70.8644 43.5077 141.2106 0.0000 17.4683 0.0000
# 4 0.0000 -0.0001 0.0000 28.1760 0.0000 6.8666
# 5 6.6872 3.4288 17.4683 0.0000 35.2975 0.0000
# 6 -0.0002 -0.0009 0.0000 6.8666 0.0000 23.4306
#
#
#
# Elastic Compliance Matrix: (Units=1/GPa)
#
#
# Indices 1 2 3 4 5 6 
#
# 1 0.011854 -0.005491 -0.004309 0.000000 0.000420 0.000000
# 2 -0.005491 0.022939 -0.004437 0.000000 0.001008 0.000001
# 3 -0.004309 -0.004437 0.011139 0.000000 -0.004265 0.000000
# 4 0.000000 0.000000 0.000000 0.038221 0.000000 -0.011201
# 5 0.000420 0.001008 -0.004265 0.000000 0.030264 0.000000
# 6 0.000000 0.000001 0.000000 -0.011201 0.000000 0.045962
#
#
# Mechanical properties :
#
#
# Convention : Reuss Voigt Hill
#
# Bulk Modulus (GPa) = 57.27841 72.48981 64.88411
# Shear Modulus (GPa) = 25.68417 29.06687 27.37552
#
# Velocity S-wave (km/s) = 3.71163 3.94849 3.83189
# Velocity P-wave (km/s) = 7.00647 7.72455 7.37426
#
# Compressibility (1/GPa) = 0.01745859
#
# Stress axis : x y z
#
# Youngs Moduli (GPa) = 84.35739 43.59313 89.77739
#
# Poissons Ratio (x) = 0.23937 0.38686
# Poissons Ratio (y) = 0.46321 0.39832
# Poissons Ratio (z) = 0.36350 0.19341
#
# Static dielectric constant tensor:
#      x y z
#    x 3.419120 0.000000 0.026060 
#    y 0.000000 3.180080 0.000000 
#    z 0.026060 0.000000 3.721360 
# 
# 
# High freq. dielectric constant tensor:
#      x y z
#    x 1.716480 0.000000 0.008040 
#    y 0.000000 1.699780 0.000000 
#    z 0.008040 0.000000 1.741470 
# 
# From -- ./inp_files/319929.got.cif
#   From: 2010.06.25/outbox.cif.g09.slc.cpg/sg12_160_cif.got.tgz:319929.got - 2010.06.28 00:19:55.
