data_PCOD8084329
_publ_section_title
;
Structure prediction by ZEFSAII (Michael W. Deem and Ramdas Pophale) SiO2 
 PCOD8084329
Probable space group: C 2/M
;
_chemical_formula_sum "Si O2"
_cell_formula_units_Z 64
_cell_length_a 14.487290
_cell_length_b 9.130667
_cell_length_c 30.165167
_cell_angle_alpha 90.000000
_cell_angle_beta 59.507019
_cell_angle_gamma 90.000000
_cell_volume 3438.326504
_symmetry_space_group_name_H-M "C 2/M"
_symmetry_group_IT_number 12
_symmetry_cell_setting 'monoclinic'
loop_
_space_group_symop_operation_xyz
x,y,z
-x,y,-z
-x,-y,-z
x,-y,z
1/2+x,1/2+y,z
1/2-x,1/2+y,-z
1/2-x,1/2-y,-z
1/2+x,1/2-y,z
loop_
_atom_site_type_symbol
_atom_site_label
_atom_site_fract_x
_atom_site_fract_y
_atom_site_fract_z
Si Si1 0.491431 0.828917 0.364219
Si Si2 0.938786 0.325360 0.557815
Si Si3 0.316634 0.174189 0.176524
Si Si4 0.381155 0.163268 0.011605
Si Si5 0.795882 0.829514 0.364593
Si Si6 0.450434 0.168528 0.902476
Si Si7 0.763688 0.331408 0.885212
Si Si8 0.268566 0.168447 0.718781
O O1 0.499161 0.771104 0.413152
O O2 0.396807 0.750744 0.361086
O O3 0.605137 0.795474 0.313506
O O4 0.466223 0.000000 0.369641
O O5 0.937438 0.500000 0.558911
O O6 0.815420 0.270866 0.586786
O O7 0.000000 0.262206 0.500000
O O8 0.433386 0.238170 0.134778
O O9 0.235600 0.239953 0.160250
O O10 0.286442 0.226271 0.232602
O O11 0.312173 0.000000 0.176566
O O12 0.317506 0.272178 0.058414
O O13 0.328114 0.000000 0.024821
O O14 0.500000 0.149926 0.000000
O O15 0.387207 0.234658 0.960493
O O16 0.789361 0.799617 0.313723
O O17 0.810261 0.000000 0.370946
O O18 0.383432 0.187592 0.874171
O O19 0.468588 0.000000 0.910778
O O20 0.735633 0.500000 0.882448
O O21 0.251832 0.000000 0.736641
#
# Coordination Sequence:
#
# PCOD8084329 Si02
#       8
#     8   8   8   8   8   8   8   8
#     4   9  18  33  54  77 105 141 179 218 264 316
#     4   8  15  30  51  76 109 149 184 215 260 316
#     4  11  22  39  58  77 102 136 174 212 263 315
#     4  10  18  35  59  77 104 141 172 207 253 306
#     4   9  18  33  54  78 106 139 179 223 262 309
#     4   9  20  37  55  76 105 138 167 204 257 311
#     4  11  22  36  55  81 109 135 170 212 255 309
#     4   9  20  38  54  73 103 137 172 215 266 313
#
# _framework density 18.613707000000002
#
# number of rings (size 3 to 8) (size 9 to 14) (size 15 to 20)
#    0.000    2.500    1.250    2.625    0.000    2.750 
#    0.000    8.750    0.000    0.750    0.000    0.000 
#    0.000    0.000    0.000    0.000    0.000    0.000 
#
# Total GULP energy -396703.653984 kJ/mol
# GULP energy per Si atom -12396.989187 kJ/mol
# Density = 1.857134 g / cm^3
# Si number density = 18.613707 Si / 1000 Ang^3
#
#
#
# Elastic Constant Matrix: (Units=GPa)
#
#
# Indices 1 2 3 4 5 6 
#
# 1 118.3184 40.7278 40.8461 0.0000 10.2360 0.0000
# 2 40.7278 63.4801 41.3584 0.0000 5.0607 0.0000
# 3 40.8461 41.3584 112.7318 0.0000 11.6901 0.0000
# 4 0.0000 0.0000 0.0000 24.5885 0.0000 5.8758
# 5 10.2360 5.0607 11.6901 0.0000 17.6283 0.0000
# 6 0.0000 0.0000 0.0000 5.8758 0.0000 17.4697
#
#
#
# Elastic Compliance Matrix: (Units=1/GPa)
#
#
# Indices 1 2 3 4 5 6 
#
# 1 0.011377 -0.006001 -0.001519 0.000000 -0.003876 0.000000
# 2 -0.006001 0.023882 -0.006698 0.000000 0.001070 0.000000
# 3 -0.001519 -0.006698 0.012443 0.000000 -0.005447 0.000000
# 4 0.000000 0.000000 0.000000 0.044224 0.000000 -0.014874
# 5 -0.003876 0.001070 -0.005447 0.000000 0.062282 0.000000
# 6 0.000000 0.000000 0.000000 -0.014874 0.000000 0.062245
#
#
# Mechanical properties :
#
#
# Convention : Reuss Voigt Hill
#
# Bulk Modulus (GPa) = 51.90437 60.04387 55.97412
# Shear Modulus (GPa) = 19.89569 23.37718 21.63644
#
# Velocity S-wave (km/s) = 3.27291 3.54773 3.41309
# Velocity P-wave (km/s) = 6.49832 7.00784 6.75788
#
# Compressibility (1/GPa) = 0.01926620
#
# Stress axis : x y z
#
# Youngs Moduli (GPa) = 87.89646 41.87298 80.36542
#
# Poissons Ratio (x) = 0.25127 0.12205
# Poissons Ratio (y) = 0.52745 0.53831
# Poissons Ratio (z) = 0.13349 0.28048
#
# Static dielectric constant tensor:
#      x y z
#    x 3.491740 0.000000 0.046440 
#    y 0.000000 3.175780 0.000000 
#    z 0.046440 0.000000 3.539330 
# 
# 
# High freq. dielectric constant tensor:
#      x y z
#    x 1.729550 0.000000 0.006920 
#    y 0.000000 1.696350 0.000000 
#    z 0.006920 0.000000 1.724170 
# 
# From -- ./inp_files/375039.got.cif
#   From: 2010.06.25/outbox.cif.g09.slc.cpg/sg12_188_cif.got.tgz:375039.got - 2010.06.28 00:19:55.
