data_PCOD8084399
_publ_section_title
;
Structure prediction by ZEFSAII (Michael W. Deem and Ramdas Pophale) SiO2 
 PCOD8084399
Probable space group: C 2/M
;
_chemical_formula_sum "Si O2"
_cell_formula_units_Z 56
_cell_length_a 15.164101
_cell_length_b 8.895247
_cell_length_c 24.526242
_cell_angle_alpha 90.000000
_cell_angle_beta 61.093578
_cell_angle_gamma 90.000000
_cell_volume 2896.125435
_symmetry_space_group_name_H-M "C 2/M"
_symmetry_group_IT_number 12
_symmetry_cell_setting 'monoclinic'
loop_
_space_group_symop_operation_xyz
x,y,z
-x,y,-z
-x,-y,-z
x,-y,z
1/2+x,1/2+y,z
1/2-x,1/2+y,-z
1/2-x,1/2-y,-z
1/2+x,1/2-y,z
loop_
_atom_site_type_symbol
_atom_site_label
_atom_site_fract_x
_atom_site_fract_y
_atom_site_fract_z
Si Si1 0.741032 0.177152 0.346088
Si Si2 0.663086 0.821604 0.787681
Si Si3 0.531259 0.675143 0.429425
Si Si4 0.559066 0.824242 0.123903
Si Si5 0.389437 0.170032 0.008891
Si Si6 0.825931 0.175527 0.435879
Si Si7 0.752131 0.674946 0.864654
O O1 0.794976 0.257921 0.280548
O O2 0.625289 0.225622 0.383619
O O3 0.800580 0.228794 0.382443
O O4 0.746087 0.000000 0.335773
O O5 0.550555 0.755386 0.830243
O O6 0.733194 0.770825 0.816439
O O7 0.663668 0.000000 0.784404
O O8 0.500000 0.717147 0.500000
O O9 0.559934 0.500000 0.416384
O O10 0.440511 0.719191 0.415944
O O11 0.633166 0.790298 0.151910
O O12 0.544613 0.000000 0.117886
O O13 0.605536 0.760185 0.053651
O O14 0.320445 0.279538 0.064510
O O15 0.345071 0.000000 0.023199
O O16 0.500000 0.168916 0.000000
O O17 0.750000 0.250000 0.500000
O O18 0.809170 0.000000 0.447657
O O19 0.736194 0.500000 0.856552
#
# Coordination Sequence:
#
# PCOD8084399 Si02
#       7
#     8   8   8   8   8   8   8
#     4  11  24  40  59  89 123 152 192 247 296 339
#     4  11  23  43  63  80 112 162 204 235 289 359
#     4  10  20  37  62  90 120 155 193 230 280 350
#     4   9  20  38  60  85 117 156 197 241 291 351
#     4  10  18  35  61  86 117 157 199 237 288 355
#     4  10  21  37  60  89 121 152 190 236 287 343
#     4  11  22  37  59  90 122 149 194 252 300 340
#
# _framework density 19.336178
#
# number of rings (size 3 to 8) (size 9 to 14) (size 15 to 20)
#    0.000    1.714    2.857    1.714    0.000    2.857 
#    0.000    6.429    0.000    0.000    0.000    0.000 
#    0.000    0.000    0.000    0.000    0.000    0.000 
#
# Total GULP energy -347275.986716 kJ/mol
# GULP energy per Si atom -12402.713811 kJ/mol
# Density = 1.929217 g / cm^3
# Si number density = 19.336178 Si / 1000 Ang^3
#
#
#
# Elastic Constant Matrix: (Units=GPa)
#
#
# Indices 1 2 3 4 5 6 
#
# 1 135.5599 39.6870 69.2479 0.0000 18.3064 0.0000
# 2 39.6870 58.6849 46.4587 0.0000 5.7230 0.0000
# 3 69.2479 46.4587 140.4296 0.0000 24.6435 0.0000
# 4 0.0000 0.0000 0.0000 26.7634 0.0000 7.6927
# 5 18.3064 5.7230 24.6435 0.0000 18.4968 0.0000
# 6 0.0000 0.0000 0.0000 7.6927 0.0000 21.5595
#
#
#
# Elastic Compliance Matrix: (Units=1/GPa)
#
#
# Indices 1 2 3 4 5 6 
#
# 1 0.010950 -0.004552 -0.002922 0.000000 -0.005535 0.000000
# 2 -0.004552 0.025203 -0.007199 0.000000 0.006298 0.000000
# 3 -0.002922 -0.007199 0.013110 0.000000 -0.012348 0.000000
# 4 0.000000 0.000000 0.000000 0.041635 0.000000 -0.014856
# 5 -0.005535 0.006298 -0.012348 0.000000 0.074044 0.000000
# 6 0.000000 0.000000 0.000000 -0.014856 0.000000 0.051684
#
#
# Mechanical properties :
#
#
# Convention : Reuss Voigt Hill
#
# Bulk Modulus (GPa) = 50.20592 71.71794 60.96193
# Shear Modulus (GPa) = 19.79334 25.31599 22.55467
#
# Velocity S-wave (km/s) = 3.20291 3.62229 3.41904
# Velocity P-wave (km/s) = 6.30074 7.39359 6.86893
#
# Compressibility (1/GPa) = 0.01991797
#
# Stress axis : x y z
#
# Youngs Moduli (GPa) = 91.32712 39.67758 76.27546
#
# Poissons Ratio (x) = 0.18060 0.22289
# Poissons Ratio (y) = 0.41570 0.54908
# Poissons Ratio (z) = 0.26687 0.28563
#
# Static dielectric constant tensor:
#      x y z
#    x 3.741020 0.000000 0.109050 
#    y 0.000000 3.426890 0.000000 
#    z 0.109050 0.000000 3.557980 
# 
# 
# High freq. dielectric constant tensor:
#      x y z
#    x 1.768580 0.000000 0.005500 
#    y 0.000000 1.740270 0.000000 
#    z 0.005500 0.000000 1.753400 
# 
# From -- ./inp_files/309014.got.cif
#   From: 2010.06.25/outbox.cif.g09.slc.cpg/sg12_155_cif.got.tgz:309014.got - 2010.06.28 00:19:55.
