data_PCOD8084022
_publ_section_title
;
Structure prediction by ZEFSAII (Michael W. Deem and Ramdas Pophale) SiO2 
 PCOD8084022
Probable space group: C 2/M
;
_chemical_formula_sum "Si O2"
_cell_formula_units_Z 40
_cell_length_a 18.592765
_cell_length_b 11.917995
_cell_length_c 21.039963
_cell_angle_alpha 90.000000
_cell_angle_beta 151.459551
_cell_angle_gamma 90.000000
_cell_volume 2227.507941
_symmetry_space_group_name_H-M "C 2/M"
_symmetry_group_IT_number 12
_symmetry_cell_setting 'monoclinic'
loop_
_space_group_symop_operation_xyz
x,y,z
-x,y,-z
-x,-y,-z
x,-y,z
1/2+x,1/2+y,z
1/2-x,1/2+y,-z
1/2-x,1/2-y,-z
1/2+x,1/2-y,z
loop_
_atom_site_type_symbol
_atom_site_label
_atom_site_fract_x
_atom_site_fract_y
_atom_site_fract_z
Si Si1 0.176315 0.760969 0.750867
Si Si2 0.413074 0.376968 0.998523
Si Si3 0.181914 0.000000 0.712358
Si Si4 0.824843 0.000000 0.433374
Si Si5 0.717452 0.367098 0.289668
Si Si6 0.174115 0.767127 0.508108
O O1 0.273301 0.707582 0.883600
O O2 0.191586 0.695447 0.695861
O O3 0.004478 0.759635 0.638957
O O4 0.236688 0.888368 0.790896
O O5 0.348548 0.500000 0.965835
O O6 0.500000 0.382769 0.000000
O O7 0.538181 0.338845 0.147140
O O8 0.249855 0.000000 0.694270
O O9 0.003457 0.000000 0.567583
O O10 0.769610 0.111140 0.425859
O O11 0.745075 0.500000 0.303151
O O12 0.775225 0.327478 0.402713
O O13 0.250000 0.750000 0.500000
#
# Coordination Sequence:
#
# PCOD8084022 Si02
#       6
#     8   8   4   4   8   8
#     4  10  18  34  56  79 104 136 177 213 261 310
#     4   8  16  32  53  78 107 133 165 219 272 306
#     4   9  16  30  56  75  98 141 170 207 256 316
#     4   9  18  36  49  70 110 138 167 208 268 303
#     4  10  20  35  56  81 106 135 174 221 268 306
#     4  11  23  35  52  79 107 141 175 216 258 310
#
# _framework density 17.957287999999998
#
# number of rings (size 3 to 8) (size 9 to 14) (size 15 to 20)
#    0.000    2.400    2.000    2.400    1.400    2.400 
#    0.000    6.500    0.000    0.000    0.000    0.000 
#    0.000    0.000    0.000    0.000    0.000    0.000 
#
# Total GULP energy -247922.624212 kJ/mol
# GULP energy per Si atom -12396.131211 kJ/mol
# Density = 1.791642 g / cm^3
# Si number density = 17.957288 Si / 1000 Ang^3
#
#
#
# Elastic Constant Matrix: (Units=GPa)
#
#
# Indices 1 2 3 4 5 6 
#
# 1 87.9495 42.0088 28.5257 -0.0001 6.5741 -0.0001
# 2 42.0088 134.8366 47.8492 -0.0015 8.2812 -0.0007
# 3 28.5257 47.8492 80.9156 -0.0010 11.1372 -0.0005
# 4 -0.0001 -0.0015 -0.0010 32.0595 0.0001 0.5186
# 5 6.5741 8.2812 11.1372 0.0001 9.0165 0.0001
# 6 -0.0001 -0.0007 -0.0005 0.5186 0.0001 14.3487
#
#
#
# Elastic Compliance Matrix: (Units=1/GPa)
#
#
# Indices 1 2 3 4 5 6 
#
# 1 0.014029 -0.003243 -0.002446 0.000000 -0.004229 0.000000
# 2 -0.003243 0.010170 -0.004711 0.000000 -0.001156 0.000000
# 3 -0.002446 -0.004711 0.018272 0.000000 -0.016460 0.000000
# 4 0.000000 0.000000 0.000000 0.031210 -0.000001 -0.001128
# 5 -0.004229 -0.001156 -0.016460 -0.000001 0.135384 -0.000002
# 6 0.000000 0.000000 0.000000 -0.001128 -0.000002 0.069733
#
#
# Mechanical properties :
#
#
# Convention : Reuss Voigt Hill
#
# Bulk Modulus (GPa) = 46.14618 60.05212 53.09915
# Shear Modulus (GPa) = 16.29610 23.43948 19.86779
#
# Velocity S-wave (km/s) = 3.01573 3.61680 3.32985
# Velocity P-wave (km/s) = 6.15465 7.13834 6.66467
#
# Compressibility (1/GPa) = 0.02167027
#
# Stress axis : x y z
#
# Youngs Moduli (GPa) = 71.28330 98.33144 54.72745
#
# Poissons Ratio (x) = 0.31889 0.13385
# Poissons Ratio (y) = 0.23117 0.25784
# Poissons Ratio (z) = 0.17434 0.46328
#
# Static dielectric constant tensor:
#      x y z
#    x 2.893240 0.000000 -0.083030 
#    y 0.000000 3.662500 0.000000 
#    z -0.083030 0.000000 3.536170 
# 
# 
# High freq. dielectric constant tensor:
#      x y z
#    x 1.651090 0.000000 -0.004800 
#    y 0.000000 1.712120 0.000000 
#    z -0.004800 0.000000 1.689790 
# 
# From -- ./inp_files/315850.got.cif
#   From: 2010.06.25/outbox.cif.g09.slc.cpg/sg12_158_cif.got.tgz:315850.got - 2010.06.28 00:19:55.
