data_PCOD8084932
_publ_section_title
;
Structure prediction by ZEFSAII (Michael W. Deem and Ramdas Pophale) SiO2 
 PCOD8084932
Probable space group: C 2/M
;
_chemical_formula_sum "Si O2"
_cell_formula_units_Z 64
_cell_length_a 22.186548
_cell_length_b 9.017781
_cell_length_c 18.751368
_cell_angle_alpha 90.000000
_cell_angle_beta 84.503647
_cell_angle_gamma 90.000000
_cell_volume 3734.401558
_symmetry_space_group_name_H-M "C 2/M"
_symmetry_group_IT_number 12
_symmetry_cell_setting 'monoclinic'
loop_
_space_group_symop_operation_xyz
x,y,z
-x,y,-z
-x,-y,-z
x,-y,z
1/2+x,1/2+y,z
1/2-x,1/2+y,-z
1/2-x,1/2-y,-z
1/2+x,1/2-y,z
loop_
_atom_site_type_symbol
_atom_site_label
_atom_site_fract_x
_atom_site_fract_y
_atom_site_fract_z
Si Si1 0.113361 0.328398 0.263682
Si Si2 0.041277 0.169955 0.389747
Si Si3 0.410194 0.329536 0.462271
Si Si4 0.251374 0.828752 0.701451
Si Si5 0.313023 0.173468 0.008363
Si Si6 0.855461 0.832963 0.876134
Si Si7 0.218648 0.335170 0.837601
Si Si8 0.709668 0.824712 0.564602
O O1 0.103929 0.500000 0.249180
O O2 0.062072 0.274142 0.323482
O O3 0.178543 0.296702 0.290975
O O4 0.104819 0.244538 0.189684
O O5 0.077166 0.213412 0.457319
O O6 0.970077 0.194491 0.408736
O O7 0.055191 0.000000 0.368454
O O8 0.388548 0.500000 0.459577
O O9 0.359814 0.221245 0.436939
O O10 0.210997 0.782770 0.774795
O O11 0.232951 0.726554 0.638340
O O12 0.238691 0.000000 0.685234
O O13 0.327470 0.198708 0.091254
O O14 0.307894 0.000000 0.991170
O O15 0.250000 0.250000 0.000000
O O16 0.363484 0.246972 0.950927
O O17 0.785879 0.827348 0.861336
O O18 0.878866 0.000000 0.883439
O O19 0.206296 0.500000 0.808493
O O20 0.750000 0.750000 0.500000
O O21 0.715980 0.000000 0.557440
#
# Coordination Sequence:
#
# PCOD8084932 Si02
#       8
#     8   8   8   8   8   8   8   8
#     4  10  19  29  44  67  94 123 156 193 231 272
#     4   9  18  33  53  72  92 120 150 185 230 276
#     4   9  19  36  54  72  93 118 151 188 228 275
#     4  10  20  32  46  66  92 123 158 194 230 271
#     4   9  15  23  36  55  82 115 150 186 225 269
#     4   9  16  25  38  57  84 118 154 189 226 270
#     4   8  15  26  39  57  83 117 152 187 227 270
#     4  12  24  36  51  70  94 123 154 190 231 273
#
# _framework density 17.137953
#
# number of rings (size 3 to 8) (size 9 to 14) (size 15 to 20)
#    0.000    2.500    0.000    4.875    0.000    8.000 
#    0.000    1.250    0.000    0.000    0.000    0.000 
#    0.000    1.000    0.000   10.500    0.000    7.125 
#
# Total GULP energy -396710.251097 kJ/mol
# GULP energy per Si atom -12397.195347 kJ/mol
# Density = 1.709895 g / cm^3
# Si number density = 17.137953 Si / 1000 Ang^3
#
#
#
# Elastic Constant Matrix: (Units=GPa)
#
#
# Indices 1 2 3 4 5 6 
#
# 1 36.5200 33.2029 28.7859 0.0000 -7.0709 0.0000
# 2 33.2029 125.1784 68.2124 0.0000 -8.6419 0.0000
# 3 28.7859 68.2124 132.8437 0.0000 -21.9535 0.0000
# 4 0.0000 0.0000 0.0000 37.6747 0.0000 -3.9917
# 5 -7.0709 -8.6419 -21.9535 0.0000 16.7126 0.0000
# 6 0.0000 0.0000 0.0000 -3.9917 0.0000 20.3374
#
#
#
# Elastic Compliance Matrix: (Units=1/GPa)
#
#
# Indices 1 2 3 4 5 6 
#
# 1 0.038620 -0.008139 -0.002791 0.000000 0.008466 0.000000
# 2 -0.008139 0.012873 -0.005512 0.000000 -0.004027 0.000000
# 3 -0.002791 -0.005512 0.013151 0.000000 0.013245 0.000000
# 4 0.000000 0.000000 0.000000 0.027107 0.000000 0.005320
# 5 0.008466 -0.004027 0.013245 0.000000 0.078732 0.000000
# 6 0.000000 0.000000 0.000000 0.005320 0.000000 0.050215
#
#
# Mechanical properties :
#
#
# Convention : Reuss Voigt Hill
#
# Bulk Modulus (GPa) = 31.48397 61.66048 46.57222
# Shear Modulus (GPa) = 18.92733 25.90099 22.41416
#
# Velocity S-wave (km/s) = 3.32687 3.89179 3.62037
# Velocity P-wave (km/s) = 5.75919 7.50012 6.68655
#
# Compressibility (1/GPa) = 0.03176220
#
# Stress axis : x y z
#
# Youngs Moduli (GPa) = 25.89302 77.68261 76.03772
#
# Poissons Ratio (x) = 0.63224 0.21219
# Poissons Ratio (y) = 0.21074 0.41911
# Poissons Ratio (z) = 0.07226 0.42818
#
# Static dielectric constant tensor:
#      x y z
#    x 2.724870 0.000000 -0.139050 
#    y 0.000000 3.327060 0.000000 
#    z -0.139050 0.000000 2.610320 
# 
# 
# High freq. dielectric constant tensor:
#      x y z
#    x 1.597000 0.000000 -0.018070 
#    y 0.000000 1.673200 0.000000 
#    z -0.018070 0.000000 1.676890 
# 
# From -- ./inp_files/287534.got.cif
#   From: 2010.06.25/outbox.cif.g09.slc.cpg/sg12_144_cif.got.tgz:287534.got - 2010.06.28 00:19:55.
