data_PCOD8084645
_publ_section_title
;
Structure prediction by ZEFSAII (Michael W. Deem and Ramdas Pophale) SiO2 
 PCOD8084645
Probable space group: C 2/M
;
_chemical_formula_sum "Si O2"
_cell_formula_units_Z 56
_cell_length_a 27.562327
_cell_length_b 9.079582
_cell_length_c 14.361408
_cell_angle_alpha 90.000000
_cell_angle_beta 101.690410
_cell_angle_gamma 90.000000
_cell_volume 3519.454261
_symmetry_space_group_name_H-M "C 2/M"
_symmetry_group_IT_number 12
_symmetry_cell_setting 'monoclinic'
loop_
_space_group_symop_operation_xyz
x,y,z
-x,y,-z
-x,-y,-z
x,-y,z
1/2+x,1/2+y,z
1/2-x,1/2+y,-z
1/2-x,1/2-y,-z
1/2+x,1/2-y,z
loop_
_atom_site_type_symbol
_atom_site_label
_atom_site_fract_x
_atom_site_fract_y
_atom_site_fract_z
Si Si1 0.943497 0.676004 0.471543
Si Si2 0.635698 0.329634 0.441532
Si Si3 0.689241 0.670170 0.280607
Si Si4 0.123038 0.662934 0.713472
Si Si5 0.312099 0.173821 0.104047
Si Si6 0.289474 0.172261 0.890748
Si Si7 0.792276 0.335019 0.402094
O O1 0.937697 0.500000 0.473461
O O2 0.913256 0.741178 0.546775
O O3 0.920222 0.740528 0.365150
O O4 0.000000 0.727747 0.500000
O O5 0.628546 0.500000 0.464224
O O6 0.643330 0.307321 0.333657
O O7 0.685148 0.272324 0.511623
O O8 0.695520 0.500000 0.255361
O O9 0.679130 0.762076 0.182792
O O10 0.739173 0.727441 0.350196
O O11 0.103029 0.500000 0.726273
O O12 0.139214 0.733436 0.819631
O O13 0.173085 0.661078 0.674079
O O14 0.264162 0.254680 0.125148
O O15 0.304926 0.000000 0.120014
O O16 0.319647 0.206458 0.997648
O O17 0.282115 0.000000 0.872986
O O18 0.787270 0.500000 0.442036
#
# Coordination Sequence:
#
# PCOD8084645 Si02
#       7
#     8   8   8   8   8   8   8
#     4   9  18  33  51  69  88 113 145 180 222 274
#     4  10  20  30  44  66  89 115 147 184 224 264
#     4  10  19  31  43  58  88 127 154 177 219 264
#     4   8  13  25  46  64  83 115 147 175 215 262
#     4   9  16  29  43  59  88 122 151 182 223 262
#     4  10  19  26  40  64  88 118 156 191 214 245
#     4   9  16  28  44  60  85 123 154 177 211 257
#
# _framework density 15.911557
#
# number of rings (size 3 to 8) (size 9 to 14) (size 15 to 20)
#    0.000    2.714    1.429    2.143    0.000    2.571 
#    0.000    0.000    0.000    0.000    0.000    1.000 
#    0.000    8.000    0.000    0.000    0.000    0.000 
#
# Total GULP energy -346959.574703 kJ/mol
# GULP energy per Si atom -12391.413382 kJ/mol
# Density = 1.587534 g / cm^3
# Si number density = 15.911557 Si / 1000 Ang^3
#
#
#
# Elastic Constant Matrix: (Units=GPa)
#
#
# Indices 1 2 3 4 5 6 
#
# 1 76.6319 22.3694 56.8246 0.0000 10.4569 0.0000
# 2 22.3694 47.6647 40.3874 0.0000 -2.1992 0.0000
# 3 56.8246 40.3874 123.7152 0.0000 2.9825 0.0000
# 4 0.0000 0.0000 0.0000 24.6430 0.0000 -3.9043
# 5 10.4569 -2.1992 2.9825 0.0000 18.2879 0.0000
# 6 0.0000 0.0000 0.0000 -3.9043 0.0000 16.6862
#
#
#
# Elastic Compliance Matrix: (Units=1/GPa)
#
#
# Indices 1 2 3 4 5 6 
#
# 1 0.022154 -0.003527 -0.008743 0.000000 -0.011666 0.000000
# 2 -0.003527 0.030036 -0.008354 0.000000 0.006991 0.000000
# 3 -0.008743 -0.008354 0.014788 0.000000 0.001583 0.000000
# 4 0.000000 0.000000 0.000000 0.042142 0.000000 0.009861
# 5 -0.011666 0.006991 0.001583 0.000000 0.061934 0.000000
# 6 0.000000 0.000000 0.000000 0.009861 0.000000 0.062237
#
#
# Mechanical properties :
#
#
# Convention : Reuss Voigt Hill
#
# Bulk Modulus (GPa) = 38.86513 54.13051 46.49782
# Shear Modulus (GPa) = 17.66059 20.48543 19.07301
#
# Velocity S-wave (km/s) = 3.33516 3.59201 3.46597
# Velocity P-wave (km/s) = 6.26976 7.16218 6.73078
#
# Compressibility (1/GPa) = 0.02573000
#
# Stress axis : x y z
#
# Youngs Moduli (GPa) = 45.13834 33.29311 67.62254
#
# Poissons Ratio (x) = 0.11743 0.59123
# Poissons Ratio (y) = 0.15921 0.56491
# Poissons Ratio (z) = 0.39465 0.27813
#
# Static dielectric constant tensor:
#      x y z
#    x 2.742630 0.000000 0.065320 
#    y 0.000000 2.935880 0.000000 
#    z 0.065320 0.000000 3.283000 
# 
# 
# High freq. dielectric constant tensor:
#      x y z
#    x 1.566270 0.000000 -0.001030 
#    y 0.000000 1.600140 0.000000 
#    z -0.001030 0.000000 1.615820 
# 
# From -- ./inp_files/247722.got.cif
#   From: 2010.06.25/outbox.cif.g09.slc.cpg/sg12_124_cif.got.tgz:247722.got - 2010.06.28 00:19:55.
