data_PCOD8084594
_publ_section_title
;
Structure prediction by ZEFSAII (Michael W. Deem and Ramdas Pophale) SiO2 
 PCOD8084594
Probable space group: C 2/M
;
_chemical_formula_sum "Si O2"
_cell_formula_units_Z 56
_cell_length_a 32.345854
_cell_length_b 17.329788
_cell_length_c 9.232029
_cell_angle_alpha 90.000000
_cell_angle_beta 149.969100
_cell_angle_gamma 90.000000
_cell_volume 2589.908739
_symmetry_space_group_name_H-M "C 2/M"
_symmetry_group_IT_number 12
_symmetry_cell_setting 'monoclinic'
loop_
_space_group_symop_operation_xyz
x,y,z
-x,y,-z
-x,-y,-z
x,-y,z
1/2+x,1/2+y,z
1/2-x,1/2+y,-z
1/2-x,1/2-y,-z
1/2+x,1/2-y,z
loop_
_atom_site_type_symbol
_atom_site_label
_atom_site_fract_x
_atom_site_fract_y
_atom_site_fract_z
Si Si1 0.511402 0.123086 0.704681
Si Si2 0.299580 0.085863 0.678408
Si Si3 0.189004 0.296788 0.511732
Si Si4 0.530758 0.729268 0.928530
Si Si5 0.646351 0.914246 0.619663
Si Si6 0.266842 0.644905 0.228006
Si Si7 0.052867 0.083614 0.300830
O O1 0.500000 0.116764 0.500000
O O2 0.493071 0.209761 0.702461
O O3 0.442013 0.072394 0.572957
O O4 0.601261 0.093974 0.023124
O O5 0.260453 0.150175 0.450492
O O6 0.264217 0.095483 0.731062
O O7 0.276126 0.000000 0.554051
O O8 0.139201 0.357807 0.460176
O O9 0.244549 0.237089 0.772969
O O10 0.129103 0.241011 0.235693
O O11 0.501468 0.646252 0.774122
O O12 0.500000 0.739250 0.000000
O O13 0.677154 0.000000 0.666767
O O14 0.711547 0.874736 0.923749
O O15 0.360638 0.623064 0.477109
O O16 0.065298 0.000000 0.418366
O O17 0.000000 0.066232 0.000000
#
# Coordination Sequence:
#
# PCOD8084594 Si02
#       7
#     8   8   8   8   8   8   8
#     4  11  22  38  59  85 122 157 191 232 287 343
#     4  11  24  39  60  88 120 154 196 240 285 345
#     4  11  23  41  59  87 118 158 193 240 291 344
#     4  10  18  38  61  84 112 150 198 235 278 350
#     4  12  24  38  60  88 120 154 194 240 289 344
#     4  12  22  39  61  86 117 154 198 236 290 352
#     4  10  19  35  61  86 111 144 192 251 293 329
#
# _framework density 21.622382999999999
#
# number of rings (size 3 to 8) (size 9 to 14) (size 15 to 20)
#    0.000    1.000    5.714    3.000    0.000    0.571 
#    0.000    2.143    0.000    0.429    0.000    0.000 
#    0.000    0.000    0.000    0.000    0.000    0.000 
#
# Total GULP energy -346955.418468 kJ/mol
# GULP energy per Si atom -12391.264945 kJ/mol
# Density = 2.157317 g / cm^3
# Si number density = 21.622383 Si / 1000 Ang^3
#
#
#
# Elastic Constant Matrix: (Units=GPa)
#
#
# Indices 1 2 3 4 5 6 
#
# 1 53.4177 24.2767 7.5279 0.0000 -0.1807 0.0000
# 2 24.2767 183.8305 28.3425 0.0000 3.8920 0.0000
# 3 7.5279 28.3425 59.6851 0.0000 8.0965 0.0000
# 4 0.0000 0.0000 0.0000 23.5538 0.0000 2.0497
# 5 -0.1807 3.8920 8.0965 0.0000 20.7294 0.0000
# 6 0.0000 0.0000 0.0000 2.0497 0.0000 20.8675
#
#
#
# Elastic Compliance Matrix: (Units=1/GPa)
#
#
# Indices 1 2 3 4 5 6 
#
# 1 0.020049 -0.002436 -0.001539 0.000000 0.001233 0.000000
# 2 -0.002436 0.006166 -0.002598 0.000000 -0.000164 0.000000
# 3 -0.001539 -0.002598 0.019132 0.000000 -0.006998 0.000000
# 4 0.000000 0.000000 0.000000 0.042822 0.000000 -0.004206
# 5 0.001233 -0.000164 -0.006998 0.000000 0.051015 0.000000
# 6 0.000000 0.000000 0.000000 -0.004206 0.000000 0.048335
#
#
# Mechanical properties :
#
#
# Convention : Reuss Voigt Hill
#
# Bulk Modulus (GPa) = 31.05716 46.35863 38.70789
# Shear Modulus (GPa) = 23.65198 28.81588 26.23393
#
# Velocity S-wave (km/s) = 3.31095 3.65456 3.48699
# Velocity P-wave (km/s) = 5.38620 6.26852 5.84404
#
# Compressibility (1/GPa) = 0.03219870
#
# Stress axis : x y z
#
# Youngs Moduli (GPa) = 49.87845 162.18944 52.26886
#
# Poissons Ratio (x) = 0.39517 0.08044
# Poissons Ratio (y) = 0.12153 0.13581
# Poissons Ratio (z) = 0.07676 0.42142
#
# Static dielectric constant tensor:
#      x y z
#    x 3.714760 0.000000 0.035980 
#    y 0.000000 4.592760 0.000000 
#    z 0.035980 0.000000 3.842100 
# 
# 
# High freq. dielectric constant tensor:
#      x y z
#    x 1.823770 0.000000 0.006340 
#    y 0.000000 1.875470 0.000000 
#    z 0.006340 0.000000 1.828190 
# 
# From -- ./inp_files/112642.got.cif
#   From: 2010.06.25/outbox.cif.g09.slc.cpg/sg12_57_cif.got.tgz:112642.got - 2010.06.28 00:19:55.
