data_PCOD8084328
_publ_section_title
;
Structure prediction by ZEFSAII (Michael W. Deem and Ramdas Pophale) SiO2 
 PCOD8084328
Probable space group: C 2/M
;
_chemical_formula_sum "Si O2"
_cell_formula_units_Z 64
_cell_length_a 19.909962
_cell_length_b 9.089573
_cell_length_c 23.869243
_cell_angle_alpha 90.000000
_cell_angle_beta 51.739285
_cell_angle_gamma 90.000000
_cell_volume 3391.825335
_symmetry_space_group_name_H-M "C 2/M"
_symmetry_group_IT_number 12
_symmetry_cell_setting 'monoclinic'
loop_
_space_group_symop_operation_xyz
x,y,z
-x,y,-z
-x,-y,-z
x,-y,z
1/2+x,1/2+y,z
1/2-x,1/2+y,-z
1/2-x,1/2-y,-z
1/2+x,1/2-y,z
loop_
_atom_site_type_symbol
_atom_site_label
_atom_site_fract_x
_atom_site_fract_y
_atom_site_fract_z
Si Si1 0.792482 0.170305 0.680125
Si Si2 0.543254 0.827251 0.099689
Si Si3 0.640479 0.825179 0.837180
Si Si4 0.281960 0.172207 0.568299
Si Si5 0.682339 0.824965 0.940216
Si Si6 0.570092 0.330421 0.299804
Si Si7 0.643742 0.172674 0.155796
Si Si8 0.877685 0.171455 0.423030
O O1 0.716059 0.232881 0.758293
O O2 0.793955 0.262189 0.623071
O O3 0.882335 0.192539 0.665642
O O4 0.777479 0.000000 0.672861
O O5 0.449622 0.758224 0.137426
O O6 0.569886 0.789585 0.149210
O O7 0.537998 0.000000 0.092148
O O8 0.611316 0.764362 0.019954
O O9 0.656034 0.770740 0.892108
O O10 0.639979 0.000000 0.836032
O O11 0.187257 0.209750 0.593913
O O12 0.353421 0.239733 0.490945
O O13 0.297852 0.000000 0.563067
O O14 0.771322 0.750477 0.910641
O O15 0.693296 0.000000 0.937874
O O16 0.577108 0.500000 0.277111
O O17 0.616071 0.231910 0.230102
O O18 0.472149 0.279582 0.355860
O O19 0.660655 0.000000 0.151275
O O20 0.874606 0.000000 0.439990
#
# Coordination Sequence:
#
# PCOD8084328 Si02
#       8
#     8   8   8   8   8   8   8   8
#     4  10  20  35  57  81 108 144 185 226 266 315
#     4   9  19  32  52  82 108 137 182 232 276 320
#     4   9  17  32  54  81 106 137 185 231 268 312
#     4  10  21  37  58  86 116 144 176 216 270 322
#     4  10  18  35  59  77 103 143 186 228 269 321
#     4  10  21  39  59  80 106 144 190 224 261 316
#     4  11  22  34  51  80 114 143 175 223 281 328
#     4   9  20  39  61  83 111 145 182 221 260 314
#
# _framework density 18.868895999999999
#
# number of rings (size 3 to 8) (size 9 to 14) (size 15 to 20)
#    0.000    2.250    1.250    1.500    1.750    3.500 
#    0.000    3.125    0.000    3.750    0.000    0.000 
#    0.000    0.000    0.000    0.000    0.000    0.000 
#
# Total GULP energy -396869.328370 kJ/mol
# GULP energy per Si atom -12402.166512 kJ/mol
# Density = 1.882595 g / cm^3
# Si number density = 18.868896 Si / 1000 Ang^3
#
#
#
# Elastic Constant Matrix: (Units=GPa)
#
#
# Indices 1 2 3 4 5 6 
#
# 1 88.0284 25.5474 32.1591 0.0001 -8.5875 0.0001
# 2 25.5474 41.9848 25.9480 -0.0002 3.0136 0.0010
# 3 32.1591 25.9480 81.5023 0.0000 0.4991 0.0002
# 4 0.0001 -0.0002 0.0000 21.9716 0.0000 0.4032
# 5 -8.5875 3.0136 0.4991 0.0000 40.4411 -0.0001
# 6 0.0001 0.0010 0.0002 0.4032 -0.0001 23.6655
#
#
#
# Elastic Compliance Matrix: (Units=1/GPa)
#
#
# Indices 1 2 3 4 5 6 
#
# 1 0.015183 -0.007215 -0.003717 0.000000 0.003808 0.000000
# 2 -0.007215 0.033259 -0.007718 0.000000 -0.003915 -0.000001
# 3 -0.003717 -0.007718 0.016196 0.000000 -0.000414 0.000000
# 4 0.000000 0.000000 0.000000 0.045528 0.000000 -0.000776
# 5 0.003808 -0.003915 -0.000414 0.000000 0.025833 0.000000
# 6 0.000000 -0.000001 0.000000 -0.000776 0.000000 0.042269
#
#
# Mechanical properties :
#
#
# Convention : Reuss Voigt Hill
#
# Bulk Modulus (GPa) = 36.57857 42.09160 39.33509
# Shear Modulus (GPa) = 22.25376 25.73969 23.99673
#
# Velocity S-wave (km/s) = 3.43795 3.69742 3.57004
# Velocity P-wave (km/s) = 5.93187 6.37054 6.15511
#
# Compressibility (1/GPa) = 0.02733841
#
# Stress axis : x y z
#
# Youngs Moduli (GPa) = 65.86168 30.06676 61.74321
#
# Poissons Ratio (x) = 0.21693 0.22952
# Poissons Ratio (y) = 0.47518 0.47654
# Poissons Ratio (z) = 0.24483 0.23206
#
# Static dielectric constant tensor:
#      x y z
#    x 3.676830 0.000000 -0.142510 
#    y 0.000000 3.172640 0.000000 
#    z -0.142510 0.000000 3.530570 
# 
# 
# High freq. dielectric constant tensor:
#      x y z
#    x 1.746250 0.000000 -0.002030 
#    y 0.000000 1.702720 0.000000 
#    z -0.002030 0.000000 1.738970 
# 
# From -- ./inp_files/346029.got.cif
#   From: 2010.06.25/outbox.cif.g09.slc.cpg/sg12_174_cif.got.tgz:346029.got - 2010.06.28 00:19:55.
