data_PCOD8084305
_publ_section_title
;
Structure prediction by ZEFSAII (Michael W. Deem and Ramdas Pophale) SiO2 
 PCOD8084305
Probable space group: C 2/M
;
_chemical_formula_sum "Si O2"
_cell_formula_units_Z 56
_cell_length_a 8.633586
_cell_length_b 26.207445
_cell_length_c 13.541684
_cell_angle_alpha 90.000000
_cell_angle_beta 113.470762
_cell_angle_gamma 90.000000
_cell_volume 2810.493983
_symmetry_space_group_name_H-M "C 2/M"
_symmetry_group_IT_number 12
_symmetry_cell_setting 'monoclinic'
loop_
_space_group_symop_operation_xyz
x,y,z
-x,y,-z
-x,-y,-z
x,-y,z
1/2+x,1/2+y,z
1/2-x,1/2+y,-z
1/2-x,1/2-y,-z
1/2+x,1/2-y,z
loop_
_atom_site_type_symbol
_atom_site_label
_atom_site_fract_x
_atom_site_fract_y
_atom_site_fract_z
Si Si1 0.997208 0.848939 0.884806
Si Si2 0.829444 0.557050 0.401304
Si Si3 0.331253 0.444305 0.020431
Si Si4 0.146674 0.142650 0.464485
Si Si5 0.887206 0.681324 0.689023
Si Si6 0.437941 0.284080 0.280426
Si Si7 0.649560 0.899529 0.799202
O O1 0.806053 0.863293 0.811346
O O2 0.126115 0.897212 0.895179
O O3 0.055824 0.802374 0.831600
O O4 0.000000 0.831717 0.000000
O O5 0.767829 0.500000 0.410313
O O6 0.687177 0.595785 0.402798
O O7 0.865068 0.560474 0.293691
O O8 0.000000 0.571011 0.500000
O O9 0.294429 0.500000 0.061866
O O10 0.500000 0.449556 0.000000
O O11 0.175607 0.429780 0.908773
O O12 0.308835 0.162504 0.565741
O O13 0.000000 0.123320 0.500000
O O14 0.081264 0.188896 0.381422
O O15 0.747384 0.704512 0.725648
O O16 0.028745 0.723936 0.703688
O O17 0.979367 0.633760 0.765032
#
# Coordination Sequence:
#
# PCOD8084305 Si02
#       7
#     8   8   8   8   8   8   8
#     4   9  19  36  59  85 115 144 190 241 285 343
#     4  11  21  33  57  86 118 154 193 237 285 340
#     4   8  16  32  57  84 110 142 187 237 285 334
#     4  10  22  39  57  84 120 155 193 240 284 347
#     4  11  23  37  59  83 117 154 196 238 292 345
#     4  11  22  39  58  85 114 156 195 239 296 344
#     4  10  18  35  56  84 116 149 189 241 282 340
#
# _framework density 19.925322000000001
#
# number of rings (size 3 to 8) (size 9 to 14) (size 15 to 20)
#    0.000    2.286    2.857    1.714    0.000    0.857 
#    0.000    9.286    0.000    2.571    0.000    0.000 
#    0.000    0.000    0.000    0.000    0.000    0.000 
#
# Total GULP energy -347097.572647 kJ/mol
# GULP energy per Si atom -12396.341880 kJ/mol
# Density = 1.987997 g / cm^3
# Si number density = 19.925322 Si / 1000 Ang^3
#
#
#
# Elastic Constant Matrix: (Units=GPa)
#
#
# Indices 1 2 3 4 5 6 
#
# 1 52.3129 31.5917 26.1934 0.0000 3.3259 0.0000
# 2 31.5917 91.9900 20.8452 0.0000 7.6563 0.0000
# 3 26.1934 20.8452 81.7600 0.0000 18.0698 0.0000
# 4 0.0000 0.0000 0.0000 16.8990 0.0000 -2.1797
# 5 3.3259 7.6563 18.0698 0.0000 23.6961 0.0000
# 6 0.0000 0.0000 0.0000 -2.1797 0.0000 17.0726
#
#
#
# Elastic Compliance Matrix: (Units=1/GPa)
#
#
# Indices 1 2 3 4 5 6 
#
# 1 0.027631 -0.008108 -0.007826 0.000000 0.004709 0.000000
# 2 -0.008108 0.013980 -0.000264 0.000000 -0.003177 0.000000
# 3 -0.007826 -0.000264 0.017492 0.000000 -0.012155 0.000000
# 4 0.000000 0.000000 0.000000 0.060166 0.000000 0.007682
# 5 0.004709 -0.003177 -0.012155 0.000000 0.051835 0.000000
# 6 0.000000 0.000000 0.000000 0.007682 0.000000 0.059554
#
#
# Mechanical properties :
#
#
# Convention : Reuss Voigt Hill
#
# Bulk Modulus (GPa) = 37.44438 42.59152 40.01795
# Shear Modulus (GPa) = 18.38530 21.36237 19.87383
#
# Velocity S-wave (km/s) = 3.04091 3.27788 3.16162
# Velocity P-wave (km/s) = 5.58235 5.97896 5.78406
#
# Compressibility (1/GPa) = 0.02670628
#
# Stress axis : x y z
#
# Youngs Moduli (GPa) = 36.19109 71.53308 57.16945
#
# Poissons Ratio (x) = 0.57998 0.44740
# Poissons Ratio (y) = 0.29343 0.01512
# Poissons Ratio (z) = 0.28322 0.01892
#
# Static dielectric constant tensor:
#      x y z
#    x 3.313480 0.000000 0.127710 
#    y 0.000000 3.829180 0.000000 
#    z 0.127710 0.000000 3.776730 
# 
# 
# High freq. dielectric constant tensor:
#      x y z
#    x 1.746040 0.000000 0.015980 
#    y 0.000000 1.778370 0.000000 
#    z 0.015980 0.000000 1.782360 
# 
# From -- ./inp_files/199924.got.cif
#   From: 2010.06.25/outbox.cif.g09.slc.cpg/sg12_100_cif.got.tgz:199924.got - 2010.06.28 00:19:55.
