data_PCOD8084470
_publ_section_title
;
Structure prediction by ZEFSAII (Michael W. Deem and Ramdas Pophale) SiO2 
 PCOD8084470
Probable space group: C 2/M
;
_chemical_formula_sum "Si O2"
_cell_formula_units_Z 52
_cell_length_a 9.684528
_cell_length_b 27.195101
_cell_length_c 16.590078
_cell_angle_alpha 90.000000
_cell_angle_beta 140.431836
_cell_angle_gamma 90.000000
_cell_volume 2783.262098
_symmetry_space_group_name_H-M "C 2/M"
_symmetry_group_IT_number 12
_symmetry_cell_setting 'monoclinic'
loop_
_space_group_symop_operation_xyz
x,y,z
-x,y,-z
-x,-y,-z
x,-y,z
1/2+x,1/2+y,z
1/2-x,1/2+y,-z
1/2-x,1/2-y,-z
1/2+x,1/2-y,z
loop_
_atom_site_type_symbol
_atom_site_label
_atom_site_fract_x
_atom_site_fract_y
_atom_site_fract_z
Si Si1 0.702866 0.865946 0.642021
Si Si2 0.883421 0.645465 0.784966
Si Si3 0.942868 0.805012 0.622421
Si Si4 0.500000 0.108349 0.000000
Si Si5 0.843924 0.944847 0.358388
Si Si6 0.470022 0.195797 0.666316
Si Si7 0.550782 0.555580 0.773930
O O1 0.500000 0.886915 0.500000
O O2 0.813499 0.821260 0.643570
O O3 0.622713 0.843063 0.689871
O O4 0.868844 0.910345 0.733810
O O5 0.635151 0.657741 0.693231
O O6 0.866575 0.590749 0.738468
O O7 0.989429 0.683565 0.770226
O O8 0.016664 0.643466 0.928521
O O9 0.781978 0.806769 0.473477
O O10 0.047102 0.751292 0.684113
O O11 0.709823 0.073968 0.095870
O O12 0.979179 0.942574 0.335949
O O13 0.000000 0.927295 0.500000
O O14 0.757146 0.000000 0.335036
O O15 0.522400 0.500000 0.793580
#
# Coordination Sequence:
#
# PCOD8084470 Si02
#       7
#     8   8   8   4   8   8   8
#     4  10  20  34  54  87 121 144 178 232 297 359
#     4  11  20  35  58  79 111 150 195 240 271 318
#     4  10  18  36  57  84 117 147 186 231 284 347
#     4  10  21  38  60  80 108 152 212 236 257 326
#     4   9  17  29  52  82 107 135 180 237 285 330
#     4  10  21  32  58  88 114 149 183 232 296 343
#     4  10  20  37  59  81 113 154 191 232 285 342
#
# _framework density 18.683112999999999
#
# number of rings (size 3 to 8) (size 9 to 14) (size 15 to 20)
#    0.000    2.000    3.077    2.538    2.154    3.385 
#    0.000    2.308    0.000    0.923    0.000    0.000 
#    0.000    0.000    0.000    0.000    0.000    0.000 
#
# Total GULP energy -322391.254092 kJ/mol
# GULP energy per Si atom -12399.663619 kJ/mol
# Density = 1.864059 g / cm^3
# Si number density = 18.683113 Si / 1000 Ang^3
#
#
#
# Elastic Constant Matrix: (Units=GPa)
#
#
# Indices 1 2 3 4 5 6 
#
# 1 76.6818 34.2315 43.5759 0.0000 -4.4453 0.0000
# 2 34.2315 107.0313 46.6787 0.0000 0.1501 0.0000
# 3 43.5759 46.6787 96.5232 0.0000 -12.6934 0.0000
# 4 0.0000 0.0000 0.0000 20.8059 0.0000 1.9217
# 5 -4.4453 0.1501 -12.6934 0.0000 34.4227 0.0000
# 6 0.0000 0.0000 0.0000 1.9217 0.0000 22.8748
#
#
#
# Elastic Compliance Matrix: (Units=1/GPa)
#
#
# Indices 1 2 3 4 5 6 
#
# 1 0.018196 -0.002822 -0.006873 0.000000 -0.000172 0.000000
# 2 -0.002822 0.012450 -0.005046 0.000000 -0.002280 0.000000
# 3 -0.006873 -0.005046 0.016594 0.000000 0.005254 0.000000
# 4 0.000000 0.000000 0.000000 0.048439 0.000000 -0.004069
# 5 -0.000172 -0.002280 0.005254 0.000000 0.030976 0.000000
# 6 0.000000 0.000000 0.000000 -0.004069 0.000000 0.044058
#
#
# Mechanical properties :
#
#
# Convention : Reuss Voigt Hill
#
# Bulk Modulus (GPa) = 56.31316 58.80094 57.55705
# Shear Modulus (GPa) = 24.25834 26.00403 25.13119
#
# Velocity S-wave (km/s) = 3.60726 3.73479 3.67158
# Velocity P-wave (km/s) = 6.89611 7.08091 6.98912
#
# Compressibility (1/GPa) = 0.01775784
#
# Stress axis : x y z
#
# Youngs Moduli (GPa) = 54.95636 80.32336 60.26182
#
# Poissons Ratio (x) = 0.22668 0.41416
# Poissons Ratio (y) = 0.15509 0.30411
# Poissons Ratio (z) = 0.37770 0.40534
#
# Static dielectric constant tensor:
#      x y z
#    x 3.255500 0.000000 -0.126290 
#    y 0.000000 3.593780 0.000000 
#    z -0.126290 0.000000 3.255730 
# 
# 
# High freq. dielectric constant tensor:
#      x y z
#    x 1.705740 0.000000 -0.011110 
#    y 0.000000 1.737610 0.000000 
#    z -0.011110 0.000000 1.698520 
# 
# From -- ./inp_files/201350.got.cif
#   From: 2010.06.25/outbox.cif.g09.slc.cpg/sg12_101_cif.got.tgz:201350.got - 2010.06.28 00:19:55.
