data_PCOD8084374
_publ_section_title
;
Structure prediction by ZEFSAII (Michael W. Deem and Ramdas Pophale) SiO2 
 PCOD8084374
Probable space group: C 2/M
;
_chemical_formula_sum "Si O2"
_cell_formula_units_Z 64
_cell_length_a 24.885743
_cell_length_b 8.596776
_cell_length_c 15.422558
_cell_angle_alpha 90.000000
_cell_angle_beta 73.634031
_cell_angle_gamma 90.000000
_cell_volume 3165.769141
_symmetry_space_group_name_H-M "C 2/M"
_symmetry_group_IT_number 12
_symmetry_cell_setting 'monoclinic'
loop_
_space_group_symop_operation_xyz
x,y,z
-x,y,-z
-x,-y,-z
x,-y,z
1/2+x,1/2+y,z
1/2-x,1/2+y,-z
1/2-x,1/2-y,-z
1/2+x,1/2-y,z
loop_
_atom_site_type_symbol
_atom_site_label
_atom_site_fract_x
_atom_site_fract_y
_atom_site_fract_z
Si Si1 0.685140 0.682748 0.866257
Si Si2 0.501202 0.319308 0.173820
Si Si3 0.615806 0.818306 0.748471
Si Si4 0.378950 0.677883 0.621565
Si Si5 0.902556 0.820683 0.424600
Si Si6 0.483682 0.820090 0.652388
Si Si7 0.194790 0.817521 0.185494
Si Si8 0.881522 0.815579 0.937623
O O1 0.676356 0.500000 0.859555
O O2 0.665984 0.767022 0.787528
O O3 0.749353 0.720384 0.855504
O O4 0.648820 0.749398 0.963069
O O5 0.488521 0.500000 0.164090
O O6 0.443796 0.227638 0.181182
O O7 0.521752 0.290240 0.261812
O O8 0.553190 0.261683 0.090249
O O9 0.626215 0.740668 0.649978
O O10 0.617680 0.000000 0.733273
O O11 0.397140 0.500000 0.631509
O O12 0.362179 0.699304 0.527439
O O13 0.431352 0.789550 0.614649
O O14 0.327628 0.722061 0.707765
O O15 0.958736 0.724807 0.421470
O O16 0.918275 0.000000 0.402490
O O17 0.485742 0.000000 0.679352
O O18 0.150169 0.756581 0.134609
O O19 0.207686 0.000000 0.168917
O O20 0.879387 0.000000 0.937006
#
# Coordination Sequence:
#
# PCOD8084374 Si02
#       8
#     8   8   8   8   8   8   8   8
#     4  11  23  40  60  85 111 150 197 237 280 340
#     4  10  18  35  60  85 115 153 188 231 283 340
#     4  11  23  40  58  82 116 154 190 237 286 334
#     4  10  20  35  57  82 113 150 190 229 280 340
#     4  10  20  35  57  83 110 149 192 233 277 336
#     4  11  20  30  49  82 121 154 184 227 280 335
#     4  10  20  39  61  86 117 149 185 234 287 337
#     4   9  19  36  62  88 116 148 186 231 287 341
#
# _framework density 20.216256000000001
#
# number of rings (size 3 to 8) (size 9 to 14) (size 15 to 20)
#    0.000    1.750    1.250    5.625    0.000    3.500 
#    0.000    6.250    0.000    0.000    0.000    0.000 
#    0.000    0.000    0.000    0.000    0.000    0.000 
#
# Total GULP energy -396756.374565 kJ/mol
# GULP energy per Si atom -12398.636705 kJ/mol
# Density = 2.017024 g / cm^3
# Si number density = 20.216256 Si / 1000 Ang^3
#
#
#
# Elastic Constant Matrix: (Units=GPa)
#
#
# Indices 1 2 3 4 5 6 
#
# 1 44.8387 7.0382 8.3892 0.0000 10.1661 0.0000
# 2 7.0382 57.6160 15.6426 0.0000 0.7249 0.0000
# 3 8.3892 15.6426 94.6837 0.0000 -5.7722 0.0000
# 4 0.0000 0.0000 0.0000 12.6848 0.0000 -2.6266
# 5 10.1661 0.7249 -5.7722 0.0000 20.5865 0.0000
# 6 0.0000 0.0000 0.0000 -2.6266 0.0000 29.9453
#
#
#
# Elastic Compliance Matrix: (Units=1/GPa)
#
#
# Indices 1 2 3 4 5 6 
#
# 1 0.026283 -0.002282 -0.002786 0.000000 -0.013680 0.000000
# 2 -0.002282 0.018416 -0.002860 0.000000 -0.000323 0.000000
# 3 -0.002786 -0.002860 0.011569 0.000000 0.004720 0.000000
# 4 0.000000 0.000000 0.000000 0.080293 0.000000 0.007043
# 5 -0.013680 -0.000323 0.004720 0.000000 0.056666 0.000000
# 6 0.000000 0.000000 0.000000 0.007043 0.000000 0.034012
#
#
# Mechanical properties :
#
#
# Convention : Reuss Voigt Hill
#
# Bulk Modulus (GPa) = 24.74533 28.80871 26.77702
# Shear Modulus (GPa) = 19.48828 23.71454 21.60141
#
# Velocity S-wave (km/s) = 3.10819 3.42869 3.27236
# Velocity P-wave (km/s) = 5.01478 5.47318 5.24899
#
# Compressibility (1/GPa) = 0.04041167
#
# Stress axis : x y z
#
# Youngs Moduli (GPa) = 38.04704 54.30170 86.44148
#
# Poissons Ratio (x) = 0.12393 0.24080
# Poissons Ratio (y) = 0.08683 0.24722
# Poissons Ratio (z) = 0.10599 0.15530
#
# Static dielectric constant tensor:
#      x y z
#    x 3.464350 0.000000 -0.086950 
#    y 0.000000 3.502030 0.000000 
#    z -0.086950 0.000000 3.870900 
# 
# 
# High freq. dielectric constant tensor:
#      x y z
#    x 1.767810 0.000000 -0.001210 
#    y 0.000000 1.778500 0.000000 
#    z -0.001210 0.000000 1.797000 
# 
# From -- ./inp_files/243749.got.cif
#   From: 2010.06.25/outbox.cif.g09.slc.cpg/sg12_122_cif.got.tgz:243749.got - 2010.06.28 00:19:55.
