data_PCOD8084684
_publ_section_title
;
Structure prediction by ZEFSAII (Michael W. Deem and Ramdas Pophale) SiO2 
 PCOD8084684
Probable space group: C 2/M
;
_chemical_formula_sum "Si O2"
_cell_formula_units_Z 56
_cell_length_a 25.850062
_cell_length_b 16.611205
_cell_length_c 20.770518
_cell_angle_alpha 90.000000
_cell_angle_beta 156.587494
_cell_angle_gamma 90.000000
_cell_volume 3543.898745
_symmetry_space_group_name_H-M "C 2/M"
_symmetry_group_IT_number 12
_symmetry_cell_setting 'monoclinic'
loop_
_space_group_symop_operation_xyz
x,y,z
-x,y,-z
-x,-y,-z
x,-y,z
1/2+x,1/2+y,z
1/2-x,1/2+y,-z
1/2-x,1/2-y,-z
1/2+x,1/2-y,z
loop_
_atom_site_type_symbol
_atom_site_label
_atom_site_fract_x
_atom_site_fract_y
_atom_site_fract_z
Si Si1 0.045596 0.316241 0.206177
Si Si2 0.727416 0.767421 0.598185
Si Si3 0.794644 0.406373 0.879966
Si Si4 0.738123 0.093342 0.520907
Si Si5 0.605826 0.683959 0.570941
Si Si6 0.919838 0.907217 0.264379
Si Si7 0.964319 0.822420 0.715162
O O1 0.133690 0.277040 0.250513
O O2 0.127695 0.374403 0.346454
O O3 0.978554 0.242067 0.168753
O O4 0.936190 0.368151 0.046442
O O5 0.733195 0.861260 0.584616
O O6 0.672063 0.757477 0.607360
O O7 0.634660 0.726330 0.441191
O O8 0.807764 0.500000 0.878556
O O9 0.717463 0.365367 0.733970
O O10 0.719384 0.392987 0.861483
O O11 0.881996 0.107172 0.655831
O O12 0.713739 0.000000 0.506153
O O13 0.500000 0.720248 0.500000
O O14 0.536214 0.622454 0.442992
O O15 0.920911 0.860539 0.197186
O O16 0.946098 0.000000 0.280538
#
# Coordination Sequence:
#
# PCOD8084684 Si02
#       7
#     8   8   8   8   8   8   8
#     4   9  17  28  40  62  93 111 129 165 207 254
#     4   8  16  29  43  61  83 108 139 171 202 242
#     4  10  19  28  40  61  88 115 138 165 205 246
#     4   9  15  26  46  66  84 106 134 172 210 242
#     4   9  17  30  45  59  80 112 146 173 198 237
#     4   9  16  27  43  62  84 110 143 176 198 229
#     4   8  15  27  43  62  83 110 140 167 200 243
#
# _framework density 15.801805999999999
#
# number of rings (size 3 to 8) (size 9 to 14) (size 15 to 20)
#    0.000    3.143    0.000    3.000    0.000    2.857 
#    0.000    2.857    0.000    0.429    0.000    9.000 
#    0.000    0.000    0.000    0.000    0.000    0.000 
#
# Total GULP energy -347022.041387 kJ/mol
# GULP energy per Si atom -12393.644335 kJ/mol
# Density = 1.576584 g / cm^3
# Si number density = 15.801806 Si / 1000 Ang^3
#
#
#
# Elastic Constant Matrix: (Units=GPa)
#
#
# Indices 1 2 3 4 5 6 
#
# 1 97.8853 51.7215 22.0254 0.0005 4.0831 0.0004
# 2 51.7215 101.0052 26.3823 0.0007 3.7357 0.0007
# 3 22.0254 26.3823 59.7073 0.0007 4.6173 0.0009
# 4 0.0005 0.0007 0.0007 18.6809 0.0004 3.2484
# 5 4.0831 3.7357 4.6173 0.0004 12.0310 0.0004
# 6 0.0004 0.0007 0.0009 3.2484 0.0004 22.0621
#
#
#
# Elastic Compliance Matrix: (Units=1/GPa)
#
#
# Indices 1 2 3 4 5 6 
#
# 1 0.014324 -0.006695 -0.002175 0.000000 -0.001948 0.000000
# 2 -0.006695 0.014352 -0.003816 0.000000 -0.000720 0.000000
# 3 -0.002175 -0.003816 0.019672 0.000000 -0.005627 0.000000
# 4 0.000000 0.000000 0.000000 0.054937 -0.000001 -0.008089
# 5 -0.001948 -0.000720 -0.005627 -0.000001 0.086162 -0.000001
# 6 0.000000 0.000000 0.000000 -0.008089 -0.000001 0.046518
#
#
# Mechanical properties :
#
#
# Convention : Reuss Voigt Hill
#
# Bulk Modulus (GPa) = 43.52416 50.98404 47.25410
# Shear Modulus (GPa) = 18.58759 21.11938 19.85348
#
# Velocity S-wave (km/s) = 3.43344 3.65981 3.54843
# Velocity P-wave (km/s) = 6.58191 7.08475 6.83795
#
# Compressibility (1/GPa) = 0.02297574
#
# Stress axis : x y z
#
# Youngs Moduli (GPa) = 69.81204 69.67637 50.83318
#
# Poissons Ratio (x) = 0.46646 0.11058
# Poissons Ratio (y) = 0.46737 0.19400
# Poissons Ratio (z) = 0.15186 0.26591
#
# Static dielectric constant tensor:
#      x y z
#    x 3.323690 0.000000 0.119150 
#    y 0.000000 2.993800 0.000000 
#    z 0.119150 0.000000 2.719500 
# 
# 
# High freq. dielectric constant tensor:
#      x y z
#    x 1.606360 0.000000 0.012900 
#    y 0.000000 1.594300 0.000000 
#    z 0.012900 0.000000 1.579300 
# 
# From -- ./inp_files/97624.got.cif
#   From: 2010.06.25/outbox.cif.g09.slc.cpg/sg12_49_cif.got.tgz:97624.got - 2010.06.28 00:19:55.
