data_PCOD8084368
_publ_section_title
;
Structure prediction by ZEFSAII (Michael W. Deem and Ramdas Pophale) SiO2 
 PCOD8084368
Probable space group: C 2/M
;
_chemical_formula_sum "Si O2"
_cell_formula_units_Z 40
_cell_length_a 17.730440
_cell_length_b 9.874586
_cell_length_c 18.306196
_cell_angle_alpha 90.000000
_cell_angle_beta 36.762500
_cell_angle_gamma 90.000000
_cell_volume 1918.228026
_symmetry_space_group_name_H-M "C 2/M"
_symmetry_group_IT_number 12
_symmetry_cell_setting 'monoclinic'
loop_
_space_group_symop_operation_xyz
x,y,z
-x,y,-z
-x,-y,-z
x,-y,z
1/2+x,1/2+y,z
1/2-x,1/2+y,-z
1/2-x,1/2-y,-z
1/2+x,1/2-y,z
loop_
_atom_site_type_symbol
_atom_site_label
_atom_site_fract_x
_atom_site_fract_y
_atom_site_fract_z
Si Si1 0.061506 0.655463 0.640959
Si Si2 0.620527 0.356654 0.142436
Si Si3 0.650872 0.151810 0.822026
Si Si4 0.122658 0.720186 0.999275
Si Si5 0.205868 0.154157 0.430523
O O1 0.027956 0.500000 0.646456
O O2 0.099465 0.740203 0.539028
O O3 0.174434 0.660979 0.610075
O O4 0.940963 0.728153 0.769953
O O5 0.555666 0.500000 0.215327
O O6 0.608027 0.349728 0.063641
O O7 0.767284 0.368575 0.049622
O O8 0.510975 0.143276 0.896494
O O9 0.750597 0.200546 0.683970
O O10 0.685309 0.000000 0.821736
O O11 0.658279 0.252155 0.886562
O O12 0.152885 0.000000 0.470577
#
# Coordination Sequence:
#
# PCOD8084368 Si02
#       5
#     8   8   8   8   8
#     4  10  20  35  57  82 110 147 188 231 277 329
#     4  11  22  36  56  85 118 150 183 227 278 336
#     4  10  18  35  60  84 110 145 188 234 274 325
#     4  10  21  35  56  84 113 147 186 229 276 327
#     4   9  18  34  57  84 108 139 186 237 279 322
#
# _framework density 20.852578999999999
#
# number of rings (size 3 to 8) (size 9 to 14) (size 15 to 20)
#    0.000    2.000    2.000    3.000    0.000    4.800 
#    0.000    4.000    0.000    4.800    0.000    0.000 
#    0.000    0.000    0.000    0.000    0.000    0.000 
#
# Total GULP energy -247768.048657 kJ/mol
# GULP energy per Si atom -12388.402433 kJ/mol
# Density = 2.080512 g / cm^3
# Si number density = 20.852579 Si / 1000 Ang^3
#
#
#
# Elastic Constant Matrix: (Units=GPa)
#
#
# Indices 1 2 3 4 5 6 
#
# 1 80.6314 28.0425 44.0920 0.0000 19.1038 0.0000
# 2 28.0425 134.3013 73.9631 0.0000 9.4682 0.0000
# 3 44.0920 73.9631 141.6241 0.0000 32.5899 0.0000
# 4 0.0000 0.0000 0.0000 27.3785 0.0000 6.9899
# 5 19.1038 9.4682 32.5899 0.0000 29.7868 0.0000
# 6 0.0000 0.0000 0.0000 6.9899 0.0000 1.7190
#
#
#
# Elastic Compliance Matrix: (Units=1/GPa)
#
#
# Indices 1 2 3 4 5 6 
#
# 1 0.015972 -0.001381 -0.002667 0.000000 -0.006887 -0.000002
# 2 -0.001381 0.010859 -0.006215 0.000000 0.004234 0.000002
# 3 -0.002667 -0.006215 0.013751 0.000001 -0.011359 -0.000002
# 4 0.000000 0.000000 0.000001 -0.957296 -0.000001 3.892647
# 5 -0.006887 0.004234 -0.011359 -0.000001 0.049072 0.000006
# 6 -0.000002 0.000002 -0.000002 3.892647 0.000006-15.246900
#
#
# Mechanical properties :
#
#
# Convention : Reuss Voigt Hill
#
# Bulk Modulus (GPa) = 49.85980 72.08355 60.97167
# Shear Modulus (GPa) = -0.31080 25.80746 12.74833
#
# Velocity S-wave (km/s) = -0.38649 3.52179 2.47524
# Velocity P-wave (km/s) = 4.87477 7.15406 6.12143
#
# Compressibility (1/GPa) = 0.02005624
#
# Stress axis : x y z
#
# Youngs Moduli (GPa) = 62.60800 92.09143 72.72136
#
# Poissons Ratio (x) = 0.12717 0.19392
# Poissons Ratio (y) = 0.08646 0.45200
# Poissons Ratio (z) = 0.16695 0.57239
#
# Static dielectric constant tensor:
#      x y z
#    x 3.624130 0.000000 0.245770 
#    y 0.000000 3.664650 0.000000 
#    z 0.245770 0.000000 3.904460 
# 
# 
# High freq. dielectric constant tensor:
#      x y z
#    x 1.795810 0.000000 0.012740 
#    y 0.000000 1.789880 0.000000 
#    z 0.012740 0.000000 1.824400 
# 
# From -- ./inp_files/318956.got.cif
#   From: 2010.06.25/outbox.cif.g09.slc.cpg/sg12_160_cif.got.tgz:318956.got - 2010.06.28 00:19:55.
