data_PCOD8084935
_publ_section_title
;
Structure prediction by ZEFSAII (Michael W. Deem and Ramdas Pophale) SiO2 
 PCOD8084935
Probable space group: C 2/M
;
_chemical_formula_sum "Si O2"
_cell_formula_units_Z 64
_cell_length_a 31.536006
_cell_length_b 9.097411
_cell_length_c 18.353623
_cell_angle_alpha 90.000000
_cell_angle_beta 139.281143
_cell_angle_gamma 90.000000
_cell_volume 3434.990729
_symmetry_space_group_name_H-M "C 2/M"
_symmetry_group_IT_number 12
_symmetry_cell_setting 'monoclinic'
loop_
_space_group_symop_operation_xyz
x,y,z
-x,y,-z
-x,-y,-z
x,-y,z
1/2+x,1/2+y,z
1/2-x,1/2+y,-z
1/2-x,1/2-y,-z
1/2+x,1/2-y,z
loop_
_atom_site_type_symbol
_atom_site_label
_atom_site_fract_x
_atom_site_fract_y
_atom_site_fract_z
Si Si1 0.268325 0.325422 0.241624
Si Si2 0.911489 0.166434 0.080017
Si Si3 0.946830 0.170574 0.689700
Si Si4 0.727065 0.327698 0.042774
Si Si5 0.356586 0.175191 0.462321
Si Si6 0.751555 0.158478 0.572661
Si Si7 0.899487 0.162064 0.785557
Si Si8 0.874030 0.327773 0.890820
O O1 0.276212 0.500000 0.244490
O O2 0.262514 0.252566 0.155220
O O3 0.336088 0.256346 0.360902
O O4 0.202889 0.285010 0.203037
O O5 0.975940 0.194442 0.211399
O O6 0.909833 0.000000 0.047766
O O7 0.850455 0.196479 0.052668
O O8 0.912127 0.271537 0.011184
O O9 0.920283 0.262853 0.586124
O O10 0.918998 0.228546 0.731807
O O11 0.926957 0.000000 0.654179
O O12 0.745231 0.500000 0.066107
O O13 0.750000 0.250000 0.000000
O O14 0.295723 0.229948 0.430644
O O15 0.362938 0.000000 0.458534
O O16 0.750000 0.250000 0.500000
O O17 0.823057 0.145010 0.695789
O O18 0.722292 0.000000 0.514746
O O19 0.914594 0.265686 0.874037
O O20 0.932344 0.000000 0.836313
O O21 0.881330 0.500000 0.896121
#
# Coordination Sequence:
#
# PCOD8084935 Si02
#       8
#     8   8   8   8   8   8   8   8
#     4  10  20  34  54  81 110 140 175 217 263 312
#     4   9  20  38  57  76 104 140 176 213 258 317
#     4  10  21  36  52  72 101 145 191 222 256 309
#     4  10  20  37  63  91 113 133 162 206 261 319
#     4  11  21  32  49  75 107 142 179 223 271 311
#     4  10  19  29  44  67  97 136 182 231 271 303
#     4  10  19  31  47  68  99 140 186 229 268 309
#     4  10  20  32  50  74 102 137 180 230 275 309
#
# _framework density 18.631782999999999
#
# number of rings (size 3 to 8) (size 9 to 14) (size 15 to 20)
#    0.000    2.000    2.500    1.500    0.000    4.000 
#    0.000    2.500    0.000    0.750    0.000    5.250 
#    0.000    0.000    0.000    0.000    0.000    0.000 
#
# Total GULP energy -396558.484797 kJ/mol
# GULP energy per Si atom -12392.452650 kJ/mol
# Density = 1.858938 g / cm^3
# Si number density = 18.631783 Si / 1000 Ang^3
#
#
#
# Elastic Constant Matrix: (Units=GPa)
#
#
# Indices 1 2 3 4 5 6 
#
# 1 74.8589 41.1667 48.4733 0.0000 -15.2267 0.0000
# 2 41.1667 92.8868 56.6956 0.0000 -14.8540 0.0000
# 3 48.4733 56.6956 118.8470 0.0000 -6.8723 0.0000
# 4 0.0000 0.0000 0.0000 32.8414 0.0000 -6.4724
# 5 -15.2267 -14.8540 -6.8723 0.0000 22.5078 0.0000
# 6 0.0000 0.0000 0.0000 -6.4724 0.0000 25.4207
#
#
#
# Elastic Compliance Matrix: (Units=1/GPa)
#
#
# Indices 1 2 3 4 5 6 
#
# 1 0.021796 -0.004207 -0.006302 0.000000 0.010044 0.000000
# 2 -0.004207 0.017540 -0.006257 0.000000 0.006819 0.000000
# 3 -0.006302 -0.006257 0.013727 0.000000 -0.004202 0.000000
# 4 0.000000 0.000000 0.000000 0.032058 0.000000 0.008162
# 5 0.010044 0.006819 -0.004202 0.000000 0.054441 0.000000
# 6 0.000000 0.000000 0.000000 0.008162 0.000000 0.041416
#
#
# Mechanical properties :
#
#
# Convention : Reuss Voigt Hill
#
# Bulk Modulus (GPa) = 51.20313 64.36265 57.78289
# Shear Modulus (GPa) = 22.62236 25.50446 24.06341
#
# Velocity S-wave (km/s) = 3.48829 3.70384 3.59768
# Velocity P-wave (km/s) = 6.61555 7.27398 6.95256
#
# Compressibility (1/GPa) = 0.01953006
#
# Stress axis : x y z
#
# Youngs Moduli (GPa) = 45.88053 57.01268 72.85143
#
# Poissons Ratio (x) = 0.23984 0.45911
# Poissons Ratio (y) = 0.19301 0.45585
# Poissons Ratio (z) = 0.28914 0.35674
#
# Static dielectric constant tensor:
#      x y z
#    x 3.160220 0.000000 -0.011480 
#    y 0.000000 3.522720 0.000000 
#    z -0.011480 0.000000 3.402040 
# 
# 
# High freq. dielectric constant tensor:
#      x y z
#    x 1.689140 0.000000 -0.004510 
#    y 0.000000 1.728210 0.000000 
#    z -0.004510 0.000000 1.721250 
# 
# From -- ./inp_files/295735.got.cif
#   From: 2010.06.25/outbox.cif.g09.slc.cpg/sg12_148_cif.got.tgz:295735.got - 2010.06.28 00:19:55.
