data_PCOD8084605
_publ_section_title
;
Structure prediction by ZEFSAII (Michael W. Deem and Ramdas Pophale) SiO2 
 PCOD8084605
Probable space group: C 2/M
;
_chemical_formula_sum "Si O2"
_cell_formula_units_Z 40
_cell_length_a 14.344248
_cell_length_b 12.461990
_cell_length_c 17.747057
_cell_angle_alpha 90.000000
_cell_angle_beta 36.516942
_cell_angle_gamma 90.000000
_cell_volume 1887.785381
_symmetry_space_group_name_H-M "C 2/M"
_symmetry_group_IT_number 12
_symmetry_cell_setting 'monoclinic'
loop_
_space_group_symop_operation_xyz
x,y,z
-x,y,-z
-x,-y,-z
x,-y,z
1/2+x,1/2+y,z
1/2-x,1/2+y,-z
1/2-x,1/2-y,-z
1/2+x,1/2-y,z
loop_
_atom_site_type_symbol
_atom_site_label
_atom_site_fract_x
_atom_site_fract_y
_atom_site_fract_z
Si Si1 0.811650 0.000000 0.614681
Si Si2 0.327796 0.624013 0.136211
Si Si3 0.817849 0.500000 0.135651
Si Si4 0.354141 0.625792 0.293950
Si Si5 0.115539 0.195780 0.220623
Si Si6 0.116163 0.788587 0.492850
O O1 0.716062 0.000000 0.753804
O O2 0.769781 0.108996 0.597206
O O3 0.000000 0.000000 0.500000
O O4 0.298604 0.500000 0.136276
O O5 0.309466 0.648379 0.236545
O O6 0.199392 0.689006 0.171520
O O7 0.500000 0.660195 0.000000
O O8 0.746085 0.605588 0.145271
O O9 0.000000 0.500000 0.000000
O O10 0.354210 0.500000 0.312990
O O11 0.526482 0.675986 0.199062
O O12 0.225317 0.683751 0.430641
O O13 0.980756 0.185685 0.370186
O O14 0.000000 0.766356 0.500000
#
# Coordination Sequence:
#
# PCOD8084605 Si02
#       6
#     4   8   4   8   8   8
#     4  10  18  38  64  82 133 169 206 264 329 375
#     4  10  23  44  65  86 127 175 212 261 326 390
#     4  12  22  36  64 100 123 170 220 266 321 384
#     4  11  24  40  65  96 128 166 218 269 324 380
#     4  12  22  41  64  94 130 167 213 273 317 389
#     4  11  20  38  65  91 127 172 211 258 336 383
#
# _framework density 21.188849000000001
#
# number of rings (size 3 to 8) (size 9 to 14) (size 15 to 20)
#    0.000    1.000    7.000    1.200    0.000    2.000 
#    1.800    0.000    0.000    0.000    0.000    0.000 
#    0.000    0.000    0.000    0.000    0.000    0.000 
#
# Total GULP energy -248005.033303 kJ/mol
# GULP energy per Si atom -12400.251665 kJ/mol
# Density = 2.114062 g / cm^3
# Si number density = 21.188849 Si / 1000 Ang^3
#
#
#
# Elastic Constant Matrix: (Units=GPa)
#
#
# Indices 1 2 3 4 5 6 
#
# 1 58.6392 53.8494 8.1266 -0.0002 -24.6997 0.0001
# 2 53.8494 136.6677 38.6738 -0.0001 -25.5925 0.0000
# 3 8.1266 38.6738 103.1030 0.0001 -17.0903 0.0000
# 4 -0.0002 -0.0001 0.0001 37.5854 -0.0001 -11.8563
# 5 -24.6997 -25.5925 -17.0903 -0.0001 24.0993 0.0000
# 6 0.0001 0.0000 0.0000 -11.8563 0.0000 31.7241
#
#
#
# Elastic Compliance Matrix: (Units=1/GPa)
#
#
# Indices 1 2 3 4 5 6 
#
# 1 0.041803 -0.011855 0.006988 0.000000 0.035211 0.000000
# 2 -0.011855 0.012899 -0.004133 0.000000 -0.001384 0.000000
# 3 0.006988 -0.004133 0.012645 0.000000 0.011740 0.000000
# 4 0.000000 0.000000 0.000000 0.030162 0.000000 0.011273
# 5 0.035211 -0.001384 0.011740 0.000000 0.084439 0.000000
# 6 0.000000 0.000000 0.000000 0.011273 0.000000 0.035735
#
#
# Mechanical properties :
#
#
# Convention : Reuss Voigt Hill
#
# Bulk Modulus (GPa) = 20.26486 55.52328 37.89407
# Shear Modulus (GPa) = 19.83099 31.86576 25.84838
#
# Velocity S-wave (km/s) = 3.06259 3.88221 3.49650
# Velocity P-wave (km/s) = 4.70007 6.80855 5.85009
#
# Compressibility (1/GPa) = 0.04934651
#
# Stress axis : x y z
#
# Youngs Moduli (GPa) = 23.92176 77.52789 79.08496
#
# Poissons Ratio (x) = 0.91910 -0.55268
# Poissons Ratio (y) = 0.28359 0.32687
# Poissons Ratio (z) = -0.16717 0.32044
#
# Static dielectric constant tensor:
#      x y z
#    x 3.972810 0.000000 0.028940 
#    y 0.000000 4.199530 0.000000 
#    z 0.028940 0.000000 3.704610 
# 
# 
# High freq. dielectric constant tensor:
#      x y z
#    x 1.819780 0.000000 -0.002600 
#    y 0.000000 1.846030 0.000000 
#    z -0.002600 0.000000 1.822010 
# 
# From -- ./inp_files/270523.got.cif
#   From: 2010.06.25/outbox.cif.g09.slc.cpg/sg12_136_cif.got.tgz:270523.got - 2010.06.28 00:19:55.
