data_PCOD8084433
_publ_section_title
;
Structure prediction by ZEFSAII (Michael W. Deem and Ramdas Pophale) SiO2 
 PCOD8084433
Probable space group: C 2/M
;
_chemical_formula_sum "Si O2"
_cell_formula_units_Z 48
_cell_length_a 8.966448
_cell_length_b 21.516968
_cell_length_c 12.008272
_cell_angle_alpha 90.000000
_cell_angle_beta 72.388039
_cell_angle_gamma 90.000000
_cell_volume 2208.172699
_symmetry_space_group_name_H-M "C 2/M"
_symmetry_group_IT_number 12
_symmetry_cell_setting 'monoclinic'
loop_
_space_group_symop_operation_xyz
x,y,z
-x,y,-z
-x,-y,-z
x,-y,z
1/2+x,1/2+y,z
1/2-x,1/2+y,-z
1/2-x,1/2-y,-z
1/2+x,1/2-y,z
loop_
_atom_site_type_symbol
_atom_site_label
_atom_site_fract_x
_atom_site_fract_y
_atom_site_fract_z
Si Si1 0.825618 0.660923 0.339708
Si Si2 0.079756 0.810358 0.872818
Si Si3 0.287649 0.568754 0.199089
Si Si4 0.184699 0.430643 0.465795
Si Si5 0.470341 0.929493 0.133994
Si Si6 0.891281 0.746804 0.727805
O O1 0.760367 0.617034 0.451784
O O2 0.689313 0.711823 0.350230
O O3 0.855744 0.620118 0.220492
O O4 0.985014 0.695496 0.345125
O O5 0.082860 0.885243 0.880094
O O6 0.257973 0.787654 0.828098
O O7 0.983481 0.792437 0.787134
O O8 0.000000 0.781726 0.000000
O O9 0.360363 0.500000 0.182165
O O10 0.252032 0.591480 0.332711
O O11 0.131426 0.570436 0.162977
O O12 0.245151 0.500000 0.482417
O O13 0.000000 0.432227 0.500000
O O14 0.399366 0.000000 0.152711
O O15 0.500000 0.908000 0.000000
#
# Coordination Sequence:
#
# PCOD8084433 Si02
#       6
#     8   8   8   8   8   8
#     4  11  21  40  62  90 121 162 201 248 302 355
#     4  11  22  40  61  85 119 164 202 243 298 361
#     4  10  21  39  61  91 122 155 197 247 304 361
#     4  10  18  35  66  92 116 155 203 249 297 362
#     4  10  20  34  60  91 121 151 197 253 298 349
#     4  10  24  39  58  89 122 158 207 248 293 351
#
# _framework density 21.73743
#
# number of rings (size 3 to 8) (size 9 to 14) (size 15 to 20)
#    0.000    1.667    3.333    1.000    2.333    3.000 
#    0.000   11.667    0.000    2.000    0.000    0.000 
#    0.000    0.000    0.000    0.000    0.000    0.000 
#
# Total GULP energy -297553.768523 kJ/mol
# GULP energy per Si atom -12398.073688 kJ/mol
# Density = 2.168795 g / cm^3
# Si number density = 21.737430 Si / 1000 Ang^3
#
#
#
# Elastic Constant Matrix: (Units=GPa)
#
#
# Indices 1 2 3 4 5 6 
#
# 1 50.6621 23.4677 -3.1914 0.0000 -6.0394 0.0000
# 2 23.4677 106.4309 26.4628 0.0000 6.0030 0.0000
# 3 -3.1914 26.4628 72.2052 0.0000 15.2440 0.0000
# 4 0.0000 0.0000 0.0000 22.5283 0.0000 15.9614
# 5 -6.0394 6.0030 15.2440 0.0000 17.2262 0.0000
# 6 0.0000 0.0000 0.0000 15.9614 0.0000 30.3180
#
#
#
# Elastic Compliance Matrix: (Units=1/GPa)
#
#
# Indices 1 2 3 4 5 6 
#
# 1 0.023748 -0.006088 0.001322 0.000000 0.009277 0.000000
# 2 -0.006088 0.011900 -0.004063 0.000000 -0.002686 0.000000
# 3 0.001322 -0.004063 0.018447 0.000000 -0.014444 0.000000
# 4 0.000000 0.000000 0.000000 0.070796 0.000000 -0.037271
# 5 0.009277 -0.002686 -0.014444 0.000000 0.075022 0.000000
# 6 0.000000 0.000000 0.000000 -0.037271 0.000000 0.052606
#
#
# Mechanical properties :
#
#
# Convention : Reuss Voigt Hill
#
# Bulk Modulus (GPa) = 27.44556 35.86407 31.65482
# Shear Modulus (GPa) = 17.71025 26.18511 21.94768
#
# Velocity S-wave (km/s) = 2.85745 3.47451 3.18098
# Velocity P-wave (km/s) = 4.85181 5.71235 5.29957
#
# Compressibility (1/GPa) = 0.03643576
#
# Stress axis : x y z
#
# Youngs Moduli (GPa) = 42.10854 84.03321 54.21069
#
# Poissons Ratio (x) = 0.51163 -0.07169
# Poissons Ratio (y) = 0.25638 0.22028
# Poissons Ratio (z) = -0.05568 0.34146
#
# Static dielectric constant tensor:
#      x y z
#    x 3.743790 0.000000 -0.246190 
#    y 0.000000 4.457490 0.000000 
#    z -0.246190 0.000000 4.726170 
# 
# 
# High freq. dielectric constant tensor:
#      x y z
#    x 1.824770 0.000000 0.010190 
#    y 0.000000 1.877330 0.000000 
#    z 0.010190 0.000000 1.846240 
# 
# From -- ./inp_files/122035.got.cif
#   From: 2010.06.25/outbox.cif.g09.slc.cpg/sg12_62_cif.got.tgz:122035.got - 2010.06.28 00:19:55.
