data_PCOD8084477
_publ_section_title
;
Structure prediction by ZEFSAII (Michael W. Deem and Ramdas Pophale) SiO2 
 PCOD8084477
Probable space group: C 2/M
;
_chemical_formula_sum "Si O2"
_cell_formula_units_Z 56
_cell_length_a 16.567334
_cell_length_b 16.360624
_cell_length_c 14.990738
_cell_angle_alpha 90.000000
_cell_angle_beta 131.280304
_cell_angle_gamma 90.000000
_cell_volume 3053.509480
_symmetry_space_group_name_H-M "C 2/M"
_symmetry_group_IT_number 12
_symmetry_cell_setting 'monoclinic'
loop_
_space_group_symop_operation_xyz
x,y,z
-x,y,-z
-x,-y,-z
x,-y,z
1/2+x,1/2+y,z
1/2-x,1/2+y,-z
1/2-x,1/2-y,-z
1/2+x,1/2-y,z
loop_
_atom_site_type_symbol
_atom_site_label
_atom_site_fract_x
_atom_site_fract_y
_atom_site_fract_z
Si Si1 0.922069 0.208666 0.248810
Si Si2 0.903579 0.657578 0.092115
Si Si3 0.870790 0.404608 0.694425
Si Si4 0.385312 0.702205 0.939066
Si Si5 0.140303 0.719250 0.459515
Si Si6 0.318802 0.592184 0.042240
Si Si7 0.728229 0.277182 0.695431
O O1 0.885200 0.289160 0.168251
O O2 0.905811 0.131183 0.172829
O O3 0.848630 0.193832 0.281371
O O4 0.046441 0.216755 0.365851
O O5 0.013927 0.606640 0.174123
O O6 0.904276 0.713854 0.005811
O O7 0.802484 0.597155 0.008467
O O8 0.839973 0.500000 0.668615
O O9 0.881696 0.369674 0.600702
O O10 0.778396 0.355864 0.681317
O O11 0.323721 0.720876 0.802267
O O12 0.500000 0.662872 0.000000
O O13 0.319349 0.636792 0.947535
O O14 0.250000 0.750000 0.500000
O O15 0.155797 0.719642 0.577602
O O16 0.354177 0.500000 0.054606
#
# Coordination Sequence:
#
# PCOD8084477 Si02
#       7
#     8   8   8   8   8   8   8
#     4  10  19  36  59  81 109 146 196 229 267 334
#     4  10  18  36  58  82 113 154 179 229 282 334
#     4  10  21  36  57  87 116 141 182 242 290 319
#     4  11  20  36  59  83 112 147 194 227 267 343
#     4   9  21  37  60  80 103 150 193 225 273 337
#     4  11  22  35  55  85 120 150 180 230 287 328
#     4  11  19  36  60  84 107 149 189 223 275 335
#
# _framework density 18.339552999999999
#
# number of rings (size 3 to 8) (size 9 to 14) (size 15 to 20)
#    0.000    1.714    4.286    1.714    2.000    0.857 
#    0.000    4.286    0.000    6.000    0.000    0.000 
#    0.000    0.000    0.000    0.000    0.000    0.000 
#
# Total GULP energy -347119.923779 kJ/mol
# GULP energy per Si atom -12397.140135 kJ/mol
# Density = 1.829781 g / cm^3
# Si number density = 18.339553 Si / 1000 Ang^3
#
#
#
# Elastic Constant Matrix: (Units=GPa)
#
#
# Indices 1 2 3 4 5 6 
#
# 1 71.7368 26.5182 26.0526 0.0000 11.1070 0.0000
# 2 26.5182 96.8219 42.4062 0.0000 -1.5216 0.0000
# 3 26.0526 42.4062 130.1560 0.0000 5.3360 0.0000
# 4 0.0000 0.0000 0.0000 11.8352 0.0000 3.5977
# 5 11.1070 -1.5216 5.3360 0.0000 36.3272 0.0000
# 6 0.0000 0.0000 0.0000 3.5977 0.0000 17.2095
#
#
#
# Elastic Compliance Matrix: (Units=1/GPa)
#
#
# Indices 1 2 3 4 5 6 
#
# 1 0.016836 -0.003855 -0.001908 0.000000 -0.005029 0.000000
# 2 -0.003855 0.012973 -0.003547 0.000000 0.002243 0.000000
# 3 -0.001908 -0.003547 0.009259 0.000000 -0.000925 0.000000
# 4 0.000000 0.000000 0.000000 0.090228 0.000000 -0.018863
# 5 -0.005029 0.002243 -0.000925 0.000000 0.029295 0.000000
# 6 0.000000 0.000000 0.000000 -0.018863 0.000000 0.062051
#
#
# Mechanical properties :
#
#
# Convention : Reuss Voigt Hill
#
# Bulk Modulus (GPa) = 48.90369 54.29651 51.60010
# Shear Modulus (GPa) = 20.31886 26.65689 23.48787
#
# Velocity S-wave (km/s) = 3.33216 3.81664 3.58260
# Velocity P-wave (km/s) = 6.44422 7.00663 6.73130
#
# Compressibility (1/GPa) = 0.02044835
#
# Stress axis : x y z
#
# Youngs Moduli (GPa) = 59.39552 77.08465 108.00772
#
# Poissons Ratio (x) = 0.29713 0.20608
# Poissons Ratio (y) = 0.22895 0.38311
# Poissons Ratio (z) = 0.11333 0.27342
#
# Static dielectric constant tensor:
#      x y z
#    x 3.530650 0.000000 -0.084950 
#    y 0.000000 3.051900 0.000000 
#    z -0.084950 0.000000 4.092970 
# 
# 
# High freq. dielectric constant tensor:
#      x y z
#    x 1.720990 0.000000 0.005780 
#    y 0.000000 1.671870 0.000000 
#    z 0.005780 0.000000 1.721840 
# 
# From -- ./inp_files/225200.got.cif
#   From: 2010.06.25/outbox.cif.g09.slc.cpg/sg12_113_cif.got.tgz:225200.got - 2010.06.28 00:19:55.
