data_PCOD8084480
_publ_section_title
;
Structure prediction by ZEFSAII (Michael W. Deem and Ramdas Pophale) SiO2 
 PCOD8084480
Probable space group: C 2/M
;
_chemical_formula_sum "Si O2"
_cell_formula_units_Z 64
_cell_length_a 25.969092
_cell_length_b 22.541767
_cell_length_c 18.078333
_cell_angle_alpha 90.000000
_cell_angle_beta 161.709171
_cell_angle_gamma 90.000000
_cell_volume 3321.330293
_symmetry_space_group_name_H-M "C 2/M"
_symmetry_group_IT_number 12
_symmetry_cell_setting 'monoclinic'
loop_
_space_group_symop_operation_xyz
x,y,z
-x,y,-z
-x,-y,-z
x,-y,z
1/2+x,1/2+y,z
1/2-x,1/2+y,-z
1/2-x,1/2-y,-z
1/2+x,1/2-y,z
loop_
_atom_site_type_symbol
_atom_site_label
_atom_site_fract_x
_atom_site_fract_y
_atom_site_fract_z
Si Si1 0.603864 0.730430 0.442995
Si Si2 0.689187 0.569465 0.419157
Si Si3 0.408393 0.931702 0.302455
Si Si4 0.169644 0.261255 0.700082
Si Si5 0.460155 0.067010 0.674681
Si Si6 0.410020 0.178342 0.088846
Si Si7 0.109595 0.857922 0.935535
Si Si8 0.103526 0.660186 0.211555
O O1 0.637225 0.735728 0.575053
O O2 0.530518 0.792163 0.313718
O O3 0.479715 0.677597 0.252090
O O4 0.775889 0.715039 0.639669
O O5 0.669270 0.500000 0.410578
O O6 0.776686 0.578476 0.457722
O O7 0.511405 0.600934 0.180143
O O8 0.805189 0.600365 0.637954
O O9 0.500000 0.909084 0.500000
O O10 0.532444 0.920511 0.403041
O O11 0.359259 0.000000 0.241739
O O12 0.239321 0.896098 0.065620
O O13 0.000000 0.286658 0.500000
O O14 0.230494 0.208104 0.838360
O O15 0.304591 0.313657 0.888353
O O16 0.596157 0.108818 0.899390
O O17 0.515014 0.000000 0.767336
O O18 0.484307 0.188018 0.109335
O O19 0.000000 0.640215 0.000000
#
# Coordination Sequence:
#
# PCOD8084480 Si02
#       8
#     8   8   8   8   8   8   8   8
#     4  10  22  37  57  84 117 152 191 241 284 346
#     4   9  19  38  61  87 117 151 192 239 291 345
#     4  10  21  37  60  86 115 153 195 242 290 345
#     4  11  24  37  56  88 117 152 197 238 287 345
#     4   9  20  38  61  85 114 150 193 237 288 344
#     4  10  21  36  61  82 112 157 188 237 294 344
#     4  10  22  37  61  84 118 154 197 237 290 348
#     4  10  18  36  58  85 119 147 192 239 286 344
#
# _framework density 19.269386999999998
#
# number of rings (size 3 to 8) (size 9 to 14) (size 15 to 20)
#    0.000    2.125    1.250    1.125    5.250    2.250 
#    0.000    0.625    2.750    3.375    0.000    0.000 
#    0.000    0.000    0.000    0.000    0.000    0.000 
#
# Total GULP energy -396659.380957 kJ/mol
# GULP energy per Si atom -12395.605655 kJ/mol
# Density = 1.922553 g / cm^3
# Si number density = 19.269387 Si / 1000 Ang^3
#
#
#
# Elastic Constant Matrix: (Units=GPa)
#
#
# Indices 1 2 3 4 5 6 
#
# 1 91.8119 39.5159 50.1898 0.0000 -5.6611 0.0000
# 2 39.5159 98.7828 49.3597 0.0000 1.4990 0.0001
# 3 50.1898 49.3597 107.1672 0.0001 -2.9094 -0.0001
# 4 0.0000 0.0000 0.0001 -1.6673 0.0001 39.7450
# 5 -5.6611 1.4990 -2.9094 0.0001 29.8395 -0.0001
# 6 0.0000 0.0001 -0.0001 39.7450 -0.0001 -22.9448
#
#
#
# Elastic Compliance Matrix: (Units=1/GPa)
#
#
# Indices 1 2 3 4 5 6 
#
# 1 0.015636 -0.003468 -0.005655 0.000000 0.002589 0.000000
# 2 -0.003468 0.013966 -0.004858 0.000000 -0.001833 0.000000
# 3 -0.005655 -0.004858 0.014232 0.000000 0.000559 0.000000
# 4 0.000000 0.000000 0.000000 0.014886 0.000000 0.025785
# 5 0.002589 -0.001833 0.000559 0.000000 0.034150 0.000000
# 6 0.000000 0.000000 0.000000 0.025785 0.000000 0.001082
#
#
# Mechanical properties :
#
#
# Convention : Reuss Voigt Hill
#
# Bulk Modulus (GPa) = 63.00639 63.98808 63.49723
# Shear Modulus (GPa) = 39.30691 11.62523 25.46607
#
# Velocity S-wave (km/s) = 4.52138 2.45888 3.63930
# Velocity P-wave (km/s) = 7.74764 6.42967 7.11922
#
# Compressibility (1/GPa) = 0.01587141
#
# Stress axis : x y z
#
# Youngs Moduli (GPa) = 63.95693 71.60309 70.26313
#
# Poissons Ratio (x) = 0.24834 0.39733
# Poissons Ratio (y) = 0.22182 0.34133
# Poissons Ratio (z) = 0.36167 0.34784
#
# Static dielectric constant tensor:
#      x y z
#    x 3.577450 0.000000 0.143780 
#    y 0.000000 3.613630 0.000000 
#    z 0.143780 0.000000 3.558200 
# 
# 
# High freq. dielectric constant tensor:
#      x y z
#    x 1.749570 0.000000 0.006090 
#    y 0.000000 1.759540 0.000000 
#    z 0.006090 0.000000 1.738460 
# 
# From -- ./inp_files/294158.got.cif
#   From: 2010.06.25/outbox.cif.g09.slc.cpg/sg12_148_cif.got.tgz:294158.got - 2010.06.28 00:19:55.
