data_PCOD8084708
_publ_section_title
;
Structure prediction by ZEFSAII (Michael W. Deem and Ramdas Pophale) SiO2 
 PCOD8084708
Probable space group: C 2/M
;
_chemical_formula_sum "Si O2"
_cell_formula_units_Z 64
_cell_length_a 22.766248
_cell_length_b 13.398331
_cell_length_c 15.033150
_cell_angle_alpha 90.000000
_cell_angle_beta 107.778172
_cell_angle_gamma 90.000000
_cell_volume 4366.577923
_symmetry_space_group_name_H-M "C 2/M"
_symmetry_group_IT_number 12
_symmetry_cell_setting 'monoclinic'
loop_
_space_group_symop_operation_xyz
x,y,z
-x,y,-z
-x,-y,-z
x,-y,z
1/2+x,1/2+y,z
1/2-x,1/2+y,-z
1/2-x,1/2-y,-z
1/2+x,1/2-y,z
loop_
_atom_site_type_symbol
_atom_site_label
_atom_site_fract_x
_atom_site_fract_y
_atom_site_fract_z
Si Si1 0.664921 0.196848 0.791551
Si Si2 0.434470 0.884219 0.786556
Si Si3 0.211315 0.113091 0.080629
Si Si4 0.454960 0.882414 0.601065
Si Si5 0.726516 0.387039 0.880713
Si Si6 0.142664 0.697111 0.095757
Si Si7 0.088488 0.617978 0.605781
Si Si8 0.575794 0.884249 0.897433
O O1 0.724840 0.130513 0.838778
O O2 0.680275 0.314160 0.807012
O O3 0.643653 0.175370 0.680875
O O4 0.610000 0.169162 0.832406
O O5 0.428745 0.842825 0.682722
O O6 0.387609 0.818432 0.822168
O O7 0.503381 0.869009 0.853371
O O8 0.415353 0.000000 0.784889
O O9 0.158380 0.185843 0.093055
O O10 0.188967 0.000000 0.085007
O O11 0.222934 0.137864 0.983133
O O12 0.409005 0.855348 0.498432
O O13 0.523591 0.841325 0.614305
O O14 0.462817 0.000000 0.611693
O O15 0.706625 0.500000 0.850348
O O16 0.796361 0.369931 0.882611
O O17 0.094117 0.664461 0.998969
O O18 0.095830 0.500000 0.625093
O O19 0.594529 0.000000 0.905763
#
# Coordination Sequence:
#
# PCOD8084708 Si02
#       8
#     8   8   8   8   8   8   8   8
#     4  11  17  27  46  70  88 113 142 179 225 257
#     4  10  19  28  42  65  94 122 143 171 217 269
#     4  10  19  31  46  62  85 117 153 187 212 244
#     4   8  15  26  40  64  92 118 141 170 217 266
#     4  10  19  31  45  62  87 118 151 184 212 248
#     4  11  19  30  43  64  90 123 148 172 212 264
#     4   9  15  25  43  66  93 114 138 177 219 262
#     4  11  18  26  41  67  96 116 140 173 215 265
#
# _framework density 14.656786
#
# number of rings (size 3 to 8) (size 9 to 14) (size 15 to 20)
#    0.000    2.000    3.750    4.125    0.000    1.000 
#    0.000    0.000    0.000    5.250    0.000    4.375 
#    0.000    0.000    0.000    0.000    0.000    0.000 
#
# Total GULP energy -396768.125695 kJ/mol
# GULP energy per Si atom -12399.003928 kJ/mol
# Density = 1.462343 g / cm^3
# Si number density = 14.656786 Si / 1000 Ang^3
#
#
#
# Elastic Constant Matrix: (Units=GPa)
#
#
# Indices 1 2 3 4 5 6 
#
# 1 73.1520 39.2427 46.7692 0.0000 -12.8726 0.0000
# 2 39.2427 87.9059 43.0071 0.0000 0.2686 0.0000
# 3 46.7692 43.0071 123.0167 0.0000 -0.2590 0.0000
# 4 0.0000 0.0000 0.0000 18.4856 0.0000 0.5737
# 5 -12.8726 0.2686 -0.2590 0.0000 23.8852 0.0000
# 6 0.0000 0.0000 0.0000 0.5737 0.0000 20.9450
#
#
#
# Elastic Compliance Matrix: (Units=1/GPa)
#
#
# Indices 1 2 3 4 5 6 
#
# 1 0.024257 -0.007685 -0.006508 0.000000 0.013089 0.000000
# 2 -0.007685 0.016159 -0.002737 0.000000 -0.004353 0.000000
# 3 -0.006508 -0.002737 0.011553 0.000000 -0.003351 0.000000
# 4 0.000000 0.000000 0.000000 0.054142 0.000000 -0.001483
# 5 0.013089 -0.004353 -0.003351 0.000000 0.048933 0.000000
# 6 0.000000 0.000000 0.000000 -0.001483 0.000000 0.047785
#
#
# Mechanical properties :
#
#
# Convention : Reuss Voigt Hill
#
# Bulk Modulus (GPa) = 55.21918 60.23475 57.72696
# Shear Modulus (GPa) = 20.59959 23.00020 21.79989
#
# Velocity S-wave (km/s) = 3.75302 3.96568 3.86081
# Velocity P-wave (km/s) = 7.51910 7.88383 7.70362
#
# Compressibility (1/GPa) = 0.01810965
#
# Stress axis : x y z
#
# Youngs Moduli (GPa) = 41.22593 61.88686 86.55852
#
# Poissons Ratio (x) = 0.47558 0.56331
# Poissons Ratio (y) = 0.31681 0.23688
# Poissons Ratio (z) = 0.26829 0.16936
#
# Static dielectric constant tensor:
#      x y z
#    x 2.728400 0.000000 -0.076570 
#    y 0.000000 2.697060 0.000000 
#    z -0.076570 0.000000 3.063030 
# 
# 
# High freq. dielectric constant tensor:
#      x y z
#    x 1.545300 0.000000 0.000570 
#    y 0.000000 1.534890 0.000000 
#    z 0.000570 0.000000 1.559850 
# 
# From -- ./inp_files/233144.got.cif
#   From: 2010.06.25/outbox.cif.g09.slc.cpg/sg12_117_cif.got.tgz:233144.got - 2010.06.28 00:19:55.
