data_PCOD8084417
_publ_section_title
;
Structure prediction by ZEFSAII (Michael W. Deem and Ramdas Pophale) SiO2 
 PCOD8084417
Probable space group: C 2/M
;
_chemical_formula_sum "Si O2"
_cell_formula_units_Z 48
_cell_length_a 23.308146
_cell_length_b 8.851130
_cell_length_c 12.103875
_cell_angle_alpha 90.000000
_cell_angle_beta 69.165277
_cell_angle_gamma 90.000000
_cell_volume 2333.788211
_symmetry_space_group_name_H-M "C 2/M"
_symmetry_group_IT_number 12
_symmetry_cell_setting 'monoclinic'
loop_
_space_group_symop_operation_xyz
x,y,z
-x,y,-z
-x,-y,-z
x,-y,z
1/2+x,1/2+y,z
1/2-x,1/2+y,-z
1/2-x,1/2-y,-z
1/2+x,1/2-y,z
loop_
_atom_site_type_symbol
_atom_site_label
_atom_site_fract_x
_atom_site_fract_y
_atom_site_fract_z
Si Si1 0.199288 0.321303 0.774252
Si Si2 0.143853 0.679225 0.040769
Si Si3 0.991946 0.330843 0.876128
Si Si4 0.897510 0.177157 0.316100
Si Si5 0.931495 0.674835 0.517334
Si Si6 0.319654 0.174669 0.747302
O O1 0.193550 0.500000 0.773333
O O2 0.161361 0.255080 0.698595
O O3 0.270074 0.272177 0.713832
O O4 0.174299 0.255159 0.908454
O O5 0.140328 0.500000 0.033180
O O6 0.074667 0.739901 0.102628
O O7 0.181410 0.728621 0.123877
O O8 0.999515 0.500000 0.819604
O O9 0.041169 0.219499 0.790891
O O10 0.000000 0.341668 0.000000
O O11 0.903066 0.229063 0.438029
O O12 0.887293 0.000000 0.318449
O O13 0.933558 0.500000 0.480390
O O14 0.887709 0.701118 0.652618
O O15 0.000000 0.731935 0.500000
O O16 0.300985 0.000000 0.750210
#
# Coordination Sequence:
#
# PCOD8084417 Si02
#       6
#     8   8   8   8   8   8
#     4  11  22  39  61  87 121 162 204 241 296 366
#     4   9  18  35  61  90 120 157 199 244 294 358
#     4  10  18  35  62  88 118 157 201 242 290 356
#     4  12  25  39  59  90 127 159 198 252 305 352
#     4  10  22  43  69  90 115 157 205 247 296 363
#     4  10  21  38  61  90 120 152 199 253 302 351
#
# _framework density 20.567419000000001
#
# number of rings (size 3 to 8) (size 9 to 14) (size 15 to 20)
#    0.000    1.667    1.667    3.500    0.000    4.667 
#    0.000    3.333    0.000    0.000    0.000    0.000 
#    0.000    0.000    0.000    0.000    0.000    0.000 
#
# Total GULP energy -297659.961764 kJ/mol
# GULP energy per Si atom -12402.498407 kJ/mol
# Density = 2.052061 g / cm^3
# Si number density = 20.567419 Si / 1000 Ang^3
#
#
#
# Elastic Constant Matrix: (Units=GPa)
#
#
# Indices 1 2 3 4 5 6 
#
# 1 149.7966 43.5015 36.2841 0.0000 8.4604 0.0000
# 2 43.5015 82.7256 33.4349 0.0000 7.7579 0.0000
# 3 36.2841 33.4349 83.5049 0.0000 12.8203 0.0000
# 4 0.0000 0.0000 0.0000 23.2833 0.0000 -0.0560
# 5 8.4604 7.7579 12.8203 0.0000 32.4588 0.0000
# 6 0.0000 0.0000 0.0000 -0.0560 0.0000 32.1111
#
#
#
# Elastic Compliance Matrix: (Units=1/GPa)
#
#
# Indices 1 2 3 4 5 6 
#
# 1 0.008209 -0.003412 -0.002126 0.000000 -0.000484 0.000000
# 2 -0.003412 0.015887 -0.004718 0.000000 -0.001044 0.000000
# 3 -0.002126 -0.004718 0.015468 0.000000 -0.004428 0.000000
# 4 0.000000 0.000000 0.000000 0.042949 0.000000 0.000075
# 5 -0.000484 -0.001044 -0.004428 0.000000 0.032933 0.000000
# 6 0.000000 0.000000 0.000000 0.000075 0.000000 0.031142
#
#
# Mechanical properties :
#
#
# Convention : Reuss Voigt Hill
#
# Bulk Modulus (GPa) = 52.49029 60.27423 56.38226
# Shear Modulus (GPa) = 28.82636 31.09109 29.95872
#
# Velocity S-wave (km/s) = 3.74780 3.89223 3.82070
# Velocity P-wave (km/s) = 6.65616 7.04050 6.85102
#
# Compressibility (1/GPa) = 0.01905114
#
# Stress axis : x y z
#
# Youngs Moduli (GPa) = 121.81804 62.94378 64.64852
#
# Poissons Ratio (x) = 0.21475 0.13747
# Poissons Ratio (y) = 0.41562 0.30503
# Poissons Ratio (z) = 0.25904 0.29699
#
# Static dielectric constant tensor:
#      x y z
#    x 3.660610 0.000000 0.552090 
#    y 0.000000 3.425300 0.000000 
#    z 0.552090 0.000000 2.454620 
# 
# 
# High freq. dielectric constant tensor:
#      x y z
#    x 1.820160 0.000000 0.002900 
#    y 0.000000 1.773690 0.000000 
#    z 0.002900 0.000000 1.805970 
# 
# From -- ./inp_files/172943.got.cif
#   From: 2010.06.25/outbox.cif.g09.slc.cpg/sg12_87_cif.got.tgz:172943.got - 2010.06.28 00:19:55.
