data_PCOD8084894
_publ_section_title
;
Structure prediction by ZEFSAII (Michael W. Deem and Ramdas Pophale) SiO2 
 PCOD8084894
Probable space group: C 2/M
;
_chemical_formula_sum "Si O2"
_cell_formula_units_Z 52
_cell_length_a 8.461843
_cell_length_b 24.751578
_cell_length_c 24.771149
_cell_angle_alpha 90.000000
_cell_angle_beta 144.581407
_cell_angle_gamma 90.000000
_cell_volume 3006.780073
_symmetry_space_group_name_H-M "C 2/M"
_symmetry_group_IT_number 12
_symmetry_cell_setting 'monoclinic'
loop_
_space_group_symop_operation_xyz
x,y,z
-x,y,-z
-x,-y,-z
x,-y,z
1/2+x,1/2+y,z
1/2-x,1/2+y,-z
1/2-x,1/2-y,-z
1/2+x,1/2-y,z
loop_
_atom_site_type_symbol
_atom_site_label
_atom_site_fract_x
_atom_site_fract_y
_atom_site_fract_z
Si Si1 0.934466 0.782348 0.866956
Si Si2 0.000000 0.254428 0.000000
Si Si3 0.795229 0.278065 0.579749
Si Si4 0.058366 0.642260 0.578265
Si Si5 0.131520 0.189862 0.722748
Si Si6 0.941448 0.355040 0.713080
Si Si7 0.179642 0.437273 0.403344
O O1 0.803512 0.723387 0.815206
O O2 0.750399 0.833035 0.799294
O O3 0.226885 0.790694 0.919941
O O4 0.997058 0.784590 0.947725
O O5 0.500000 0.249182 0.500000
O O6 0.776600 0.320437 0.623364
O O7 0.861741 0.308370 0.542070
O O8 0.027933 0.233972 0.651213
O O9 0.376031 0.657933 0.677521
O O10 0.000000 0.627835 0.500000
O O11 0.990960 0.590292 0.595813
O O12 0.317920 0.149209 0.739164
O O13 0.921888 0.415733 0.683963
O O14 0.500000 0.425968 0.500000
O O15 0.110371 0.500000 0.386040
#
# Coordination Sequence:
#
# PCOD8084894 Si02
#       7
#     8   4   8   8   8   8   8
#     4  10  20  33  52  78 113 141 168 204 240 310
#     4  10  20  34  50  78 116 144 168 196 248 302
#     4  10  19  29  43  67 105 139 166 194 239 295
#     4  11  21  31  48  73 100 135 177 213 250 297
#     4  11  20  30  47  74 105 137 167 206 241 300
#     4  10  19  33  51  72 100 136 172 205 249 304
#     4  10  22  39  55  71  97 134 177 226 270 303
#
# _framework density 17.294248
#
# number of rings (size 3 to 8) (size 9 to 14) (size 15 to 20)
#    0.000    1.692    1.538    6.000    4.308    2.154 
#    0.000    1.538    0.000    0.000    0.000    1.077 
#    0.000    0.000    0.000    0.000    0.000    0.000 
#
# Total GULP energy -322256.776641 kJ/mol
# GULP energy per Si atom -12394.491409 kJ/mol
# Density = 1.725489 g / cm^3
# Si number density = 17.294248 Si / 1000 Ang^3
#
#
#
# Elastic Constant Matrix: (Units=GPa)
#
#
# Indices 1 2 3 4 5 6 
#
# 1 96.8588 42.7868 38.8581 0.0003 12.9141 0.0001
# 2 42.7868 90.0096 30.3596 0.0001 5.4292 0.0000
# 3 38.8581 30.3596 90.6289 -0.0003 15.2374 0.0004
# 4 0.0003 0.0001 -0.0003 13.3767 0.0002 1.0470
# 5 12.9141 5.4292 15.2374 0.0002 37.9034 0.0001
# 6 0.0001 0.0000 0.0004 1.0470 0.0001 14.1133
#
#
#
# Elastic Compliance Matrix: (Units=1/GPa)
#
#
# Indices 1 2 3 4 5 6 
#
# 1 0.014708 -0.005474 -0.004035 0.000000 -0.002605 0.000000
# 2 -0.005474 0.014563 -0.002675 0.000000 0.000854 0.000000
# 3 -0.004035 -0.002675 0.014333 0.000001 -0.004004 0.000000
# 4 0.000000 0.000000 0.000001 0.075193 0.000000 -0.005578
# 5 -0.002605 0.000854 -0.004004 0.000000 0.028758 0.000000
# 6 0.000000 0.000000 0.000000 -0.005578 0.000000 0.071269
#
#
# Mechanical properties :
#
#
# Convention : Reuss Voigt Hill
#
# Bulk Modulus (GPa) = 51.98233 55.72293 53.85263
# Shear Modulus (GPa) = 20.03178 24.11154 22.07166
#
# Velocity S-wave (km/s) = 3.40706 3.73794 3.57633
# Velocity P-wave (km/s) = 6.75280 7.13583 6.94695
#
# Compressibility (1/GPa) = 0.01923730
#
# Stress axis : x y z
#
# Youngs Moduli (GPa) = 67.98894 68.66897 69.76778
#
# Poissons Ratio (x) = 0.37587 0.28149
# Poissons Ratio (y) = 0.37215 0.18663
# Poissons Ratio (z) = 0.27431 0.18369
#
# Static dielectric constant tensor:
#      x y z
#    x 3.466960 0.000000 0.074440 
#    y 0.000000 2.945670 0.000000 
#    z 0.074440 0.000000 3.295560 
# 
# 
# High freq. dielectric constant tensor:
#      x y z
#    x 1.692330 0.000000 0.004710 
#    y 0.000000 1.612530 0.000000 
#    z 0.004710 0.000000 1.660080 
# 
# From -- ./inp_files/357117.got.cif
#   From: 2010.06.25/outbox.cif.g09.slc.cpg/sg12_179_cif.got.tgz:357117.got - 2010.06.28 00:19:55.
