data_PCOD8084136
_publ_section_title
;
Structure prediction by ZEFSAII (Michael W. Deem and Ramdas Pophale) SiO2 
 PCOD8084136
Probable space group: C 2/M
;
_chemical_formula_sum "Si O2"
_cell_formula_units_Z 64
_cell_length_a 39.896988
_cell_length_b 9.451062
_cell_length_c 18.684078
_cell_angle_alpha 90.000000
_cell_angle_beta 149.944925
_cell_angle_gamma 90.000000
_cell_volume 3528.455631
_symmetry_space_group_name_H-M "C 2/M"
_symmetry_group_IT_number 12
_symmetry_cell_setting 'monoclinic'
loop_
_space_group_symop_operation_xyz
x,y,z
-x,y,-z
-x,-y,-z
x,-y,z
1/2+x,1/2+y,z
1/2-x,1/2+y,-z
1/2-x,1/2-y,-z
1/2+x,1/2-y,z
loop_
_atom_site_type_symbol
_atom_site_label
_atom_site_fract_x
_atom_site_fract_y
_atom_site_fract_z
Si Si1 0.597451 0.332473 0.859725
Si Si2 0.629379 0.331526 0.077090
Si Si3 0.853250 0.659893 0.361412
Si Si4 0.928759 0.335405 0.899710
Si Si5 0.977472 0.832935 0.537983
Si Si6 0.270868 0.659112 0.972018
Si Si7 0.281622 0.166099 0.366701
Si Si8 0.309107 0.836512 0.575491
O O1 0.602201 0.500000 0.866166
O O2 0.531747 0.278942 0.696403
O O3 0.662909 0.271942 0.940745
O O4 0.597128 0.283520 0.941812
O O5 0.626108 0.500000 0.082255
O O6 0.585981 0.257445 0.058024
O O7 0.705806 0.274239 0.222607
O O8 0.881722 0.500000 0.421463
O O9 0.907988 0.758236 0.426276
O O10 0.830928 0.726510 0.396629
O O11 0.786959 0.659502 0.192502
O O12 0.926136 0.500000 0.916677
O O13 0.877306 0.299396 0.741366
O O14 0.000000 0.291541 0.000000
O O15 0.000000 0.789141 0.500000
O O16 0.966537 0.000000 0.523044
O O17 0.285769 0.500000 0.026221
O O18 0.250000 0.750000 0.000000
O O19 0.316070 0.206142 0.505342
O O20 0.276050 0.000000 0.342935
O O21 0.250000 0.750000 0.500000
O O22 0.289730 0.000000 0.546844
#
# Coordination Sequence:
#
# PCOD8084136 Si02
#       8
#     8   8   8   8   8   8   8   8
#     4   9  18  34  56  78 103 139 179 216 262 315
#     4  10  18  34  59  80 102 138 183 223 258 308
#     4  10  20  35  56  81 107 137 177 222 266 314
#     4  10  22  37  52  78 116 146 169 212 272 322
#     4  10  21  37  55  77 109 145 176 214 268 322
#     4  10  19  33  54  79 105 136 176 220 263 311
#     4   9  17  32  55  80 104 135 175 220 266 308
#     4  10  19  33  55  79 104 139 181 217 259 315
#
# _framework density 18.138248000000001
#
# number of rings (size 3 to 8) (size 9 to 14) (size 15 to 20)
#    0.000    2.250    2.500    0.750    0.000    3.000 
#    0.000    4.375    0.000    0.000    0.000    0.000 
#    0.000    0.000    0.000    0.000    0.000    0.000 
#
# Total GULP energy -396784.916966 kJ/mol
# GULP energy per Si atom -12399.528655 kJ/mol
# Density = 1.809696 g / cm^3
# Si number density = 18.138248 Si / 1000 Ang^3
#
#
#
# Elastic Constant Matrix: (Units=GPa)
#
#
# Indices 1 2 3 4 5 6 
#
# 1 136.3453 40.7977 29.1664 0.0000 -3.2630 0.0000
# 2 40.7977 36.9233 19.0398 0.0000 1.3126 0.0000
# 3 29.1664 19.0398 72.2082 0.0000 -3.2065 0.0000
# 4 0.0000 0.0000 0.0000 21.8589 0.0000 2.5006
# 5 -3.2630 1.3126 -3.2065 0.0000 40.1909 0.0000
# 6 0.0000 0.0000 0.0000 2.5006 0.0000 28.8919
#
#
#
# Elastic Compliance Matrix: (Units=1/GPa)
#
#
# Indices 1 2 3 4 5 6 
#
# 1 0.011140 -0.011640 -0.001378 0.000000 0.001175 0.000000
# 2 -0.011640 0.043622 -0.006930 0.000000 -0.002923 0.000000
# 3 -0.001378 -0.006930 0.016296 0.000000 0.001415 0.000000
# 4 0.000000 0.000000 0.000000 0.046205 0.000000 -0.003999
# 5 0.001175 -0.002923 0.001415 0.000000 0.025185 0.000000
# 6 0.000000 0.000000 0.000000 -0.003999 0.000000 0.034958
#
#
# Mechanical properties :
#
#
# Convention : Reuss Voigt Hill
#
# Bulk Modulus (GPa) = 32.09182 47.05384 39.57283
# Shear Modulus (GPa) = 21.95954 28.61988 25.28971
#
# Velocity S-wave (km/s) = 3.48325 3.97656 3.73805
# Velocity P-wave (km/s) = 5.82312 6.86164 6.36360
#
# Compressibility (1/GPa) = 0.03116059
#
# Stress axis : x y z
#
# Youngs Moduli (GPa) = 89.76410 22.92400 61.36548
#
# Poissons Ratio (x) = 0.26684 0.08458
# Poissons Ratio (y) = 1.04488 0.42528
# Poissons Ratio (z) = 0.12373 0.15887
#
# Static dielectric constant tensor:
#      x y z
#    x 3.267090 0.000000 0.035000 
#    y 0.000000 2.981620 0.000000 
#    z 0.035000 0.000000 3.551830 
# 
# 
# High freq. dielectric constant tensor:
#      x y z
#    x 1.715450 0.000000 -0.007240 
#    y 0.000000 1.669130 0.000000 
#    z -0.007240 0.000000 1.711200 
# 
# From -- ./inp_files/245967.got.cif
#   From: 2010.06.25/outbox.cif.g09.slc.cpg/sg12_123_cif.got.tgz:245967.got - 2010.06.28 00:19:55.
