data_PCOD8084255
_publ_section_title
;
Structure prediction by ZEFSAII (Michael W. Deem and Ramdas Pophale) SiO2 
 PCOD8084255
Probable space group: C 2/M
;
_chemical_formula_sum "Si O2"
_cell_formula_units_Z 56
_cell_length_a 17.304103
_cell_length_b 26.143759
_cell_length_c 8.957003
_cell_angle_alpha 90.000000
_cell_angle_beta 41.528927
_cell_angle_gamma 90.000000
_cell_volume 2686.532631
_symmetry_space_group_name_H-M "C 2/M"
_symmetry_group_IT_number 12
_symmetry_cell_setting 'monoclinic'
loop_
_space_group_symop_operation_xyz
x,y,z
-x,y,-z
-x,-y,-z
x,-y,z
1/2+x,1/2+y,z
1/2-x,1/2+y,-z
1/2-x,1/2-y,-z
1/2+x,1/2-y,z
loop_
_atom_site_type_symbol
_atom_site_label
_atom_site_fract_x
_atom_site_fract_y
_atom_site_fract_z
Si Si1 0.609746 0.138694 0.744282
Si Si2 0.214721 0.144424 0.022257
Si Si3 0.707808 0.299365 0.338771
Si Si4 0.478459 0.354416 0.189769
Si Si5 0.107896 0.307322 0.442451
Si Si6 0.870174 0.944461 0.692966
Si Si7 0.806430 0.942358 0.449805
O O1 0.675632 0.181516 0.748462
O O2 0.566028 0.164809 0.653900
O O3 0.689239 0.089940 0.584982
O O4 0.500000 0.119614 0.000000
O O5 0.205515 0.185571 0.168164
O O6 0.223280 0.088189 0.080581
O O7 0.102784 0.141750 0.082095
O O8 0.325945 0.152492 0.758157
O O9 0.600052 0.322582 0.584054
O O10 0.696810 0.238121 0.357799
O O11 0.419427 0.409603 0.235568
O O12 0.500000 0.326029 0.000000
O O13 0.000000 0.286169 0.500000
O O14 0.813607 0.949108 0.614946
O O15 0.000000 0.918501 0.500000
O O16 0.883775 0.000000 0.749812
O O17 0.803382 0.000000 0.381518
#
# Coordination Sequence:
#
# PCOD8084255 Si02
#       7
#     8   8   8   8   8   8   8
#     4  11  24  44  66  90 125 162 208 260 308 368
#     4  12  20  38  63  91 127 162 207 258 305 371
#     4  11  23  43  64  91 124 166 211 255 311 371
#     4  11  22  36  60  96 132 165 200 257 312 366
#     4  12  27  42  63  91 124 167 211 256 311 370
#     4  10  18  34  64  97 124 159 202 252 316 381
#     4  10  21  39  64  93 125 163 209 254 312 374
#
# _framework density 20.844712000000001
#
# number of rings (size 3 to 8) (size 9 to 14) (size 15 to 20)
#    0.000    1.000    4.286    4.714    0.000    2.286 
#    0.000    2.143    0.000    0.857    0.000    0.000 
#    0.000    0.000    0.000    0.000    0.000    0.000 
#
# Total GULP energy -347082.353656 kJ/mol
# GULP energy per Si atom -12395.798345 kJ/mol
# Density = 2.079727 g / cm^3
# Si number density = 20.844712 Si / 1000 Ang^3
#
#
#
# Elastic Constant Matrix: (Units=GPa)
#
#
# Indices 1 2 3 4 5 6 
#
# 1 77.1510 15.6597 16.7074 0.0000 -2.3781 0.0000
# 2 15.6597 84.7351 17.7526 0.0000 3.8773 0.0000
# 3 16.7074 17.7526 99.6106 0.0000 10.7703 0.0000
# 4 0.0000 0.0000 0.0000 -18.0524 0.0000 -16.8493
# 5 -2.3781 3.8773 10.7703 0.0000 32.9198 0.0000
# 6 0.0000 0.0000 0.0000 -16.8493 0.0000 16.7913
#
#
#
# Elastic Compliance Matrix: (Units=1/GPa)
#
#
# Indices 1 2 3 4 5 6 
#
# 1 0.013939 -0.002214 -0.002157 0.000000 0.001973 0.000000
# 2 -0.002214 0.012629 -0.001764 0.000000 -0.001070 0.000000
# 3 -0.002157 -0.001764 0.011102 0.000000 -0.003580 0.000000
# 4 0.000000 0.000000 0.000000 -0.028604 0.000000 -0.028703
# 5 0.001973 -0.001070 -0.003580 0.000000 0.031817 0.000000
# 6 0.000000 0.000000 0.000000 -0.028703 0.000000 0.030752
#
#
# Mechanical properties :
#
#
# Convention : Reuss Voigt Hill
#
# Bulk Modulus (GPa) = 39.36861 40.19289 39.78075
# Shear Modulus (GPa) = 54.12894 20.42354 37.27624
#
# Velocity S-wave (km/s) = 5.10138 3.13356 4.23340
# Velocity P-wave (km/s) = 7.32300 5.69352 6.55906
#
# Compressibility (1/GPa) = 0.02540095
#
# Stress axis : x y z
#
# Youngs Moduli (GPa) = 71.74147 79.18150 90.07186
#
# Poissons Ratio (x) = 0.17535 0.19425
# Poissons Ratio (y) = 0.15887 0.15885
# Poissons Ratio (z) = 0.15472 0.13964
#
# Static dielectric constant tensor:
#      x y z
#    x 3.669520 0.000000 -0.235360 
#    y 0.000000 4.354040 0.000000 
#    z -0.235360 0.000000 3.228170 
# 
# 
# High freq. dielectric constant tensor:
#      x y z
#    x 1.820330 0.000000 0.009870 
#    y 0.000000 1.806280 0.000000 
#    z 0.009870 0.000000 1.810080 
# 
# From -- ./inp_files/80425.got.cif
#   From: 2010.06.25/outbox.cif.g09.slc.cpg/sg12_41_cif.got.tgz:80425.got - 2010.06.28 00:19:55.
