data_PCOD8084273
_publ_section_title
;
Structure prediction by ZEFSAII (Michael W. Deem and Ramdas Pophale) SiO2 
 PCOD8084273
Probable space group: C 2/M
;
_chemical_formula_sum "Si O2"
_cell_formula_units_Z 40
_cell_length_a 22.736662
_cell_length_b 17.378022
_cell_length_c 5.184832
_cell_angle_alpha 90.000000
_cell_angle_beta 108.986495
_cell_angle_gamma 90.000000
_cell_volume 1937.166886
_symmetry_space_group_name_H-M "C 2/M"
_symmetry_group_IT_number 12
_symmetry_cell_setting 'monoclinic'
loop_
_space_group_symop_operation_xyz
x,y,z
-x,y,-z
-x,-y,-z
x,-y,z
1/2+x,1/2+y,z
1/2-x,1/2+y,-z
1/2-x,1/2-y,-z
1/2+x,1/2-y,z
loop_
_atom_site_type_symbol
_atom_site_label
_atom_site_fract_x
_atom_site_fract_y
_atom_site_fract_z
Si Si1 0.933233 0.367904 0.840109
Si Si2 0.268575 0.588862 0.933148
Si Si3 0.866180 0.353650 0.251852
Si Si4 0.347285 0.411379 0.549442
Si Si5 0.564274 0.720332 0.445012
O O1 0.944719 0.275963 0.815994
O O2 0.097732 0.400837 0.467891
O O3 0.886449 0.387320 0.005419
O O4 0.000000 0.406533 0.000000
O O5 0.248828 0.500000 0.879567
O O6 0.207450 0.640777 0.820567
O O7 0.315085 0.612220 0.771038
O O8 0.299862 0.605718 0.251061
O O9 0.886098 0.263635 0.295581
O O10 0.368424 0.500000 0.580735
O O11 0.409588 0.361668 0.607309
O O12 0.500000 0.706461 0.500000
#
# Coordination Sequence:
#
# PCOD8084273 Si02
#       5
#     8   8   8   8   8
#     4  10  18  35  53  84 114 145 180 230 280 326
#     4  10  22  41  58  81 117 152 186 232 281 332
#     4  10  20  34  60  85 109 149 187 229 282 337
#     4  10  23  39  57  82 116 152 190 230 276 334
#     4  10  22  36  60  84 115 149 186 236 280 328
#
# _framework density 20.648710999999999
#
# number of rings (size 3 to 8) (size 9 to 14) (size 15 to 20)
#    1.200    0.800    2.000    1.800    2.800    2.000 
#    0.000    0.000    0.000   10.800    0.000    0.000 
#    0.000    0.000    0.000    0.000    0.000    0.000 
#
# Total GULP energy -247872.849702 kJ/mol
# GULP energy per Si atom -12393.642485 kJ/mol
# Density = 2.060171 g / cm^3
# Si number density = 20.648711 Si / 1000 Ang^3
#
#
#
# Elastic Constant Matrix: (Units=GPa)
#
#
# Indices 1 2 3 4 5 6 
#
# 1 103.6111 40.4911 8.3268 0.0000 -16.5447 0.0000
# 2 40.4911 43.9538 1.0327 0.0000 -4.9408 0.0000
# 3 8.3268 1.0327 105.0659 0.0000 -19.2092 0.0000
# 4 0.0000 0.0000 0.0000 11.0087 0.0000 -1.4226
# 5 -16.5447 -4.9408 -19.2092 0.0000 30.8137 0.0000
# 6 0.0000 0.0000 0.0000 -1.4226 0.0000 9.2320
#
#
#
# Elastic Compliance Matrix: (Units=1/GPa)
#
#
# Indices 1 2 3 4 5 6 
#
# 1 0.016245 -0.014240 0.000034 0.000000 0.006460 0.000000
# 2 -0.014240 0.035675 0.000481 0.000000 -0.001626 0.000000
# 3 0.000034 0.000481 0.010753 0.000000 0.006799 0.000000
# 4 0.000000 0.000000 0.000000 0.092683 0.000000 0.014282
# 5 0.006460 -0.001626 0.006799 0.000000 0.039899 0.000000
# 6 0.000000 0.000000 0.000000 0.014282 0.000000 0.110520
#
#
# Mechanical properties :
#
#
# Convention : Reuss Voigt Hill
#
# Bulk Modulus (GPa) = 28.39103 39.14802 33.76952
# Shear Modulus (GPa) = 14.49406 23.72956 19.11181
#
# Velocity S-wave (km/s) = 2.65228 3.39367 3.04562
# Velocity P-wave (km/s) = 4.81236 5.86142 5.36260
#
# Compressibility (1/GPa) = 0.03522240
#
# Stress axis : x y z
#
# Youngs Moduli (GPa) = 61.55588 28.03052 92.99319
#
# Poissons Ratio (x) = 0.39916 -0.00312
# Poissons Ratio (y) = 0.87657 -0.04470
# Poissons Ratio (z) = -0.00207 -0.01347
#
# Static dielectric constant tensor:
#      x y z
#    x 3.465750 0.000000 -0.061350 
#    y 0.000000 3.407210 0.000000 
#    z -0.061350 0.000000 3.814570 
# 
# 
# High freq. dielectric constant tensor:
#      x y z
#    x 1.806090 0.000000 -0.006990 
#    y 0.000000 1.771160 0.000000 
#    z -0.006990 0.000000 1.820640 
# 
# From -- ./inp_files/15214.got.cif
#   From: 2010.06.25/outbox.cif.g09.slc.cpg/sg12_8_cif.got.tgz:15214.got - 2010.06.28 00:19:55.
