data_PCOD8084936
_publ_section_title
;
Structure prediction by ZEFSAII (Michael W. Deem and Ramdas Pophale) SiO2 
 PCOD8084936
Probable space group: C 2/M
;
_chemical_formula_sum "Si O2"
_cell_formula_units_Z 48
_cell_length_a 26.873570
_cell_length_b 9.319286
_cell_length_c 23.651313
_cell_angle_alpha 90.000000
_cell_angle_beta 30.441917
_cell_angle_gamma 90.000000
_cell_volume 3001.123385
_symmetry_space_group_name_H-M "C 2/M"
_symmetry_group_IT_number 12
_symmetry_cell_setting 'monoclinic'
loop_
_space_group_symop_operation_xyz
x,y,z
-x,y,-z
-x,-y,-z
x,-y,z
1/2+x,1/2+y,z
1/2-x,1/2+y,-z
1/2-x,1/2-y,-z
1/2+x,1/2-y,z
loop_
_atom_site_type_symbol
_atom_site_label
_atom_site_fract_x
_atom_site_fract_y
_atom_site_fract_z
Si Si1 0.112440 0.665618 0.606492
Si Si2 0.298558 0.333176 0.035751
Si Si3 0.117485 0.330519 0.946494
Si Si4 0.106241 0.334698 0.155796
Si Si5 0.604206 0.169180 0.832738
Si Si6 0.225592 0.667802 0.609034
O O1 0.129250 0.500000 0.575754
O O2 0.151762 0.703040 0.630309
O O3 0.170060 0.755915 0.502811
O O4 0.998204 0.707996 0.715315
O O5 0.324101 0.500000 0.016398
O O6 0.308054 0.255971 0.086750
O O7 0.187311 0.308045 0.124372
O O8 0.374359 0.263314 0.917495
O O9 0.128744 0.500000 0.946282
O O10 0.144513 0.290532 0.855312
O O11 0.006897 0.275369 0.067351
O O12 0.105907 0.500000 0.135554
O O13 0.676335 0.232318 0.714173
O O14 0.598918 0.000000 0.831411
O O15 0.246374 0.500000 0.594442
#
# Coordination Sequence:
#
# PCOD8084936 Si02
#       6
#     8   8   8   8   8   8
#     4   9  17  29  45  64  86 114 144 173 212 260
#     4  10  19  29  44  68  92 112 141 182 222 255
#     4   9  16  29  48  66  87 117 149 176 210 260
#     4   9  18  32  47  62  86 120 150 174 208 262
#     4   8  15  28  47  67  86 116 152 177 205 258
#     4   9  16  27  44  66  89 110 139 180 217 249
#
# _framework density 15.994011
#
# number of rings (size 3 to 8) (size 9 to 14) (size 15 to 20)
#    0.000    3.000    0.000    2.500    0.000    4.000 
#    0.000    6.667    0.000    1.000    0.000    7.000 
#    0.000    0.000    0.000    0.000    0.000    0.000 
#
# Total GULP energy -297571.732257 kJ/mol
# GULP energy per Si atom -12398.822177 kJ/mol
# Density = 1.595761 g / cm^3
# Si number density = 15.994011 Si / 1000 Ang^3
#
#
#
# Elastic Constant Matrix: (Units=GPa)
#
#
# Indices 1 2 3 4 5 6 
#
# 1 90.0492 41.8011 56.1443 0.0007 9.5319 -0.0005
# 2 41.8011 54.5885 43.9159 -0.0047 3.5005 0.0022
# 3 56.1443 43.9159 137.0122 -0.0011 11.2222 0.0006
# 4 0.0007 -0.0047 -0.0011 24.8172 0.0008 -0.2947
# 5 9.5319 3.5005 11.2222 0.0008 24.8330 -0.0004
# 6 -0.0005 0.0022 0.0006 -0.2947 -0.0004 25.9429
#
#
#
# Elastic Compliance Matrix: (Units=1/GPa)
#
#
# Indices 1 2 3 4 5 6 
#
# 1 0.019226 -0.011307 -0.003926 -0.000003 -0.004012 0.000001
# 2 -0.011307 0.031334 -0.005611 0.000006 0.002459 -0.000003
# 3 -0.003926 -0.005611 0.010922 0.000000 -0.002638 0.000000
# 4 -0.000003 0.000006 0.000000 0.040300 -0.000001 0.000458
# 5 -0.004012 0.002459 -0.002638 -0.000001 0.042654 0.000000
# 6 0.000001 -0.000003 0.000000 0.000458 0.000000 0.038551
#
#
# Mechanical properties :
#
#
# Convention : Reuss Voigt Hill
#
# Bulk Modulus (GPa) = 50.52075 62.81917 56.66996
# Shear Modulus (GPa) = 21.61945 24.43784 23.02865
#
# Velocity S-wave (km/s) = 3.68057 3.91312 3.79862
# Velocity P-wave (km/s) = 7.05110 7.73167 7.39921
#
# Compressibility (1/GPa) = 0.01979385
#
# Stress axis : x y z
#
# Youngs Moduli (GPa) = 52.01299 31.91448 91.55938
#
# Poissons Ratio (x) = 0.36085 0.35942
# Poissons Ratio (y) = 0.58811 0.51377
# Poissons Ratio (z) = 0.20418 0.17908
#
# Static dielectric constant tensor:
#      x y z
#    x 3.000500 0.000000 0.089190 
#    y 0.000000 2.889150 0.000000 
#    z 0.089190 0.000000 3.165140 
# 
# 
# High freq. dielectric constant tensor:
#      x y z
#    x 1.603970 0.000000 0.002170 
#    y 0.000000 1.599700 0.000000 
#    z 0.002170 0.000000 1.607260 
# 
# From -- ./inp_files/327197.got.cif
#   From: 2010.06.25/outbox.cif.g09.slc.cpg/sg12_164_cif.got.tgz:327197.got - 2010.06.28 00:19:55.
