data_PCOD8084449
_publ_section_title
;
Structure prediction by ZEFSAII (Michael W. Deem and Ramdas Pophale) SiO2 
 PCOD8084449
Probable space group: C 2/M
;
_chemical_formula_sum "Si O2"
_cell_formula_units_Z 64
_cell_length_a 18.149690
_cell_length_b 18.991833
_cell_length_c 21.365947
_cell_angle_alpha 90.000000
_cell_angle_beta 152.424782
_cell_angle_gamma 90.000000
_cell_volume 3409.238014
_symmetry_space_group_name_H-M "C 2/M"
_symmetry_group_IT_number 12
_symmetry_cell_setting 'monoclinic'
loop_
_space_group_symop_operation_xyz
x,y,z
-x,y,-z
-x,-y,-z
x,-y,z
1/2+x,1/2+y,z
1/2-x,1/2+y,-z
1/2-x,1/2-y,-z
1/2+x,1/2-y,z
loop_
_atom_site_type_symbol
_atom_site_label
_atom_site_fract_x
_atom_site_fract_y
_atom_site_fract_z
Si Si1 0.727069 0.286590 0.666444
Si Si2 0.920458 0.344955 0.380256
Si Si3 0.653522 0.709439 0.845412
Si Si4 0.166039 0.577575 0.048714
Si Si5 0.457928 0.709410 0.102323
Si Si6 0.902921 0.919609 0.863855
Si Si7 0.109781 0.749019 0.444714
Si Si8 0.805744 0.422282 0.785097
O O1 0.623938 0.233652 0.630258
O O2 0.678410 0.287993 0.557168
O O3 0.696319 0.365417 0.667814
O O4 0.909869 0.265912 0.817920
O O5 0.772508 0.392539 0.248741
O O6 0.000000 0.384179 0.500000
O O7 0.047354 0.329893 0.419167
O O8 0.735057 0.633836 0.915892
O O9 0.547846 0.717401 0.827444
O O10 0.542590 0.712298 0.700759
O O11 0.789600 0.770335 0.943466
O O12 0.236219 0.500000 0.087684
O O13 0.183941 0.596840 0.134624
O O14 0.982951 0.579609 0.889881
O O15 0.514252 0.630760 0.125247
O O16 0.895886 0.000000 0.832850
O O17 0.000000 0.916070 0.000000
O O18 0.250000 0.750000 0.500000
O O19 0.731644 0.500000 0.719105
#
# Coordination Sequence:
#
# PCOD8084449 Si02
#       8
#     8   8   8   8   8   8   8   8
#     4  10  18  36  54  81 109 139 184 228 267 322
#     4   9  20  35  58  81 106 144 187 221 270 327
#     4  11  20  34  54  81 109 145 179 223 280 330
#     4   9  18  31  51  79 108 139 177 219 266 323
#     4  10  21  34  56  82 106 137 185 227 273 335
#     4  10  21  38  58  82 110 138 179 235 284 326
#     4  11  21  34  54  80 113 143 177 233 276 319
#     4   9  17  31  52  78 108 140 176 218 266 321
#
# _framework density 18.772523
#
# number of rings (size 3 to 8) (size 9 to 14) (size 15 to 20)
#    0.000    2.125    2.500    2.250    0.000    1.750 
#    0.000    0.625    0.000    5.625    0.000    0.000 
#    0.000    0.000    0.000    0.000    0.000    0.000 
#
# Total GULP energy -396578.374726 kJ/mol
# GULP energy per Si atom -12393.074210 kJ/mol
# Density = 1.872980 g / cm^3
# Si number density = 18.772523 Si / 1000 Ang^3
#
#
#
# Elastic Constant Matrix: (Units=GPa)
#
#
# Indices 1 2 3 4 5 6 
#
# 1 63.3408 23.6747 20.7074 -0.0055 11.7313 0.0000
# 2 23.6747 107.7017 34.7187 -0.0019 -0.4985 0.0006
# 3 20.7074 34.7187 90.3724 0.0063 -4.0269 -0.0015
# 4 -0.0055 -0.0019 0.0063 10.9300 0.0019 -6.3019
# 5 11.7313 -0.4985 -4.0269 0.0019 27.9335 -0.0010
# 6 0.0000 0.0006 -0.0015 -6.3019 -0.0010 20.0916
#
#
#
# Elastic Compliance Matrix: (Units=1/GPa)
#
#
# Indices 1 2 3 4 5 6 
#
# 1 0.019855 -0.003208 -0.003715 0.000016 -0.008932 0.000004
# 2 -0.003208 0.011120 -0.003490 0.000002 0.001043 0.000000
# 3 -0.003715 -0.003490 0.013410 -0.000012 0.003431 -0.000003
# 4 0.000016 0.000002 -0.000012 0.111690 -0.000015 0.035033
# 5 -0.008932 0.001043 0.003431 -0.000015 0.040064 -0.000002
# 6 0.000004 0.000000 -0.000003 0.035033 -0.000002 0.060760
#
#
# Mechanical properties :
#
#
# Convention : Reuss Voigt Hill
#
# Bulk Modulus (GPa) = 42.44767 46.62406 44.53587
# Shear Modulus (GPa) = 17.50818 23.94529 20.72673
#
# Velocity S-wave (km/s) = 3.05724 3.57536 3.32640
# Velocity P-wave (km/s) = 5.92647 6.47569 6.20715
#
# Compressibility (1/GPa) = 0.02355842
#
# Stress axis : x y z
#
# Youngs Moduli (GPa) = 50.36390 89.92664 74.56902
#
# Poissons Ratio (x) = 0.28852 0.27702
# Poissons Ratio (y) = 0.16159 0.26028
# Poissons Ratio (z) = 0.18710 0.31389
#
# Static dielectric constant tensor:
#      x y z
#    x 3.383880 -0.000010 0.105870 
#    y -0.000010 3.388930 -0.000020 
#    z 0.105870 -0.000020 3.595150 
# 
# 
# High freq. dielectric constant tensor:
#      x y z
#    x 1.718130 0.000000 0.005020 
#    y 0.000000 1.710160 0.000000 
#    z 0.005020 0.000000 1.737590 
# 
# From -- ./inp_files/317387.got.cif
#   From: 2010.06.25/outbox.cif.g09.slc.cpg/sg12_159_cif.got.tgz:317387.got - 2010.06.28 00:19:55.
