data_PCOD8084623
_publ_section_title
;
Structure prediction by ZEFSAII (Michael W. Deem and Ramdas Pophale) SiO2 
 PCOD8084623
Probable space group: C 2/M
;
_chemical_formula_sum "Si O2"
_cell_formula_units_Z 48
_cell_length_a 14.738963
_cell_length_b 16.731949
_cell_length_c 18.375100
_cell_angle_alpha 90.000000
_cell_angle_beta 30.265537
_cell_angle_gamma 90.000000
_cell_volume 2283.919433
_symmetry_space_group_name_H-M "C 2/M"
_symmetry_group_IT_number 12
_symmetry_cell_setting 'monoclinic'
loop_
_space_group_symop_operation_xyz
x,y,z
-x,y,-z
-x,-y,-z
x,-y,z
1/2+x,1/2+y,z
1/2-x,1/2+y,-z
1/2-x,1/2-y,-z
1/2+x,1/2-y,z
loop_
_atom_site_type_symbol
_atom_site_label
_atom_site_fract_x
_atom_site_fract_y
_atom_site_fract_z
Si Si1 0.910227 0.705750 0.172514
Si Si2 0.732121 0.740171 0.144714
Si Si3 0.790547 0.088633 0.155100
Si Si4 0.322129 0.407216 0.584651
Si Si5 0.706103 0.147019 0.365094
Si Si6 0.849366 0.168543 0.412741
O O1 0.816102 0.705071 0.159759
O O2 0.860672 0.626089 0.251362
O O3 0.828397 0.775214 0.277755
O O4 0.125040 0.720350 0.018296
O O5 0.692758 0.836580 0.182415
O O6 0.553131 0.691893 0.250182
O O7 0.751943 0.085640 0.268603
O O8 0.736955 0.000000 0.161305
O O9 0.000000 0.105914 0.000000
O O10 0.500000 0.370348 0.500000
O O11 0.312162 0.500000 0.605410
O O12 0.337358 0.390034 0.489006
O O13 0.500000 0.172085 0.500000
O O14 0.753383 0.117272 0.414048
O O15 0.750000 0.250000 0.500000
#
# Coordination Sequence:
#
# PCOD8084623 Si02
#       6
#     8   8   8   8   8   8
#     4  10  18  39  61  92 123 160 208 248 309 379
#     4  10  20  37  65  94 119 163 214 255 306 379
#     4  10  20  38  61  89 126 165 204 255 316 370
#     4  11  23  41  65  94 130 167 207 263 318 367
#     4  11  22  39  63  89 122 167 211 255 309 369
#     4  12  23  38  65  95 123 164 216 261 305 378
#
# _framework density 21.016504000000001
#
# number of rings (size 3 to 8) (size 9 to 14) (size 15 to 20)
#    0.000    1.333    6.667    2.500    0.000    1.667 
#    0.000    5.000    0.000    0.000    0.000    0.000 
#    0.000    0.000    0.000    0.000    0.000    0.000 
#
# Total GULP energy -297460.331855 kJ/mol
# GULP energy per Si atom -12394.180494 kJ/mol
# Density = 2.096867 g / cm^3
# Si number density = 21.016504 Si / 1000 Ang^3
#
#
#
# Elastic Constant Matrix: (Units=GPa)
#
#
# Indices 1 2 3 4 5 6 
#
# 1 97.0941 12.0466 42.3951 0.0213 1.2532 0.0015
# 2 12.0466 84.5039 35.2892 0.0411 4.0662 0.0360
# 3 42.3951 35.2892 142.0283 0.0887 4.4538 0.0091
# 4 0.0213 0.0411 0.0887 17.3173 -0.0163 -1.2127
# 5 1.2532 4.0662 4.4538 -0.0163 26.3155 0.0045
# 6 0.0015 0.0360 0.0091 -1.2127 0.0045 7.3147
#
#
#
# Elastic Compliance Matrix: (Units=1/GPa)
#
#
# Indices 1 2 3 4 5 6 
#
# 1 0.011847 -0.000239 -0.003479 0.000004 0.000062 0.000004
# 2 -0.000239 0.013267 -0.003178 -0.000021 -0.001501 -0.000064
# 3 -0.003479 -0.003178 0.008896 -0.000035 -0.000849 0.000000
# 4 0.000004 -0.000021 -0.000035 0.058424 0.000044 0.009686
# 5 0.000062 -0.001501 -0.000849 0.000044 0.038373 -0.000008
# 6 0.000004 -0.000064 0.000000 0.009686 -0.000008 0.138317
#
#
# Mechanical properties :
#
#
# Convention : Reuss Voigt Hill
#
# Bulk Modulus (GPa) = 49.46075 55.89866 52.67971
# Shear Modulus (GPa) = 17.26188 25.78252 21.52220
#
# Velocity S-wave (km/s) = 2.86903 3.50633 3.20357
# Velocity P-wave (km/s) = 5.87881 6.56108 6.22929
#
# Compressibility (1/GPa) = 0.02021805
#
# Stress axis : x y z
#
# Youngs Moduli (GPa) = 84.40834 75.37353 112.41569
#
# Poissons Ratio (x) = 0.01802 0.39108
# Poissons Ratio (y) = 0.02018 0.35726
# Poissons Ratio (z) = 0.29365 0.23954
#
# Static dielectric constant tensor:
#      x y z
#    x 3.856930 -0.000030 0.154190 
#    y -0.000030 3.546300 0.000060 
#    z 0.154190 0.000060 4.351880 
# 
# 
# High freq. dielectric constant tensor:
#      x y z
#    x 1.812420 0.000000 0.009270 
#    y 0.000000 1.797150 0.000010 
#    z 0.009270 0.000010 1.843380 
# 
# From -- ./inp_files/271585.got.cif
#   From: 2010.06.25/outbox.cif.g09.slc.cpg/sg12_136_cif.got.tgz:271585.got - 2010.06.28 00:19:55.
