data_PCOD8084643
_publ_section_title
;
Structure prediction by ZEFSAII (Michael W. Deem and Ramdas Pophale) SiO2 
 PCOD8084643
Probable space group: C 2/M
;
_chemical_formula_sum "Si O2"
_cell_formula_units_Z 64
_cell_length_a 14.280041
_cell_length_b 17.913959
_cell_length_c 14.162917
_cell_angle_alpha 90.000000
_cell_angle_beta 88.489128
_cell_angle_gamma 90.000000
_cell_volume 3621.785512
_symmetry_space_group_name_H-M "C 2/M"
_symmetry_group_IT_number 12
_symmetry_cell_setting 'monoclinic'
loop_
_space_group_symop_operation_xyz
x,y,z
-x,y,-z
-x,-y,-z
x,-y,z
1/2+x,1/2+y,z
1/2-x,1/2+y,-z
1/2-x,1/2-y,-z
1/2+x,1/2-y,z
loop_
_atom_site_type_symbol
_atom_site_label
_atom_site_fract_x
_atom_site_fract_y
_atom_site_fract_z
Si Si1 0.791734 0.687084 0.430718
Si Si2 0.383590 0.585639 0.092861
Si Si3 0.366819 0.912861 0.588236
Si Si4 0.601715 0.586894 0.114075
Si Si5 0.193704 0.087835 0.715784
Si Si6 0.494825 0.785236 0.393608
Si Si7 0.120847 0.160685 0.300368
Si Si8 0.528937 0.416084 0.596923
O O1 0.750000 0.750000 0.500000
O O2 0.817992 0.615244 0.493389
O O3 0.717187 0.666332 0.353615
O O4 0.884713 0.712526 0.370539
O O5 0.356759 0.500000 0.082514
O O6 0.490239 0.594044 0.121845
O O7 0.320216 0.622170 0.178347
O O8 0.364168 0.619131 0.989033
O O9 0.297875 0.896274 0.677982
O O10 0.461852 0.868715 0.608878
O O11 0.390022 0.000000 0.577468
O O12 0.631629 0.500000 0.128837
O O13 0.644944 0.644019 0.190265
O O14 0.118717 0.123753 0.643593
O O15 0.170524 0.000000 0.721440
O O16 0.500000 0.753483 0.500000
O O17 0.553507 0.732346 0.321223
O O18 0.061905 0.087932 0.333751
O O19 0.500000 0.374656 0.500000
O O20 0.557325 0.500000 0.572583
#
# Coordination Sequence:
#
# PCOD8084643 Si02
#       8
#     8   8   8   8   8   8   8   8
#     4  11  23  37  51  76 106 140 182 212 268 323
#     4   8  14  28  46  73 113 141 170 210 258 325
#     4  10  21  37  56  77 102 139 189 226 252 303
#     4   9  17  28  47  78 110 141 172 211 265 320
#     4   9  16  28  49  77 103 137 175 213 259 303
#     4  10  22  38  52  72 100 145 180 215 262 315
#     4  12  20  31  53  72 104 137 178 214 262 326
#     4  10  19  26  39  73 112 138 165 208 260 307
#
# _framework density 17.670842
#
# number of rings (size 3 to 8) (size 9 to 14) (size 15 to 20)
#    0.000    2.125    3.750    2.250    1.750    4.250 
#    0.000    0.000    0.000    0.750    0.000    0.000 
#    0.000    4.000    0.000    0.000    0.000    0.000 
#
# Total GULP energy -396431.765149 kJ/mol
# GULP energy per Si atom -12388.492661 kJ/mol
# Density = 1.763062 g / cm^3
# Si number density = 17.670842 Si / 1000 Ang^3
#
#
#
# Elastic Constant Matrix: (Units=GPa)
#
#
# Indices 1 2 3 4 5 6 
#
# 1 101.9853 34.0910 39.4041 0.0000 1.7931 0.0000
# 2 34.0910 77.2907 36.5551 0.0000 0.1146 0.0000
# 3 39.4041 36.5551 122.9355 0.0000 0.6457 0.0000
# 4 0.0000 0.0000 0.0000 19.0737 0.0000 -2.7255
# 5 1.7931 0.1146 0.6457 0.0000 19.8655 0.0000
# 6 0.0000 0.0000 0.0000 -2.7255 0.0000 16.5849
#
#
#
# Elastic Compliance Matrix: (Units=1/GPa)
#
#
# Indices 1 2 3 4 5 6 
#
# 1 0.012242 -0.004125 -0.002692 0.000000 -0.000994 0.000000
# 2 -0.004125 0.016445 -0.003570 0.000000 0.000394 0.000000
# 3 -0.002692 -0.003570 0.010059 0.000000 -0.000063 0.000000
# 4 0.000000 0.000000 0.000000 0.053689 0.000000 0.008823
# 5 -0.000994 0.000394 -0.000063 0.000000 0.050428 0.000000
# 6 0.000000 0.000000 0.000000 0.008823 0.000000 0.061746
#
#
# Mechanical properties :
#
#
# Convention : Reuss Voigt Hill
#
# Bulk Modulus (GPa) = 55.64073 58.03465 56.83769
# Shear Modulus (GPa) = 21.61005 23.91556 22.76281
#
# Velocity S-wave (km/s) = 3.50082 3.68284 3.59298
# Velocity P-wave (km/s) = 6.92074 7.14127 7.03187
#
# Compressibility (1/GPa) = 0.01797245
#
# Stress axis : x y z
#
# Youngs Moduli (GPa) = 81.68751 60.80719 99.41235
#
# Poissons Ratio (x) = 0.25082 0.26762
# Poissons Ratio (y) = 0.33695 0.35490
# Poissons Ratio (z) = 0.21991 0.21708
#
# Static dielectric constant tensor:
#      x y z
#    x 3.309770 0.000000 -0.082090 
#    y 0.000000 3.081180 0.000000 
#    z -0.082090 0.000000 3.576780 
# 
# 
# High freq. dielectric constant tensor:
#      x y z
#    x 1.667220 0.000000 -0.010350 
#    y 0.000000 1.660800 0.000000 
#    z -0.010350 0.000000 1.672580 
# 
# From -- ./inp_files/215932.got.cif
#   From: 2010.06.25/outbox.cif.g09.slc.cpg/sg12_108_cif.got.tgz:215932.got - 2010.06.28 00:19:55.
