data_PCOD8084160
_publ_section_title
;
Structure prediction by ZEFSAII (Michael W. Deem and Ramdas Pophale) SiO2 
 PCOD8084160
Probable space group: C 2/M
;
_chemical_formula_sum "Si O2"
_cell_formula_units_Z 56
_cell_length_a 25.268540
_cell_length_b 9.084456
_cell_length_c 18.363041
_cell_angle_alpha 90.000000
_cell_angle_beta 136.809502
_cell_angle_gamma 90.000000
_cell_volume 2885.029826
_symmetry_space_group_name_H-M "C 2/M"
_symmetry_group_IT_number 12
_symmetry_cell_setting 'monoclinic'
loop_
_space_group_symop_operation_xyz
x,y,z
-x,y,-z
-x,-y,-z
x,-y,z
1/2+x,1/2+y,z
1/2-x,1/2+y,-z
1/2-x,1/2-y,-z
1/2+x,1/2-y,z
loop_
_atom_site_type_symbol
_atom_site_label
_atom_site_fract_x
_atom_site_fract_y
_atom_site_fract_z
Si Si1 0.880188 0.171278 0.285427
Si Si2 0.051922 0.826690 0.211600
Si Si3 0.668849 0.175125 0.230164
Si Si4 0.252887 0.667946 0.927441
Si Si5 0.102929 0.832825 0.026124
Si Si6 0.157326 0.171093 0.591594
Si Si7 0.032095 0.175200 0.356499
O O1 0.804479 0.259027 0.187053
O O2 0.890179 0.197520 0.381603
O O3 0.954175 0.234482 0.316705
O O4 0.866592 0.000000 0.253834
O O5 0.126934 0.740927 0.258797
O O6 0.034581 0.770467 0.275929
O O7 0.068608 0.000000 0.228558
O O8 0.980687 0.786569 0.087722
O O9 0.625665 0.225740 0.113939
O O10 0.756444 0.239258 0.318769
O O11 0.666389 0.000000 0.230252
O O12 0.228624 0.500000 0.915501
O O13 0.339144 0.680936 0.983295
O O14 0.250000 0.750000 0.000000
O O15 0.101654 0.000000 0.054971
O O16 0.106365 0.239409 0.474745
O O17 0.168534 0.000000 0.588186
O O18 0.031608 0.000000 0.361569
#
# Coordination Sequence:
#
# PCOD8084160 Si02
#       7
#     8   8   8   8   8   8   8
#     4  10  18  34  59  85 112 144 186 231 278 328
#     4  10  21  37  56  79 108 146 190 232 273 326
#     4  11  22  36  56  84 113 143 183 231 283 332
#     4  11  22  35  55  83 116 150 184 225 277 332
#     4  10  21  38  57  79 109 146 188 228 271 332
#     4   9  18  33  56  86 114 142 185 235 277 327
#     4   9  18  34  58  84 111 147 191 231 272 330
#
# _framework density 19.410543000000001
#
# number of rings (size 3 to 8) (size 9 to 14) (size 15 to 20)
#    0.000    2.000    1.429    2.571    0.000    7.429 
#    0.000    2.143    0.000    5.143    0.000    0.000 
#    0.000    0.000    0.000    0.000    0.000    0.000 
#
# Total GULP energy -347239.679677 kJ/mol
# GULP energy per Si atom -12401.417131 kJ/mol
# Density = 1.936636 g / cm^3
# Si number density = 19.410543 Si / 1000 Ang^3
#
#
#
# Elastic Constant Matrix: (Units=GPa)
#
#
# Indices 1 2 3 4 5 6 
#
# 1 127.8079 30.3925 35.8697 0.0000 7.6614 0.0000
# 2 30.3925 51.2234 25.8434 0.0000 -0.1581 0.0000
# 3 35.8697 25.8434 88.2369 0.0000 5.2509 0.0000
# 4 0.0000 0.0000 0.0000 18.7529 0.0000 -0.9408
# 5 7.6614 -0.1581 5.2509 0.0000 27.3279 0.0000
# 6 0.0000 0.0000 0.0000 -0.9408 0.0000 29.4387
#
#
#
# Elastic Compliance Matrix: (Units=1/GPa)
#
#
# Indices 1 2 3 4 5 6 
#
# 1 0.009738 -0.004524 -0.002498 0.000000 -0.002276 0.000000
# 2 -0.004524 0.025065 -0.005651 0.000000 0.002499 0.000000
# 3 -0.002498 -0.005651 0.014125 0.000000 -0.002046 0.000000
# 4 0.000000 0.000000 0.000000 0.053411 0.000000 0.001707
# 5 -0.002276 0.002499 -0.002046 0.000000 0.037638 0.000000
# 6 0.000000 0.000000 0.000000 0.001707 0.000000 0.034023
#
#
# Mechanical properties :
#
#
# Convention : Reuss Voigt Hill
#
# Bulk Modulus (GPa) = 42.40483 50.16439 46.28461
# Shear Modulus (GPa) = 24.13033 26.78141 25.45587
#
# Velocity S-wave (km/s) = 3.52967 3.71851 3.62532
# Velocity P-wave (km/s) = 6.20525 6.65856 6.43590
#
# Compressibility (1/GPa) = 0.02358222
#
# Stress axis : x y z
#
# Youngs Moduli (GPa) = 102.69443 39.89554 70.79448
#
# Poissons Ratio (x) = 0.18050 0.17684
# Poissons Ratio (y) = 0.46463 0.40005
# Poissons Ratio (z) = 0.25652 0.22544
#
# Static dielectric constant tensor:
#      x y z
#    x 3.720150 0.000000 0.133420 
#    y 0.000000 3.445520 0.000000 
#    z 0.133420 0.000000 4.645020 
# 
# 
# High freq. dielectric constant tensor:
#      x y z
#    x 1.771220 0.000000 0.001150 
#    y 0.000000 1.718370 0.000000 
#    z 0.001150 0.000000 1.763030 
# 
# From -- ./inp_files/288379.got.cif
#   From: 2010.06.25/outbox.cif.g09.slc.cpg/sg12_145_cif.got.tgz:288379.got - 2010.06.28 00:19:55.
