data_PCOD8084801
_publ_section_title
;
Structure prediction by ZEFSAII (Michael W. Deem and Ramdas Pophale) SiO2 
 PCOD8084801
Probable space group: C 2/M
;
_chemical_formula_sum "Si O2"
_cell_formula_units_Z 56
_cell_length_a 26.926748
_cell_length_b 9.307756
_cell_length_c 16.140756
_cell_angle_alpha 90.000000
_cell_angle_beta 113.704064
_cell_angle_gamma 90.000000
_cell_volume 3704.031892
_symmetry_space_group_name_H-M "C 2/M"
_symmetry_group_IT_number 12
_symmetry_cell_setting 'monoclinic'
loop_
_space_group_symop_operation_xyz
x,y,z
-x,y,-z
-x,-y,-z
x,-y,z
1/2+x,1/2+y,z
1/2-x,1/2+y,-z
1/2-x,1/2-y,-z
1/2+x,1/2-y,z
loop_
_atom_site_type_symbol
_atom_site_label
_atom_site_fract_x
_atom_site_fract_y
_atom_site_fract_z
Si Si1 0.190094 0.332893 0.048900
Si Si2 0.898003 0.670503 0.304610
Si Si3 0.055599 0.329881 0.500952
Si Si4 0.987871 0.330094 0.694670
Si Si5 0.796988 0.667528 0.134116
Si Si6 0.515347 0.335053 0.142294
Si Si7 0.913215 0.834193 0.966839
O O1 0.193851 0.500000 0.073051
O O2 0.243291 0.255606 0.120334
O O3 0.138297 0.267182 0.059202
O O4 0.184710 0.305490 0.947594
O O5 0.896305 0.500000 0.297640
O O6 0.897888 0.721217 0.402314
O O7 0.952457 0.723118 0.294239
O O8 0.844679 0.731756 0.224006
O O9 0.053477 0.500000 0.501983
O O10 0.000000 0.267567 0.500000
O O11 0.057627 0.282814 0.405483
O O12 0.987608 0.500000 0.707402
O O13 0.970876 0.258356 0.768654
O O14 0.785460 0.500000 0.142833
O O15 0.512216 0.500000 0.167098
O O16 0.563318 0.311050 0.109031
O O17 0.458176 0.287476 0.064224
O O18 0.896687 0.000000 0.969341
#
# Coordination Sequence:
#
# PCOD8084801 Si02
#       7
#     8   8   8   8   8   8   8
#     4  10  19  29  42  62  85 106 134 173 208 236
#     4   8  13  23  40  61  84 111 142 168 191 232
#     4   7  11  20  36  59  84 108 134 165 198 232
#     4   9  15  24  41  64  87 109 135 168 202 235
#     4   9  17  28  42  60  83 112 141 165 196 241
#     4   9  18  30  43  60  82 109 138 165 198 243
#     4   9  18  32  45  57  79 111 141 166 197 240
#
# _framework density 15.118660999999999
#
# number of rings (size 3 to 8) (size 9 to 14) (size 15 to 20)
#    0.000    3.286    0.000    3.857    0.000    2.857 
#    0.000    2.143    0.000    4.714    0.000    1.000 
#    0.000    0.000    0.000    0.000    0.000    0.000 
#
# Total GULP energy -346904.852411 kJ/mol
# GULP energy per Si atom -12389.459015 kJ/mol
# Density = 1.508425 g / cm^3
# Si number density = 15.118661 Si / 1000 Ang^3
#
#
#
# Elastic Constant Matrix: (Units=GPa)
#
#
# Indices 1 2 3 4 5 6 
#
# 1 75.1139 34.9574 41.7456 0.0000 8.7667 0.0000
# 2 34.9574 45.2571 36.7274 0.0000 0.5026 0.0000
# 3 41.7456 36.7274 129.0917 0.0000 7.6738 0.0000
# 4 0.0000 0.0000 0.0000 15.4808 0.0000 0.0535
# 5 8.7667 0.5026 7.6738 0.0000 22.4575 0.0000
# 6 0.0000 0.0000 0.0000 0.0535 0.0000 18.6930
#
#
#
# Elastic Compliance Matrix: (Units=1/GPa)
#
#
# Indices 1 2 3 4 5 6 
#
# 1 0.022825 -0.015507 -0.002511 0.000000 -0.007705 0.000000
# 2 -0.015507 0.039370 -0.006629 0.000000 0.007437 0.000000
# 3 -0.002511 -0.006629 0.010592 0.000000 -0.002491 0.000000
# 4 0.000000 0.000000 0.000000 0.064597 0.000000 -0.000185
# 5 -0.007705 0.007437 -0.002491 0.000000 0.048221 0.000000
# 6 0.000000 0.000000 0.000000 -0.000185 0.000000 0.053497
#
#
# Mechanical properties :
#
#
# Convention : Reuss Voigt Hill
#
# Bulk Modulus (GPa) = 42.56348 52.92484 47.74416
# Shear Modulus (GPa) = 16.87894 20.39507 18.63701
#
# Velocity S-wave (km/s) = 3.34493 3.67686 3.51481
# Velocity P-wave (km/s) = 6.56751 7.28752 6.93686
#
# Compressibility (1/GPa) = 0.02349432
#
# Stress axis : x y z
#
# Youngs Moduli (GPa) = 43.81208 25.39974 94.40644
#
# Poissons Ratio (x) = 0.39387 0.23708
# Poissons Ratio (y) = 0.67938 0.62579
# Poissons Ratio (z) = 0.11002 0.16837
#
# Static dielectric constant tensor:
#      x y z
#    x 2.684380 0.000000 0.141650 
#    y 0.000000 2.652410 0.000000 
#    z 0.141650 0.000000 3.249100 
# 
# 
# High freq. dielectric constant tensor:
#      x y z
#    x 1.547810 0.000000 0.004870 
#    y 0.000000 1.555760 0.000000 
#    z 0.004870 0.000000 1.584910 
# 
# From -- ./inp_files/243280.got.cif
#   From: 2010.06.25/outbox.cif.g09.slc.cpg/sg12_122_cif.got.tgz:243280.got - 2010.06.28 00:19:55.
