data_PCOD8084573
_publ_section_title
;
Structure prediction by ZEFSAII (Michael W. Deem and Ramdas Pophale) SiO2 
 PCOD8084573
Probable space group: C 2/M
;
_chemical_formula_sum "Si O2"
_cell_formula_units_Z 56
_cell_length_a 27.056023
_cell_length_b 16.288202
_cell_length_c 8.876392
_cell_angle_alpha 90.000000
_cell_angle_beta 50.508386
_cell_angle_gamma 90.000000
_cell_volume 3018.783905
_symmetry_space_group_name_H-M "C 2/M"
_symmetry_group_IT_number 12
_symmetry_cell_setting 'monoclinic'
loop_
_space_group_symop_operation_xyz
x,y,z
-x,y,-z
-x,-y,-z
x,-y,z
1/2+x,1/2+y,z
1/2-x,1/2+y,-z
1/2-x,1/2-y,-z
1/2+x,1/2-y,z
loop_
_atom_site_type_symbol
_atom_site_label
_atom_site_fract_x
_atom_site_fract_y
_atom_site_fract_z
Si Si1 0.385606 0.723737 0.975158
Si Si2 0.667259 0.908356 0.452690
Si Si3 0.880909 0.836116 0.436932
Si Si4 0.282034 0.665763 0.381104
Si Si5 0.008135 0.092777 0.160203
Si Si6 0.178579 0.263653 0.196720
Si Si7 0.572103 0.818719 0.829875
O O1 0.320433 0.679088 0.151665
O O2 0.397296 0.798494 0.067545
O O3 0.443511 0.657763 0.858175
O O4 0.373641 0.763994 0.835713
O O5 0.727653 0.899309 0.447514
O O6 0.671951 0.848117 0.301122
O O7 0.606011 0.893496 0.678140
O O8 0.664156 0.000000 0.393860
O O9 0.830833 0.870808 0.410571
O O10 0.839386 0.812897 0.662375
O O11 0.920376 0.759514 0.293058
O O12 0.936578 0.901031 0.371330
O O13 0.250000 0.750000 0.500000
O O14 0.033682 0.000000 0.136194
O O15 0.000000 0.113637 0.000000
O O16 0.250000 0.250000 0.000000
O O17 0.500000 0.844634 0.000000
#
# Coordination Sequence:
#
# PCOD8084573 Si02
#       7
#     8   8   8   8   8   8   8
#     4  11  19  35  61  86 113 161 202 227 289 353
#     4  11  24  39  60  89 118 149 194 255 300 332
#     4  10  19  35  58  88 118 157 199 232 286 349
#     4  11  17  34  62  86 112 150 205 240 275 353
#     4  11  21  36  59  94 127 150 195 254 294 340
#     4  11  22  38  60  82 117 162 197 235 283 360
#     4  10  18  37  63  85 110 149 203 242 279 354
#
# _framework density 18.550515999999998
#
# number of rings (size 3 to 8) (size 9 to 14) (size 15 to 20)
#    0.000    1.286   10.000    0.000    0.000    2.000 
#    0.000    2.857    0.000    0.857    0.000    0.000 
#    0.000    0.000    0.000    0.000    0.000    0.000 
#
# Total GULP energy -347102.046591 kJ/mol
# GULP energy per Si atom -12396.501664 kJ/mol
# Density = 1.850829 g / cm^3
# Si number density = 18.550516 Si / 1000 Ang^3
#
#
#
# Elastic Constant Matrix: (Units=GPa)
#
#
# Indices 1 2 3 4 5 6 
#
# 1 109.1852 47.5525 58.2636 0.0000 -3.8325 0.0000
# 2 47.5525 85.3700 39.1963 0.0000 2.9105 0.0000
# 3 58.2636 39.1963 124.6962 0.0000 -11.1741 0.0000
# 4 0.0000 0.0000 0.0000 16.5137 0.0000 -0.8149
# 5 -3.8325 2.9105 -11.1741 0.0000 36.7856 0.0000
# 6 0.0000 0.0000 0.0000 -0.8149 0.0000 20.9095
#
#
#
# Elastic Compliance Matrix: (Units=1/GPa)
#
#
# Indices 1 2 3 4 5 6 
#
# 1 0.014241 -0.005742 -0.004806 0.000000 0.000478 0.000000
# 2 -0.005742 0.016224 -0.002658 0.000000 -0.002689 0.000000
# 3 -0.004806 -0.002658 0.011385 0.000000 0.003168 0.000000
# 4 0.000000 0.000000 0.000000 0.060672 0.000000 0.002365
# 5 0.000478 -0.002689 0.003168 0.000000 0.028409 0.000000
# 6 0.000000 0.000000 0.000000 0.002365 0.000000 0.047917
#
#
# Mechanical properties :
#
#
# Convention : Reuss Voigt Hill
#
# Bulk Modulus (GPa) = 64.77814 67.69738 66.23776
# Shear Modulus (GPa) = 23.76347 26.45769 25.11058
#
# Velocity S-wave (km/s) = 3.58301 3.78067 3.68317
# Velocity P-wave (km/s) = 7.21893 7.45860 7.33974
#
# Compressibility (1/GPa) = 0.01543731
#
# Stress axis : x y z
#
# Youngs Moduli (GPa) = 70.21946 61.63658 87.83858
#
# Poissons Ratio (x) = 0.35392 0.42218
# Poissons Ratio (y) = 0.40321 0.23346
# Poissons Ratio (z) = 0.33750 0.16382
#
# Static dielectric constant tensor:
#      x y z
#    x 3.619640 0.000000 -0.157480 
#    y 0.000000 3.116640 0.000000 
#    z -0.157480 0.000000 3.611070 
# 
# 
# High freq. dielectric constant tensor:
#      x y z
#    x 1.722040 0.000000 -0.015760 
#    y 0.000000 1.680910 0.000000 
#    z -0.015760 0.000000 1.726900 
# 
# From -- ./inp_files/105545.got.cif
#   From: 2010.06.25/outbox.cif.g09.slc.cpg/sg12_53_cif.got.tgz:105545.got - 2010.06.28 00:19:55.
