data_PCOD8084395
_publ_section_title
;
Structure prediction by ZEFSAII (Michael W. Deem and Ramdas Pophale) SiO2 
 PCOD8084395
Probable space group: C 2/M
;
_chemical_formula_sum "Si O2"
_cell_formula_units_Z 56
_cell_length_a 15.277396
_cell_length_b 8.579146
_cell_length_c 24.172306
_cell_angle_alpha 90.000000
_cell_angle_beta 117.531730
_cell_angle_gamma 90.000000
_cell_volume 2809.409950
_symmetry_space_group_name_H-M "C 2/M"
_symmetry_group_IT_number 12
_symmetry_cell_setting 'monoclinic'
loop_
_space_group_symop_operation_xyz
x,y,z
-x,y,-z
-x,-y,-z
x,-y,z
1/2+x,1/2+y,z
1/2-x,1/2+y,-z
1/2-x,1/2-y,-z
1/2+x,1/2-y,z
loop_
_atom_site_type_symbol
_atom_site_label
_atom_site_fract_x
_atom_site_fract_y
_atom_site_fract_z
Si Si1 0.605854 0.678385 0.503238
Si Si2 0.674265 0.316184 0.933587
Si Si3 0.758347 0.320001 0.368453
Si Si4 0.740214 0.682840 0.151191
Si Si5 0.654934 0.682139 0.714017
Si Si6 0.937131 0.182111 0.629886
Si Si7 0.521738 0.685063 0.067301
O O1 0.500000 0.689154 0.500000
O O2 0.644210 0.500000 0.514518
O O3 0.682185 0.786053 0.558260
O O4 0.598051 0.751263 0.439316
O O5 0.680202 0.500000 0.939194
O O6 0.697051 0.263117 0.878482
O O7 0.563886 0.256782 0.916212
O O8 0.750000 0.250000 0.000000
O O9 0.772813 0.500000 0.355841
O O10 0.794079 0.208045 0.330201
O O11 0.643009 0.283259 0.346102
O O12 0.741528 0.500000 0.140493
O O13 0.787004 0.720527 0.223597
O O14 0.627981 0.747521 0.118533
O O15 0.658266 0.500000 0.729950
O O16 0.543131 0.749093 0.679596
O O17 0.952152 0.000000 0.623586
O O18 0.523087 0.500000 0.065525
O O19 0.500000 0.752935 0.000000
#
# Coordination Sequence:
#
# PCOD8084395 Si02
#       7
#     8   8   8   8   8   8   8
#     4  10  18  35  61  86 115 156 197 237 293 354
#     4  11  21  37  62  91 119 154 193 235 287 346
#     4  11  22  37  59  89 118 149 196 249 295 339
#     4  11  23  41  62  88 120 153 196 245 289 344
#     4  11  23  43  62  81 115 161 201 235 289 357
#     4   9  20  38  60  83 116 159 197 235 292 360
#     4   9  18  36  61  86 117 157 189 222 287 358
#
# _framework density 19.933009999999999
#
# number of rings (size 3 to 8) (size 9 to 14) (size 15 to 20)
#    0.000    1.714    2.857    2.143    0.000    1.429 
#    0.000   12.857    0.000    0.000    0.000    0.000 
#    0.000    0.000    0.000    0.000    0.000    0.000 
#
# Total GULP energy -347257.067936 kJ/mol
# GULP energy per Si atom -12402.038141 kJ/mol
# Density = 1.988764 g / cm^3
# Si number density = 19.933010 Si / 1000 Ang^3
#
#
#
# Elastic Constant Matrix: (Units=GPa)
#
#
# Indices 1 2 3 4 5 6 
#
# 1 158.0769 28.2770 59.4816 0.0000 14.4758 0.0000
# 2 28.2770 41.1478 9.4322 0.0000 3.4744 0.0000
# 3 59.4816 9.4322 122.8836 0.0000 18.1760 0.0000
# 4 0.0000 0.0000 0.0000 33.7972 0.0000 -3.5585
# 5 14.4758 3.4744 18.1760 0.0000 18.5396 0.0000
# 6 0.0000 0.0000 0.0000 -3.5585 0.0000 25.7105
#
#
#
# Elastic Compliance Matrix: (Units=1/GPa)
#
#
# Indices 1 2 3 4 5 6 
#
# 1 0.008763 -0.005013 -0.003490 0.000000 -0.002481 0.000000
# 2 -0.005013 0.027773 0.000568 0.000000 -0.001848 0.000000
# 3 -0.003490 0.000568 0.010990 0.000000 -0.008156 0.000000
# 4 0.000000 0.000000 0.000000 0.030026 0.000000 0.004156
# 5 -0.002481 -0.001848 -0.008156 0.000000 0.064218 0.000000
# 6 0.000000 0.000000 0.000000 0.004156 0.000000 0.039470
#
#
# Mechanical properties :
#
#
# Convention : Reuss Voigt Hill
#
# Bulk Modulus (GPa) = 31.58891 57.38775 44.48833
# Shear Modulus (GPa) = 24.07766 30.60398 27.34082
#
# Velocity S-wave (km/s) = 3.47930 3.92259 3.70758
# Velocity P-wave (km/s) = 5.65885 7.02627 6.37931
#
# Compressibility (1/GPa) = 0.03165668
#
# Stress axis : x y z
#
# Youngs Moduli (GPa) = 114.11431 36.00603 90.99293
#
# Poissons Ratio (x) = 0.18048 0.31757
# Poissons Ratio (y) = 0.57200 -0.05167
# Poissons Ratio (z) = 0.39826 -0.02045
#
# Static dielectric constant tensor:
#      x y z
#    x 4.091820 0.000000 0.367770 
#    y 0.000000 3.373150 0.000000 
#    z 0.367770 0.000000 4.162290 
# 
# 
# High freq. dielectric constant tensor:
#      x y z
#    x 1.794680 0.000000 0.002560 
#    y 0.000000 1.753400 0.000000 
#    z 0.002560 0.000000 1.776360 
# 
# From -- ./inp_files/339041.got.cif
#   From: 2010.06.25/outbox.cif.g09.slc.cpg/sg12_170_cif.got.tgz:339041.got - 2010.06.28 00:19:55.
