data_PCOD8084995
_publ_section_title
;
Structure prediction by ZEFSAII (Michael W. Deem and Ramdas Pophale) SiO2 
 PCOD8084995
Probable space group: C 2/M
;
_chemical_formula_sum "Si O2"
_cell_formula_units_Z 48
_cell_length_a 27.040987
_cell_length_b 9.504250
_cell_length_c 11.715930
_cell_angle_alpha 90.000000
_cell_angle_beta 71.326894
_cell_angle_gamma 90.000000
_cell_volume 2852.545024
_symmetry_space_group_name_H-M "C 2/M"
_symmetry_group_IT_number 12
_symmetry_cell_setting 'monoclinic'
loop_
_space_group_symop_operation_xyz
x,y,z
-x,y,-z
-x,-y,-z
x,-y,z
1/2+x,1/2+y,z
1/2-x,1/2+y,-z
1/2-x,1/2-y,-z
1/2+x,1/2-y,z
loop_
_atom_site_type_symbol
_atom_site_label
_atom_site_fract_x
_atom_site_fract_y
_atom_site_fract_z
Si Si1 0.394787 0.658864 0.751440
Si Si2 0.926971 0.660234 0.278522
Si Si3 0.445533 0.661377 0.486136
Si Si4 0.958830 0.657935 0.859864
Si Si5 0.302779 0.332559 0.982307
Si Si6 0.871216 0.663405 0.098440
O O1 0.406150 0.500000 0.779641
O O2 0.398024 0.677194 0.612391
O O3 0.442264 0.746481 0.766828
O O4 0.339017 0.703438 0.845638
O O5 0.921719 0.500000 0.324544
O O6 0.926131 0.756038 0.390171
O O7 0.879612 0.697360 0.226599
O O8 0.979801 0.680429 0.165664
O O9 0.500000 0.718843 0.500000
O O10 0.453873 0.500000 0.443849
O O11 0.946451 0.500000 0.830413
O O12 0.926543 0.694795 0.996921
O O13 0.293575 0.500000 0.003957
O O14 0.250000 0.250000 0.000000
O O15 0.328045 0.268481 0.078884
O O16 0.854279 0.500000 0.093888
#
# Coordination Sequence:
#
# PCOD8084995 Si02
#       6
#     8   8   8   8   8   8
#     4   9  18  32  48  70  98 129 164 200 238 283
#     4  10  19  29  45  70 101 135 167 199 235 279
#     4  10  19  31  47  67  99 139 171 197 230 278
#     4   9  16  27  45  68  97 132 165 197 234 281
#     4  10  20  35  56  77  96 120 157 205 254 297
#     4   9  18  32  48  70 100 130 161 199 245 291
#
# _framework density 16.827079000000001
#
# number of rings (size 3 to 8) (size 9 to 14) (size 15 to 20)
#    0.000    2.500    1.667    1.000    0.000    4.333 
#    0.000    0.000    0.000    6.000    0.000    0.000 
#    0.000    0.000    0.000    0.000    0.000    0.000 
#
# Total GULP energy -297450.825743 kJ/mol
# GULP energy per Si atom -12393.784406 kJ/mol
# Density = 1.678878 g / cm^3
# Si number density = 16.827079 Si / 1000 Ang^3
#
#
#
# Elastic Constant Matrix: (Units=GPa)
#
#
# Indices 1 2 3 4 5 6 
#
# 1 95.3735 54.4801 49.4380 0.0000 12.0814 0.0000
# 2 54.4801 79.3134 46.2357 0.0000 14.5984 0.0000
# 3 49.4380 46.2357 83.4607 0.0000 18.1331 0.0000
# 4 0.0000 0.0000 0.0000 28.6071 0.0000 5.0551
# 5 12.0814 14.5984 18.1331 0.0000 21.4785 0.0000
# 6 0.0000 0.0000 0.0000 5.0551 0.0000 23.8427
#
#
#
# Elastic Compliance Matrix: (Units=1/GPa)
#
#
# Indices 1 2 3 4 5 6 
#
# 1 0.019096 -0.009725 -0.006156 0.000000 0.001065 0.000000
# 2 -0.009725 0.023993 -0.006340 0.000000 -0.005485 0.000000
# 3 -0.006156 -0.006340 0.021372 0.000000 -0.010272 0.000000
# 4 0.000000 0.000000 0.000000 0.036317 0.000000 -0.007700
# 5 0.001065 -0.005485 -0.010272 0.000000 0.058359 0.000000
# 6 0.000000 0.000000 0.000000 -0.007700 0.000000 0.043574
#
#
# Mechanical properties :
#
#
# Convention : Reuss Voigt Hill
#
# Bulk Modulus (GPa) = 49.94734 62.05059 55.99897
# Shear Modulus (GPa) = 19.69859 21.98523 20.84191
#
# Velocity S-wave (km/s) = 3.42519 3.61853 3.52318
# Velocity P-wave (km/s) = 6.73719 7.37657 7.06412
#
# Compressibility (1/GPa) = 0.02002108
#
# Stress axis : x y z
#
# Youngs Moduli (GPa) = 52.36697 41.67810 46.79065
#
# Poissons Ratio (x) = 0.40530 0.28803
# Poissons Ratio (y) = 0.50925 0.29664
# Poissons Ratio (z) = 0.32236 0.26423
#
# Static dielectric constant tensor:
#      x y z
#    x 2.997840 0.000000 0.022270 
#    y 0.000000 3.217310 0.000000 
#    z 0.022270 0.000000 3.189930 
# 
# 
# High freq. dielectric constant tensor:
#      x y z
#    x 1.621300 0.000000 0.005970 
#    y 0.000000 1.651640 0.000000 
#    z 0.005970 0.000000 1.640890 
# 
# From -- ./inp_files/102007.got.cif
#   From: 2010.06.25/outbox.cif.g09.slc.cpg/sg12_52_cif.got.tgz:102007.got - 2010.06.28 00:19:55.
