data_PCOD8084913
_publ_section_title
;
Structure prediction by ZEFSAII (Michael W. Deem and Ramdas Pophale) SiO2 
 PCOD8084913
Probable space group: C 2/M
;
_chemical_formula_sum "Si O2"
_cell_formula_units_Z 64
_cell_length_a 25.354405
_cell_length_b 9.475444
_cell_length_c 21.251367
_cell_angle_alpha 90.000000
_cell_angle_beta 127.411155
_cell_angle_gamma 90.000000
_cell_volume 4055.294824
_symmetry_space_group_name_H-M "C 2/M"
_symmetry_group_IT_number 12
_symmetry_cell_setting 'monoclinic'
loop_
_space_group_symop_operation_xyz
x,y,z
-x,y,-z
-x,-y,-z
x,-y,z
1/2+x,1/2+y,z
1/2-x,1/2+y,-z
1/2-x,1/2-y,-z
1/2+x,1/2-y,z
loop_
_atom_site_type_symbol
_atom_site_label
_atom_site_fract_x
_atom_site_fract_y
_atom_site_fract_z
Si Si1 0.448824 0.334003 0.909096
Si Si2 0.500195 0.334682 0.190641
Si Si3 0.236736 0.663153 0.349050
Si Si4 0.649737 0.335734 0.922816
Si Si5 0.184573 0.337776 0.178177
Si Si6 0.393581 0.159570 0.666645
Si Si7 0.299333 0.163750 0.492004
Si Si8 0.269826 0.838240 0.924376
O O1 0.435621 0.500000 0.902199
O O2 0.478352 0.286898 0.863502
O O3 0.379902 0.257875 0.871442
O O4 0.500000 0.286545 0.000000
O O5 0.509827 0.500000 0.206730
O O6 0.424498 0.287725 0.147859
O O7 0.544400 0.259749 0.275491
O O8 0.255264 0.500000 0.374543
O O9 0.230707 0.699754 0.271141
O O10 0.166919 0.701343 0.331227
O O11 0.295360 0.761884 0.420531
O O12 0.651000 0.500000 0.941133
O O13 0.696922 0.298666 0.897853
O O14 0.673689 0.254899 0.002167
O O15 0.161032 0.500000 0.165353
O O16 0.229638 0.309323 0.149635
O O17 0.371680 0.175449 0.577366
O O18 0.415633 0.000000 0.696854
O O19 0.250000 0.250000 0.500000
O O20 0.277615 0.000000 0.471430
O O21 0.286608 0.000000 0.952142
#
# Coordination Sequence:
#
# PCOD8084913 Si02
#       8
#     8   8   8   8   8   8   8   8
#     4  10  20  31  42  61  90 122 152 180 218 268
#     4  10  19  29  44  65  89 119 150 182 222 265
#     4   9  17  29  43  63  91 119 146 182 221 262
#     4   9  18  33  49  66  89 115 150 195 231 262
#     4  10  19  31  46  66  91 118 150 185 224 268
#     4   9  17  29  43  62  90 119 145 180 218 260
#     4   9  17  28  43  63  88 119 150 180 217 261
#     4   9  18  32  50  68  86 115 153 191 231 268
#
# _framework density 15.781836
#
# number of rings (size 3 to 8) (size 9 to 14) (size 15 to 20)
#    0.000    2.625    1.250    1.875    0.000    5.250 
#    0.000    0.000    0.000    0.000    0.000    0.875 
#    0.000    7.000    0.000    0.000    0.000    0.000 
#
# Total GULP energy -396737.241654 kJ/mol
# GULP energy per Si atom -12398.038802 kJ/mol
# Density = 1.574592 g / cm^3
# Si number density = 15.781836 Si / 1000 Ang^3
#
#
#
# Elastic Constant Matrix: (Units=GPa)
#
#
# Indices 1 2 3 4 5 6 
#
# 1 65.9395 30.0685 50.9671 0.0000 -1.8701 0.0000
# 2 30.0685 56.3537 55.8716 0.0000 -0.1281 0.0000
# 3 50.9671 55.8716 131.7802 0.0000 -4.4255 0.0000
# 4 0.0000 0.0000 0.0000 31.8523 0.0000 3.2931
# 5 -1.8701 -0.1281 -4.4255 0.0000 18.3705 0.0000
# 6 0.0000 0.0000 0.0000 3.2931 0.0000 17.3011
#
#
#
# Elastic Compliance Matrix: (Units=1/GPa)
#
#
# Indices 1 2 3 4 5 6 
#
# 1 0.022719 -0.005925 -0.006249 0.000000 0.000766 0.000000
# 2 -0.005925 0.032316 -0.011516 0.000000 -0.003152 0.000000
# 3 -0.006249 -0.011516 0.014985 0.000000 0.002893 0.000000
# 4 0.000000 0.000000 0.000000 0.032025 0.000000 -0.006096
# 5 0.000766 -0.003152 0.002893 0.000000 0.055188 0.000000
# 6 0.000000 0.000000 0.000000 -0.006096 0.000000 0.058960
#
#
# Mechanical properties :
#
#
# Convention : Reuss Voigt Hill
#
# Bulk Modulus (GPa) = 44.16763 58.65423 51.41093
# Shear Modulus (GPa) = 18.44203 21.31586 19.87895
#
# Velocity S-wave (km/s) = 3.42213 3.67912 3.55295
# Velocity P-wave (km/s) = 6.60770 7.43601 7.03406
#
# Compressibility (1/GPa) = 0.02264102
#
# Stress axis : x y z
#
# Youngs Moduli (GPa) = 44.01605 30.94404 66.73404
#
# Poissons Ratio (x) = 0.18334 0.41703
# Poissons Ratio (y) = 0.26078 0.76849
# Poissons Ratio (z) = 0.27506 0.35634
#
# Static dielectric constant tensor:
#      x y z
#    x 2.830580 0.000000 -0.112610 
#    y 0.000000 3.078310 0.000000 
#    z -0.112610 0.000000 3.302890 
# 
# 
# High freq. dielectric constant tensor:
#      x y z
#    x 1.568870 0.000000 -0.005640 
#    y 0.000000 1.610840 0.000000 
#    z -0.005640 0.000000 1.610040 
# 
# From -- ./inp_files/326892.got.cif
#   From: 2010.06.25/outbox.cif.g09.slc.cpg/sg12_164_cif.got.tgz:326892.got - 2010.06.28 00:19:55.
