data_PCOD8084006
_publ_section_title
;
Structure prediction by ZEFSAII (Michael W. Deem and Ramdas Pophale) SiO2 
 PCOD8084006
Probable space group: C 2/M
;
_chemical_formula_sum "Si O2"
_cell_formula_units_Z 64
_cell_length_a 23.093775
_cell_length_b 23.682598
_cell_length_c 12.228955
_cell_angle_alpha 90.000000
_cell_angle_beta 147.948778
_cell_angle_gamma 90.000000
_cell_volume 3549.310960
_symmetry_space_group_name_H-M "C 2/M"
_symmetry_group_IT_number 12
_symmetry_cell_setting 'monoclinic'
loop_
_space_group_symop_operation_xyz
x,y,z
-x,y,-z
-x,-y,-z
x,-y,z
1/2+x,1/2+y,z
1/2-x,1/2+y,-z
1/2-x,1/2-y,-z
1/2+x,1/2-y,z
loop_
_atom_site_type_symbol
_atom_site_label
_atom_site_fract_x
_atom_site_fract_y
_atom_site_fract_z
Si Si1 0.227269 0.565245 0.733722
Si Si2 0.884464 0.151150 0.372977
Si Si3 0.787199 0.639465 0.093990
Si Si4 0.989687 0.378167 0.664854
Si Si5 0.317933 0.435160 0.444161
Si Si6 0.564584 0.063964 0.995052
Si Si7 0.602822 0.774595 0.589528
Si Si8 0.620954 0.432912 0.217671
O O1 0.252993 0.500000 0.788559
O O2 0.265886 0.594412 0.907964
O O3 0.295846 0.590496 0.741092
O O4 0.098572 0.574844 0.509780
O O5 0.881742 0.102496 0.458916
O O6 0.863957 0.212107 0.399002
O O7 0.000000 0.145809 0.500000
O O8 0.788867 0.144685 0.131770
O O9 0.908148 0.618309 0.253847
O O10 0.800131 0.698268 0.181556
O O11 0.930868 0.316607 0.563507
O O12 0.029502 0.389857 0.850597
O O13 0.357194 0.500000 0.493785
O O14 0.190802 0.429549 0.220273
O O15 0.342688 0.411604 0.604776
O O16 0.537122 0.000000 0.911839
O O17 0.500000 0.079137 0.000000
O O18 0.500000 0.763453 0.500000
O O19 0.623978 0.500000 0.220489
O O20 0.500000 0.409705 0.000000
#
# Coordination Sequence:
#
# PCOD8084006 Si02
#       8
#     8   8   8   8   8   8   8   8
#     4  10  20  32  53  82 110 142 181 221 269 327
#     4  11  22  36  55  80 108 146 183 223 272 325
#     4  10  20  34  54  82 110 141 174 227 279 319
#     4  10  18  34  55  82 112 141 177 226 276 320
#     4  10  21  36  54  81 111 143 182 222 271 327
#     4  10  19  32  55  84 115 148 179 216 272 336
#     4   8  18  35  56  78 104 140 187 222 265 326
#     4   9  19  36  55  72 102 150 190 219 253 310
#
# _framework density 18.031669999999998
#
# number of rings (size 3 to 8) (size 9 to 14) (size 15 to 20)
#    0.000    2.250    1.250    2.625    1.750    4.250 
#    0.000    0.000    0.000    7.500    0.000    0.000 
#    0.000    0.000    0.000    0.000    0.000    0.000 
#
# Total GULP energy -396695.720647 kJ/mol
# GULP energy per Si atom -12396.741270 kJ/mol
# Density = 1.799063 g / cm^3
# Si number density = 18.031670 Si / 1000 Ang^3
#
#
#
# Elastic Constant Matrix: (Units=GPa)
#
#
# Indices 1 2 3 4 5 6 
#
# 1 106.8094 58.0726 37.8410 0.0000 -9.3078 0.0000
# 2 58.0726 93.3878 36.1674 0.0000 -16.1430 0.0000
# 3 37.8410 36.1674 87.6812 0.0000 -17.3618 0.0000
# 4 0.0000 0.0000 0.0000 21.4936 0.0000 -1.3069
# 5 -9.3078 -16.1430 -17.3618 0.0000 32.0867 0.0000
# 6 0.0000 0.0000 0.0000 -1.3069 0.0000 12.3073
#
#
#
# Elastic Compliance Matrix: (Units=1/GPa)
#
#
# Indices 1 2 3 4 5 6 
#
# 1 0.014889 -0.008245 -0.003350 0.000000 -0.001642 0.000000
# 2 -0.008245 0.017784 -0.002777 0.000000 0.005053 0.000000
# 3 -0.003350 -0.002777 0.015150 0.000000 0.005829 0.000000
# 4 0.000000 0.000000 0.000000 0.046828 0.000000 0.004972
# 5 -0.001642 0.005053 0.005829 0.000000 0.036386 0.000000
# 6 0.000000 0.000000 0.000000 0.004972 0.000000 0.081781
#
#
# Mechanical properties :
#
#
# Convention : Reuss Voigt Hill
#
# Bulk Modulus (GPa) = 52.41103 61.33782 56.87443
# Shear Modulus (GPa) = 20.16772 23.56400 21.86586
#
# Velocity S-wave (km/s) = 3.34797 3.61891 3.48607
# Velocity P-wave (km/s) = 6.63885 7.18001 6.91473
#
# Compressibility (1/GPa) = 0.01907995
#
# Stress axis : x y z
#
# Youngs Moduli (GPa) = 67.16308 56.23002 66.00567
#
# Poissons Ratio (x) = 0.46363 0.22111
# Poissons Ratio (y) = 0.55377 0.18328
# Poissons Ratio (z) = 0.22498 0.15614
#
# Static dielectric constant tensor:
#      x y z
#    x 3.345840 0.000000 -0.023320 
#    y 0.000000 3.398570 0.000000 
#    z -0.023320 0.000000 3.455820 
# 
# 
# High freq. dielectric constant tensor:
#      x y z
#    x 1.689870 0.000000 0.000780 
#    y 0.000000 1.678690 0.000000 
#    z 0.000780 0.000000 1.707280 
# 
# From -- ./inp_files/178429.got.cif
#   From: 2010.06.25/outbox.cif.g09.slc.cpg/sg12_90_cif.got.tgz:178429.got - 2010.06.28 00:19:55.
