data_PCOD8084067
_publ_section_title
;
Structure prediction by ZEFSAII (Michael W. Deem and Ramdas Pophale) SiO2 
 PCOD8084067
Probable space group: C 2/M
;
_chemical_formula_sum "Si O2"
_cell_formula_units_Z 48
_cell_length_a 23.666044
_cell_length_b 15.136949
_cell_length_c 10.714161
_cell_angle_alpha 90.000000
_cell_angle_beta 36.150597
_cell_angle_gamma 90.000000
_cell_volume 2264.162977
_symmetry_space_group_name_H-M "C 2/M"
_symmetry_group_IT_number 12
_symmetry_cell_setting 'monoclinic'
loop_
_space_group_symop_operation_xyz
x,y,z
-x,y,-z
-x,-y,-z
x,-y,z
1/2+x,1/2+y,z
1/2-x,1/2+y,-z
1/2-x,1/2-y,-z
1/2+x,1/2-y,z
loop_
_atom_site_type_symbol
_atom_site_label
_atom_site_fract_x
_atom_site_fract_y
_atom_site_fract_z
Si Si1 0.559287 0.657142 0.006515
Si Si2 0.450006 0.137633 0.709201
Si Si3 0.056381 0.839904 0.285608
Si Si4 0.027899 0.352182 0.821643
Si Si5 0.773279 0.396269 0.624812
Si Si6 0.240713 0.600552 0.067482
O O1 0.540928 0.613087 0.176980
O O2 0.524462 0.757699 0.076281
O O3 0.500000 0.609263 0.000000
O O4 0.672009 0.650121 0.773661
O O5 0.500000 0.091264 0.500000
O O6 0.480339 0.239926 0.658800
O O7 0.486424 0.095258 0.774678
O O8 0.336707 0.123063 0.900011
O O9 0.000000 0.888066 0.500000
O O10 0.168101 0.838205 0.121610
O O11 0.143592 0.348414 0.603829
O O12 0.000000 0.402840 0.000000
O O13 0.767199 0.500000 0.602638
O O14 0.800942 0.381136 0.720317
O O15 0.275571 0.500000 0.993777
#
# Coordination Sequence:
#
# PCOD8084067 Si02
#       6
#     8   8   8   8   8   8
#     4   9  20  38  59  83 110 151 192 224 274 343
#     4  10  18  34  57  81 104 141 186 223 267 330
#     4   9  19  35  55  82 109 138 179 236 275 312
#     4  10  21  37  57  85 115 145 184 238 283 322
#     4  10  21  38  59  83 116 153 185 227 285 339
#     4  10  20  34  55  80 109 147 182 219 275 337
#
# _framework density 21.199887
#
# number of rings (size 3 to 8) (size 9 to 14) (size 15 to 20)
#    0.000    2.333    1.667    0.500    0.000    4.667 
#    3.000    0.000    0.000    0.000    0.000    0.000 
#    0.000    0.000    0.000    0.000    0.000    0.000 
#
# Total GULP energy -297378.526464 kJ/mol
# GULP energy per Si atom -12390.771936 kJ/mol
# Density = 2.115163 g / cm^3
# Si number density = 21.199887 Si / 1000 Ang^3
#
#
#
# Elastic Constant Matrix: (Units=GPa)
#
#
# Indices 1 2 3 4 5 6 
#
# 1 193.4478 -0.1499 95.2426 0.0000 8.5804 0.0000
# 2 -0.1499 46.9342 22.9990 0.0000 -3.6370 0.0000
# 3 95.2426 22.9990 174.5743 0.0000 7.4899 0.0000
# 4 0.0000 0.0000 0.0000 -2.1208 0.0000 3.4608
# 5 8.5804 -3.6370 7.4899 0.0000 38.9227 0.0000
# 6 0.0000 0.0000 0.0000 3.4608 0.0000 -0.7841
#
#
#
# Elastic Compliance Matrix: (Units=1/GPa)
#
#
# Indices 1 2 3 4 5 6 
#
# 1 0.007270 0.002039 -0.004209 0.000000 -0.000602 0.000000
# 2 0.002039 0.023640 -0.004338 0.000000 0.002594 0.000000
# 3 -0.004209 -0.004338 0.008645 0.000000 -0.001141 0.000000
# 4 0.000000 0.000000 0.000000 0.076019 0.000000 0.335534
# 5 -0.000602 0.002594 -0.001141 0.000000 0.026287 0.000000
# 6 0.000000 0.000000 0.000000 0.335534 0.000000 0.205617
#
#
# Mechanical properties :
#
#
# Convention : Reuss Voigt Hill
#
# Bulk Modulus (GPa) = 37.68107 72.34887 55.01497
# Shear Modulus (GPa) = 13.53764 26.99453 20.26609
#
# Velocity S-wave (km/s) = 2.52974 3.57225 3.09520
# Velocity P-wave (km/s) = 5.13279 7.15652 6.22741
#
# Compressibility (1/GPa) = 0.02653852
#
# Stress axis : x y z
#
# Youngs Moduli (GPa) = 137.55257 42.30157 115.67319
#
# Poissons Ratio (x) = -0.08626 0.48688
# Poissons Ratio (y) = -0.28049 0.50181
# Poissons Ratio (z) = 0.57897 0.18351
#
# Static dielectric constant tensor:
#      x y z
#    x 4.755000 0.000000 0.466430 
#    y 0.000000 3.325790 0.000000 
#    z 0.466430 0.000000 3.940520 
# 
# 
# High freq. dielectric constant tensor:
#      x y z
#    x 1.842290 0.000000 0.001100 
#    y 0.000000 1.792840 0.000000 
#    z 0.001100 0.000000 1.830770 
# 
# From -- ./inp_files/131044.got.cif
#   From: 2010.06.25/outbox.cif.g09.slc.cpg/sg12_66_cif.got.tgz:131044.got - 2010.06.28 00:19:55.
