data_PCOD8084056
_publ_section_title
;
Structure prediction by ZEFSAII (Michael W. Deem and Ramdas Pophale) SiO2 
 PCOD8084056
Probable space group: C 2/M
;
_chemical_formula_sum "Si O2"
_cell_formula_units_Z 48
_cell_length_a 18.615023
_cell_length_b 16.290963
_cell_length_c 8.772106
_cell_angle_alpha 90.000000
_cell_angle_beta 80.221099
_cell_angle_gamma 90.000000
_cell_volume 2621.548148
_symmetry_space_group_name_H-M "C 2/M"
_symmetry_group_IT_number 12
_symmetry_cell_setting 'monoclinic'
loop_
_space_group_symop_operation_xyz
x,y,z
-x,y,-z
-x,-y,-z
x,-y,z
1/2+x,1/2+y,z
1/2-x,1/2+y,-z
1/2-x,1/2-y,-z
1/2+x,1/2-y,z
loop_
_atom_site_type_symbol
_atom_site_label
_atom_site_fract_x
_atom_site_fract_y
_atom_site_fract_z
Si Si1 0.150794 0.341474 0.628830
Si Si2 0.805392 0.094057 0.466685
Si Si3 0.917977 0.778127 0.565617
Si Si4 0.645918 0.233935 0.114948
Si Si5 0.297222 0.692797 0.190490
Si Si6 0.417738 0.093203 0.058203
O O1 0.223125 0.388156 0.550161
O O2 0.102294 0.309579 0.504367
O O3 0.169656 0.260778 0.713504
O O4 0.102840 0.399849 0.755681
O O5 0.862821 0.149342 0.538412
O O6 0.808504 0.108925 0.281692
O O7 0.825027 0.000000 0.492577
O O8 0.917223 0.764734 0.749548
O O9 0.000000 0.805487 0.500000
O O10 0.713344 0.215162 0.200114
O O11 0.662398 0.307397 0.988095
O O12 0.631679 0.150339 0.029275
O O13 0.405643 0.000000 0.008746
O O14 0.500000 0.121649 0.000000
#
# Coordination Sequence:
#
# PCOD8084056 Si02
#       6
#     8   8   8   8   8   8
#     4  10  18  37  57  77 105 146 185 220 260 324
#     4  11  21  36  56  81 113 143 179 226 275 322
#     4  11  21  36  59  83 108 142 186 226 267 320
#     4  10  18  34  57  78 104 138 183 228 258 314
#     4   9  18  34  57  77 103 135 185 224 258 314
#     4  10  21  34  49  77 115 147 174 215 277 327
#
# _framework density 18.309791000000001
#
# number of rings (size 3 to 8) (size 9 to 14) (size 15 to 20)
#    0.000    1.833    3.333    2.500    0.000    1.000 
#    0.000    0.833    0.000    4.500    0.000    0.000 
#    0.000    0.000    0.000    0.000    0.000    0.000 
#
# Total GULP energy -297510.895816 kJ/mol
# GULP energy per Si atom -12396.287326 kJ/mol
# Density = 1.826812 g / cm^3
# Si number density = 18.309791 Si / 1000 Ang^3
#
#
#
# Elastic Constant Matrix: (Units=GPa)
#
#
# Indices 1 2 3 4 5 6 
#
# 1 81.4061 19.5788 34.4831 0.0000 -22.4175 0.0000
# 2 19.5788 63.7828 31.8117 0.0000 -12.9628 0.0000
# 3 34.4831 31.8117 118.1230 0.0000 -20.8777 0.0000
# 4 0.0000 0.0000 0.0000 15.2211 0.0000 -5.3389
# 5 -22.4175 -12.9628 -20.8777 0.0000 24.8556 0.0000
# 6 0.0000 0.0000 0.0000 -5.3389 0.0000 13.0122
#
#
#
# Elastic Compliance Matrix: (Units=1/GPa)
#
#
# Indices 1 2 3 4 5 6 
#
# 1 0.017140 -0.001507 -0.002354 0.000000 0.012695 0.000000
# 2 -0.001507 0.019119 -0.003742 0.000000 0.005468 0.000000
# 3 -0.002354 -0.003742 0.011086 0.000000 0.005238 0.000000
# 4 0.000000 0.000000 0.000000 0.076743 0.000000 0.031488
# 5 0.012695 0.005468 0.005238 0.000000 0.058934 0.000000
# 6 0.000000 0.000000 0.000000 0.031488 0.000000 0.089771
#
#
# Mechanical properties :
#
#
# Convention : Reuss Voigt Hill
#
# Bulk Modulus (GPa) = 31.11564 48.33989 39.72776
# Shear Modulus (GPa) = 16.73859 22.44699 19.59279
#
# Velocity S-wave (km/s) = 3.02683 3.50516 3.27474
# Velocity P-wave (km/s) = 5.40800 6.54523 6.00360
#
# Compressibility (1/GPa) = 0.03213818
#
# Stress axis : x y z
#
# Youngs Moduli (GPa) = 58.34428 52.30486 90.20009
#
# Poissons Ratio (x) = 0.07883 0.21231
# Poissons Ratio (y) = 0.08793 0.33757
# Poissons Ratio (z) = 0.13733 0.19575
#
# Static dielectric constant tensor:
#      x y z
#    x 2.996480 0.000000 0.095660 
#    y 0.000000 3.229680 0.000000 
#    z 0.095660 0.000000 3.639550 
# 
# 
# High freq. dielectric constant tensor:
#      x y z
#    x 1.704870 0.000000 -0.008330 
#    y 0.000000 1.682860 0.000000 
#    z -0.008330 0.000000 1.726310 
# 
# From -- ./inp_files/73600.got.cif
#   From: 2010.06.25/outbox.cif.g09.slc.cpg/sg12_37_cif.got.tgz:73600.got - 2010.06.28 00:19:55.
