data_PCOD8084961
_publ_section_title
;
Structure prediction by ZEFSAII (Michael W. Deem and Ramdas Pophale) SiO2 
 PCOD8084961
Probable space group: C 2/M
;
_chemical_formula_sum "Si O2"
_cell_formula_units_Z 48
_cell_length_a 23.174506
_cell_length_b 9.551726
_cell_length_c 16.974054
_cell_angle_alpha 90.000000
_cell_angle_beta 46.419784
_cell_angle_gamma 90.000000
_cell_volume 2721.838307
_symmetry_space_group_name_H-M "C 2/M"
_symmetry_group_IT_number 12
_symmetry_cell_setting 'monoclinic'
loop_
_space_group_symop_operation_xyz
x,y,z
-x,y,-z
-x,-y,-z
x,-y,z
1/2+x,1/2+y,z
1/2-x,1/2+y,-z
1/2-x,1/2-y,-z
1/2+x,1/2-y,z
loop_
_atom_site_type_symbol
_atom_site_label
_atom_site_fract_x
_atom_site_fract_y
_atom_site_fract_z
Si Si1 0.129604 0.662119 0.373181
Si Si2 0.030399 0.839657 0.205055
Si Si3 0.503250 0.838850 0.626020
Si Si4 0.798828 0.850493 0.902293
Si Si5 0.073606 0.161502 0.988535
Si Si6 0.226105 0.659083 0.801177
O O1 0.154574 0.500000 0.340341
O O2 0.078898 0.685179 0.499380
O O3 0.210075 0.753878 0.310405
O O4 0.076620 0.707989 0.347043
O O5 0.109242 0.814747 0.181679
O O6 0.044296 0.786342 0.102535
O O7 0.974596 0.744115 0.313209
O O8 0.999995 0.000000 0.232723
O O9 0.493805 0.000000 0.658523
O O10 0.767997 0.849986 0.844421
O O11 0.786107 0.000000 0.955025
O O12 0.750000 0.750000 0.000000
O O13 0.103199 0.000000 0.966320
O O14 0.142874 0.258864 0.888158
O O15 0.000000 0.175895 0.000000
O O16 0.211630 0.500000 0.782031
#
# Coordination Sequence:
#
# PCOD8084961 Si02
#       6
#     8   8   8   8   8   8
#     4   9  18  32  49  73 107 142 172 200 240 302
#     4  10  19  32  50  74 104 134 166 207 253 303
#     4   9  18  31  49  75 106 140 172 202 243 298
#     4  10  19  29  44  72 104 133 164 199 249 306
#     4  10  22  39  56  73  97 135 177 213 254 303
#     4  11  21  32  50  77 106 134 166 208 257 302
#
# _framework density 17.63514
#
# number of rings (size 3 to 8) (size 9 to 14) (size 15 to 20)
#    0.000    2.167    3.333    1.500    0.000    3.000 
#    0.000    1.667    0.000    1.000    0.000    0.000 
#    0.000    0.000    0.000    0.000    0.000    0.000 
#
# Total GULP energy -297314.466193 kJ/mol
# GULP energy per Si atom -12388.102758 kJ/mol
# Density = 1.759500 g / cm^3
# Si number density = 17.635140 Si / 1000 Ang^3
#
#
#
# Elastic Constant Matrix: (Units=GPa)
#
#
# Indices 1 2 3 4 5 6 
#
# 1 56.7687 29.7678 26.3363 -0.0001 -5.7807 0.0003
# 2 29.7678 78.3014 68.7656 -0.0003 3.3089 0.0009
# 3 26.3363 68.7656 87.4589 0.0000 -9.6401 0.0003
# 4 -0.0001 -0.0003 0.0000 31.3447 0.0000 -3.1861
# 5 -5.7807 3.3089 -9.6401 0.0000 5.6652 -0.0004
# 6 0.0003 0.0009 0.0003 -3.1861 -0.0004 17.8655
#
#
#
# Elastic Compliance Matrix: (Units=1/GPa)
#
#
# Indices 1 2 3 4 5 6 
#
# 1 0.004715 0.049042 -0.052443 0.000000 -0.113071 -0.000004
# 2 0.049042 -0.145373 0.140820 0.000000 0.374575 0.000013
# 3 -0.052443 0.140820 -0.121191 0.000000 -0.341984 -0.000012
# 4 0.000000 0.000000 0.000000 0.032492 0.000000 0.005795
# 5 -0.113071 0.374575 -0.341984 0.000000 -0.739571 -0.000028
# 6 -0.000004 0.000013 -0.000012 0.005795 -0.000028 0.057007
#
#
# Mechanical properties :
#
#
# Convention : Reuss Voigt Hill
#
# Bulk Modulus (GPa) = 76.97982 52.47426 64.72704
# Shear Modulus (GPa) = -4.22858 17.48571 6.62856
#
# Velocity S-wave (km/s) = -1.55017 3.15227 1.94085
# Velocity P-wave (km/s) = 6.36727 6.56271 6.46573
#
# Compressibility (1/GPa) = 0.01299042
#
# Stress axis : x y z
#
# Youngs Moduli (GPa) = 212.10152 -6.87888 -8.25146
#
# Poissons Ratio (x) = 0.33735 -0.43273
# Poissons Ratio (y) = -10.40183 1.16197
# Poissons Ratio (z) = 11.12316 0.96869
#
# Static dielectric constant tensor:
#      x y z
#    x 2.994960 0.000000 -0.013010 
#    y 0.000000 3.652480 0.000000 
#    z -0.013010 0.000000 3.205460 
# 
# 
# High freq. dielectric constant tensor:
#      x y z
#    x 1.644410 0.000000 0.002140 
#    y 0.000000 1.687500 0.000000 
#    z 0.002140 0.000000 1.683310 
# 
# From -- ./inp_files/287256.got.cif
#   From: 2010.06.25/outbox.cif.g09.slc.cpg/sg12_144_cif.got.tgz:287256.got - 2010.06.28 00:19:55.
