data_PCOD8084303
_publ_section_title
;
Structure prediction by ZEFSAII (Michael W. Deem and Ramdas Pophale) SiO2 
 PCOD8084303
Probable space group: C 2/M
;
_chemical_formula_sum "Si O2"
_cell_formula_units_Z 64
_cell_length_a 11.573190
_cell_length_b 14.427256
_cell_length_c 21.506845
_cell_angle_alpha 90.000000
_cell_angle_beta 61.495419
_cell_angle_gamma 90.000000
_cell_volume 3155.681591
_symmetry_space_group_name_H-M "C 2/M"
_symmetry_group_IT_number 12
_symmetry_cell_setting 'monoclinic'
loop_
_space_group_symop_operation_xyz
x,y,z
-x,y,-z
-x,-y,-z
x,-y,z
1/2+x,1/2+y,z
1/2-x,1/2+y,-z
1/2-x,1/2-y,-z
1/2+x,1/2-y,z
loop_
_atom_site_type_symbol
_atom_site_label
_atom_site_fract_x
_atom_site_fract_y
_atom_site_fract_z
Si Si1 0.872551 0.853006 0.830588
Si Si2 0.921242 0.894818 0.581955
Si Si3 0.551902 0.399188 0.677761
Si Si4 0.581456 0.601852 0.876250
Si Si5 0.854987 0.400401 0.738123
Si Si6 0.488001 0.169463 0.196606
Si Si7 0.921278 0.691857 0.080689
Si Si8 0.748734 0.755250 0.318104
O O1 0.718463 0.860184 0.884394
O O2 0.917524 0.897580 0.753396
O O3 0.951577 0.898596 0.867144
O O4 0.904278 0.745963 0.815557
O O5 0.805774 0.819693 0.619206
O O6 0.000000 0.869603 0.500000
O O7 0.017521 0.883288 0.615199
O O8 0.864229 0.000000 0.593140
O O9 0.617366 0.500000 0.669573
O O10 0.657991 0.323582 0.668397
O O11 0.583860 0.500000 0.910922
O O12 0.706251 0.608120 0.799795
O O13 0.583965 0.694449 0.918306
O O14 0.871380 0.500000 0.699717
O O15 0.868466 0.313857 0.686341
O O16 0.963515 0.406534 0.766161
O O17 0.498450 0.148250 0.120433
O O18 0.337070 0.201161 0.244676
O O19 0.000000 0.659784 0.000000
#
# Coordination Sequence:
#
# PCOD8084303 Si02
#       8
#     8   8   8   8   8   8   8   8
#     4  10  18  35  56  84 110 146 198 246 293 357
#     4  10  23  40  57  85 126 165 198 233 280 344
#     4  10  19  34  62  89 111 149 198 248 294 346
#     4  10  20  35  57  83 111 145 191 252 304 358
#     4  11  20  35  59  90 120 143 186 254 309 351
#     4  10  19  34  55  85 113 146 191 244 302 352
#     4  11  22  36  58  78 113 157 206 246 298 361
#     4  11  19  36  64  87 114 150 203 245 290 350
#
# _framework density 20.28088
#
# number of rings (size 3 to 8) (size 9 to 14) (size 15 to 20)
#    0.000    1.625    5.000    3.000    0.000    3.250 
#    0.000    1.250    0.000    4.125    0.000    0.000 
#    0.000    0.000    0.000    0.000    0.000    0.000 
#
# Total GULP energy -396431.781660 kJ/mol
# GULP energy per Si atom -12388.493177 kJ/mol
# Density = 2.023472 g / cm^3
# Si number density = 20.280880 Si / 1000 Ang^3
#
#
#
# Elastic Constant Matrix: (Units=GPa)
#
#
# Indices 1 2 3 4 5 6 
#
# 1 86.1011 46.6490 43.9566 0.0000 3.9051 0.0000
# 2 46.6490 95.4392 48.4591 0.0000 -5.7383 0.0000
# 3 43.9566 48.4591 125.1627 0.0000 3.2850 0.0000
# 4 0.0000 0.0000 0.0000 14.4727 0.0000 18.2089
# 5 3.9051 -5.7383 3.2850 0.0000 16.1664 0.0000
# 6 0.0000 0.0000 0.0000 18.2089 0.0000 -41.7325
#
#
#
# Elastic Compliance Matrix: (Units=1/GPa)
#
#
# Indices 1 2 3 4 5 6 
#
# 1 0.017457 -0.007310 -0.003139 0.000000 -0.006174 0.000000
# 2 -0.007310 0.016644 -0.004100 0.000000 0.008507 0.000000
# 3 -0.003139 -0.004100 0.010755 0.000000 -0.002883 0.000000
# 4 0.000000 0.000000 0.000000 0.044608 0.000000 0.019463
# 5 -0.006174 0.008507 -0.002883 0.000000 0.066953 0.000000
# 6 0.000000 0.000000 0.000000 0.019463 0.000000 -0.015470
#
#
# Mechanical properties :
#
#
# Convention : Reuss Voigt Hill
#
# Bulk Modulus (GPa) = 63.45767 64.98138 64.21952
# Shear Modulus (GPa) = 28.52274 8.95721 18.73998
#
# Velocity S-wave (km/s) = 3.75425 2.10385 3.04307
# Velocity P-wave (km/s) = 7.08166 6.16537 6.63934
#
# Compressibility (1/GPa) = 0.01575854
#
# Stress axis : x y z
#
# Youngs Moduli (GPa) = 57.28259 60.08039 92.98084
#
# Poissons Ratio (x) = 0.43922 0.29182
# Poissons Ratio (y) = 0.41876 0.38123
# Poissons Ratio (z) = 0.17978 0.24633
#
# Static dielectric constant tensor:
#      x y z
#    x 3.517490 0.000000 0.111560 
#    y 0.000000 3.952240 0.000000 
#    z 0.111560 0.000000 3.440300 
# 
# 
# High freq. dielectric constant tensor:
#      x y z
#    x 1.786270 0.000000 0.015170 
#    y 0.000000 1.799610 0.000000 
#    z 0.015170 0.000000 1.754290 
# 
# From -- ./inp_files/305433.got.cif
#   From: 2010.06.25/outbox.cif.g09.slc.cpg/sg12_153_cif.got.tgz:305433.got - 2010.06.28 00:19:55.
