data_PCOD8084727
_publ_section_title
;
Structure prediction by ZEFSAII (Michael W. Deem and Ramdas Pophale) SiO2 
 PCOD8084727
Probable space group: C 2/M
;
_chemical_formula_sum "Si O2"
_cell_formula_units_Z 56
_cell_length_a 16.488466
_cell_length_b 27.479759
_cell_length_c 9.179974
_cell_angle_alpha 90.000000
_cell_angle_beta 46.749593
_cell_angle_gamma 90.000000
_cell_volume 3029.593427
_symmetry_space_group_name_H-M "C 2/M"
_symmetry_group_IT_number 12
_symmetry_cell_setting 'monoclinic'
loop_
_space_group_symop_operation_xyz
x,y,z
-x,y,-z
-x,-y,-z
x,-y,z
1/2+x,1/2+y,z
1/2-x,1/2+y,-z
1/2-x,1/2-y,-z
1/2+x,1/2-y,z
loop_
_atom_site_type_symbol
_atom_site_label
_atom_site_fract_x
_atom_site_fract_y
_atom_site_fract_z
Si Si1 0.123099 0.401955 0.315529
Si Si2 0.566300 0.947397 0.097518
Si Si3 0.593908 0.746123 0.085656
Si Si4 0.240392 0.170977 0.037177
Si Si5 0.200453 0.627128 0.751310
Si Si6 0.359011 0.230133 0.290549
Si Si7 0.188225 0.554226 0.536970
O O1 0.101305 0.443792 0.223394
O O2 0.183210 0.425146 0.380836
O O3 0.000000 0.378540 0.500000
O O4 0.214251 0.364818 0.142164
O O5 0.434033 0.947379 0.243253
O O6 0.612172 0.000000 0.984988
O O7 0.607073 0.901464 0.956862
O O8 0.625035 0.695462 0.126828
O O9 0.463399 0.758136 0.267060
O O10 0.662354 0.789626 0.071648
O O11 0.625390 0.740639 0.877826
O O12 0.214903 0.146365 0.227146
O O13 0.145694 0.672244 0.732244
O O14 0.256511 0.590825 0.562124
O O15 0.250000 0.250000 0.500000
O O16 0.241783 0.500000 0.470201
#
# Coordination Sequence:
#
# PCOD8084727 Si02
#       7
#     8   8   8   8   8   8   8
#     4   9  18  27  46  71 104 145 181 215 262 323
#     4   9  17  29  45  68 103 144 179 214 263 322
#     4   9  20  36  53  72 107 138 181 227 260 313
#     4   9  19  34  49  73 102 144 179 211 258 318
#     4  10  20  30  49  71 100 138 182 210 261 326
#     4  10  22  35  55  79 103 139 180 229 272 310
#     4  10  19  28  44  73 106 140 178 222 263 317
#
# _framework density 18.484328999999999
#
# number of rings (size 3 to 8) (size 9 to 14) (size 15 to 20)
#    0.000    2.571    0.000    1.286   14.000    2.857 
#    0.000    5.714    0.000    0.000    0.000    0.000 
#    0.000   25.143    0.000    0.000    0.000    0.000 
#
# Total GULP energy -346944.369849 kJ/mol
# GULP energy per Si atom -12390.870352 kJ/mol
# Density = 1.844226 g / cm^3
# Si number density = 18.484329 Si / 1000 Ang^3
#
#
#
# Elastic Constant Matrix: (Units=GPa)
#
#
# Indices 1 2 3 4 5 6 
#
# 1 88.4281 60.4284 36.7131 0.0000 15.4529 0.0000
# 2 60.4284 123.8421 39.8319 0.0000 13.4400 0.0000
# 3 36.7131 39.8319 61.8357 0.0000 7.4476 0.0000
# 4 0.0000 0.0000 0.0000 21.7335 0.0000 8.6477
# 5 15.4529 13.4400 7.4476 0.0000 30.5590 0.0000
# 6 0.0000 0.0000 0.0000 8.6477 0.0000 22.4776
#
#
#
# Elastic Compliance Matrix: (Units=1/GPa)
#
#
# Indices 1 2 3 4 5 6 
#
# 1 0.019704 -0.006913 -0.006605 0.000000 -0.005313 0.000000
# 2 -0.006913 0.012879 -0.004049 0.000000 -0.001181 0.000000
# 3 -0.006605 -0.004049 0.022753 0.000000 -0.000424 0.000000
# 4 0.000000 0.000000 0.000000 0.054329 0.000000 -0.020902
# 5 -0.005313 -0.001181 -0.000424 0.000000 0.036033 0.000000
# 6 0.000000 0.000000 0.000000 -0.020902 0.000000 0.052530
#
#
# Mechanical properties :
#
#
# Convention : Reuss Voigt Hill
#
# Bulk Modulus (GPa) = 49.50479 60.89474 55.19977
# Shear Modulus (GPa) = 20.82500 24.09619 22.46059
#
# Velocity S-wave (km/s) = 3.36017 3.61446 3.48963
# Velocity P-wave (km/s) = 6.47260 7.10173 6.79445
#
# Compressibility (1/GPa) = 0.02020007
#
# Stress axis : x y z
#
# Youngs Moduli (GPa) = 50.75166 77.64815 43.95039
#
# Poissons Ratio (x) = 0.53680 0.29031
# Poissons Ratio (y) = 0.35086 0.17796
# Poissons Ratio (z) = 0.33523 0.31440
#
# Static dielectric constant tensor:
#      x y z
#    x 3.516190 0.000000 0.477470 
#    y 0.000000 3.699540 0.000000 
#    z 0.477470 0.000000 3.201630 
# 
# 
# High freq. dielectric constant tensor:
#      x y z
#    x 1.694970 0.000000 0.050740 
#    y 0.000000 1.723070 0.000000 
#    z 0.050740 0.000000 1.688930 
# 
# From -- ./inp_files/79651.got.cif
#   From: 2010.06.25/outbox.cif.g09.slc.cpg/sg12_40_cif.got.tgz:79651.got - 2010.06.28 00:19:55.
