data_PCOD8084993
_publ_section_title
;
Structure prediction by ZEFSAII (Michael W. Deem and Ramdas Pophale) SiO2 
 PCOD8084993
Probable space group: C 2/M
;
_chemical_formula_sum "Si O2"
_cell_formula_units_Z 48
_cell_length_a 26.817492
_cell_length_b 9.434416
_cell_length_c 25.476958
_cell_angle_alpha 90.000000
_cell_angle_beta 26.081285
_cell_angle_gamma 90.000000
_cell_volume 2833.894625
_symmetry_space_group_name_H-M "C 2/M"
_symmetry_group_IT_number 12
_symmetry_cell_setting 'monoclinic'
loop_
_space_group_symop_operation_xyz
x,y,z
-x,y,-z
-x,-y,-z
x,-y,z
1/2+x,1/2+y,z
1/2-x,1/2+y,-z
1/2-x,1/2-y,-z
1/2+x,1/2-y,z
loop_
_atom_site_type_symbol
_atom_site_label
_atom_site_fract_x
_atom_site_fract_y
_atom_site_fract_z
Si Si1 0.110615 0.660518 0.255820
Si Si2 0.092582 0.657641 0.625951
Si Si3 0.941377 0.835020 0.243303
Si Si4 0.222239 0.337164 0.398397
Si Si5 0.302366 0.666762 0.999249
Si Si6 0.968716 0.836320 0.469488
O O1 0.105382 0.500000 0.283162
O O2 0.068704 0.765240 0.340925
O O3 0.034107 0.674306 0.276408
O O4 0.235973 0.700312 0.116416
O O5 0.112346 0.500000 0.629116
O O6 0.111437 0.764258 0.655369
O O7 0.179115 0.692974 0.497773
O O8 0.857676 0.803427 0.272580
O O9 0.068797 0.782050 0.111339
O O10 0.940619 0.000000 0.256365
O O11 0.198412 0.500000 0.404539
O O12 0.154084 0.236719 0.422995
O O13 0.295763 0.500000 0.992363
O O14 0.250000 0.750000 0.000000
O O15 0.000000 0.817489 0.500000
O O16 0.959645 0.000000 0.461666
#
# Coordination Sequence:
#
# PCOD8084993 Si02
#       6
#     8   8   8   8   8   8
#     4   9  18  32  49  72 101 132 166 201 238 286
#     4   9  16  27  43  65  98 133 164 198 232 277
#     4  10  19  29  45  69  99 135 167 196 231 278
#     4   9  19  33  47  69  99 128 161 198 242 294
#     4  10  19  31  47  70 103 138 171 201 229 273
#     4  10  21  36  55  77  95 115 155 211 260 300
#
# _framework density 16.937821
#
# number of rings (size 3 to 8) (size 9 to 14) (size 15 to 20)
#    0.000    2.500    1.667    2.000    0.000    5.333 
#    0.000    0.000    0.000    1.000    0.000    7.000 
#    0.000    0.000    0.000    0.000    0.000    0.000 
#
# Total GULP energy -297482.883447 kJ/mol
# GULP energy per Si atom -12395.120144 kJ/mol
# Density = 1.689927 g / cm^3
# Si number density = 16.937821 Si / 1000 Ang^3
#
#
#
# Elastic Constant Matrix: (Units=GPa)
#
#
# Indices 1 2 3 4 5 6 
#
# 1 77.9738 54.1535 49.1875 -0.0019 -12.1289 0.0004
# 2 54.1535 81.2637 45.6089 0.0001 -6.3841 0.0011
# 3 49.1875 45.6089 83.0272 0.0062 -22.8583 -0.0015
# 4 -0.0019 0.0001 0.0062 18.1175 -0.0006 1.8984
# 5 -12.1289 -6.3841 -22.8583 -0.0006 23.1989 0.0001
# 6 0.0004 0.0011 -0.0015 1.8984 0.0001 26.8704
#
#
#
# Elastic Compliance Matrix: (Units=1/GPa)
#
#
# Indices 1 2 3 4 5 6 
#
# 1 0.028102 -0.013863 -0.008286 0.000006 0.002713 -0.000001
# 2 -0.013863 0.025373 -0.007956 0.000001 -0.008105 -0.000001
# 3 -0.008286 -0.007956 0.026798 -0.000010 0.019883 0.000003
# 4 0.000006 0.000001 -0.000010 0.055607 -0.000005 -0.003929
# 5 0.002713 -0.008105 0.019883 -0.000005 0.061884 0.000002
# 6 -0.000001 -0.000001 0.000003 -0.003929 0.000002 0.037493
#
#
# Mechanical properties :
#
#
# Convention : Reuss Voigt Hill
#
# Bulk Modulus (GPa) = 49.84799 60.01829 54.93314
# Shear Modulus (GPa) = 16.54780 19.85834 18.20307
#
# Velocity S-wave (km/s) = 3.12905 3.42779 3.28182
# Velocity P-wave (km/s) = 6.52292 7.15386 6.84566
#
# Compressibility (1/GPa) = 0.02006099
#
# Stress axis : x y z
#
# Youngs Moduli (GPa) = 35.58462 39.41233 37.31679
#
# Poissons Ratio (x) = 0.54639 0.30921
# Poissons Ratio (y) = 0.49332 0.29690
# Poissons Ratio (z) = 0.29485 0.31358
#
# Static dielectric constant tensor:
#      x y z
#    x 2.984580 -0.000010 -0.435790 
#    y -0.000010 3.189290 0.000020 
#    z -0.435790 0.000020 3.578130 
# 
# 
# High freq. dielectric constant tensor:
#      x y z
#    x 1.621480 0.000000 -0.022600 
#    y 0.000000 1.654120 0.000000 
#    z -0.022600 0.000000 1.653070 
# 
# From -- ./inp_files/172267.got.cif
#   From: 2010.06.25/outbox.cif.g09.slc.cpg/sg12_87_cif.got.tgz:172267.got - 2010.06.28 00:19:55.
