data_PCOD8084308
_publ_section_title
;
Structure prediction by ZEFSAII (Michael W. Deem and Ramdas Pophale) SiO2 
 PCOD8084308
Probable space group: C 2/M
;
_chemical_formula_sum "Si O2"
_cell_formula_units_Z 48
_cell_length_a 9.713423
_cell_length_b 18.378819
_cell_length_c 14.359034
_cell_angle_alpha 90.000000
_cell_angle_beta 100.535428
_cell_angle_gamma 90.000000
_cell_volume 2520.179023
_symmetry_space_group_name_H-M "C 2/M"
_symmetry_group_IT_number 12
_symmetry_cell_setting 'monoclinic'
loop_
_space_group_symop_operation_xyz
x,y,z
-x,y,-z
-x,-y,-z
x,-y,z
1/2+x,1/2+y,z
1/2-x,1/2+y,-z
1/2-x,1/2-y,-z
1/2+x,1/2-y,z
loop_
_atom_site_type_symbol
_atom_site_label
_atom_site_fract_x
_atom_site_fract_y
_atom_site_fract_z
Si Si1 0.202049 0.787062 0.900661
Si Si2 0.859492 0.584138 0.526734
Si Si3 0.092856 0.213896 0.211848
Si Si4 0.531892 0.140045 0.285812
Si Si5 0.891081 0.416578 0.904943
Si Si6 0.263833 0.585115 0.675422
O O1 0.266822 0.740870 0.822843
O O2 0.252621 0.870050 0.905208
O O3 0.034290 0.791380 0.877078
O O4 0.250000 0.750000 0.000000
O O5 0.883864 0.500000 0.547988
O O6 0.840759 0.618875 0.627347
O O7 0.733011 0.596706 0.437155
O O8 0.000000 0.618683 0.500000
O O9 0.042643 0.272687 0.282002
O O10 0.117629 0.135903 0.263944
O O11 0.544523 0.104206 0.186206
O O12 0.386564 0.109798 0.306339
O O13 0.845808 0.500000 0.901491
O O14 0.000000 0.398059 0.000000
O O15 0.291256 0.500000 0.703356
#
# Coordination Sequence:
#
# PCOD8084308 Si02
#       6
#     8   8   8   8   8   8
#     4  11  22  40  57  80 114 153 193 232 289 351
#     4   8  15  29  53  82 113 151 190 231 285 340
#     4  11  22  36  59  84 113 152 191 239 289 340
#     4  10  18  35  57  82 116 152 195 236 280 345
#     4  10  21  35  57  85 111 145 192 242 288 344
#     4  10  20  35  57  87 118 151 192 240 288 342
#
# _framework density 19.046267
#
# number of rings (size 3 to 8) (size 9 to 14) (size 15 to 20)
#    0.000    2.000    1.667    5.000    0.000    1.333 
#    0.000    0.000    0.000    2.000    0.000   10.500 
#    0.000    0.000    0.000    0.000    0.000    0.000 
#
# Total GULP energy -297416.328141 kJ/mol
# GULP energy per Si atom -12392.347006 kJ/mol
# Density = 1.900292 g / cm^3
# Si number density = 19.046267 Si / 1000 Ang^3
#
#
#
# Elastic Constant Matrix: (Units=GPa)
#
#
# Indices 1 2 3 4 5 6 
#
# 1 50.3598 25.7711 28.6736 0.0000 11.6620 0.0000
# 2 25.7711 131.8223 63.7759 0.0000 11.7828 0.0000
# 3 28.6736 63.7759 144.0612 0.0000 7.0009 0.0000
# 4 0.0000 0.0000 0.0000 31.1638 0.0000 7.6078
# 5 11.6620 11.7828 7.0009 0.0000 22.7369 0.0000
# 6 0.0000 0.0000 0.0000 7.6078 0.0000 25.5232
#
#
#
# Elastic Compliance Matrix: (Units=1/GPa)
#
#
# Indices 1 2 3 4 5 6 
#
# 1 0.025563 -0.002320 -0.003535 0.000000 -0.010821 0.000000
# 2 -0.002320 0.010188 -0.003908 0.000000 -0.002886 0.000000
# 3 -0.003535 -0.003908 0.009328 0.000000 0.000966 0.000000
# 4 0.000000 0.000000 0.000000 0.034607 0.000000 -0.010315
# 5 -0.010821 -0.002886 0.000966 0.000000 0.050730 0.000000
# 6 0.000000 0.000000 0.000000 -0.010315 0.000000 0.042255
#
#
# Mechanical properties :
#
#
# Convention : Reuss Voigt Hill
#
# Bulk Modulus (GPa) = 39.13469 62.52050 50.82759
# Shear Modulus (GPa) = 24.91089 29.75296 27.33193
#
# Velocity S-wave (km/s) = 3.62043 3.95668 3.79229
# Velocity P-wave (km/s) = 6.16997 7.33285 6.77640
#
# Compressibility (1/GPa) = 0.02555278
#
# Stress axis : x y z
#
# Youngs Moduli (GPa) = 39.11916 98.15065 107.19979
#
# Poissons Ratio (x) = 0.22772 0.37896
# Poissons Ratio (y) = 0.09076 0.41898
# Poissons Ratio (z) = 0.13829 0.38361
#
# Static dielectric constant tensor:
#      x y z
#    x 2.604590 0.000000 2.087340 
#    y 0.000000 3.665720 0.000000 
#    z 2.087340 0.000000 -3.338880 
# 
# 
# High freq. dielectric constant tensor:
#      x y z
#    x 1.699080 0.000000 0.005700 
#    y 0.000000 1.744630 0.000000 
#    z 0.005700 0.000000 1.758630 
# 
# From -- ./inp_files/205708.got.cif
#   From: 2010.06.25/outbox.cif.g09.slc.cpg/sg12_103_cif.got.tgz:205708.got - 2010.06.28 00:19:55.
