data_PCOD8084581
_publ_section_title
;
Structure prediction by ZEFSAII (Michael W. Deem and Ramdas Pophale) SiO2 
 PCOD8084581
Probable space group: C 2/M
;
_chemical_formula_sum "Si O2"
_cell_formula_units_Z 48
_cell_length_a 27.914361
_cell_length_b 14.099166
_cell_length_c 9.005303
_cell_angle_alpha 90.000000
_cell_angle_beta 40.230485
_cell_angle_gamma 90.000000
_cell_volume 2289.077581
_symmetry_space_group_name_H-M "C 2/M"
_symmetry_group_IT_number 12
_symmetry_cell_setting 'monoclinic'
loop_
_space_group_symop_operation_xyz
x,y,z
-x,y,-z
-x,-y,-z
x,-y,z
1/2+x,1/2+y,z
1/2-x,1/2+y,-z
1/2-x,1/2-y,-z
1/2+x,1/2-y,z
loop_
_atom_site_type_symbol
_atom_site_label
_atom_site_fract_x
_atom_site_fract_y
_atom_site_fract_z
Si Si1 0.025934 0.228740 0.771160
Si Si2 0.735352 0.293248 0.693388
Si Si3 0.404230 0.389675 0.890916
Si Si4 0.783392 0.336955 0.008862
Si Si5 0.628928 0.398230 0.366197
Si Si6 0.126570 0.610164 0.468816
O O1 0.102666 0.173060 0.557100
O O2 0.046945 0.338749 0.688310
O O3 0.966117 0.182695 0.803278
O O4 0.000000 0.214880 0.000000
O O5 0.750000 0.250000 0.500000
O O6 0.698833 0.204532 0.870816
O O7 0.809679 0.340374 0.583124
O O8 0.672218 0.374405 0.837919
O O9 0.427751 0.500000 0.853246
O O10 0.392671 0.361138 0.746455
O O11 0.717272 0.413480 0.171858
O O12 0.750000 0.250000 0.000000
O O13 0.853566 0.380045 0.754103
O O14 0.590796 0.500000 0.482457
O O15 0.118371 0.500000 0.531368
#
# Coordination Sequence:
#
# PCOD8084581 Si02
#       6
#     8   8   8   8   8   8
#     4  12  25  41  58  92 130 169 204 260 322 379
#     4  11  21  39  65  97 131 164 203 264 328 372
#     4  11  23  39  63  93 126 165 211 259 317 383
#     4  10  18  37  66  95 120 162 208 263 309 366
#     4  11  21  39  65  92 123 163 210 257 313 379
#     4  11  22  43  70  90 120 173 223 258 307 382
#
# _framework density 20.969145999999999
#
# number of rings (size 3 to 8) (size 9 to 14) (size 15 to 20)
#    0.000    1.000    6.667    3.000    0.000    3.000 
#    0.000    2.500    0.000    9.000    0.000    0.000 
#    0.000    0.000    0.000    0.000    0.000    0.000 
#
# Total GULP energy -297407.954506 kJ/mol
# GULP energy per Si atom -12391.998104 kJ/mol
# Density = 2.092142 g / cm^3
# Si number density = 20.969146 Si / 1000 Ang^3
#
#
#
# Elastic Constant Matrix: (Units=GPa)
#
#
# Indices 1 2 3 4 5 6 
#
# 1 62.9841 46.5750 41.0862 0.0000 3.3668 0.0000
# 2 46.5750 129.2342 54.5371 0.0000 5.9239 0.0000
# 3 41.0862 54.5371 129.5226 0.0000 20.5239 0.0000
# 4 0.0000 0.0000 0.0000 19.8752 0.0000 -5.2002
# 5 3.3668 5.9239 20.5239 0.0000 41.0255 0.0000
# 6 0.0000 0.0000 0.0000 -5.2002 0.0000 24.1236
#
#
#
# Elastic Compliance Matrix: (Units=1/GPa)
#
#
# Indices 1 2 3 4 5 6 
#
# 1 0.023961 -0.006562 -0.005079 0.000000 0.001522 0.000000
# 2 -0.006562 0.011224 -0.002686 0.000000 0.000262 0.000000
# 3 -0.005079 -0.002686 0.011225 0.000000 -0.004811 0.000000
# 4 0.000000 0.000000 0.000000 0.053321 0.000000 0.011494
# 5 0.001522 0.000262 -0.004811 0.000000 0.026619 0.000000
# 6 0.000000 0.000000 0.000000 0.011494 0.000000 0.043931
#
#
# Mechanical properties :
#
#
# Convention : Reuss Voigt Hill
#
# Bulk Modulus (GPa) = 56.31669 67.34860 61.83265
# Shear Modulus (GPa) = 24.40756 28.97437 26.69096
#
# Velocity S-wave (km/s) = 3.41541 3.72124 3.57160
# Velocity P-wave (km/s) = 6.51679 7.11696 6.82348
#
# Compressibility (1/GPa) = 0.01775672
#
# Stress axis : x y z
#
# Youngs Moduli (GPa) = 41.73427 89.09280 89.08592
#
# Poissons Ratio (x) = 0.58461 0.45247
# Poissons Ratio (y) = 0.27385 0.23929
# Poissons Ratio (z) = 0.21197 0.23931
#
# Static dielectric constant tensor:
#      x y z
#    x 2.408030 0.000000 -0.266290 
#    y 0.000000 3.480270 0.000000 
#    z -0.266290 0.000000 4.285670 
# 
# 
# High freq. dielectric constant tensor:
#      x y z
#    x 1.791010 0.000000 0.000580 
#    y 0.000000 1.820860 0.000000 
#    z 0.000580 0.000000 1.829210 
# 
# From -- ./inp_files/104964.got.cif
#   From: 2010.06.25/outbox.cif.g09.slc.cpg/sg12_53_cif.got.tgz:104964.got - 2010.06.28 00:19:55.
