data_PCOD8084542
_publ_section_title
;
Structure prediction by ZEFSAII (Michael W. Deem and Ramdas Pophale) SiO2 
 PCOD8084542
Probable space group: C 2/M
;
_chemical_formula_sum "Si O2"
_cell_formula_units_Z 48
_cell_length_a 15.531242
_cell_length_b 17.577172
_cell_length_c 9.522061
_cell_angle_alpha 90.000000
_cell_angle_beta 82.795647
_cell_angle_gamma 90.000000
_cell_volume 2578.955593
_symmetry_space_group_name_H-M "C 2/M"
_symmetry_group_IT_number 12
_symmetry_cell_setting 'monoclinic'
loop_
_space_group_symop_operation_xyz
x,y,z
-x,y,-z
-x,-y,-z
x,-y,z
1/2+x,1/2+y,z
1/2-x,1/2+y,-z
1/2-x,1/2-y,-z
1/2+x,1/2-y,z
loop_
_atom_site_type_symbol
_atom_site_label
_atom_site_fract_x
_atom_site_fract_y
_atom_site_fract_z
Si Si1 0.161970 0.717004 0.685965
Si Si2 0.404644 0.301361 0.068555
Si Si3 0.095941 0.191659 0.440644
Si Si4 0.667517 0.773537 0.188784
Si Si5 0.234098 0.087196 0.784871
Si Si6 0.757882 0.914766 0.551825
O O1 0.084754 0.735076 0.813272
O O2 0.149101 0.766912 0.551218
O O3 0.246612 0.743912 0.751891
O O4 0.174325 0.630328 0.632394
O O5 0.356050 0.375822 0.140364
O O6 0.500000 0.326222 0.000000
O O7 0.346058 0.265775 0.957594
O O8 0.088711 0.248361 0.307842
O O9 0.152614 0.116354 0.397329
O O10 0.000000 0.165943 0.500000
O O11 0.682345 0.865069 0.172556
O O12 0.236414 0.090517 0.616624
O O13 0.240260 0.000000 0.836784
O O14 0.745316 0.000000 0.606873
#
# Coordination Sequence:
#
# PCOD8084542 Si02
#       6
#     8   8   8   8   8   8
#     4  10  18  37  55  77 107 143 189 218 251 319
#     4  11  22  35  56  85 111 140 177 222 274 321
#     4  11  19  32  56  81 110 141 175 226 269 310
#     4  10  19  35  55  79 106 143 189 217 251 323
#     4  10  19  35  58  80 108 143 180 220 265 322
#     4  10  19  34  57  82 107 141 181 224 267 314
#
# _framework density 18.612186999999999
#
# number of rings (size 3 to 8) (size 9 to 14) (size 15 to 20)
#    0.000    1.667    5.000    4.000    0.000    0.667 
#    0.000    7.500    0.000    6.000    0.000    0.000 
#    0.000    0.000    0.000    0.000    0.000    0.000 
#
# Total GULP energy -297335.454364 kJ/mol
# GULP energy per Si atom -12388.977265 kJ/mol
# Density = 1.856983 g / cm^3
# Si number density = 18.612187 Si / 1000 Ang^3
#
#
#
# Elastic Constant Matrix: (Units=GPa)
#
#
# Indices 1 2 3 4 5 6 
#
# 1 15.9480 18.0049 8.4687 0.0000 4.5884 0.0000
# 2 18.0049 143.0732 49.6648 0.0000 1.7161 0.0000
# 3 8.4687 49.6648 95.7729 0.0000 -7.2016 0.0000
# 4 0.0000 0.0000 0.0000 22.4139 0.0000 -2.1474
# 5 4.5884 1.7161 -7.2016 0.0000 26.1301 0.0000
# 6 0.0000 0.0000 0.0000 -2.1474 0.0000 12.3159
#
#
#
# Elastic Compliance Matrix: (Units=1/GPa)
#
#
# Indices 1 2 3 4 5 6 
#
# 1 0.078205 -0.008416 -0.003617 0.000000 -0.014177 0.000000
# 2 -0.008416 0.009515 -0.004213 0.000000 -0.000308 0.000000
# 3 -0.003617 -0.004213 0.013290 0.000000 0.004575 0.000000
# 4 0.000000 0.000000 0.000000 0.045373 0.000000 0.007911
# 5 -0.014177 -0.000308 0.004575 0.000000 0.042041 0.000000
# 6 0.000000 0.000000 0.000000 0.007911 0.000000 0.082575
#
#
# Mechanical properties :
#
#
# Convention : Reuss Voigt Hill
#
# Bulk Modulus (GPa) = 14.59484 45.23012 29.91248
# Shear Modulus (GPa) = 15.32195 24.08236 19.70215
#
# Velocity S-wave (km/s) = 2.87230 3.60099 3.25708
# Velocity P-wave (km/s) = 4.34266 6.45318 5.50010
#
# Compressibility (1/GPa) = 0.06851738
#
# Stress axis : x y z
#
# Youngs Moduli (GPa) = 12.78694 105.10072 75.24500
#
# Poissons Ratio (x) = 0.88453 0.27216
# Poissons Ratio (y) = 0.10761 0.31701
# Poissons Ratio (z) = 0.04625 0.44279
#
# Static dielectric constant tensor:
#      x y z
#    x 3.329560 0.000000 -0.282330 
#    y 0.000000 3.704090 0.000000 
#    z -0.282330 0.000000 3.879950 
# 
# 
# High freq. dielectric constant tensor:
#      x y z
#    x 1.699490 0.000000 -0.006260 
#    y 0.000000 1.703700 0.000000 
#    z -0.006260 0.000000 1.738100 
# 
# From -- ./inp_files/74458.got.cif
#   From: 2010.06.25/outbox.cif.g09.slc.cpg/sg12_38_cif.got.tgz:74458.got - 2010.06.28 00:19:55.
