data_PCOD8084348
_publ_section_title
;
Structure prediction by ZEFSAII (Michael W. Deem and Ramdas Pophale) SiO2 
 PCOD8084348
Probable space group: C 2/M
;
_chemical_formula_sum "Si O2"
_cell_formula_units_Z 64
_cell_length_a 19.183398
_cell_length_b 19.664564
_cell_length_c 11.206438
_cell_angle_alpha 90.000000
_cell_angle_beta 127.596383
_cell_angle_gamma 90.000000
_cell_volume 3349.519749
_symmetry_space_group_name_H-M "C 2/M"
_symmetry_group_IT_number 12
_symmetry_cell_setting 'monoclinic'
loop_
_space_group_symop_operation_xyz
x,y,z
-x,y,-z
-x,-y,-z
x,-y,z
1/2+x,1/2+y,z
1/2-x,1/2+y,-z
1/2-x,1/2-y,-z
1/2+x,1/2-y,z
loop_
_atom_site_type_symbol
_atom_site_label
_atom_site_fract_x
_atom_site_fract_y
_atom_site_fract_z
Si Si1 0.575702 0.827246 0.744584
Si Si2 0.406817 0.879675 0.836072
Si Si3 0.336868 0.422776 0.037192
Si Si4 0.958725 0.801448 0.143110
Si Si5 0.872812 0.228349 0.807984
Si Si6 0.422272 0.924006 0.589361
Si Si7 0.826055 0.576184 0.979401
Si Si8 0.279885 0.860366 0.287178
O O1 0.546924 0.751779 0.753787
O O2 0.491479 0.869209 0.609471
O O3 0.649710 0.820410 0.720982
O O4 0.610467 0.869214 0.894030
O O5 0.371782 0.805536 0.761610
O O6 0.415268 0.922644 0.725007
O O7 0.335011 0.915503 0.846437
O O8 0.500000 0.875294 0.000000
O O9 0.371143 0.500000 0.065432
O O10 0.420910 0.374361 0.143025
O O11 0.274450 0.411375 0.086611
O O12 0.283633 0.406221 0.860802
O O13 0.058768 0.812968 0.204049
O O14 0.900966 0.771050 0.975564
O O15 0.776726 0.194779 0.697742
O O16 0.327895 0.908675 0.431774
O O17 0.451472 0.000000 0.582657
O O18 0.854799 0.500000 0.048731
#
# Coordination Sequence:
#
# PCOD8084348 Si02
#       8
#     8   8   8   8   8   8   8   8
#     4  11  20  35  55  82 109 148 185 224 270 329
#     4  12  20  35  56  84 112 141 188 228 278 331
#     4   9  20  36  57  83 113 143 182 232 282 327
#     4  10  18  35  59  83 110 141 186 234 279 321
#     4  10  18  36  56  82 112 140 181 237 275 316
#     4  12  24  38  55  78 116 155 184 221 269 333
#     4  10  19  31  52  85 113 139 177 225 275 327
#     4  10  24  35  55  79 114 151 188 217 272 333
#
# _framework density 19.107218
#
# number of rings (size 3 to 8) (size 9 to 14) (size 15 to 20)
#    0.000    1.500    5.000    1.500    1.750    4.500 
#    0.000    5.625    0.000    0.000    0.000    0.000 
#    0.000    5.000    0.000    0.000    0.000    0.000 
#
# Total GULP energy -396826.775395 kJ/mol
# GULP energy per Si atom -12400.836731 kJ/mol
# Density = 1.906373 g / cm^3
# Si number density = 19.107218 Si / 1000 Ang^3
#
#
#
# Elastic Constant Matrix: (Units=GPa)
#
#
# Indices 1 2 3 4 5 6 
#
# 1 120.5810 58.0852 37.6446 0.0000 6.9666 0.0000
# 2 58.0852 129.6324 35.9567 0.0000 14.0409 0.0000
# 3 37.6446 35.9567 48.5501 0.0000 4.8427 0.0000
# 4 0.0000 0.0000 0.0000 18.0221 0.0000 3.9226
# 5 6.9666 14.0409 4.8427 0.0000 20.3306 0.0000
# 6 0.0000 0.0000 0.0000 3.9226 0.0000 31.0976
#
#
#
# Elastic Compliance Matrix: (Units=1/GPa)
#
#
# Indices 1 2 3 4 5 6 
#
# 1 0.012116 -0.003544 -0.006761 0.000000 -0.000094 0.000000
# 2 -0.003544 0.011293 -0.005080 0.000000 -0.005375 0.000000
# 3 -0.006761 -0.005080 0.029727 0.000000 -0.001256 0.000000
# 4 0.000000 0.000000 0.000000 0.057054 0.000000 -0.007197
# 5 -0.000094 -0.005375 -0.001256 0.000000 0.053231 0.000000
# 6 0.000000 0.000000 0.000000 -0.007197 0.000000 0.033065
#
#
# Mechanical properties :
#
#
# Convention : Reuss Voigt Hill
#
# Bulk Modulus (GPa) = 44.70771 62.45959 53.58365
# Shear Modulus (GPa) = 21.30284 25.02853 23.16568
#
# Velocity S-wave (km/s) = 3.34265 3.62318 3.48574
# Velocity P-wave (km/s) = 6.19249 7.08965 6.65620
#
# Compressibility (1/GPa) = 0.02236750
#
# Stress axis : x y z
#
# Youngs Moduli (GPa) = 82.53360 88.54910 33.63924
#
# Poissons Ratio (x) = 0.31378 0.22743
# Poissons Ratio (y) = 0.29246 0.17089
# Poissons Ratio (z) = 0.55800 0.44984
#
# Static dielectric constant tensor:
#      x y z
#    x 3.721230 0.000000 -0.020860 
#    y 0.000000 3.483310 0.000000 
#    z -0.020860 0.000000 3.147040 
# 
# 
# High freq. dielectric constant tensor:
#      x y z
#    x 1.755600 0.000000 -0.009650 
#    y 0.000000 1.739110 0.000000 
#    z -0.009650 0.000000 1.699570 
# 
# From -- ./inp_files/168792.got.cif
#   From: 2010.06.25/outbox.cif.g09.slc.cpg/sg12_85_cif.got.tgz:168792.got - 2010.06.28 00:19:55.
