data_PCOD8084876
_publ_section_title
;
Structure prediction by ZEFSAII (Michael W. Deem and Ramdas Pophale) SiO2 
 PCOD8084876
Probable space group: C 2/M
;
_chemical_formula_sum "Si O2"
_cell_formula_units_Z 48
_cell_length_a 27.982370
_cell_length_b 9.176336
_cell_length_c 12.005584
_cell_angle_alpha 90.000000
_cell_angle_beta 70.632401
_cell_angle_gamma 90.000000
_cell_volume 2908.290116
_symmetry_space_group_name_H-M "C 2/M"
_symmetry_group_IT_number 12
_symmetry_cell_setting 'monoclinic'
loop_
_space_group_symop_operation_xyz
x,y,z
-x,y,-z
-x,-y,-z
x,-y,z
1/2+x,1/2+y,z
1/2-x,1/2+y,-z
1/2-x,1/2-y,-z
1/2+x,1/2-y,z
loop_
_atom_site_type_symbol
_atom_site_label
_atom_site_fract_x
_atom_site_fract_y
_atom_site_fract_z
Si Si1 0.021596 0.161477 0.607505
Si Si2 0.226099 0.669711 0.414563
Si Si3 0.085249 0.829940 0.257278
Si Si4 0.257160 0.168534 0.169699
Si Si5 0.610881 0.832249 0.459561
Si Si6 0.676142 0.666264 0.042277
O O1 0.069733 0.267728 0.578715
O O2 0.000000 0.161373 0.500000
O O3 0.973710 0.213169 0.720705
O O4 0.039652 0.000000 0.628661
O O5 0.240513 0.500000 0.405248
O O6 0.250000 0.750000 0.500000
O O7 0.248950 0.739021 0.286122
O O8 0.165920 0.692266 0.468907
O O9 0.108868 0.743365 0.341713
O O10 0.118113 0.798199 0.121151
O O11 0.088455 0.000000 0.287808
O O12 0.209583 0.193390 0.126208
O O13 0.264846 0.000000 0.194948
O O14 0.307774 0.226440 0.069203
O O15 0.597938 0.000000 0.451570
O O16 0.682426 0.500000 0.996503
#
# Coordination Sequence:
#
# PCOD8084876 Si02
#       6
#     8   8   8   8   8   8
#     4   8  15  26  42  63  90 123 156 185 222 277
#     4  11  23  36  50  68  92 125 164 201 237 280
#     4   9  16  28  45  67  94 127 158 184 224 278
#     4  10  19  31  48  69  94 125 159 195 236 279
#     4  10  19  29  43  65  93 121 153 195 237 276
#     4   9  17  29  47  69  97 128 156 190 231 277
#
# _framework density 16.504543999999999
#
# number of rings (size 3 to 8) (size 9 to 14) (size 15 to 20)
#    0.000    2.500    1.667    2.500    0.000    6.333 
#    0.000    0.000    0.000    0.000    0.000    1.167 
#    0.000    9.333    0.000    0.000    0.000    0.000 
#
# Total GULP energy -297520.992674 kJ/mol
# GULP energy per Si atom -12396.708028 kJ/mol
# Density = 1.646698 g / cm^3
# Si number density = 16.504544 Si / 1000 Ang^3
#
#
#
# Elastic Constant Matrix: (Units=GPa)
#
#
# Indices 1 2 3 4 5 6 
#
# 1 80.3125 59.1381 54.8508 0.0000 -26.7204 0.0000
# 2 59.1381 113.1393 57.4155 0.0000 -12.0387 0.0000
# 3 54.8508 57.4155 84.3636 0.0000 -24.7279 0.0000
# 4 0.0000 0.0000 0.0000 27.9474 0.0000 -4.8148
# 5 -26.7204 -12.0387 -24.7279 0.0000 31.3713 0.0000
# 6 0.0000 0.0000 0.0000 -4.8148 0.0000 25.5884
#
#
#
# Elastic Compliance Matrix: (Units=1/GPa)
#
#
# Indices 1 2 3 4 5 6 
#
# 1 0.031126 -0.010184 -0.008688 0.000000 0.015755 0.000000
# 2 -0.010184 0.017010 -0.007262 0.000000 -0.007871 0.000000
# 3 -0.008688 -0.007262 0.025305 0.000000 0.009759 0.000000
# 4 0.000000 0.000000 0.000000 0.036980 0.000000 0.006958
# 5 0.015755 -0.007871 0.009759 0.000000 0.049968 0.000000
# 6 0.000000 0.000000 0.000000 0.006958 0.000000 0.040389
#
#
# Mechanical properties :
#
#
# Convention : Reuss Voigt Hill
#
# Bulk Modulus (GPa) = 47.23176 68.95823 58.09500
# Shear Modulus (GPa) = 19.22307 24.07551 21.64929
#
# Velocity S-wave (km/s) = 3.41649 3.82346 3.62569
# Velocity P-wave (km/s) = 6.65153 7.83351 7.26659
#
# Compressibility (1/GPa) = 0.02117219
#
# Stress axis : x y z
#
# Youngs Moduli (GPa) = 32.12757 58.79021 39.51764
#
# Poissons Ratio (x) = 0.59872 0.34334
# Poissons Ratio (y) = 0.32719 0.28697
# Poissons Ratio (z) = 0.27913 0.42693
#
# Static dielectric constant tensor:
#      x y z
#    x 3.256440 0.000000 -0.505140 
#    y 0.000000 3.225690 0.000000 
#    z -0.505140 0.000000 3.021540 
# 
# 
# High freq. dielectric constant tensor:
#      x y z
#    x 1.617610 0.000000 -0.043430 
#    y 0.000000 1.644680 0.000000 
#    z -0.043430 0.000000 1.607500 
# 
# From -- ./inp_files/179226.got.cif
#   From: 2010.06.25/outbox.cif.g09.slc.cpg/sg12_90_cif.got.tgz:179226.got - 2010.06.28 00:19:55.
