data_PCOD8084682
_publ_section_title
;
Structure prediction by ZEFSAII (Michael W. Deem and Ramdas Pophale) SiO2 
 PCOD8084682
Probable space group: C 2/M
;
_chemical_formula_sum "Si O2"
_cell_formula_units_Z 64
_cell_length_a 26.705184
_cell_length_b 9.038727
_cell_length_c 18.253919
_cell_angle_alpha 90.000000
_cell_angle_beta 68.935424
_cell_angle_gamma 90.000000
_cell_volume 4111.710144
_symmetry_space_group_name_H-M "C 2/M"
_symmetry_group_IT_number 12
_symmetry_cell_setting 'monoclinic'
loop_
_space_group_symop_operation_xyz
x,y,z
-x,y,-z
-x,-y,-z
x,-y,z
1/2+x,1/2+y,z
1/2-x,1/2+y,-z
1/2-x,1/2-y,-z
1/2+x,1/2-y,z
loop_
_atom_site_type_symbol
_atom_site_label
_atom_site_fract_x
_atom_site_fract_y
_atom_site_fract_z
Si Si1 0.169897 0.170850 0.523462
Si Si2 0.254010 0.671594 0.382730
Si Si3 0.554153 0.829844 0.377610
Si Si4 0.328074 0.166598 0.922903
Si Si5 0.252801 0.826042 0.232766
Si Si6 0.136805 0.172915 0.233474
Si Si7 0.208510 0.833100 0.924528
Si Si8 0.932437 0.330124 0.460867
O O1 0.199462 0.263639 0.444983
O O2 0.196905 0.197578 0.587748
O O3 0.108781 0.225702 0.560798
O O4 0.172312 0.000000 0.499338
O O5 0.244307 0.500000 0.370658
O O6 0.269345 0.756286 0.301076
O O7 0.586394 0.722987 0.307427
O O8 0.491257 0.801441 0.397005
O O9 0.568854 0.789358 0.452909
O O10 0.568985 0.000000 0.353315
O O11 0.365532 0.245586 0.843406
O O12 0.267437 0.166811 0.927259
O O13 0.348856 0.000000 0.924037
O O14 0.332038 0.254069 0.997566
O O15 0.191035 0.786235 0.248372
O O16 0.291744 0.756630 0.151165
O O17 0.262710 0.000000 0.229435
O O18 0.133411 0.000000 0.219659
O O19 0.188517 0.000000 0.920886
O O20 0.915817 0.500000 0.458076
#
# Coordination Sequence:
#
# PCOD8084682 Si02
#       8
#     8   8   8   8   8   8   8   8
#     4  10  20  32  46  64  85 110 142 179 217 256
#     4  10  20  32  45  62  85 113 144 177 214 255
#     4   9  18  31  45  63  85 111 144 177 211 255
#     4   9  16  26  40  57  80 112 145 175 208 249
#     4  10  19  29  42  62  87 114 146 180 212 250
#     4  10  19  28  40  61  87 114 144 179 215 250
#     4   9  16  26  40  58  82 112 143 174 210 251
#     4   9  18  32  48  63  83 112 143 176 215 257
#
# _framework density 15.565300000000001
#
# number of rings (size 3 to 8) (size 9 to 14) (size 15 to 20)
#    0.000    2.500    0.000    3.750    0.000    9.000 
#    0.000    1.250    0.000    0.000    0.000    0.000 
#    0.000    1.000    0.000   10.500    0.000    6.250 
#
# Total GULP energy -396864.658612 kJ/mol
# GULP energy per Si atom -12402.020582 kJ/mol
# Density = 1.552987 g / cm^3
# Si number density = 15.565300 Si / 1000 Ang^3
#
#
#
# Elastic Constant Matrix: (Units=GPa)
#
#
# Indices 1 2 3 4 5 6 
#
# 1 51.9977 31.8598 23.4635 0.0000 -0.7455 0.0000
# 2 31.8598 107.4447 61.0372 0.0000 2.3480 0.0000
# 3 23.4635 61.0372 114.5040 0.0000 -0.4798 0.0000
# 4 0.0000 0.0000 0.0000 34.5812 0.0000 -1.0345
# 5 -0.7455 2.3480 -0.4798 0.0000 15.9430 0.0000
# 6 0.0000 0.0000 0.0000 -1.0345 0.0000 22.0032
#
#
#
# Elastic Compliance Matrix: (Units=1/GPa)
#
#
# Indices 1 2 3 4 5 6 
#
# 1 0.023764 -0.006208 -0.001552 0.000000 0.001979 0.000000
# 2 -0.006208 0.015048 -0.006761 0.000000 -0.002710 0.000000
# 3 -0.001552 -0.006761 0.012661 0.000000 0.001304 0.000000
# 4 0.000000 0.000000 0.000000 0.028958 0.000000 0.001361
# 5 0.001979 -0.002710 0.001304 0.000000 0.063254 0.000000
# 6 0.000000 0.000000 0.000000 0.001361 0.000000 0.045512
#
#
# Mechanical properties :
#
#
# Convention : Reuss Voigt Hill
#
# Bulk Modulus (GPa) = 44.58108 56.29637 50.43873
# Shear Modulus (GPa) = 22.15179 25.01120 23.58149
#
# Velocity S-wave (km/s) = 3.77656 4.01291 3.89653
# Velocity P-wave (km/s) = 6.90797 7.59721 7.26077
#
# Compressibility (1/GPa) = 0.02243104
#
# Stress axis : x y z
#
# Youngs Moduli (GPa) = 42.08013 66.45524 78.98544
#
# Poissons Ratio (x) = 0.41257 0.12259
# Poissons Ratio (y) = 0.26124 0.53398
# Poissons Ratio (z) = 0.06531 0.44927
#
# Static dielectric constant tensor:
#      x y z
#    x 2.621830 0.000000 0.001330 
#    y 0.000000 3.088940 0.000000 
#    z 0.001330 0.000000 2.972950 
# 
# 
# High freq. dielectric constant tensor:
#      x y z
#    x 1.547510 0.000000 -0.001550 
#    y 0.000000 1.614380 0.000000 
#    z -0.001550 0.000000 1.596480 
# 
# From -- ./inp_files/294531.got.cif
#   From: 2010.06.25/outbox.cif.g09.slc.cpg/sg12_148_cif.got.tgz:294531.got - 2010.06.28 00:19:55.
