data_PCOD8084884
_publ_section_title
;
Structure prediction by ZEFSAII (Michael W. Deem and Ramdas Pophale) SiO2 
 PCOD8084884
Probable space group: C 2/M
;
_chemical_formula_sum "Si O2"
_cell_formula_units_Z 64
_cell_length_a 19.132319
_cell_length_b 9.089969
_cell_length_c 20.499139
_cell_angle_alpha 90.000000
_cell_angle_beta 95.687803
_cell_angle_gamma 90.000000
_cell_volume 3547.498242
_symmetry_space_group_name_H-M "C 2/M"
_symmetry_group_IT_number 12
_symmetry_cell_setting 'monoclinic'
loop_
_space_group_symop_operation_xyz
x,y,z
-x,y,-z
-x,-y,-z
x,-y,z
1/2+x,1/2+y,z
1/2-x,1/2+y,-z
1/2-x,1/2-y,-z
1/2+x,1/2-y,z
loop_
_atom_site_type_symbol
_atom_site_label
_atom_site_fract_x
_atom_site_fract_y
_atom_site_fract_z
Si Si1 0.194213 0.328705 0.669719
Si Si2 0.317520 0.666200 0.202303
Si Si3 0.857676 0.828370 0.697005
Si Si4 0.849224 0.665840 0.825032
Si Si5 0.828261 0.666342 0.076722
Si Si6 0.943219 0.173615 0.582514
Si Si7 0.161178 0.166248 0.049485
Si Si8 0.902310 0.173971 0.437246
O O1 0.176845 0.500000 0.673542
O O2 0.160854 0.249113 0.729587
O O3 0.276845 0.299114 0.672604
O O4 0.160884 0.261493 0.601641
O O5 0.346672 0.500000 0.207627
O O6 0.234340 0.666860 0.186719
O O7 0.352463 0.749747 0.144394
O O8 0.881239 0.744224 0.764440
O O9 0.903640 0.761722 0.641967
O O10 0.872137 0.000000 0.709930
O O11 0.878129 0.500000 0.831717
O O12 0.873617 0.753166 0.891704
O O13 0.856924 0.500000 0.081617
O O14 0.744689 0.666579 0.063514
O O15 0.862090 0.748668 0.017950
O O16 0.906386 0.228825 0.512536
O O17 0.024953 0.217898 0.591810
O O18 0.936098 0.000000 0.581962
O O19 0.132596 0.000000 0.043529
O O20 0.888466 0.000000 0.431025
#
# Coordination Sequence:
#
# PCOD8084884 Si02
#       8
#     8   8   8   8   8   8   8   8
#     4  10  19  29  43  66  94 120 146 182 229 274
#     4   9  16  26  39  55  79 113 150 184 219 264
#     4   9  17  30  46  64  89 120 151 183 223 272
#     4   9  16  25  37  56  82 111 145 185 226 264
#     4   9  15  22  33  51  77 109 145 185 225 263
#     4   8  16  32  52  69  86 115 153 187 220 264
#     4   9  15  22  33  50  75 111 150 182 217 265
#     4   9  17  32  52  69  87 115 151 187 222 265
#
# _framework density 18.040882
#
# number of rings (size 3 to 8) (size 9 to 14) (size 15 to 20)
#    0.000    3.000    0.000    2.625    0.000    7.000 
#    0.000    2.500    0.000    0.000    0.000    0.000 
#    0.000    1.000    0.000   10.750    0.000   15.500 
#
# Total GULP energy -396739.185018 kJ/mol
# GULP energy per Si atom -12398.099532 kJ/mol
# Density = 1.799982 g / cm^3
# Si number density = 18.040882 Si / 1000 Ang^3
#
#
#
# Elastic Constant Matrix: (Units=GPa)
#
#
# Indices 1 2 3 4 5 6 
#
# 1 26.9063 23.5799 34.2925 0.0000 -16.4040 0.0000
# 2 23.5799 115.9886 57.3979 0.0000 -19.4058 0.0000
# 3 34.2925 57.3979 128.2289 0.0000 -42.5534 0.0000
# 4 0.0000 0.0000 0.0000 35.4631 0.0000 1.1545
# 5 -16.4040 -19.4058 -42.5534 0.0000 19.0074 0.0000
# 6 0.0000 0.0000 0.0000 1.1545 0.0000 9.6381
#
#
#
# Elastic Compliance Matrix: (Units=1/GPa)
#
#
# Indices 1 2 3 4 5 6 
#
# 1 0.084141 -0.007328 0.009312 0.000000 0.085981 0.000000
# 2 -0.007328 0.011716 -0.005500 0.000000 -0.006676 0.000000
# 3 0.009312 -0.005500 0.033354 0.000000 0.077094 0.000000
# 4 0.000000 0.000000 0.000000 0.028309 0.000000 -0.003391
# 5 0.085981 -0.006676 0.077094 0.000000 0.292597 0.000000
# 6 0.000000 0.000000 0.000000 -0.003391 0.000000 0.104162
#
#
# Mechanical properties :
#
#
# Convention : Reuss Voigt Hill
#
# Bulk Modulus (GPa) = 8.18477 55.74047 31.96262
# Shear Modulus (GPa) = 8.30513 23.21193 15.75853
#
# Velocity S-wave (km/s) = 2.14791 3.59085 2.95869
# Velocity P-wave (km/s) = 3.27078 6.93946 5.42467
#
# Compressibility (1/GPa) = 0.12217812
#
# Stress axis : x y z
#
# Youngs Moduli (GPa) = 11.88484 85.35278 29.98106
#
# Poissons Ratio (x) = 0.62546 -0.27917
# Poissons Ratio (y) = 0.08709 0.16490
# Poissons Ratio (z) = -0.11067 0.46946
#
# Static dielectric constant tensor:
#      x y z
#    x 2.832400 0.000000 -0.280170 
#    y 0.000000 3.342790 0.000000 
#    z -0.280170 0.000000 3.617770 
# 
# 
# High freq. dielectric constant tensor:
#      x y z
#    x 1.632550 0.000000 -0.014650 
#    y 0.000000 1.696980 0.000000 
#    z -0.014650 0.000000 1.713270 
# 
# From -- ./inp_files/287747.got.cif
#   From: 2010.06.25/outbox.cif.g09.slc.cpg/sg12_144_cif.got.tgz:287747.got - 2010.06.28 00:19:55.
