data_PCOD8084925
_publ_section_title
;
Structure prediction by ZEFSAII (Michael W. Deem and Ramdas Pophale) SiO2 
 PCOD8084925
Probable space group: C 2/M
;
_chemical_formula_sum "Si O2"
_cell_formula_units_Z 56
_cell_length_a 28.932893
_cell_length_b 8.848425
_cell_length_c 17.368843
_cell_angle_alpha 90.000000
_cell_angle_beta 130.510679
_cell_angle_gamma 90.000000
_cell_volume 3380.688007
_symmetry_space_group_name_H-M "C 2/M"
_symmetry_group_IT_number 12
_symmetry_cell_setting 'monoclinic'
loop_
_space_group_symop_operation_xyz
x,y,z
-x,y,-z
-x,-y,-z
x,-y,z
1/2+x,1/2+y,z
1/2-x,1/2+y,-z
1/2-x,1/2-y,-z
1/2+x,1/2-y,z
loop_
_atom_site_type_symbol
_atom_site_label
_atom_site_fract_x
_atom_site_fract_y
_atom_site_fract_z
Si Si1 0.921419 0.674420 0.268363
Si Si2 0.792448 0.174430 0.108080
Si Si3 0.347041 0.175989 0.585608
Si Si4 0.758695 0.327330 0.618758
Si Si5 0.214064 0.171238 0.728613
Si Si6 0.591429 0.172264 0.571036
Si Si7 0.541617 0.677296 0.369306
O O1 0.913993 0.500000 0.238375
O O2 0.859541 0.756808 0.178753
O O3 0.938136 0.694644 0.376843
O O4 0.976792 0.746190 0.280218
O O5 0.761229 0.200220 0.158388
O O6 0.798282 0.000000 0.093689
O O7 0.750000 0.250000 0.000000
O O8 0.296583 0.222910 0.468657
O O9 0.321488 0.215483 0.643543
O O10 0.409269 0.265724 0.639680
O O11 0.361010 0.000000 0.590397
O O12 0.741575 0.500000 0.578901
O O13 0.766327 0.307953 0.719717
O O14 0.162343 0.291526 0.654054
O O15 0.187392 0.000000 0.695454
O O16 0.561225 0.282943 0.477177
O O17 0.583346 0.000000 0.533686
O O18 0.534426 0.500000 0.353320
#
# Coordination Sequence:
#
# PCOD8084925 Si02
#       7
#     8   8   8   8   8   8   8
#     4  10  21  35  50  69  94 123 160 202 243 288
#     4  10  20  35  54  76 100 125 156 195 242 290
#     4  10  19  29  44  66  95 130 167 203 238 276
#     4   9  17  30  46  67  94 127 165 203 241 280
#     4   9  17  30  49  71  96 127 161 198 238 284
#     4  10  19  30  45  67  94 126 162 199 237 280
#     4  12  22  31  44  65  96 133 168 197 234 283
#
# _framework density 16.564675999999999
#
# number of rings (size 3 to 8) (size 9 to 14) (size 15 to 20)
#    0.000    2.000    1.429    3.429    0.000    4.571 
#    0.000    0.000    0.000    0.000    0.000    1.000 
#    0.000    8.000    0.000    0.000    0.000    0.000 
#
# Total GULP energy -347109.445114 kJ/mol
# GULP energy per Si atom -12396.765897 kJ/mol
# Density = 1.652697 g / cm^3
# Si number density = 16.564676 Si / 1000 Ang^3
#
#
#
# Elastic Constant Matrix: (Units=GPa)
#
#
# Indices 1 2 3 4 5 6 
#
# 1 135.6172 51.7213 49.8125 0.0000 -0.2083 0.0000
# 2 51.7213 99.8462 34.8285 0.0000 1.2697 0.0000
# 3 49.8125 34.8285 67.3388 0.0000 -3.9236 0.0000
# 4 0.0000 0.0000 0.0000 25.2084 0.0000 2.9942
# 5 -0.2083 1.2697 -3.9236 0.0000 15.3558 0.0000
# 6 0.0000 0.0000 0.0000 2.9942 0.0000 23.2791
#
#
#
# Elastic Compliance Matrix: (Units=1/GPa)
#
#
# Indices 1 2 3 4 5 6 
#
# 1 0.011068 -0.003462 -0.006467 0.000000 -0.001216 0.000000
# 2 -0.003462 0.013411 -0.004510 0.000000 -0.002308 0.000000
# 3 -0.006467 -0.004510 0.022316 0.000000 0.005987 0.000000
# 4 0.000000 0.000000 0.000000 0.040285 0.000000 -0.005182
# 5 -0.001216 -0.002308 0.005987 0.000000 0.066826 0.000000
# 6 0.000000 0.000000 0.000000 -0.005182 0.000000 0.043623
#
#
# Mechanical properties :
#
#
# Convention : Reuss Voigt Hill
#
# Bulk Modulus (GPa) = 55.81572 63.94743 59.88158
# Shear Modulus (GPa) = 21.51649 23.86464 22.69057
#
# Velocity S-wave (km/s) = 3.60799 3.79977 3.70512
# Velocity P-wave (km/s) = 7.15021 7.61180 7.38461
#
# Compressibility (1/GPa) = 0.01791610
#
# Stress axis : x y z
#
# Youngs Moduli (GPa) = 90.35449 74.56453 44.81081
#
# Poissons Ratio (x) = 0.25812 0.28981
# Poissons Ratio (y) = 0.31278 0.20211
# Poissons Ratio (z) = 0.58436 0.33631
#
# Static dielectric constant tensor:
#      x y z
#    x 3.399060 0.000000 -0.131060 
#    y 0.000000 3.228340 0.000000 
#    z -0.131060 0.000000 2.098870 
# 
# 
# High freq. dielectric constant tensor:
#      x y z
#    x 1.645760 0.000000 -0.001530 
#    y 0.000000 1.654160 0.000000 
#    z -0.001530 0.000000 1.582300 
# 
# From -- ./inp_files/287891.got.cif
#   From: 2010.06.25/outbox.cif.g09.slc.cpg/sg12_144_cif.got.tgz:287891.got - 2010.06.28 00:19:55.
