data_PCOD8084641
_publ_section_title
;
Structure prediction by ZEFSAII (Michael W. Deem and Ramdas Pophale) SiO2 
 PCOD8084641
Probable space group: C 2/M
;
_chemical_formula_sum "Si O2"
_cell_formula_units_Z 44
_cell_length_a 9.765507
_cell_length_b 24.545658
_cell_length_c 10.666397
_cell_angle_alpha 90.000000
_cell_angle_beta 132.306225
_cell_angle_gamma 90.000000
_cell_volume 1890.860285
_symmetry_space_group_name_H-M "C 2/M"
_symmetry_group_IT_number 12
_symmetry_cell_setting 'monoclinic'
loop_
_space_group_symop_operation_xyz
x,y,z
-x,y,-z
-x,-y,-z
x,-y,z
1/2+x,1/2+y,z
1/2-x,1/2+y,-z
1/2-x,1/2-y,-z
1/2+x,1/2-y,z
loop_
_atom_site_type_symbol
_atom_site_label
_atom_site_fract_x
_atom_site_fract_y
_atom_site_fract_z
Si Si1 0.500000 0.185976 0.500000
Si Si2 0.692698 0.607505 0.345895
Si Si3 0.284131 0.388461 0.362348
Si Si4 0.923924 0.000000 0.815383
Si Si5 0.653681 0.500000 0.703902
Si Si6 0.502407 0.204967 0.220584
Si Si7 0.084704 0.821106 0.924226
O O1 0.323434 0.149908 0.355658
O O2 0.533362 0.218044 0.389282
O O3 0.769891 0.594081 0.530388
O O4 0.703381 0.552677 0.273560
O O5 0.484495 0.634592 0.222205
O O6 0.500000 0.371696 0.500000
O O7 0.237496 0.442166 0.247808
O O8 0.157954 0.334986 0.254884
O O9 0.074949 0.000000 0.796032
O O10 0.000000 0.000000 0.000000
O O11 0.500000 0.500000 0.500000
O O12 0.514695 0.263053 0.161440
O O13 0.304812 0.179415 0.063002
O O14 0.000000 0.844214 0.000000
#
# Coordination Sequence:
#
# PCOD8084641 Si02
#       7
#     4   8   8   4   4   8   8
#     4  10  22  41  64 102 130 163 234 290 316 406
#     4  11  22  42  66  94 133 177 222 280 337 403
#     4  10  20  40  72 101 129 176 227 283 330 400
#     4  12  24  39  69 102 134 185 220 273 352 405
#     4  10  18  44  67 101 139 171 224 281 335 400
#     4  10  24  42  67  99 130 184 224 274 347 400
#     4  11  23  45  63  92 143 182 216 280 346 410
#
# _framework density 23.269829999999999
#
# number of rings (size 3 to 8) (size 9 to 14) (size 15 to 20)
#    0.000    1.455    5.455    0.545    0.000    6.182 
#    3.273    1.818    0.000    1.091    0.000    0.000 
#    0.000    0.000    0.000    0.000    0.000    0.000 
#
# Total GULP energy -272592.500483 kJ/mol
# GULP energy per Si atom -12390.568204 kJ/mol
# Density = 2.321687 g / cm^3
# Si number density = 23.269830 Si / 1000 Ang^3
#
#
#
# Elastic Constant Matrix: (Units=GPa)
#
#
# Indices 1 2 3 4 5 6 
#
# 1 67.4826 19.2536 15.9141 0.0000 1.4072 0.0000
# 2 19.2536 96.3663 38.1736 0.0000 21.2711 0.0000
# 3 15.9141 38.1736 81.3446 0.0000 3.5824 0.0000
# 4 0.0000 0.0000 0.0000 26.7783 0.0000 0.2079
# 5 1.4072 21.2711 3.5824 0.0000 42.2161 0.0000
# 6 0.0000 0.0000 0.0000 0.2079 0.0000 22.4238
#
#
#
# Elastic Compliance Matrix: (Units=1/GPa)
#
#
# Indices 1 2 3 4 5 6 
#
# 1 0.016009 -0.002646 -0.001933 0.000000 0.000963 0.000000
# 2 -0.002646 0.014861 -0.006154 0.000000 -0.006878 0.000000
# 3 -0.001933 -0.006154 0.015478 0.000000 0.001852 0.000000
# 4 0.000000 0.000000 0.000000 0.037346 0.000000 -0.000346
# 5 0.000963 -0.006878 0.001852 0.000000 0.026964 0.000000
# 6 0.000000 0.000000 0.000000 -0.000346 0.000000 0.044599
#
#
# Mechanical properties :
#
#
# Convention : Reuss Voigt Hill
#
# Bulk Modulus (GPa) = 40.18639 43.54179 41.86409
# Shear Modulus (GPa) = 27.02459 29.74044 28.38252
#
# Velocity S-wave (km/s) = 3.41157 3.57889 3.49623
# Velocity P-wave (km/s) = 5.72936 5.98584 5.85900
#
# Compressibility (1/GPa) = 0.02488404
#
# Stress axis : x y z
#
# Youngs Moduli (GPa) = 62.46414 67.28805 64.60845
#
# Poissons Ratio (x) = 0.17801 0.12488
# Poissons Ratio (y) = 0.16525 0.39759
# Poissons Ratio (z) = 0.12074 0.41408
#
# Static dielectric constant tensor:
#      x y z
#    x 4.238880 0.000000 -0.021130 
#    y 0.000000 4.621140 0.000000 
#    z -0.021130 0.000000 4.240270 
# 
# 
# High freq. dielectric constant tensor:
#      x y z
#    x 1.908380 0.000000 -0.015500 
#    y 0.000000 1.923490 0.000000 
#    z -0.015500 0.000000 1.916780 
# 
# From -- ./inp_files/136115.got.cif
#   From: 2010.06.25/outbox.cif.g09.slc.cpg/sg12_69_cif.got.tgz:136115.got - 2010.06.28 00:19:55.
