data_PCOD8084384
_publ_section_title
;
Structure prediction by ZEFSAII (Michael W. Deem and Ramdas Pophale) SiO2 
 PCOD8084384
Probable space group: C 2/M
;
_chemical_formula_sum "Si O2"
_cell_formula_units_Z 64
_cell_length_a 19.356806
_cell_length_b 10.388253
_cell_length_c 23.197650
_cell_angle_alpha 90.000000
_cell_angle_beta 133.560082
_cell_angle_gamma 90.000000
_cell_volume 3380.257528
_symmetry_space_group_name_H-M "C 2/M"
_symmetry_group_IT_number 12
_symmetry_cell_setting 'monoclinic'
loop_
_space_group_symop_operation_xyz
x,y,z
-x,y,-z
-x,-y,-z
x,-y,z
1/2+x,1/2+y,z
1/2-x,1/2+y,-z
1/2-x,1/2-y,-z
1/2+x,1/2-y,z
loop_
_atom_site_type_symbol
_atom_site_label
_atom_site_fract_x
_atom_site_fract_y
_atom_site_fract_z
Si Si1 0.357645 0.649685 0.382966
Si Si2 0.296371 0.148194 0.069269
Si Si3 0.182966 0.862739 0.516934
Si Si4 0.515324 0.850750 0.209940
Si Si5 0.166185 0.354020 0.202115
Si Si6 0.606834 0.197368 0.376269
Si Si7 0.243846 0.145149 0.168182
Si Si8 0.069651 0.360245 0.653641
O O1 0.391855 0.500000 0.399438
O O2 0.347910 0.710406 0.441966
O O3 0.254211 0.663384 0.295550
O O4 0.432538 0.742839 0.393359
O O5 0.406492 0.187184 0.138054
O O6 0.243716 0.163853 0.099790
O O7 0.286513 0.000000 0.041469
O O8 0.250000 0.250000 0.000000
O O9 0.296975 0.881857 0.578824
O O10 0.139725 0.820445 0.431465
O O11 0.136941 0.000000 0.501217
O O12 0.570346 0.823222 0.182235
O O13 0.559556 0.766162 0.287606
O O14 0.526278 0.000000 0.234948
O O15 0.163623 0.500000 0.175616
O O16 0.172189 0.250748 0.153863
O O17 0.530741 0.123749 0.371948
O O18 0.350440 0.169359 0.252503
O O19 0.209634 0.000000 0.164305
O O20 0.090133 0.500000 0.635778
#
# Coordination Sequence:
#
# PCOD8084384 Si02
#       8
#     8   8   8   8   8   8   8   8
#     4   9  18  34  54  75 107 145 180 226 278 323
#     4  10  21  38  61  88 115 144 177 222 274 325
#     4  10  21  36  52  75 109 146 184 232 283 323
#     4  10  18  35  61  82 104 142 189 228 267 323
#     4   9  17  31  57  84 105 139 188 228 262 313
#     4  11  20  33  56  79 104 143 189 231 272 325
#     4   9  18  34  56  81 112 144 175 217 273 326
#     4  10  19  33  55  80 104 138 185 229 268 321
#
# _framework density 18.933468000000001
#
# number of rings (size 3 to 8) (size 9 to 14) (size 15 to 20)
#    0.000    2.250    2.500    1.125    0.000    1.500 
#    0.000    8.125    0.000    3.750    0.000    0.000 
#    0.000    0.000    0.000    0.000    0.000    0.000 
#
# Total GULP energy -396501.171126 kJ/mol
# GULP energy per Si atom -12390.661598 kJ/mol
# Density = 1.889037 g / cm^3
# Si number density = 18.933468 Si / 1000 Ang^3
#
#
#
# Elastic Constant Matrix: (Units=GPa)
#
#
# Indices 1 2 3 4 5 6 
#
# 1 104.6775 59.7029 44.9434 0.0000 -13.4789 0.0000
# 2 59.7029 106.3877 55.7638 0.0000 -15.1398 0.0000
# 3 44.9434 55.7638 96.9774 0.0000 -8.4965 0.0000
# 4 0.0000 0.0000 0.0000 176.6031 0.0000 10.8768
# 5 -13.4789 -15.1398 -8.4965 0.0000 21.1725 0.0000
# 6 0.0000 0.0000 0.0000 10.8768 0.0000 26.7718
#
#
#
# Elastic Compliance Matrix: (Units=1/GPa)
#
#
# Indices 1 2 3 4 5 6 
#
# 1 0.014886 -0.006256 -0.002968 0.000000 0.003813 0.000000
# 2 -0.006256 0.017085 -0.006430 0.000000 0.005654 0.000000
# 3 -0.002968 -0.006430 0.015356 0.000000 -0.000325 0.000000
# 4 0.000000 0.000000 0.000000 0.005808 0.000000 -0.002360
# 5 0.003813 0.005654 -0.000325 0.000000 0.053571 0.000000
# 6 0.000000 0.000000 0.000000 -0.002360 0.000000 0.038311
#
#
# Mechanical properties :
#
#
# Convention : Reuss Voigt Hill
#
# Bulk Modulus (GPa) = 62.41888 69.87365 66.14627
# Shear Modulus (GPa) = 27.52341 54.75166 41.13754
#
# Velocity S-wave (km/s) = 3.81687 5.38337 4.66632
# Velocity P-wave (km/s) = 7.24318 8.69631 8.00280
#
# Compressibility (1/GPa) = 0.01602079
#
# Stress axis : x y z
#
# Youngs Moduli (GPa) = 67.17592 58.53098 65.12231
#
# Poissons Ratio (x) = 0.36616 0.19326
# Poissons Ratio (y) = 0.42024 0.41871
# Poissons Ratio (z) = 0.19936 0.37633
#
# Static dielectric constant tensor:
#      x y z
#    x 3.568550 0.000000 -0.047260 
#    y 0.000000 3.438290 0.000000 
#    z -0.047260 0.000000 3.260120 
# 
# 
# High freq. dielectric constant tensor:
#      x y z
#    x 1.744130 0.000000 -0.002920 
#    y 0.000000 1.719310 0.000000 
#    z -0.002920 0.000000 1.715280 
# 
# From -- ./inp_files/315756.got.cif
#   From: 2010.06.25/outbox.cif.g09.slc.cpg/sg12_158_cif.got.tgz:315756.got - 2010.06.28 00:19:55.
