data_PCOD8084996
_publ_section_title
;
Structure prediction by ZEFSAII (Michael W. Deem and Ramdas Pophale) SiO2 
 PCOD8084996
Probable space group: C 2/M
;
_chemical_formula_sum "Si O2"
_cell_formula_units_Z 48
_cell_length_a 27.045067
_cell_length_b 9.324864
_cell_length_c 23.738740
_cell_angle_alpha 90.000000
_cell_angle_beta 149.990705
_cell_angle_gamma 90.000000
_cell_volume 2994.196131
_symmetry_space_group_name_H-M "C 2/M"
_symmetry_group_IT_number 12
_symmetry_cell_setting 'monoclinic'
loop_
_space_group_symop_operation_xyz
x,y,z
-x,y,-z
-x,-y,-z
x,-y,z
1/2+x,1/2+y,z
1/2-x,1/2+y,-z
1/2-x,1/2-y,-z
1/2+x,1/2-y,z
loop_
_atom_site_type_symbol
_atom_site_label
_atom_site_fract_x
_atom_site_fract_y
_atom_site_fract_z
Si Si1 0.366110 0.833284 0.058167
Si Si2 0.950687 0.834478 0.038754
Si Si3 0.864089 0.833012 0.167132
Si Si4 0.541845 0.669531 0.626030
Si Si5 0.347501 0.335348 0.822261
Si Si6 0.347313 0.330583 0.374154
O O1 0.427530 0.767110 0.067899
O O2 0.399978 0.756516 0.148909
O O3 0.391718 0.000000 0.088378
O O4 0.250756 0.806553 0.933217
O O5 0.064830 0.810974 0.135600
O O6 0.930955 0.000000 0.035253
O O7 0.882450 0.788402 0.918915
O O8 0.924996 0.771339 0.280541
O O9 0.885683 0.000000 0.176959
O O10 0.552219 0.500000 0.635854
O O11 0.614731 0.727296 0.649014
O O12 0.428762 0.713506 0.501472
O O13 0.314979 0.500000 0.790965
O O14 0.255514 0.241755 0.711149
O O15 0.331597 0.500000 0.357678
#
# Coordination Sequence:
#
# PCOD8084996 Si02
#       6
#     8   8   8   8   8   8
#     4  10  19  29  45  70  92 112 147 190 222 253
#     4   9  18  32  47  63  89 123 149 174 217 271
#     4   9  17  30  46  64  91 124 149 173 216 269
#     4   8  15  28  46  67  91 121 151 175 211 267
#     4   9  18  31  46  66  91 118 148 179 217 266
#     4   9  16  28  47  69  92 117 147 183 218 255
#
# _framework density 16.031015
#
# number of rings (size 3 to 8) (size 9 to 14) (size 15 to 20)
#    0.000    3.000    0.000    3.500    0.000    3.333 
#    0.000    5.000    0.000    1.000    0.000    0.000 
#    0.000    0.000    0.000    0.000    0.000    0.000 
#
# Total GULP energy -297563.152383 kJ/mol
# GULP energy per Si atom -12398.464683 kJ/mol
# Density = 1.599453 g / cm^3
# Si number density = 16.031015 Si / 1000 Ang^3
#
#
#
# Elastic Constant Matrix: (Units=GPa)
#
#
# Indices 1 2 3 4 5 6 
#
# 1 102.5842 51.0711 54.0064 0.0000 -14.9048 0.0000
# 2 51.0711 61.8723 44.0446 0.0000 -4.3044 0.0000
# 3 54.0064 44.0446 110.9044 0.0000 -10.6334 0.0000
# 4 0.0000 0.0000 0.0000 24.0414 0.0000 2.6314
# 5 -14.9048 -4.3044 -10.6334 0.0000 27.9045 0.0000
# 6 0.0000 0.0000 0.0000 2.6314 0.0000 24.6968
#
#
#
# Elastic Compliance Matrix: (Units=1/GPa)
#
#
# Indices 1 2 3 4 5 6 
#
# 1 0.018856 -0.012574 -0.003538 0.000000 0.006784 0.000000
# 2 -0.012574 0.030917 -0.006583 0.000000 -0.004455 0.000000
# 3 -0.003538 -0.006583 0.013571 0.000000 0.002266 0.000000
# 4 0.000000 0.000000 0.000000 0.042086 0.000000 -0.004484
# 5 0.006784 -0.004455 0.002266 0.000000 0.039636 0.000000
# 6 0.000000 0.000000 0.000000 -0.004484 0.000000 0.040969
#
#
# Mechanical properties :
#
#
# Convention : Reuss Voigt Hill
#
# Bulk Modulus (GPa) = 55.69414 63.73392 59.71403
# Shear Modulus (GPa) = 21.06059 23.74445 22.40252
#
# Velocity S-wave (km/s) = 3.62849 3.85276 3.74230
# Velocity P-wave (km/s) = 7.23681 7.72234 7.48352
#
# Compressibility (1/GPa) = 0.01795521
#
# Stress axis : x y z
#
# Youngs Moduli (GPa) = 53.03249 32.34461 73.68468
#
# Poissons Ratio (x) = 0.40669 0.26072
# Poissons Ratio (y) = 0.66682 0.48504
# Poissons Ratio (z) = 0.18765 0.21291
#
# Static dielectric constant tensor:
#      x y z
#    x 2.965370 0.000000 -0.153620 
#    y 0.000000 2.857840 0.000000 
#    z -0.153620 0.000000 3.117650 
# 
# 
# High freq. dielectric constant tensor:
#      x y z
#    x 1.606440 0.000000 -0.004000 
#    y 0.000000 1.602860 0.000000 
#    z -0.004000 0.000000 1.609330 
# 
# From -- ./inp_files/323501.got.cif
#   From: 2010.06.25/outbox.cif.g09.slc.cpg/sg12_162_cif.got.tgz:323501.got - 2010.06.28 00:19:55.
