data_PCOD8084562
_publ_section_title
;
Structure prediction by ZEFSAII (Michael W. Deem and Ramdas Pophale) SiO2 
 PCOD8084562
Probable space group: C 2/M
;
_chemical_formula_sum "Si O2"
_cell_formula_units_Z 56
_cell_length_a 11.782230
_cell_length_b 20.316972
_cell_length_c 11.490304
_cell_angle_alpha 90.000000
_cell_angle_beta 80.655606
_cell_angle_gamma 90.000000
_cell_volume 2714.041103
_symmetry_space_group_name_H-M "C 2/M"
_symmetry_group_IT_number 12
_symmetry_cell_setting 'monoclinic'
loop_
_space_group_symop_operation_xyz
x,y,z
-x,y,-z
-x,-y,-z
x,-y,z
1/2+x,1/2+y,z
1/2-x,1/2+y,-z
1/2-x,1/2-y,-z
1/2+x,1/2-y,z
loop_
_atom_site_type_symbol
_atom_site_label
_atom_site_fract_x
_atom_site_fract_y
_atom_site_fract_z
Si Si1 0.738468 0.135064 0.700024
Si Si2 0.465568 0.573441 0.629120
Si Si3 0.869078 0.577326 0.060606
Si Si4 0.309871 0.815370 0.528768
Si Si5 0.084087 0.255740 0.289176
Si Si6 0.268252 0.814668 0.919721
Si Si7 0.115092 0.834687 0.733142
O O1 0.828846 0.076006 0.667022
O O2 0.647051 0.111724 0.811089
O O3 0.665731 0.142442 0.591640
O O4 0.813893 0.200158 0.720273
O O5 0.500000 0.608828 0.500000
O O6 0.511786 0.500000 0.618029
O O7 0.524035 0.606781 0.731841
O O8 0.833844 0.500000 0.066652
O O9 0.786081 0.618274 0.988687
O O10 0.000000 0.585738 0.000000
O O11 0.250000 0.750000 0.500000
O O12 0.421130 0.797172 0.589035
O O13 0.220785 0.851371 0.630972
O O14 0.118598 0.302838 0.177109
O O15 0.954173 0.231582 0.291530
O O16 0.155212 0.827025 0.859331
O O17 0.250000 0.750000 0.000000
#
# Coordination Sequence:
#
# PCOD8084562 Si02
#       7
#     8   8   8   8   8   8   8
#     4  10  18  37  60  89 126 157 207 255 309 376
#     4  10  19  33  58  91 125 162 198 243 314 391
#     4  11  26  45  65  87 122 176 227 265 306 371
#     4   9  18  31  54  86 121 153 192 243 315 374
#     4   9  20  34  61  91 125 157 196 260 322 383
#     4  11  23  40  62  91 121 165 221 268 318 361
#     4  10  21  37  56  90 125 158 194 254 322 385
#
# _framework density 20.633438999999999
#
# number of rings (size 3 to 8) (size 9 to 14) (size 15 to 20)
#    0.000    2.000    2.857    0.429    2.000    0.571 
#    0.000    1.429    0.000    2.571    0.000    8.000 
#    0.000    0.000    0.000    0.000    0.000    0.000 
#
# Total GULP energy -346952.808700 kJ/mol
# GULP energy per Si atom -12391.171739 kJ/mol
# Density = 2.058648 g / cm^3
# Si number density = 20.633439 Si / 1000 Ang^3
#
#
#
# Elastic Constant Matrix: (Units=GPa)
#
#
# Indices 1 2 3 4 5 6 
#
# 1 88.5780 33.9504 62.1424 0.0000 20.8599 0.0000
# 2 33.9504 92.4817 57.6311 0.0000 19.3876 0.0000
# 3 62.1424 57.6311 162.0080 0.0000 18.1899 0.0000
# 4 0.0000 0.0000 0.0000 29.2851 0.0000 -4.2008
# 5 20.8599 19.3876 18.1899 0.0000 42.7280 0.0000
# 6 0.0000 0.0000 0.0000 -4.2008 0.0000 17.3123
#
#
#
# Elastic Compliance Matrix: (Units=1/GPa)
#
#
# Indices 1 2 3 4 5 6 
#
# 1 0.016895 -0.001851 -0.005241 0.000000 -0.005177 0.000000
# 2 -0.001851 0.014935 -0.004141 0.000000 -0.004110 0.000000
# 3 -0.005241 -0.004141 0.009617 0.000000 0.000343 0.000000
# 4 0.000000 0.000000 0.000000 0.035378 0.000000 0.008585
# 5 -0.005177 -0.004110 0.000343 0.000000 0.027650 0.000000
# 6 0.000000 0.000000 0.000000 0.008585 0.000000 0.059846
#
#
# Mechanical properties :
#
#
# Convention : Reuss Voigt Hill
#
# Bulk Modulus (GPa) = 52.68452 72.27951 62.48201
# Shear Modulus (GPa) = 25.89145 30.48797 28.18971
#
# Velocity S-wave (km/s) = 3.54620 3.84813 3.70024
# Velocity P-wave (km/s) = 6.50818 7.40611 6.97161
#
# Compressibility (1/GPa) = 0.01898091
#
# Stress axis : x y z
#
# Youngs Moduli (GPa) = 59.18977 66.95801 103.97845
#
# Poissons Ratio (x) = 0.12394 0.54492
# Poissons Ratio (y) = 0.10956 0.43060
# Poissons Ratio (z) = 0.31020 0.27729
#
# Static dielectric constant tensor:
#      x y z
#    x 3.539590 0.000000 0.160840 
#    y 0.000000 3.636750 0.000000 
#    z 0.160840 0.000000 4.201320 
# 
# 
# High freq. dielectric constant tensor:
#      x y z
#    x 1.797650 0.000000 0.000240 
#    y 0.000000 1.780080 0.000000 
#    z 0.000240 0.000000 1.819610 
# 
# From -- ./inp_files/133172.got.cif
#   From: 2010.06.25/outbox.cif.g09.slc.cpg/sg12_67_cif.got.tgz:133172.got - 2010.06.28 00:19:55.
