data_PCOD8084878
_publ_section_title
;
Structure prediction by ZEFSAII (Michael W. Deem and Ramdas Pophale) SiO2 
 PCOD8084878
Probable space group: C 2/M
;
_chemical_formula_sum "Si O2"
_cell_formula_units_Z 64
_cell_length_a 27.752229
_cell_length_b 9.144904
_cell_length_c 14.499915
_cell_angle_alpha 90.000000
_cell_angle_beta 91.808156
_cell_angle_gamma 90.000000
_cell_volume 3678.122416
_symmetry_space_group_name_H-M "C 2/M"
_symmetry_group_IT_number 12
_symmetry_cell_setting 'monoclinic'
loop_
_space_group_symop_operation_xyz
x,y,z
-x,y,-z
-x,-y,-z
x,-y,z
1/2+x,1/2+y,z
1/2-x,1/2+y,-z
1/2-x,1/2-y,-z
1/2+x,1/2-y,z
loop_
_atom_site_type_symbol
_atom_site_label
_atom_site_fract_x
_atom_site_fract_y
_atom_site_fract_z
Si Si1 0.587219 0.332257 0.829635
Si Si2 0.890887 0.334511 0.835954
Si Si3 0.485405 0.668490 0.896357
Si Si4 0.268507 0.665570 0.122076
Si Si5 0.736404 0.169436 0.591813
Si Si6 0.694289 0.328838 0.234924
Si Si7 0.653985 0.835412 0.968359
Si Si8 0.663028 0.338233 0.697896
O O1 0.600298 0.500000 0.854910
O O2 0.529874 0.309086 0.828583
O O3 0.610216 0.232329 0.908999
O O4 0.608798 0.294657 0.728629
O O5 0.897340 0.500000 0.800324
O O6 0.943092 0.264927 0.852000
O O7 0.859143 0.241826 0.760518
O O8 0.861028 0.330591 0.927575
O O9 0.468607 0.500000 0.899796
O O10 0.500000 0.721388 0.000000
O O11 0.253617 0.500000 0.092325
O O12 0.221551 0.752889 0.151316
O O13 0.295267 0.748527 0.039263
O O14 0.306377 0.663168 0.207101
O O15 0.750000 0.250000 0.500000
O O16 0.778065 0.202553 0.668178
O O17 0.684526 0.225644 0.625307
O O18 0.730832 0.000000 0.570278
O O19 0.690177 0.500000 0.214284
O O20 0.662208 0.000000 0.933231
O O21 0.663817 0.500000 0.652930
#
# Coordination Sequence:
#
# PCOD8084878 Si02
#       8
#     8   8   8   8   8   8   8   8
#     4   9  17  30  48  70  96 131 171 212 256 291
#     4  11  23  34  46  67  97 133 172 212 255 294
#     4  10  19  32  51  71  95 131 177 222 258 293
#     4   9  17  30  48  67  92 127 165 203 245 290
#     4  10  20  34  55  81 104 127 156 191 239 298
#     4  10  21  36  52  71  97 128 163 201 242 295
#     4  10  19  29  43  65  93 128 170 211 248 288
#     4   8  15  28  47  72 101 128 158 197 240 290
#
# _framework density 17.400182000000001
#
# number of rings (size 3 to 8) (size 9 to 14) (size 15 to 20)
#    0.000    2.375    1.250    2.625    0.000    7.250 
#    0.000    0.000    0.000    0.000    0.000    0.875 
#    0.000    7.000    0.000    0.000    0.000    0.000 
#
# Total GULP energy -396740.701781 kJ/mol
# GULP energy per Si atom -12398.146931 kJ/mol
# Density = 1.736058 g / cm^3
# Si number density = 17.400182 Si / 1000 Ang^3
#
#
#
# Elastic Constant Matrix: (Units=GPa)
#
#
# Indices 1 2 3 4 5 6 
#
# 1 120.4904 61.7507 37.7338 0.0000 -5.5225 0.0000
# 2 61.7507 123.9470 39.9635 0.0000 -1.8303 0.0000
# 3 37.7338 39.9635 48.1359 0.0000 -12.5797 0.0000
# 4 0.0000 0.0000 0.0000 21.6732 0.0000 -3.1882
# 5 -5.5225 -1.8303 -12.5797 0.0000 20.2783 0.0000
# 6 0.0000 0.0000 0.0000 -3.1882 0.0000 31.8229
#
#
#
# Elastic Compliance Matrix: (Units=1/GPa)
#
#
# Indices 1 2 3 4 5 6 
#
# 1 0.012410 -0.004054 -0.006653 0.000000 -0.001114 0.000000
# 2 -0.004054 0.012898 -0.008969 0.000000 -0.005504 0.000000
# 3 -0.006653 -0.008969 0.039088 0.000000 0.021627 0.000000
# 4 0.000000 0.000000 0.000000 0.046830 0.000000 0.004692
# 5 -0.001114 -0.005504 0.021627 0.000000 0.061930 0.000000
# 6 0.000000 0.000000 0.000000 0.004692 0.000000 0.031894
#
#
# Mechanical properties :
#
#
# Convention : Reuss Voigt Hill
#
# Bulk Modulus (GPa) = 39.93009 63.49658 51.71333
# Shear Modulus (GPa) = 19.78242 24.96323 22.37283
#
# Velocity S-wave (km/s) = 3.37547 3.79179 3.58967
# Velocity P-wave (km/s) = 6.17977 7.46601 6.85314
#
# Compressibility (1/GPa) = 0.02504377
#
# Stress axis : x y z
#
# Youngs Moduli (GPa) = 80.58336 77.53143 25.58318
#
# Poissons Ratio (x) = 0.31429 0.17022
# Poissons Ratio (y) = 0.32666 0.22945
# Poissons Ratio (z) = 0.53616 0.69536
#
# Static dielectric constant tensor:
#      x y z
#    x 3.457990 0.000000 -0.137880 
#    y 0.000000 3.451000 0.000000 
#    z -0.137880 0.000000 2.885410 
# 
# 
# High freq. dielectric constant tensor:
#      x y z
#    x 1.674470 0.000000 -0.008580 
#    y 0.000000 1.684320 0.000000 
#    z -0.008580 0.000000 1.624650 
# 
# From -- ./inp_files/244068.got.cif
#   From: 2010.06.25/outbox.cif.g09.slc.cpg/sg12_123_cif.got.tgz:244068.got - 2010.06.28 00:19:55.
