data_PCOD8084678
_publ_section_title
;
Structure prediction by ZEFSAII (Michael W. Deem and Ramdas Pophale) SiO2 
 PCOD8084678
Probable space group: C 2/M
;
_chemical_formula_sum "Si O2"
_cell_formula_units_Z 64
_cell_length_a 32.176457
_cell_length_b 13.788806
_cell_length_c 32.364223
_cell_angle_alpha 90.000000
_cell_angle_beta 17.376118
_cell_angle_gamma 90.000000
_cell_volume 4288.273112
_symmetry_space_group_name_H-M "C 2/M"
_symmetry_group_IT_number 12
_symmetry_cell_setting 'monoclinic'
loop_
_space_group_symop_operation_xyz
x,y,z
-x,y,-z
-x,-y,-z
x,-y,z
1/2+x,1/2+y,z
1/2-x,1/2+y,-z
1/2-x,1/2-y,-z
1/2+x,1/2-y,z
loop_
_atom_site_type_symbol
_atom_site_label
_atom_site_fract_x
_atom_site_fract_y
_atom_site_fract_z
Si Si1 0.414767 0.106372 0.824547
Si Si2 0.364277 0.884955 0.150028
Si Si3 0.368373 0.886643 0.239713
Si Si4 0.579465 0.385069 0.385289
Si Si5 0.583709 0.705170 0.222424
Si Si6 0.565839 0.386348 0.559056
Si Si7 0.086660 0.705163 0.089959
Si Si8 0.585999 0.606363 0.136106
O O1 0.458308 0.183570 0.748204
O O2 0.462028 0.139562 0.825223
O O3 0.479101 0.000000 0.753636
O O4 0.250400 0.101349 0.981403
O O5 0.344487 0.848242 0.215712
O O6 0.238813 0.852680 0.239256
O O7 0.373270 0.000000 0.142881
O O8 0.500000 0.839021 0.000000
O O9 0.229721 0.866627 0.397805
O O10 0.499874 0.828494 0.132748
O O11 0.405763 0.000000 0.204403
O O12 0.500000 0.340503 0.500000
O O13 0.559321 0.500000 0.404323
O O14 0.516590 0.344783 0.402453
O O15 0.490229 0.673515 0.349238
O O16 0.537328 0.639750 0.227627
O O17 0.748483 0.694603 0.075665
O O18 0.535747 0.500000 0.594383
O O19 0.043983 0.816369 0.140792
O O20 0.522283 0.500000 0.186438
#
# Coordination Sequence:
#
# PCOD8084678 Si02
#       8
#     8   8   8   8   8   8   8   8
#     4   8  14  27  44  61  85 112 136 170 213 248
#     4   9  17  27  39  57  80 108 140 170 201 239
#     4  10  19  29  39  57  88 117 138 168 211 247
#     4   9  15  27  41  53  76 112 144 162 193 249
#     4   9  17  27  43  66  82 104 146 178 199 242
#     4  10  19  28  40  58  85 117 142 169 205 245
#     4   9  17  27  43  65  83 106 142 177 207 242
#     4   8  14  27  44  61  85 111 137 172 211 246
#
# _framework density 14.924422
#
# number of rings (size 3 to 8) (size 9 to 14) (size 15 to 20)
#    0.000    3.000    1.250    2.250    1.750    1.500 
#    0.000    2.500    0.000    2.250    0.000    0.000 
#    0.000    2.000    0.000    0.125    0.000    0.000 
#
# Total GULP energy -396570.181608 kJ/mol
# GULP energy per Si atom -12392.818175 kJ/mol
# Density = 1.489045 g / cm^3
# Si number density = 14.924422 Si / 1000 Ang^3
#
#
#
# Elastic Constant Matrix: (Units=GPa)
#
#
# Indices 1 2 3 4 5 6 
#
# 1 48.8791 20.8158 15.2850 -0.0020 4.1984 0.0013
# 2 20.8158 76.6104 17.4114 0.0017 6.0035 0.0029
# 3 15.2850 17.4114 61.0021 0.0027 11.3622 0.0032
# 4 -0.0020 0.0017 0.0027 13.6357 -0.0005 2.1916
# 5 4.1984 6.0035 11.3622 -0.0005 28.4106 -0.0007
# 6 0.0013 0.0029 0.0032 2.1916 -0.0007 15.1966
#
#
#
# Elastic Compliance Matrix: (Units=1/GPa)
#
#
# Indices 1 2 3 4 5 6 
#
# 1 0.024242 -0.005542 -0.004369 0.000005 -0.000664 -0.000001
# 2 -0.005542 0.015282 -0.002728 -0.000002 -0.001320 -0.000002
# 3 -0.004369 -0.002728 0.019490 -0.000004 -0.006573 -0.000003
# 4 0.000005 -0.000002 -0.000004 0.075077 0.000002 -0.010828
# 5 -0.000664 -0.001320 -0.006573 0.000002 0.038204 0.000003
# 6 -0.000001 -0.000002 -0.000003 -0.010828 0.000003 0.067366
#
#
# Mechanical properties :
#
#
# Convention : Reuss Voigt Hill
#
# Bulk Modulus (GPa) = 29.63999 32.61288 31.12643
# Shear Modulus (GPa) = 18.10394 20.31387 19.20891
#
# Velocity S-wave (km/s) = 3.48665 3.69333 3.59148
# Velocity P-wave (km/s) = 6.00934 6.33144 6.17249
#
# Compressibility (1/GPa) = 0.03373821
#
# Stress axis : x y z
#
# Youngs Moduli (GPa) = 41.25090 65.43594 51.30779
#
# Poissons Ratio (x) = 0.36263 0.22415
# Poissons Ratio (y) = 0.22861 0.13994
# Poissons Ratio (z) = 0.18021 0.17848
#
# Static dielectric constant tensor:
#      x y z
#    x 2.856930 -0.000010 0.022250 
#    y -0.000010 3.059950 0.000010 
#    z 0.022250 0.000010 2.759830 
# 
# 
# High freq. dielectric constant tensor:
#      x y z
#    x 1.567280 0.000000 0.001830 
#    y 0.000000 1.529760 0.000000 
#    z 0.001830 0.000000 1.559640 
# 
# From -- ./inp_files/111219.got.cif
#   From: 2010.06.25/outbox.cif.g09.slc.cpg/sg12_56_cif.got.tgz:111219.got - 2010.06.28 00:19:55.
