data_PCOD8084377
_publ_section_title
;
Structure prediction by ZEFSAII (Michael W. Deem and Ramdas Pophale) SiO2 
 PCOD8084377
Probable space group: C 2/M
;
_chemical_formula_sum "Si O2"
_cell_formula_units_Z 56
_cell_length_a 22.112059
_cell_length_b 17.379093
_cell_length_c 9.478649
_cell_angle_alpha 90.000000
_cell_angle_beta 52.314745
_cell_angle_gamma 90.000000
_cell_volume 2882.625923
_symmetry_space_group_name_H-M "C 2/M"
_symmetry_group_IT_number 12
_symmetry_cell_setting 'monoclinic'
loop_
_space_group_symop_operation_xyz
x,y,z
-x,y,-z
-x,-y,-z
x,-y,z
1/2+x,1/2+y,z
1/2-x,1/2+y,-z
1/2-x,1/2-y,-z
1/2+x,1/2-y,z
loop_
_atom_site_type_symbol
_atom_site_label
_atom_site_fract_x
_atom_site_fract_y
_atom_site_fract_z
Si Si1 0.111826 0.168865 0.099084
Si Si2 0.321571 0.772011 0.796529
Si Si3 0.835411 0.189604 0.499401
Si Si4 0.592020 0.225034 0.868909
Si Si5 0.470632 0.414795 0.384097
Si Si6 0.702242 0.090406 0.747922
Si Si7 0.261906 0.086021 0.976900
O O1 0.105444 0.227436 0.242530
O O2 0.033513 0.122786 0.192325
O O3 0.125319 0.219749 0.941822
O O4 0.179499 0.108294 0.030889
O O5 0.307057 0.751724 0.655051
O O6 0.328498 0.864028 0.805345
O O7 0.250000 0.750000 0.000000
O O8 0.873945 0.237506 0.320523
O O9 0.894271 0.133170 0.489659
O O10 0.763012 0.135599 0.559509
O O11 0.622460 0.137352 0.847450
O O12 0.500000 0.222052 0.000000
O O13 0.500000 0.418442 0.500000
O O14 0.452935 0.500000 0.352044
O O15 0.691098 0.000000 0.721354
O O16 0.736561 0.096808 0.856554
O O17 0.280681 0.000000 0.906483
#
# Coordination Sequence:
#
# PCOD8084377 Si02
#       7
#     8   8   8   8   8   8   8
#     4  11  19  38  58  88 122 162 198 249 302 370
#     4  10  18  35  60  86 119 153 207 253 300 365
#     4  12  22  40  61  93 124 165 204 259 309 374
#     4  12  26  42  62  91 130 172 212 248 311 384
#     4  11  21  34  59  94 124 156 204 252 310 371
#     4  11  22  40  66  92 121 161 215 267 307 361
#     4  10  19  35  63  93 118 151 203 263 311 355
#
# _framework density 19.426729999999999
#
# number of rings (size 3 to 8) (size 9 to 14) (size 15 to 20)
#    0.000    1.000    7.143    2.143    0.000    2.571 
#    0.000    5.714    0.000    0.000    0.000    3.000 
#    0.000    0.000    0.000    0.000    0.000    0.000 
#
# Total GULP energy -346999.269361 kJ/mol
# GULP energy per Si atom -12392.831049 kJ/mol
# Density = 1.938251 g / cm^3
# Si number density = 19.426730 Si / 1000 Ang^3
#
#
#
# Elastic Constant Matrix: (Units=GPa)
#
#
# Indices 1 2 3 4 5 6 
#
# 1 73.7606 41.6425 27.8419 0.0000 -6.5001 0.0000
# 2 41.6425 165.0022 57.8461 0.0000 -3.7234 0.0000
# 3 27.8419 57.8461 96.2223 0.0000 1.8712 0.0000
# 4 0.0000 0.0000 0.0000 16.4615 0.0000 -3.4853
# 5 -6.5001 -3.7234 1.8712 0.0000 17.7756 0.0000
# 6 0.0000 0.0000 0.0000 -3.4853 0.0000 25.6149
#
#
#
# Elastic Compliance Matrix: (Units=1/GPa)
#
#
# Indices 1 2 3 4 5 6 
#
# 1 0.017003 -0.003031 -0.003213 0.000000 0.005921 0.000000
# 2 -0.003031 0.008298 -0.004132 0.000000 0.001065 0.000000
# 3 -0.003213 -0.004132 0.013874 0.000000 -0.003501 0.000000
# 4 0.000000 0.000000 0.000000 0.062550 0.000000 0.008511
# 5 0.005921 0.001065 -0.003501 0.000000 0.059014 0.000000
# 6 0.000000 0.000000 0.000000 0.008511 0.000000 0.040198
#
#
# Mechanical properties :
#
#
# Convention : Reuss Voigt Hill
#
# Bulk Modulus (GPa) = 54.27874 65.51624 59.89749
# Shear Modulus (GPa) = 21.94610 25.81402 23.88006
#
# Velocity S-wave (km/s) = 3.36473 3.64921 3.50985
# Velocity P-wave (km/s) = 6.56476 7.18009 6.87931
#
# Compressibility (1/GPa) = 0.01842342
#
# Stress axis : x y z
#
# Youngs Moduli (GPa) = 58.81249 120.50725 72.07472
#
# Poissons Ratio (x) = 0.36529 0.23155
# Poissons Ratio (y) = 0.17828 0.29783
# Poissons Ratio (z) = 0.18895 0.49797
#
# Static dielectric constant tensor:
#      x y z
#    x 3.606060 0.000000 -0.092250 
#    y 0.000000 4.196110 0.000000 
#    z -0.092250 0.000000 3.408760 
# 
# 
# High freq. dielectric constant tensor:
#      x y z
#    x 1.746910 0.000000 -0.001280 
#    y 0.000000 1.768500 0.000000 
#    z -0.001280 0.000000 1.735970 
# 
# From -- ./inp_files/98087.got.cif
#   From: 2010.06.25/outbox.cif.g09.slc.cpg/sg12_50_cif.got.tgz:98087.got - 2010.06.28 00:19:55.
