data_PCOD8084241
_publ_section_title
;
Structure prediction by ZEFSAII (Michael W. Deem and Ramdas Pophale) SiO2 
 PCOD8084241
Probable space group: C 2/M
;
_chemical_formula_sum "Si O2"
_cell_formula_units_Z 48
_cell_length_a 14.487746
_cell_length_b 27.098848
_cell_length_c 9.271191
_cell_angle_alpha 90.000000
_cell_angle_beta 138.056235
_cell_angle_gamma 90.000000
_cell_volume 2432.899702
_symmetry_space_group_name_H-M "C 2/M"
_symmetry_group_IT_number 12
_symmetry_cell_setting 'monoclinic'
loop_
_space_group_symop_operation_xyz
x,y,z
-x,y,-z
-x,-y,-z
x,-y,z
1/2+x,1/2+y,z
1/2-x,1/2+y,-z
1/2-x,1/2-y,-z
1/2+x,1/2-y,z
loop_
_atom_site_type_symbol
_atom_site_label
_atom_site_fract_x
_atom_site_fract_y
_atom_site_fract_z
Si Si1 0.462279 0.203198 0.793870
Si Si2 0.119755 0.554408 0.237979
Si Si3 0.210966 0.854001 0.591219
Si Si4 0.024338 0.183959 0.861552
Si Si5 0.717927 0.148873 0.997017
Si Si6 0.572162 0.944657 0.726096
O O1 0.307103 0.181632 0.602031
O O2 0.472941 0.260686 0.771719
O O3 0.500000 0.190720 0.000000
O O4 0.567671 0.174593 0.811422
O O5 0.160231 0.500000 0.225289
O O6 0.252260 0.588796 0.386812
O O7 0.060413 0.551265 0.327136
O O8 0.000000 0.578697 0.000000
O O9 0.215472 0.842210 0.767255
O O10 0.058858 0.849803 0.348070
O O11 0.184791 0.175398 0.008472
O O12 0.000000 0.169159 0.000000
O O13 0.693277 0.091247 0.927368
O O14 0.500000 0.923066 0.500000
O O15 0.635674 0.000000 0.778058
#
# Coordination Sequence:
#
# PCOD8084241 Si02
#       6
#     8   8   8   8   8   8
#     4   9  19  38  61  85 110 147 198 243 280 330
#     4  10  18  34  62  91 112 140 187 239 285 337
#     4  11  20  38  60  86 115 149 191 239 285 337
#     4  11  25  38  54  82 122 157 190 235 287 341
#     4  11  21  38  61  85 115 152 192 234 285 340
#     4  10  21  36  59  91 119 143 184 239 288 336
#
# _framework density 19.729543
#
# number of rings (size 3 to 8) (size 9 to 14) (size 15 to 20)
#    0.000    1.667    3.333    2.000    2.333    0.000 
#    0.000    4.167    0.000    3.000    0.000    0.000 
#    0.000    0.000    0.000    0.000    0.000    0.000 
#
# Total GULP energy -297504.053616 kJ/mol
# GULP energy per Si atom -12396.002234 kJ/mol
# Density = 1.968464 g / cm^3
# Si number density = 19.729543 Si / 1000 Ang^3
#
#
#
# Elastic Constant Matrix: (Units=GPa)
#
#
# Indices 1 2 3 4 5 6 
#
# 1 109.0915 28.8621 25.5969 0.0000 -1.7464 0.0000
# 2 28.8621 105.6294 21.2219 0.0000 2.3996 0.0000
# 3 25.5969 21.2219 74.1935 0.0000 -11.5302 0.0000
# 4 0.0000 0.0000 0.0000 22.4353 0.0000 -0.3880
# 5 -1.7464 2.3996 -11.5302 0.0000 27.6263 0.0000
# 6 0.0000 0.0000 0.0000 -0.3880 0.0000 9.8356
#
#
#
# Elastic Compliance Matrix: (Units=1/GPa)
#
#
# Indices 1 2 3 4 5 6 
#
# 1 0.010465 -0.002241 -0.003033 0.000000 -0.000410 0.000000
# 2 -0.002241 0.010652 -0.002609 0.000000 -0.002156 0.000000
# 3 -0.003033 -0.002609 0.016336 0.000000 0.006853 0.000000
# 4 0.000000 0.000000 0.000000 0.044603 0.000000 0.001760
# 5 -0.000410 -0.002156 0.006853 0.000000 0.039219 0.000000
# 6 0.000000 0.000000 0.000000 0.001760 0.000000 0.101741
#
#
# Mechanical properties :
#
#
# Convention : Reuss Voigt Hill
#
# Bulk Modulus (GPa) = 46.10940 48.91956 47.51448
# Shear Modulus (GPa) = 20.32438 26.19502 23.25970
#
# Velocity S-wave (km/s) = 3.21308 3.64772 3.43728
# Velocity P-wave (km/s) = 6.09808 6.52611 6.31572
#
# Compressibility (1/GPa) = 0.02168755
#
# Stress axis : x y z
#
# Youngs Moduli (GPa) = 95.56094 93.87535 61.21485
#
# Poissons Ratio (x) = 0.21034 0.18567
# Poissons Ratio (y) = 0.21412 0.15971
# Poissons Ratio (z) = 0.28984 0.24492
#
# Static dielectric constant tensor:
#      x y z
#    x 3.708540 0.000000 -0.067490 
#    y 0.000000 3.701550 0.000000 
#    z -0.067490 0.000000 3.307120 
# 
# 
# High freq. dielectric constant tensor:
#      x y z
#    x 1.762930 0.000000 -0.013920 
#    y 0.000000 1.774190 0.000000 
#    z -0.013920 0.000000 1.745730 
# 
# From -- ./inp_files/67352.got.cif
#   From: 2010.06.25/outbox.cif.g09.slc.cpg/sg12_34_cif.got.tgz:67352.got - 2010.06.28 00:19:55.
