data_PCOD8084488
_publ_section_title
;
Structure prediction by ZEFSAII (Michael W. Deem and Ramdas Pophale) SiO2 
 PCOD8084488
Probable space group: C 2/M
;
_chemical_formula_sum "Si O2"
_cell_formula_units_Z 52
_cell_length_a 28.881213
_cell_length_b 8.137124
_cell_length_c 11.306245
_cell_angle_alpha 90.000000
_cell_angle_beta 91.784368
_cell_angle_gamma 90.000000
_cell_volume 2655.792330
_symmetry_space_group_name_H-M "C 2/M"
_symmetry_group_IT_number 12
_symmetry_cell_setting 'monoclinic'
loop_
_space_group_symop_operation_xyz
x,y,z
-x,y,-z
-x,-y,-z
x,-y,z
1/2+x,1/2+y,z
1/2-x,1/2+y,-z
1/2-x,1/2-y,-z
1/2+x,1/2-y,z
loop_
_atom_site_type_symbol
_atom_site_label
_atom_site_fract_x
_atom_site_fract_y
_atom_site_fract_z
Si Si1 0.908879 0.500000 0.504685
Si Si2 0.549098 0.000000 0.239920
Si Si3 0.896126 0.810633 0.849601
Si Si4 0.876777 0.677325 0.088307
Si Si5 0.203493 0.184480 0.771178
Si Si6 0.320106 0.818086 0.480568
Si Si7 0.200709 0.810331 0.270903
Si Si8 0.942364 0.500000 0.249051
O O1 0.942177 0.500000 0.619544
O O2 0.875728 0.338084 0.504210
O O3 0.940340 0.500000 0.390558
O O4 0.567274 0.828533 0.185722
O O5 0.494798 0.000000 0.210029
O O6 0.847989 0.754162 0.786854
O O7 0.909798 0.000000 0.814136
O O8 0.890593 0.811345 0.991551
O O9 0.872941 0.500000 0.022619
O O10 0.827262 0.707081 0.144290
O O11 0.916296 0.662533 0.194177
O O12 0.189640 0.211080 0.634447
O O13 0.257892 0.219135 0.794292
O O14 0.192431 0.000000 0.805781
O O15 0.296913 0.730345 0.590225
O O16 0.297654 0.000000 0.462171
O O17 0.208871 0.000000 0.250673
#
# Coordination Sequence:
#
# PCOD8084488 Si02
#       8
#     4   4   8   8   8   8   8   4
#     4  10  19  38  72  90 128 162 208 258 341 386
#     4  12  22  44  75  95 130 168 206 279 329 388
#     4  11  24  42  65  95 129 172 220 265 319 380
#     4  10  21  42  64  85 128 167 211 263 316 376
#     4  12  23  35  58  89 126 170 218 263 319 378
#     4  10  18  36  59  82 120 166 204 263 323 379
#     4  11  23  37  57  88 125 167 217 267 317 380
#     4  10  22  42  73  99 120 168 216 257 345 390
#
# _framework density 19.579844999999999
#
# number of rings (size 3 to 8) (size 9 to 14) (size 15 to 20)
#    0.923    0.308    3.846    3.462    1.077    1.846 
#    0.000    2.308    0.000    0.923    0.000    0.000 
#    0.000    0.000    0.000    0.000    0.000    0.000 
#
# Total GULP energy -322274.663638 kJ/mol
# GULP energy per Si atom -12395.179371 kJ/mol
# Density = 1.953528 g / cm^3
# Si number density = 19.579845 Si / 1000 Ang^3
#
#
#
# Elastic Constant Matrix: (Units=GPa)
#
#
# Indices 1 2 3 4 5 6 
#
# 1 107.4028 35.2702 18.9091 0.0000 -19.1464 0.0000
# 2 35.2702 86.4345 14.2597 0.0000 -6.2265 0.0000
# 3 18.9091 14.2597 82.2599 0.0000 -17.4910 0.0000
# 4 0.0000 0.0000 0.0000 28.6223 0.0000 -4.3383
# 5 -19.1464 -6.2265 -17.4910 0.0000 17.6294 0.0000
# 6 0.0000 0.0000 0.0000 -4.3383 0.0000 13.3578
#
#
#
# Elastic Compliance Matrix: (Units=1/GPa)
#
#
# Indices 1 2 3 4 5 6 
#
# 1 0.013015 -0.004460 0.000573 0.000000 0.013128 0.000000
# 2 -0.004460 0.013543 -0.001692 0.000000 -0.001739 0.000000
# 3 0.000573 -0.001692 0.015618 0.000000 0.015520 0.000000
# 4 0.000000 0.000000 0.000000 0.036747 0.000000 0.011935
# 5 0.013128 -0.001739 0.015520 0.000000 0.085765 0.000000
# 6 0.000000 0.000000 0.000000 0.011935 0.000000 0.078739
#
#
# Mechanical properties :
#
#
# Convention : Reuss Voigt Hill
#
# Bulk Modulus (GPa) = 32.23955 45.88613 39.06284
# Shear Modulus (GPa) = 18.87336 25.76577 22.31957
#
# Velocity S-wave (km/s) = 3.10807 3.63151 3.37994
# Velocity P-wave (km/s) = 5.42048 6.40860 5.93514
#
# Compressibility (1/GPa) = 0.03101780
#
# Stress axis : x y z
#
# Youngs Moduli (GPa) = 76.83682 73.83826 64.02721
#
# Poissons Ratio (x) = 0.32928 -0.03667
# Poissons Ratio (y) = 0.34265 0.10836
# Poissons Ratio (z) = -0.04401 0.12496
#
# Static dielectric constant tensor:
#      x y z
#    x 3.455600 0.000000 0.044760 
#    y 0.000000 3.421240 0.000000 
#    z 0.044760 0.000000 3.454870 
# 
# 
# High freq. dielectric constant tensor:
#      x y z
#    x 1.752160 0.000000 -0.002960 
#    y 0.000000 1.753620 0.000000 
#    z -0.002960 0.000000 1.764850 
# 
# From -- ./inp_files/180040.got.cif
#   From: 2010.06.25/outbox.cif.g09.slc.cpg/sg12_91_cif.got.tgz:180040.got - 2010.06.28 00:19:55.
