data_PCOD8084984
_publ_section_title
;
Structure prediction by ZEFSAII (Michael W. Deem and Ramdas Pophale) SiO2 
 PCOD8084984
Probable space group: C 2/M
;
_chemical_formula_sum "Si O2"
_cell_formula_units_Z 64
_cell_length_a 15.443065
_cell_length_b 9.151220
_cell_length_c 25.385933
_cell_angle_alpha 90.000000
_cell_angle_beta 107.986386
_cell_angle_gamma 90.000000
_cell_volume 3412.286329
_symmetry_space_group_name_H-M "C 2/M"
_symmetry_group_IT_number 12
_symmetry_cell_setting 'monoclinic'
loop_
_space_group_symop_operation_xyz
x,y,z
-x,y,-z
-x,-y,-z
x,-y,z
1/2+x,1/2+y,z
1/2-x,1/2+y,-z
1/2-x,1/2-y,-z
1/2+x,1/2-y,z
loop_
_atom_site_type_symbol
_atom_site_label
_atom_site_fract_x
_atom_site_fract_y
_atom_site_fract_z
Si Si1 0.160302 0.825633 0.000155
Si Si2 0.153712 0.172913 0.116711
Si Si3 0.204017 0.171543 0.422369
Si Si4 0.217434 0.326706 0.769424
Si Si5 0.535435 0.672909 0.883612
Si Si6 0.951110 0.826809 0.230123
Si Si7 0.349385 0.673251 0.703166
Si Si8 0.600468 0.828178 0.494961
O O1 0.086666 0.765221 0.944612
O O2 0.167400 0.000000 0.000171
O O3 0.250000 0.750000 0.000000
O O4 0.143484 0.765084 0.055792
O O5 0.241562 0.224199 0.166178
O O6 0.067692 0.229161 0.133542
O O7 0.153769 0.000000 0.113129
O O8 0.182291 0.228396 0.359846
O O9 0.311800 0.207878 0.451357
O O10 0.129266 0.249236 0.446003
O O11 0.187173 0.000000 0.426112
O O12 0.206244 0.500000 0.764245
O O13 0.120100 0.250424 0.744531
O O14 0.280017 0.266729 0.733995
O O15 0.538999 0.500000 0.887186
O O16 0.573558 0.724059 0.834311
O O17 0.050031 0.767968 0.265216
O O18 0.944595 0.000000 0.235255
O O19 0.349754 0.500000 0.706018
O O20 0.500000 0.776381 0.500000
O O21 0.593124 0.000000 0.482482
#
# Coordination Sequence:
#
# PCOD8084984 Si02
#       8
#     8   8   8   8   8   8   8   8
#     4  10  19  29  45  69  94 119 156 203 249 297
#     4   9  16  29  49  70  91 122 165 205 241 296
#     4   9  18  33  53  76 102 136 175 206 239 291
#     4  10  19  33  53  74  98 131 169 208 252 300
#     4   9  16  29  49  69  90 123 165 204 243 295
#     4  10  19  33  52  72  97 130 168 209 252 296
#     4   9  18  34  53  72 100 138 173 203 242 298
#     4   9  18  33  53  78 108 137 164 203 253 294
#
# _framework density 18.755752999999999
#
# number of rings (size 3 to 8) (size 9 to 14) (size 15 to 20)
#    0.000    2.625    1.250    1.125    0.000    2.750 
#    0.000    3.125    0.000    3.000    0.000    0.000 
#    0.000    0.000    0.000    0.000    0.000    0.000 
#
# Total GULP energy -396429.709322 kJ/mol
# GULP energy per Si atom -12388.428416 kJ/mol
# Density = 1.871306 g / cm^3
# Si number density = 18.755753 Si / 1000 Ang^3
#
#
#
# Elastic Constant Matrix: (Units=GPa)
#
#
# Indices 1 2 3 4 5 6 
#
# 1 169.3867 27.3532 70.4468 0.0000 -1.5987 0.0000
# 2 27.3532 16.5569 25.3231 0.0000 -1.7266 0.0000
# 3 70.4468 25.3231 146.1469 0.0000 -6.2054 0.0000
# 4 0.0000 0.0000 0.0000 15.5851 0.0000 -1.3568
# 5 -1.5987 -1.7266 -6.2054 0.0000 18.2232 0.0000
# 6 0.0000 0.0000 0.0000 -1.3568 0.0000 30.1657
#
#
#
# Elastic Compliance Matrix: (Units=1/GPa)
#
#
# Indices 1 2 3 4 5 6 
#
# 1 0.008598 -0.010758 -0.002325 0.000000 -0.001057 0.000000
# 2 -0.010758 0.095797 -0.011230 0.000000 0.004309 0.000000
# 3 -0.002325 -0.011230 0.010000 0.000000 0.002137 0.000000
# 4 0.000000 0.000000 0.000000 0.064416 0.000000 0.002897
# 5 -0.001057 0.004309 0.002137 0.000000 0.055918 0.000000
# 6 0.000000 0.000000 0.000000 0.002897 0.000000 0.033280
#
#
# Mechanical properties :
#
#
# Convention : Reuss Voigt Hill
#
# Bulk Modulus (GPa) = 15.20513 64.25963 39.73238
# Shear Modulus (GPa) = 14.76844 26.72595 20.74720
#
# Velocity S-wave (km/s) = 2.80912 3.77894 3.32953
# Velocity P-wave (km/s) = 4.31811 7.30590 6.00093
#
# Compressibility (1/GPa) = 0.06576726
#
# Stress axis : x y z
#
# Youngs Moduli (GPa) = 116.30564 10.43876 100.00136
#
# Poissons Ratio (x) = 0.11230 0.23253
# Poissons Ratio (y) = 1.25127 1.12302
# Poissons Ratio (z) = 0.27044 0.11723
#
# Static dielectric constant tensor:
#      x y z
#    x 3.605310 0.000000 0.043720 
#    y 0.000000 2.951050 0.000000 
#    z 0.043720 0.000000 3.237810 
# 
# 
# High freq. dielectric constant tensor:
#      x y z
#    x 1.740050 0.000000 0.000930 
#    y 0.000000 1.676660 0.000000 
#    z 0.000930 0.000000 1.735800 
# 
# From -- ./inp_files/335267.got.cif
#   From: 2010.06.25/outbox.cif.g09.slc.cpg/sg12_168_cif.got.tgz:335267.got - 2010.06.28 00:19:55.
