data_PCOD8084743
_publ_section_title
;
Structure prediction by ZEFSAII (Michael W. Deem and Ramdas Pophale) SiO2 
 PCOD8084743
Probable space group: C 2/M
;
_chemical_formula_sum "Si O2"
_cell_formula_units_Z 32
_cell_length_a 23.458539
_cell_length_b 5.264005
_cell_length_c 23.593287
_cell_angle_alpha 90.000000
_cell_angle_beta 141.775333
_cell_angle_gamma 90.000000
_cell_volume 1802.679732
_symmetry_space_group_name_H-M "C 2/M"
_symmetry_group_IT_number 12
_symmetry_cell_setting 'monoclinic'
loop_
_space_group_symop_operation_xyz
x,y,z
-x,y,-z
-x,-y,-z
x,-y,z
1/2+x,1/2+y,z
1/2-x,1/2+y,-z
1/2-x,1/2-y,-z
1/2+x,1/2-y,z
loop_
_atom_site_type_symbol
_atom_site_label
_atom_site_fract_x
_atom_site_fract_y
_atom_site_fract_z
Si Si1 0.492077 0.000000 0.561447
Si Si2 0.813325 0.500000 0.612711
Si Si3 0.489008 0.500000 0.083601
Si Si4 0.697218 0.000000 0.525574
Si Si5 0.776890 0.500000 0.775403
Si Si6 0.349659 0.500000 0.881089
Si Si7 0.938698 0.500000 0.811249
Si Si8 0.067577 0.000000 0.606414
O O1 0.500000 0.000000 0.500000
O O2 0.544061 0.250685 0.625641
O O3 0.386181 0.000000 0.496027
O O4 0.756553 0.750642 0.584540
O O5 0.840522 0.500000 0.568004
O O6 0.907876 0.500000 0.721796
O O7 0.566079 0.500000 0.096082
O O8 0.499184 0.752102 0.129420
O O9 0.388844 0.500000 0.975735
O O10 0.789494 0.747863 0.824436
O O11 0.846748 0.500000 0.777591
O O12 0.673741 0.500000 0.669806
O O13 0.000000 0.000000 0.500000
#
# Coordination Sequence:
#
# PCOD8084743 Si02
#       8
#     4   4   4   4   4   4   4   4
#     4  10  21  32  50  68  95 134 165 213 241 289
#     4  10  21  34  52  71  99 133 170 216 238 300
#     4   9  17  30  44  70  96 125 162 193 258 290
#     4  10  21  36  50  70  98 137 176 203 254 282
#     4  10  19  29  46  69  97 132 168 191 244 296
#     4   9  17  30  46  64  98 133 154 201 241 310
#     4  10  19  28  48  71  96 127 161 209 233 307
#     4  10  21  33  44  71  97 133 166 208 238 283
#
# _framework density 17.751349000000001
#
# number of rings (size 3 to 8) (size 9 to 14) (size 15 to 20)
#    0.000    2.250    0.000    3.000    7.000    3.000 
#    0.000    0.000    0.000    0.000    0.000    0.000 
#    0.000   20.000    0.000    0.000    0.000    0.000 
#
# Total GULP energy -198364.356759 kJ/mol
# GULP energy per Si atom -12397.772297 kJ/mol
# Density = 1.771095 g / cm^3
# Si number density = 17.751349 Si / 1000 Ang^3
#
#
#
# Elastic Constant Matrix: (Units=GPa)
#
#
# Indices 1 2 3 4 5 6 
#
# 1 48.1660 15.9286 13.8551 -0.0029 1.8999 -0.0205
# 2 15.9286 180.1945 45.6529 -0.0126 -1.6668 -0.0690
# 3 13.8551 45.6529 120.2993 -0.0069 -7.1579 0.0015
# 4 -0.0029 -0.0126 -0.0069 26.4847 0.0018 -4.8740
# 5 1.8999 -1.6668 -7.1579 0.0018 21.9070 -0.0041
# 6 -0.0205 -0.0690 0.0015 -4.8740 -0.0041 41.0078
#
#
#
# Elastic Compliance Matrix: (Units=1/GPa)
#
#
# Indices 1 2 3 4 5 6 
#
# 1 0.021957 -0.001421 -0.002151 0.000003 -0.002715 0.000009
# 2 -0.001421 0.006234 -0.002209 0.000004 -0.000124 0.000010
# 3 -0.002151 -0.002209 0.009586 0.000000 0.003151 -0.000005
# 4 0.000003 0.000004 0.000000 0.038602 -0.000002 0.004588
# 5 -0.002715 -0.000124 0.003151 -0.000002 0.046903 0.000003
# 6 0.000009 0.000010 -0.000005 0.004588 0.000003 0.024931
#
#
# Mechanical properties :
#
#
# Convention : Reuss Voigt Hill
#
# Bulk Modulus (GPa) = 38.14732 55.50367 46.82549
# Shear Modulus (GPa) = 29.67099 36.09477 32.88288
#
# Velocity S-wave (km/s) = 4.09281 4.51416 4.30864
# Velocity P-wave (km/s) = 6.62354 7.64888 7.15460
#
# Compressibility (1/GPa) = 0.02621416
#
# Stress axis : x y z
#
# Youngs Moduli (GPa) = 45.54280 160.41592 104.31573
#
# Poissons Ratio (x) = 0.22796 0.22440
# Poissons Ratio (y) = 0.06472 0.23048
# Poissons Ratio (z) = 0.09797 0.35443
#
# Static dielectric constant tensor:
#      x y z
#    x 2.742780 -0.001380 -0.011640 
#    y -0.001380 8.158100 0.000620 
#    z -0.011640 0.000620 3.260990 
# 
# 
# High freq. dielectric constant tensor:
#      x y z
#    x 1.621330 0.000000 0.002840 
#    y 0.000000 1.724000 0.000000 
#    z 0.002840 0.000000 1.678580 
# 
# From -- ./inp_files/318737.got.cif
#   From: 2010.06.25/outbox.cif.g09.slc.cpg/sg12_160_cif.got.tgz:318737.got - 2010.06.28 00:19:55.
