data_PCOD8084282
_publ_section_title
;
Structure prediction by ZEFSAII (Michael W. Deem and Ramdas Pophale) SiO2 
 PCOD8084282
Probable space group: C 2/M
;
_chemical_formula_sum "Si O2"
_cell_formula_units_Z 56
_cell_length_a 13.688148
_cell_length_b 18.346683
_cell_length_c 12.741571
_cell_angle_alpha 90.000000
_cell_angle_beta 108.766307
_cell_angle_gamma 90.000000
_cell_volume 3029.710872
_symmetry_space_group_name_H-M "C 2/M"
_symmetry_group_IT_number 12
_symmetry_cell_setting 'monoclinic'
loop_
_space_group_symop_operation_xyz
x,y,z
-x,y,-z
-x,-y,-z
x,-y,z
1/2+x,1/2+y,z
1/2-x,1/2+y,-z
1/2-x,1/2-y,-z
1/2+x,1/2-y,z
loop_
_atom_site_type_symbol
_atom_site_label
_atom_site_fract_x
_atom_site_fract_y
_atom_site_fract_z
Si Si1 0.420391 0.184671 0.057338
Si Si2 0.887146 0.235858 0.630491
Si Si3 0.235229 0.583219 0.120860
Si Si4 0.587778 0.118419 0.245087
Si Si5 0.450262 0.923619 0.371867
Si Si6 0.895131 0.196099 0.222925
Si Si7 0.667327 0.213652 0.611315
O O1 0.484813 0.123163 0.139430
O O2 0.380551 0.248334 0.120448
O O3 0.500000 0.220080 0.000000
O O4 0.325044 0.140505 0.974015
O O5 0.875318 0.302257 0.706420
O O6 0.780907 0.191038 0.608260
O O7 0.900402 0.263351 0.514471
O O8 0.985523 0.187936 0.699422
O O9 0.243612 0.500000 0.079128
O O10 0.178288 0.578058 0.213700
O O11 0.350007 0.617075 0.174968
O O12 0.550487 0.073831 0.332157
O O13 0.500000 0.920781 0.500000
O O14 0.377525 0.853563 0.335958
O O15 0.388091 0.000000 0.334036
O O16 0.830280 0.222098 0.302321
#
# Coordination Sequence:
#
# PCOD8084282 Si02
#       7
#     8   8   8   8   8   8   8
#     4   9  20  35  58  80 105 136 184 236 274 312
#     4  10  20  33  58  87 110 139 189 225 260 320
#     4  11  23  37  54  81 113 145 181 227 282 324
#     4  10  18  35  54  83 110 140 176 229 275 322
#     4  11  20  31  51  82 115 142 172 219 278 330
#     4  11  20  37  59  82 108 144 187 221 272 329
#     4  11  19  35  58  83 112 145 182 223 268 324
#
# _framework density 18.483611
#
# number of rings (size 3 to 8) (size 9 to 14) (size 15 to 20)
#    0.000    1.571    5.714    1.286    0.000    3.143 
#    0.000    0.714    0.000    2.143    0.000    0.000 
#    0.000    0.000    0.000    0.000    0.000    0.000 
#
# Total GULP energy -346901.584462 kJ/mol
# GULP energy per Si atom -12389.342302 kJ/mol
# Density = 1.844154 g / cm^3
# Si number density = 18.483611 Si / 1000 Ang^3
#
#
#
# Elastic Constant Matrix: (Units=GPa)
#
#
# Indices 1 2 3 4 5 6 
#
# 1 90.0174 34.1862 31.6081 0.0000 8.9849 0.0000
# 2 34.1862 80.5850 21.2756 0.0000 9.6542 0.0000
# 3 31.6081 21.2756 86.5235 0.0000 1.8909 0.0000
# 4 0.0000 0.0000 0.0000 58.3376 0.0000 -7.6560
# 5 8.9849 9.6542 1.8909 0.0000 25.4820 0.0000
# 6 0.0000 0.0000 0.0000 -7.6560 0.0000 12.6599
#
#
#
# Elastic Compliance Matrix: (Units=1/GPa)
#
#
# Indices 1 2 3 4 5 6 
#
# 1 0.014673 -0.004770 -0.004120 0.000000 -0.003061 0.000000
# 2 -0.004770 0.015433 -0.001964 0.000000 -0.004019 0.000000
# 3 -0.004120 -0.001964 0.013520 0.000000 0.001194 0.000000
# 4 0.000000 0.000000 0.000000 0.018619 0.000000 0.011260
# 5 -0.003061 -0.004019 0.001194 0.000000 0.041757 0.000000
# 6 0.000000 0.000000 0.000000 0.011260 0.000000 0.085799
#
#
# Mechanical properties :
#
#
# Convention : Reuss Voigt Hill
#
# Bulk Modulus (GPa) = 45.62925 47.91840 46.77382
# Shear Modulus (GPa) = 22.85033 30.63296 26.74165
#
# Velocity S-wave (km/s) = 3.51985 4.07542 3.80778
# Velocity P-wave (km/s) = 6.42332 6.93732 6.68526
#
# Compressibility (1/GPa) = 0.02191577
#
# Stress axis : x y z
#
# Youngs Moduli (GPa) = 68.15341 64.79611 73.96602
#
# Poissons Ratio (x) = 0.30908 0.30476
# Poissons Ratio (y) = 0.32510 0.14531
# Poissons Ratio (z) = 0.28081 0.12729
#
# Static dielectric constant tensor:
#      x y z
#    x 3.300780 0.000000 -0.049130 
#    y 0.000000 3.520310 0.000000 
#    z -0.049130 0.000000 3.557560 
# 
# 
# High freq. dielectric constant tensor:
#      x y z
#    x 1.711640 0.000000 -0.012240 
#    y 0.000000 1.683460 0.000000 
#    z -0.012240 0.000000 1.728870 
# 
# From -- ./inp_files/145474.got.cif
#   From: 2010.06.25/outbox.cif.g09.slc.cpg/sg12_73_cif.got.tgz:145474.got - 2010.06.28 00:19:55.
