data_PCOD8084568
_publ_section_title
;
Structure prediction by ZEFSAII (Michael W. Deem and Ramdas Pophale) SiO2 
 PCOD8084568
Probable space group: C 2/M
;
_chemical_formula_sum "Si O2"
_cell_formula_units_Z 48
_cell_length_a 17.952884
_cell_length_b 14.474032
_cell_length_c 17.493756
_cell_angle_alpha 90.000000
_cell_angle_beta 32.417111
_cell_angle_gamma 90.000000
_cell_volume 2436.887898
_symmetry_space_group_name_H-M "C 2/M"
_symmetry_group_IT_number 12
_symmetry_cell_setting 'monoclinic'
loop_
_space_group_symop_operation_xyz
x,y,z
-x,y,-z
-x,-y,-z
x,-y,z
1/2+x,1/2+y,z
1/2-x,1/2+y,-z
1/2-x,1/2-y,-z
1/2+x,1/2-y,z
loop_
_atom_site_type_symbol
_atom_site_label
_atom_site_fract_x
_atom_site_fract_y
_atom_site_fract_z
Si Si1 0.556745 0.106373 0.083128
Si Si2 0.055274 0.604252 0.263643
Si Si3 0.244124 0.333987 0.446376
Si Si4 0.310134 0.280011 0.799381
Si Si5 0.074588 0.898962 0.589359
Si Si6 0.275576 0.195065 0.297027
O O1 0.528509 0.115969 0.197116
O O2 0.421170 0.143395 0.156437
O O3 0.586167 0.000000 0.034088
O O4 0.684312 0.171349 0.951242
O O5 0.103064 0.500000 0.241730
O O6 0.177151 0.672506 0.187186
O O7 0.909934 0.625548 0.431746
O O8 0.250000 0.250000 0.500000
O O9 0.347299 0.407940 0.395843
O O10 0.297204 0.295207 0.318696
O O11 0.451362 0.326973 0.704779
O O12 0.297428 0.287639 0.719978
O O13 0.177835 0.870108 0.432263
O O14 0.014914 0.000000 0.621134
#
# Coordination Sequence:
#
# PCOD8084568 Si02
#       6
#     8   8   8   8   8   8
#     4  11  23  40  63  90 122 165 203 239 299 370
#     4  11  22  41  65  87 118 162 209 250 297 354
#     4  10  18  37  61  85 113 155 203 244 291 351
#     4  12  24  38  58  93 127 154 196 253 303 354
#     4  11  21  36  61  88 118 157 200 247 296 353
#     4  11  22  38  61  85 127 161 194 242 307 359
#
# _framework density 19.697254000000001
#
# number of rings (size 3 to 8) (size 9 to 14) (size 15 to 20)
#    0.000    1.000    6.667    3.000    0.000    4.000 
#    0.000    2.500    0.000    3.000    0.000    0.000 
#    0.000    0.000    0.000    0.000    0.000    0.000 
#
# Total GULP energy -297604.812094 kJ/mol
# GULP energy per Si atom -12400.200504 kJ/mol
# Density = 1.965242 g / cm^3
# Si number density = 19.697254 Si / 1000 Ang^3
#
#
#
# Elastic Constant Matrix: (Units=GPa)
#
#
# Indices 1 2 3 4 5 6 
#
# 1 50.6159 33.7443 9.5580 -0.0002 1.7931 0.0001
# 2 33.7443 135.3184 41.2930 -0.0001 -5.8234 0.0000
# 3 9.5580 41.2930 89.2621 0.0001 -19.2869 -0.0002
# 4 -0.0002 -0.0001 0.0001 24.7168 -0.0002 2.4591
# 5 1.7931 -5.8234 -19.2869 -0.0002 24.8891 0.0001
# 6 0.0001 0.0000 -0.0002 2.4591 0.0001 6.5172
#
#
#
# Elastic Compliance Matrix: (Units=1/GPa)
#
#
# Indices 1 2 3 4 5 6 
#
# 1 0.023960 -0.005950 -0.000585 0.000000 -0.003572 0.000000
# 2 -0.005950 0.010117 -0.004130 0.000000 -0.000405 0.000000
# 3 -0.000585 -0.004130 0.015586 0.000000 0.011154 0.000000
# 4 0.000000 0.000000 0.000000 0.042036 0.000000 -0.015862
# 5 -0.003572 -0.000405 0.011154 0.000000 0.048984 -0.000001
# 6 0.000000 0.000000 0.000000 -0.015862 -0.000001 0.159426
#
#
# Mechanical properties :
#
#
# Convention : Reuss Voigt Hill
#
# Bulk Modulus (GPa) = 35.29488 49.37635 42.33562
# Shear Modulus (GPa) = 15.11097 23.93136 19.52117
#
# Velocity S-wave (km/s) = 2.77277 3.48941 3.15153
# Velocity P-wave (km/s) = 5.31118 6.43092 5.89768
#
# Compressibility (1/GPa) = 0.02833272
#
# Stress axis : x y z
#
# Youngs Moduli (GPa) = 41.73542 98.84561 64.15882
#
# Poissons Ratio (x) = 0.58816 0.03752
# Poissons Ratio (y) = 0.24834 0.26500
# Poissons Ratio (z) = 0.02440 0.40827
#
# Static dielectric constant tensor:
#      x y z
#    x 3.844720 0.000000 -0.129930 
#    y 0.000000 3.959790 0.000000 
#    z -0.129930 0.000000 3.703800 
# 
# 
# High freq. dielectric constant tensor:
#      x y z
#    x 1.762040 0.000000 -0.007710 
#    y 0.000000 1.771400 0.000000 
#    z -0.007710 0.000000 1.755840 
# 
# From -- ./inp_files/111470.got.cif
#   From: 2010.06.25/outbox.cif.g09.slc.cpg/sg12_56_cif.got.tgz:111470.got - 2010.06.28 00:19:55.
