data_PCOD8084864
_publ_section_title
;
Structure prediction by ZEFSAII (Michael W. Deem and Ramdas Pophale) SiO2 
 PCOD8084864
Probable space group: C 2/M
;
_chemical_formula_sum "Si O2"
_cell_formula_units_Z 64
_cell_length_a 20.219197
_cell_length_b 9.357229
_cell_length_c 20.984690
_cell_angle_alpha 90.000000
_cell_angle_beta 73.846271
_cell_angle_gamma 90.000000
_cell_volume 3813.462985
_symmetry_space_group_name_H-M "C 2/M"
_symmetry_group_IT_number 12
_symmetry_cell_setting 'monoclinic'
loop_
_space_group_symop_operation_xyz
x,y,z
-x,y,-z
-x,-y,-z
x,-y,z
1/2+x,1/2+y,z
1/2-x,1/2+y,-z
1/2-x,1/2-y,-z
1/2+x,1/2-y,z
loop_
_atom_site_type_symbol
_atom_site_label
_atom_site_fract_x
_atom_site_fract_y
_atom_site_fract_z
Si Si1 0.347707 0.163868 0.932401
Si Si2 0.258280 0.657605 0.785257
Si Si3 0.681846 0.836184 0.334885
Si Si4 0.050694 0.833957 0.328926
Si Si5 0.056083 0.163495 0.538615
Si Si6 0.807670 0.664816 0.521683
Si Si7 0.783442 0.335522 0.073423
Si Si8 0.594628 0.341711 0.185336
O O1 0.273715 0.222405 0.931871
O O2 0.408623 0.244094 0.877343
O O3 0.353486 0.000000 0.910941
O O4 0.350565 0.184333 0.009194
O O5 0.246360 0.500000 0.759101
O O6 0.259414 0.770437 0.727319
O O7 0.200140 0.691236 0.855408
O O8 0.329930 0.663817 0.804100
O O9 0.609575 0.755366 0.348495
O O10 0.708849 0.820568 0.399254
O O11 0.670304 0.000000 0.318680
O O12 0.043424 0.789609 0.256041
O O13 0.978163 0.808881 0.383123
O O14 0.073412 0.000000 0.327324
O O15 0.118330 0.271582 0.514988
O O16 0.000000 0.197115 0.500000
O O17 0.082279 0.000000 0.525523
O O18 0.806999 0.500000 0.500568
O O19 0.750000 0.750000 0.500000
O O20 0.756156 0.500000 0.072793
O O21 0.574467 0.500000 0.168303
#
# Coordination Sequence:
#
# PCOD8084864 Si02
#       8
#     8   8   8   8   8   8   8   8
#     4   9  14  19  29  44  66  98 137 176 213 252
#     4   8  14  24  37  51  72 105 142 178 219 267
#     4  10  19  29  43  65  89 112 144 190 233 268
#     4   9  17  29  45  65  88 117 149 184 226 275
#     4  10  19  33  55  76  94 121 158 195 234 283
#     4  11  24  38  52  71  97 126 156 194 239 285
#     4   8  14  22  29  42  66  98 136 175 212 255
#     4   8  14  23  33  49  76 106 138 173 213 260
#
# _framework density 16.782647000000001
#
# number of rings (size 3 to 8) (size 9 to 14) (size 15 to 20)
#    0.000    2.875    1.250    2.625    0.000    7.250 
#    0.000    0.000    0.000    0.000    0.000    0.000 
#    0.000    0.000    0.000    1.125    0.000   23.250 
#
# Total GULP energy -396431.295358 kJ/mol
# GULP energy per Si atom -12388.477980 kJ/mol
# Density = 1.674445 g / cm^3
# Si number density = 16.782647 Si / 1000 Ang^3
#
#
#
# Elastic Constant Matrix: (Units=GPa)
#
#
# Indices 1 2 3 4 5 6 
#
# 1 35.9906 35.4247 32.9659 0.0000 -2.7037 0.0000
# 2 35.4247 110.1437 67.8850 0.0000 -4.9973 0.0000
# 3 32.9659 67.8850 147.6306 0.0000 -24.6215 0.0000
# 4 0.0000 0.0000 0.0000 31.1234 0.0000 -2.6694
# 5 -2.7037 -4.9973 -24.6215 0.0000 12.2711 0.0000
# 6 0.0000 0.0000 0.0000 -2.6694 0.0000 15.5242
#
#
#
# Elastic Compliance Matrix: (Units=1/GPa)
#
#
# Indices 1 2 3 4 5 6 
#
# 1 0.043017 -0.010518 -0.005865 0.000000 -0.006574 0.000000
# 2 -0.010518 0.016080 -0.006522 0.000000 -0.008856 0.000000
# 3 -0.005865 -0.006522 0.015667 0.000000 0.027486 0.000000
# 4 0.000000 0.000000 0.000000 0.032611 0.000000 0.005608
# 5 -0.006574 -0.008856 0.027486 0.000000 0.131587 0.000000
# 6 0.000000 0.000000 0.000000 0.005608 0.000000 0.065380
#
#
# Mechanical properties :
#
#
# Convention : Reuss Voigt Hill
#
# Bulk Modulus (GPa) = 34.54094 62.92400 48.73247
# Shear Modulus (GPa) = 13.89646 22.28303 18.08975
#
# Velocity S-wave (km/s) = 2.88067 3.64777 3.28668
# Velocity P-wave (km/s) = 5.62942 7.43751 6.59571
#
# Compressibility (1/GPa) = 0.02895115
#
# Stress axis : x y z
#
# Youngs Moduli (GPa) = 23.24684 62.18865 63.82986
#
# Poissons Ratio (x) = 0.65412 0.37439
# Poissons Ratio (y) = 0.24452 0.41632
# Poissons Ratio (z) = 0.13635 0.40561
#
# Static dielectric constant tensor:
#      x y z
#    x 2.771430 0.000000 -0.441800 
#    y 0.000000 3.261180 0.000000 
#    z -0.441800 0.000000 4.036740 
# 
# 
# High freq. dielectric constant tensor:
#      x y z
#    x 1.552610 0.000000 -0.026450 
#    y 0.000000 1.654860 0.000000 
#    z -0.026450 0.000000 1.677230 
# 
# From -- ./inp_files/319097.got.cif
#   From: 2010.06.25/outbox.cif.g09.slc.cpg/sg12_160_cif.got.tgz:319097.got - 2010.06.28 00:19:55.
