data_PCOD8084286
_publ_section_title
;
Structure prediction by ZEFSAII (Michael W. Deem and Ramdas Pophale) SiO2 
 PCOD8084286
Probable space group: C 2/M
;
_chemical_formula_sum "Si O2"
_cell_formula_units_Z 48
_cell_length_a 17.965715
_cell_length_b 16.136766
_cell_length_c 17.758392
_cell_angle_alpha 90.000000
_cell_angle_beta 31.312029
_cell_angle_gamma 90.000000
_cell_volume 2675.568664
_symmetry_space_group_name_H-M "C 2/M"
_symmetry_group_IT_number 12
_symmetry_cell_setting 'monoclinic'
loop_
_space_group_symop_operation_xyz
x,y,z
-x,y,-z
-x,-y,-z
x,-y,z
1/2+x,1/2+y,z
1/2-x,1/2+y,-z
1/2-x,1/2-y,-z
1/2+x,1/2-y,z
loop_
_atom_site_type_symbol
_atom_site_label
_atom_site_fract_x
_atom_site_fract_y
_atom_site_fract_z
Si Si1 0.801164 0.093783 0.408231
Si Si2 0.843273 0.404579 0.879788
Si Si3 0.897566 0.676573 0.299552
Si Si4 0.419606 0.667635 0.804839
Si Si5 0.604896 0.784053 0.299144
Si Si6 0.785348 0.714716 0.636574
O O1 0.709405 0.152755 0.541187
O O2 0.789622 0.133056 0.334395
O O3 0.965985 0.092416 0.295425
O O4 0.742706 0.000000 0.458145
O O5 0.802699 0.500000 0.904448
O O6 0.877711 0.364796 0.768691
O O7 0.984449 0.396688 0.812302
O O8 0.711777 0.355246 0.028874
O O9 0.804000 0.701428 0.307525
O O10 0.992622 0.754815 0.239789
O O11 0.361494 0.697237 0.773354
O O12 0.716150 0.792855 0.271885
O O13 0.444927 0.778585 0.467904
#
# Coordination Sequence:
#
# PCOD8084286 Si02
#       6
#     8   8   8   8   8   8
#     4  11  19  32  55  82 110 139 175 222 267 310
#     4  11  22  35  55  83 110 140 177 220 269 315
#     4  10  18  35  55  78 105 141 188 218 245 317
#     4  10  19  37  54  75 108 147 184 212 251 322
#     4  10  19  34  56  81 108 141 175 221 265 319
#     4  10  19  33  56  83 109 135 179 219 270 314
#
# _framework density 17.940111999999999
#
# number of rings (size 3 to 8) (size 9 to 14) (size 15 to 20)
#    0.000    1.667    5.000    4.000    0.000    0.667 
#    0.000    9.167    0.000   11.000    0.000    0.000 
#    0.000    0.000    0.000    0.000    0.000    0.000 
#
# Total GULP energy -297374.065125 kJ/mol
# GULP energy per Si atom -12390.586047 kJ/mol
# Density = 1.789928 g / cm^3
# Si number density = 17.940112 Si / 1000 Ang^3
#
#
#
# Elastic Constant Matrix: (Units=GPa)
#
#
# Indices 1 2 3 4 5 6 
#
# 1 110.6061 67.7830 35.5254 -0.0007 2.6254 0.0007
# 2 67.7830 80.0119 27.5232 0.0010 6.2454 0.0001
# 3 35.5254 27.5232 93.4645 0.0004 -4.1186 0.0008
# 4 -0.0007 0.0010 0.0004 23.2668 0.0002 -4.1837
# 5 2.6254 6.2454 -4.1186 0.0002 17.1849 -0.0007
# 6 0.0007 0.0001 0.0008 -4.1837 -0.0007 16.3521
#
#
#
# Elastic Compliance Matrix: (Units=1/GPa)
#
#
# Indices 1 2 3 4 5 6 
#
# 1 0.019524 -0.015783 -0.002680 0.000001 0.002111 0.000000
# 2 -0.015783 0.027328 -0.002405 -0.000002 -0.008097 0.000000
# 3 -0.002680 -0.002405 0.012616 0.000000 0.004307 0.000000
# 4 0.000001 -0.000002 0.000000 0.045052 0.000000 0.011527
# 5 0.002111 -0.008097 0.004307 0.000000 0.061843 0.000003
# 6 0.000000 0.000000 0.000000 0.011527 0.000003 0.064103
#
#
# Mechanical properties :
#
#
# Convention : Reuss Voigt Hill
#
# Bulk Modulus (GPa) = 56.39705 60.63842 58.51774
# Shear Modulus (GPa) = 17.97820 21.57749 19.77785
#
# Velocity S-wave (km/s) = 3.16907 3.47183 3.32390
# Velocity P-wave (km/s) = 6.70039 7.06720 6.88624
#
# Compressibility (1/GPa) = 0.01773142
#
# Stress axis : x y z
#
# Youngs Moduli (GPa) = 51.21882 36.59232 79.26353
#
# Poissons Ratio (x) = 0.57753 0.21245
# Poissons Ratio (y) = 0.80838 0.19066
# Poissons Ratio (z) = 0.13728 0.08802
#
# Static dielectric constant tensor:
#      x y z
#    x 3.756780 0.000000 -0.265030 
#    y 0.000000 3.410010 0.000000 
#    z -0.265030 0.000000 3.398080 
# 
# 
# High freq. dielectric constant tensor:
#      x y z
#    x 1.678540 0.000000 -0.019040 
#    y 0.000000 1.681840 0.000000 
#    z -0.019040 0.000000 1.696780 
# 
# From -- ./inp_files/97577.got.cif
#   From: 2010.06.25/outbox.cif.g09.slc.cpg/sg12_49_cif.got.tgz:97577.got - 2010.06.28 00:19:55.
