data_PCOD8084607
_publ_section_title
;
Structure prediction by ZEFSAII (Michael W. Deem and Ramdas Pophale) SiO2 
 PCOD8084607
Probable space group: C 2/M
;
_chemical_formula_sum "Si O2"
_cell_formula_units_Z 44
_cell_length_a 9.282468
_cell_length_b 23.243137
_cell_length_c 12.384773
_cell_angle_alpha 90.000000
_cell_angle_beta 54.243206
_cell_angle_gamma 90.000000
_cell_volume 2168.389480
_symmetry_space_group_name_H-M "C 2/M"
_symmetry_group_IT_number 12
_symmetry_cell_setting 'monoclinic'
loop_
_space_group_symop_operation_xyz
x,y,z
-x,y,-z
-x,-y,-z
x,-y,z
1/2+x,1/2+y,z
1/2-x,1/2+y,-z
1/2-x,1/2-y,-z
1/2+x,1/2-y,z
loop_
_atom_site_type_symbol
_atom_site_label
_atom_site_fract_x
_atom_site_fract_y
_atom_site_fract_z
Si Si1 0.610673 0.283202 0.130090
Si Si2 0.257200 0.264572 0.700242
Si Si3 0.603990 0.121043 0.674996
Si Si4 0.842745 0.384005 0.981566
Si Si5 0.799500 0.000000 0.631914
Si Si6 0.000000 0.325641 0.500000
Si Si7 0.290246 0.000000 0.083831
O O1 0.608549 0.270355 0.258808
O O2 0.421054 0.262433 0.170795
O O3 0.750000 0.250000 0.000000
O O4 0.665428 0.348181 0.083206
O O5 0.234426 0.327067 0.654354
O O6 0.332468 0.216953 0.585628
O O7 0.428408 0.123446 0.826547
O O8 0.536234 0.132106 0.584048
O O9 0.699199 0.058545 0.638031
O O10 0.743711 0.444670 0.034791
O O11 0.000000 0.372814 0.000000
O O12 0.000000 0.000000 0.500000
O O13 0.805936 0.000000 0.758440
O O14 0.500000 0.000000 0.000000
#
# Coordination Sequence:
#
# PCOD8084607 Si02
#       7
#     8   8   8   8   4   4   4
#     4  12  21  36  63  99 129 164 221 282 342 398
#     4  12  24  41  64  93 134 179 220 275 340 410
#     4  12  24  43  65  94 137 177 226 280 336 405
#     4  11  18  37  67  96 125 166 220 282 341 390
#     4  12  26  41  70 106 133 178 230 284 334 405
#     4  12  28  43  60  95 138 192 216 272 352 422
#     4  10  18  38  64  95 125 161 226 274 341 378
#
# _framework density 20.291557000000001
#
# number of rings (size 3 to 8) (size 9 to 14) (size 15 to 20)
#    0.000    0.364    9.091    1.091    1.273    1.818 
#    0.000    0.000    0.000    1.091    0.000    5.091 
#    0.000    0.000    0.000    0.000    0.000    0.000 
#
# Total GULP energy -272631.843813 kJ/mol
# GULP energy per Si atom -12392.356537 kJ/mol
# Density = 2.024537 g / cm^3
# Si number density = 20.291557 Si / 1000 Ang^3
#
#
#
# Elastic Constant Matrix: (Units=GPa)
#
#
# Indices 1 2 3 4 5 6 
#
# 1 40.9775 30.1561 28.0375 0.0000 3.8427 0.0000
# 2 30.1561 152.5508 34.1061 0.0000 1.6988 0.0000
# 3 28.0375 34.1061 130.0298 0.0000 7.6776 0.0000
# 4 0.0000 0.0000 0.0000 37.0450 0.0000 0.3625
# 5 3.8427 1.6988 7.6776 0.0000 45.3516 0.0000
# 6 0.0000 0.0000 0.0000 0.3625 0.0000 15.3156
#
#
#
# Elastic Compliance Matrix: (Units=1/GPa)
#
#
# Indices 1 2 3 4 5 6 
#
# 1 0.032051 -0.005093 -0.005481 0.000000 -0.001597 0.000000
# 2 -0.005093 0.007773 -0.000959 0.000000 0.000303 0.000000
# 3 -0.005481 -0.000959 0.009186 0.000000 -0.001055 0.000000
# 4 0.000000 0.000000 0.000000 0.027000 0.000000 -0.000639
# 5 -0.001597 0.000303 -0.001055 0.000000 0.022352 0.000000
# 6 0.000000 0.000000 0.000000 -0.000639 0.000000 0.065308
#
#
# Mechanical properties :
#
#
# Convention : Reuss Voigt Hill
#
# Bulk Modulus (GPa) = 38.54174 56.46194 47.50184
# Shear Modulus (GPa) = 25.59062 34.95967 30.27515
#
# Velocity S-wave (km/s) = 3.55511 4.15525 3.86684
# Velocity P-wave (km/s) = 5.99058 7.13493 6.58765
#
# Compressibility (1/GPa) = 0.02594590
#
# Stress axis : x y z
#
# Youngs Moduli (GPa) = 31.19991 128.65290 108.86056
#
# Poissons Ratio (x) = 0.65519 0.59666
# Poissons Ratio (y) = 0.15889 0.10435
# Poissons Ratio (z) = 0.17100 0.12332
#
# Static dielectric constant tensor:
#      x y z
#    x 3.496550 0.000000 0.347070 
#    y 0.000000 4.008670 0.000000 
#    z 0.347070 0.000000 3.884910 
# 
# 
# High freq. dielectric constant tensor:
#      x y z
#    x 1.757690 0.000000 0.002860 
#    y 0.000000 1.812350 0.000000 
#    z 0.002860 0.000000 1.810490 
# 
# From -- ./inp_files/122376.got.cif
#   From: 2010.06.25/outbox.cif.g09.slc.cpg/sg12_62_cif.got.tgz:122376.got - 2010.06.28 00:19:55.
