data_PCOD8084146
_publ_section_title
;
Structure prediction by ZEFSAII (Michael W. Deem and Ramdas Pophale) SiO2 
 PCOD8084146
Probable space group: C 2/M
;
_chemical_formula_sum "Si O2"
_cell_formula_units_Z 36
_cell_length_a 13.114611
_cell_length_b 17.843811
_cell_length_c 9.027957
_cell_angle_alpha 90.000000
_cell_angle_beta 118.872183
_cell_angle_gamma 90.000000
_cell_volume 1850.066723
_symmetry_space_group_name_H-M "C 2/M"
_symmetry_group_IT_number 12
_symmetry_cell_setting 'monoclinic'
loop_
_space_group_symop_operation_xyz
x,y,z
-x,y,-z
-x,-y,-z
x,-y,z
1/2+x,1/2+y,z
1/2-x,1/2+y,-z
1/2-x,1/2-y,-z
1/2+x,1/2-y,z
loop_
_atom_site_type_symbol
_atom_site_label
_atom_site_fract_x
_atom_site_fract_y
_atom_site_fract_z
Si Si1 0.500000 0.868778 0.500000
Si Si2 0.674789 0.915893 0.383961
Si Si3 0.413587 0.247368 0.232011
Si Si4 0.658582 0.691861 0.368680
Si Si5 0.330944 0.205237 0.872187
O O1 0.569068 0.917425 0.427701
O O2 0.595045 0.817057 0.650011
O O3 0.793292 0.889874 0.552486
O O4 0.642071 0.862677 0.222079
O O5 0.694286 0.000000 0.338859
O O6 0.529597 0.295993 0.344267
O O7 0.302755 0.302285 0.165509
O O8 0.417572 0.205571 0.073800
O O9 0.750000 0.750000 0.500000
O O10 0.652862 0.712295 0.190842
#
# Coordination Sequence:
#
# PCOD8084146 Si02
#       5
#     4   8   8   8   8
#     4  12  19  36  58  86 115 152 194 240 287 344
#     4  11  23  38  56  87 123 160 189 232 302 355
#     4  11  20  35  64  91 108 142 207 247 289 325
#     4  10  18  34  59  82 113 147 191 239 277 339
#     4  10  21  37  60  87 116 150 195 249 284 342
#
# _framework density 19.458756999999999
#
# number of rings (size 3 to 8) (size 9 to 14) (size 15 to 20)
#    0.000    1.333    6.667    2.333    0.000    0.000 
#    0.000    5.556    0.000    2.667    0.000    0.000 
#    0.000    0.000    0.000    0.000    0.000    0.000 
#
# Total GULP energy -223066.794150 kJ/mol
# GULP energy per Si atom -12392.599675 kJ/mol
# Density = 1.941447 g / cm^3
# Si number density = 19.458757 Si / 1000 Ang^3
#
#
#
# Elastic Constant Matrix: (Units=GPa)
#
#
# Indices 1 2 3 4 5 6 
#
# 1 84.2351 22.3069 13.7646 0.0000 3.6650 0.0000
# 2 22.3069 91.6110 34.4672 0.0000 -4.0273 0.0000
# 3 13.7646 34.4672 94.3729 0.0000 -9.7880 0.0000
# 4 0.0000 0.0000 0.0000 14.9480 0.0000 -0.9135
# 5 3.6650 -4.0273 -9.7880 0.0000 42.0006 0.0000
# 6 0.0000 0.0000 0.0000 -0.9135 0.0000 18.1455
#
#
#
# Elastic Compliance Matrix: (Units=1/GPa)
#
#
# Indices 1 2 3 4 5 6 
#
# 1 0.012855 -0.002820 -0.001014 0.000000 -0.001628 0.000000
# 2 -0.002820 0.013274 -0.004385 0.000000 0.000497 0.000000
# 3 -0.001014 -0.004385 0.012616 0.000000 0.002608 0.000000
# 4 0.000000 0.000000 0.000000 0.067105 0.000000 0.003378
# 5 -0.001628 0.000497 0.002608 0.000000 0.024607 0.000000
# 6 0.000000 0.000000 0.000000 0.003378 0.000000 0.055280
#
#
# Mechanical properties :
#
#
# Convention : Reuss Voigt Hill
#
# Bulk Modulus (GPa) = 44.82934 45.69959 45.26446
# Shear Modulus (GPa) = 23.85367 28.33084 26.09225
#
# Velocity S-wave (km/s) = 3.50502 3.81982 3.66580
# Velocity P-wave (km/s) = 6.28239 6.55676 6.42104
#
# Compressibility (1/GPa) = 0.02230682
#
# Stress axis : x y z
#
# Youngs Moduli (GPa) = 77.79134 75.33448 79.26323
#
# Poissons Ratio (x) = 0.21246 0.08036
# Poissons Ratio (y) = 0.21939 0.34758
# Poissons Ratio (z) = 0.07886 0.33035
#
# Static dielectric constant tensor:
#      x y z
#    x 3.688740 0.000000 -0.056490 
#    y 0.000000 3.247320 0.000000 
#    z -0.056490 0.000000 4.041940 
# 
# 
# High freq. dielectric constant tensor:
#      x y z
#    x 1.778910 0.000000 -0.003370 
#    y 0.000000 1.691840 0.000000 
#    z -0.003370 0.000000 1.770700 
# 
# From -- ./inp_files/48959.got.cif
#   From: 2010.06.25/outbox.cif.g09.slc.cpg/sg12_25_cif.got.tgz:48959.got - 2010.06.28 00:19:55.
