data_PCOD8084110
_publ_section_title
;
Structure prediction by ZEFSAII (Michael W. Deem and Ramdas Pophale) SiO2 
 PCOD8084110
Probable space group: C 2/M
;
_chemical_formula_sum "Si O2"
_cell_formula_units_Z 56
_cell_length_a 30.913621
_cell_length_b 17.182719
_cell_length_c 8.839648
_cell_angle_alpha 90.000000
_cell_angle_beta 139.553058
_cell_angle_gamma 90.000000
_cell_volume 3046.139779
_symmetry_space_group_name_H-M "C 2/M"
_symmetry_group_IT_number 12
_symmetry_cell_setting 'monoclinic'
loop_
_space_group_symop_operation_xyz
x,y,z
-x,y,-z
-x,-y,-z
x,-y,z
1/2+x,1/2+y,z
1/2-x,1/2+y,-z
1/2-x,1/2-y,-z
1/2+x,1/2-y,z
loop_
_atom_site_type_symbol
_atom_site_label
_atom_site_fract_x
_atom_site_fract_y
_atom_site_fract_z
Si Si1 0.262692 0.817538 0.708366
Si Si2 0.562125 0.586844 0.774391
Si Si3 0.703629 0.090700 0.922206
Si Si4 0.850244 0.718976 0.683321
Si Si5 0.184495 0.177003 0.951764
Si Si6 0.384500 0.791362 0.443797
Si Si7 0.981645 0.785407 0.122847
O O1 0.186783 0.801361 0.453249
O O2 0.304230 0.836051 0.665476
O O3 0.268046 0.890402 0.835108
O O4 0.290599 0.738072 0.857442
O O5 0.500000 0.581839 0.500000
O O6 0.584605 0.500000 0.882782
O O7 0.623336 0.628974 0.855563
O O8 0.535953 0.632528 0.850369
O O9 0.632125 0.134005 0.706305
O O10 0.691733 0.000000 0.875088
O O11 0.755615 0.119404 0.933246
O O12 0.868165 0.680678 0.570401
O O13 0.916810 0.731597 0.957178
O O14 0.163510 0.221454 0.741170
O O15 0.460622 0.761821 0.634020
O O16 0.000000 0.804547 0.000000
#
# Coordination Sequence:
#
# PCOD8084110 Si02
#       7
#     8   8   8   8   8   8   8
#     4  10  19  33  60  80 108 140 189 229 268 324
#     4  11  22  35  52  82 115 145 180 224 274 327
#     4  11  22  37  56  84 114 143 181 236 285 319
#     4  10  18  34  58  83 104 143 191 227 263 323
#     4  11  18  36  57  80 109 148 184 226 265 327
#     4  10  19  36  59  80 107 143 193 225 266 325
#     4  10  21  35  57  81 109 150 190 221 271 327
#
# _framework density 18.383922999999999
#
# number of rings (size 3 to 8) (size 9 to 14) (size 15 to 20)
#    0.000    1.571    5.714    1.286    0.000    0.286 
#    0.000    1.429    0.000    5.571    0.000    0.000 
#    0.000    0.000    0.000    0.000    0.000    0.000 
#
# Total GULP energy -347072.950613 kJ/mol
# GULP energy per Si atom -12395.462522 kJ/mol
# Density = 1.834208 g / cm^3
# Si number density = 18.383923 Si / 1000 Ang^3
#
#
#
# Elastic Constant Matrix: (Units=GPa)
#
#
# Indices 1 2 3 4 5 6 
#
# 1 71.4004 27.0372 13.9052 0.0000 0.7047 0.0000
# 2 27.0372 106.2799 30.3849 0.0000 5.4453 0.0000
# 3 13.9052 30.3849 91.3476 0.0000 10.7450 0.0000
# 4 0.0000 0.0000 0.0000 22.6840 0.0000 -7.6147
# 5 0.7047 5.4453 10.7450 0.0000 24.0157 0.0000
# 6 0.0000 0.0000 0.0000 -7.6147 0.0000 28.3612
#
#
#
# Elastic Compliance Matrix: (Units=1/GPa)
#
#
# Indices 1 2 3 4 5 6 
#
# 1 0.015630 -0.003661 -0.001272 0.000000 0.000941 0.000000
# 2 -0.003661 0.011272 -0.003065 0.000000 -0.001077 0.000000
# 3 -0.001272 -0.003065 0.012745 0.000000 -0.004970 0.000000
# 4 0.000000 0.000000 0.000000 0.048451 0.000000 0.013008
# 5 0.000941 -0.001077 -0.004970 0.000000 0.044080 0.000000
# 6 0.000000 0.000000 0.000000 0.013008 0.000000 0.038752
#
#
# Mechanical properties :
#
#
# Convention : Reuss Voigt Hill
#
# Bulk Modulus (GPa) = 42.28255 45.74248 44.01251
# Shear Modulus (GPa) = 25.66602 28.19223 26.92913
#
# Velocity S-wave (km/s) = 3.74051 3.92027 3.83145
# Velocity P-wave (km/s) = 6.45793 6.73997 6.60046
#
# Compressibility (1/GPa) = 0.02365042
#
# Stress axis : x y z
#
# Youngs Moduli (GPa) = 63.97864 88.71573 78.46128
#
# Poissons Ratio (x) = 0.32476 0.09982
# Poissons Ratio (y) = 0.23421 0.24052
# Poissons Ratio (z) = 0.08140 0.27196
#
# Static dielectric constant tensor:
#      x y z
#    x 3.471440 0.000000 0.037490 
#    y 0.000000 3.094960 0.000000 
#    z 0.037490 0.000000 3.681300 
# 
# 
# High freq. dielectric constant tensor:
#      x y z
#    x 1.721930 0.000000 -0.001850 
#    y 0.000000 1.664040 0.000000 
#    z -0.001850 0.000000 1.728460 
# 
# From -- ./inp_files/96950.got.cif
#   From: 2010.06.25/outbox.cif.g09.slc.cpg/sg12_49_cif.got.tgz:96950.got - 2010.06.28 00:19:55.
