data_PCOD8084318
_publ_section_title
;
Structure prediction by ZEFSAII (Michael W. Deem and Ramdas Pophale) SiO2 
 PCOD8084318
Probable space group: C 2/M
;
_chemical_formula_sum "Si O2"
_cell_formula_units_Z 64
_cell_length_a 29.489166
_cell_length_b 15.316414
_cell_length_c 9.757253
_cell_angle_alpha 90.000000
_cell_angle_beta 130.831662
_cell_angle_gamma 90.000000
_cell_volume 3334.516902
_symmetry_space_group_name_H-M "C 2/M"
_symmetry_group_IT_number 12
_symmetry_cell_setting 'monoclinic'
loop_
_space_group_symop_operation_xyz
x,y,z
-x,y,-z
-x,-y,-z
x,-y,z
1/2+x,1/2+y,z
1/2-x,1/2+y,-z
1/2-x,1/2-y,-z
1/2+x,1/2-y,z
loop_
_atom_site_type_symbol
_atom_site_label
_atom_site_fract_x
_atom_site_fract_y
_atom_site_fract_z
Si Si1 0.484256 0.597092 0.127489
Si Si2 0.695806 0.844173 0.172952
Si Si3 0.042049 0.401805 0.459238
Si Si4 0.072615 0.755613 0.346910
Si Si5 0.327238 0.906389 0.156751
Si Si6 0.251579 0.599481 0.554911
Si Si7 0.625964 0.304362 0.170912
Si Si8 0.701214 0.222239 0.688811
O O1 0.487767 0.500000 0.200551
O O2 0.530366 0.661141 0.297948
O O3 0.500000 0.590971 0.000000
O O4 0.416370 0.633063 0.003454
O O5 0.714220 0.901550 0.340079
O O6 0.648262 0.770178 0.114501
O O7 0.755357 0.803538 0.225801
O O8 0.666321 0.900622 0.994703
O O9 0.023819 0.500000 0.373656
O O10 0.038130 0.333803 0.323493
O O11 0.108461 0.402365 0.647398
O O12 0.000000 0.369695 0.500000
O O13 0.087870 0.757631 0.215566
O O14 0.134406 0.761830 0.552582
O O15 0.287550 0.830829 0.148119
O O16 0.297434 0.000000 0.131078
O O17 0.257747 0.500000 0.619393
O O18 0.317275 0.641108 0.658523
O O19 0.213575 0.657506 0.585333
#
# Coordination Sequence:
#
# PCOD8084318 Si02
#       8
#     8   8   8   8   8   8   8   8
#     4   9  19  33  54  82 108 141 185 225 271 332
#     4  11  20  34  54  81 111 142 181 232 277 336
#     4   9  20  37  57  79 104 143 193 230 273 338
#     4  10  18  35  58  79 110 146 185 230 278 323
#     4  10  21  35  53  78 107 140 185 230 274 331
#     4  11  20  33  57  82 114 148 182 233 281 331
#     4  10  19  35  53  81 114 143 184 224 287 337
#     4  10  19  37  53  79 108 149 185 220 278 346
#
# _framework density 19.193185
#
# number of rings (size 3 to 8) (size 9 to 14) (size 15 to 20)
#    0.000    2.000    2.500    2.250    1.750    1.000 
#    0.000    0.000    0.000    3.750    0.000    0.000 
#    0.000    0.000    0.000    0.000    0.000    0.000 
#
# Total GULP energy -396646.842062 kJ/mol
# GULP energy per Si atom -12395.213814 kJ/mol
# Density = 1.914950 g / cm^3
# Si number density = 19.193185 Si / 1000 Ang^3
#
#
#
# Elastic Constant Matrix: (Units=GPa)
#
#
# Indices 1 2 3 4 5 6 
#
# 1 58.1101 31.4653 19.3899 0.0000 8.4137 0.0000
# 2 31.4653 119.2001 39.2123 0.0000 8.9195 0.0000
# 3 19.3899 39.2123 66.3782 0.0000 -4.7092 0.0000
# 4 0.0000 0.0000 0.0000 16.3750 0.0000 0.1806
# 5 8.4137 8.9195 -4.7092 0.0000 23.8190 0.0000
# 6 0.0000 0.0000 0.0000 0.1806 0.0000 17.5152
#
#
#
# Elastic Compliance Matrix: (Units=1/GPa)
#
#
# Indices 1 2 3 4 5 6 
#
# 1 0.021821 -0.003661 -0.004728 0.000000 -0.007272 0.000000
# 2 -0.003661 0.011700 -0.006148 0.000000 -0.004304 0.000000
# 3 -0.004728 -0.006148 0.020649 0.000000 0.008054 0.000000
# 4 0.000000 0.000000 0.000000 0.061076 0.000000 -0.000630
# 5 -0.007272 -0.004304 0.008054 0.000000 0.047756 0.000000
# 6 0.000000 0.000000 0.000000 -0.000630 0.000000 0.057100
#
#
# Mechanical properties :
#
#
# Convention : Reuss Voigt Hill
#
# Bulk Modulus (GPa) = 39.84299 47.09148 43.46723
# Shear Modulus (GPa) = 19.41447 21.78325 20.59886
#
# Velocity S-wave (km/s) = 3.18391 3.37255 3.27959
# Velocity P-wave (km/s) = 5.85836 6.30510 6.08583
#
# Compressibility (1/GPa) = 0.02509852
#
# Stress axis : x y z
#
# Youngs Moduli (GPa) = 45.82674 85.47046 48.42805
#
# Poissons Ratio (x) = 0.31290 0.22895
# Poissons Ratio (y) = 0.16777 0.29771
# Poissons Ratio (z) = 0.21665 0.52543
#
# Static dielectric constant tensor:
#      x y z
#    x 3.146420 0.000000 0.311090 
#    y 0.000000 3.840220 0.000000 
#    z 0.311090 0.000000 3.212880 
# 
# 
# High freq. dielectric constant tensor:
#      x y z
#    x 1.741300 0.000000 0.010260 
#    y 0.000000 1.750780 0.000000 
#    z 0.010260 0.000000 1.724570 
# 
# From -- ./inp_files/112005.got.cif
#   From: 2010.06.25/outbox.cif.g09.slc.cpg/sg12_57_cif.got.tgz:112005.got - 2010.06.28 00:19:55.
