data_PCOD8084926
_publ_section_title
;
Structure prediction by ZEFSAII (Michael W. Deem and Ramdas Pophale) SiO2 
 PCOD8084926
Probable space group: C 2/M
;
_chemical_formula_sum "Si O2"
_cell_formula_units_Z 48
_cell_length_a 24.413192
_cell_length_b 9.114241
_cell_length_c 21.867062
_cell_angle_alpha 90.000000
_cell_angle_beta 142.133819
_cell_angle_gamma 90.000000
_cell_volume 2986.593219
_symmetry_space_group_name_H-M "C 2/M"
_symmetry_group_IT_number 12
_symmetry_cell_setting 'monoclinic'
loop_
_space_group_symop_operation_xyz
x,y,z
-x,y,-z
-x,-y,-z
x,-y,z
1/2+x,1/2+y,z
1/2-x,1/2+y,-z
1/2-x,1/2-y,-z
1/2+x,1/2-y,z
loop_
_atom_site_type_symbol
_atom_site_label
_atom_site_fract_x
_atom_site_fract_y
_atom_site_fract_z
Si Si1 0.950197 0.330116 0.155208
Si Si2 0.208845 0.171792 0.022229
Si Si3 0.979971 0.674510 0.550545
Si Si4 0.387230 0.170894 0.231326
Si Si5 0.163446 0.170615 0.500810
Si Si6 0.640623 0.831682 0.356175
O O1 0.924445 0.500000 0.125776
O O2 0.889492 0.240913 0.052394
O O3 0.927673 0.269188 0.203321
O O4 0.055641 0.302557 0.236875
O O5 0.199149 0.000000 0.001163
O O6 0.250000 0.250000 0.000000
O O7 0.279888 0.201575 0.140067
O O8 0.971211 0.500000 0.545292
O O9 0.886365 0.743182 0.489320
O O10 0.000000 0.729458 0.500000
O O11 0.059931 0.737629 0.664207
O O12 0.406841 0.000000 0.249733
O O13 0.269465 0.199659 0.602621
O O14 0.132674 0.228063 0.407745
O O15 0.139818 0.000000 0.484295
O O16 0.638787 0.000000 0.378233
#
# Coordination Sequence:
#
# PCOD8084926 Si02
#       6
#     8   8   8   8   8   8
#     4   9  15  26  43  61  86 115 142 174 214 263
#     4   9  16  25  38  58  86 114 141 174 216 264
#     4  10  19  32  49  64  84 121 159 183 214 266
#     4   8  14  26  41  58  83 114 142 177 216 251
#     4  10  19  29  44  67  91 116 147 186 225 261
#     4   9  17  30  46  63  90 123 147 174 222 275
#
# _framework density 16.071823999999999
#
# number of rings (size 3 to 8) (size 9 to 14) (size 15 to 20)
#    0.000    2.833    1.667    2.000    0.000    1.667 
#    0.000    0.833    0.000    0.000    0.000    1.167 
#    0.000    9.333    0.000    0.000    0.000    0.000 
#
# Total GULP energy -297368.510465 kJ/mol
# GULP energy per Si atom -12390.354603 kJ/mol
# Density = 1.603524 g / cm^3
# Si number density = 16.071824 Si / 1000 Ang^3
#
#
#
# Elastic Constant Matrix: (Units=GPa)
#
#
# Indices 1 2 3 4 5 6 
#
# 1 79.7531 31.7057 50.6421 0.0000 12.8400 0.0000
# 2 31.7057 54.8203 36.8837 0.0000 10.8665 0.0000
# 3 50.6421 36.8837 116.3100 0.0000 28.2287 0.0000
# 4 0.0000 0.0000 0.0000 22.5354 0.0000 7.0616
# 5 12.8400 10.8665 28.2287 0.0000 25.6288 0.0000
# 6 0.0000 0.0000 0.0000 7.0616 0.0000 19.7341
#
#
#
# Elastic Compliance Matrix: (Units=1/GPa)
#
#
# Indices 1 2 3 4 5 6 
#
# 1 0.019221 -0.006981 -0.006192 0.000000 0.000150 0.000000
# 2 -0.006981 0.025830 -0.004562 0.000000 -0.002430 0.000000
# 3 -0.006192 -0.004562 0.015720 0.000000 -0.012279 0.000000
# 4 0.000000 0.000000 0.000000 0.049979 0.000000 -0.017884
# 5 0.000150 -0.002430 -0.012279 0.000000 0.053498 0.000000
# 6 0.000000 0.000000 0.000000 -0.017884 0.000000 0.057073
#
#
# Mechanical properties :
#
#
# Convention : Reuss Voigt Hill
#
# Bulk Modulus (GPa) = 39.52126 54.37182 46.94654
# Shear Modulus (GPa) = 18.85195 22.35647 20.60421
#
# Velocity S-wave (km/s) = 3.42860 3.73370 3.58440
# Velocity P-wave (km/s) = 6.34961 7.24509 6.81208
#
# Compressibility (1/GPa) = 0.02530284
#
# Stress axis : x y z
#
# Youngs Moduli (GPa) = 52.02526 38.71527 63.61160
#
# Poissons Ratio (x) = 0.27026 0.39387
# Poissons Ratio (y) = 0.36317 0.29019
# Poissons Ratio (z) = 0.32213 0.17661
#
# Static dielectric constant tensor:
#      x y z
#    x 2.805380 0.000000 0.393930 
#    y 0.000000 3.019850 0.000000 
#    z 0.393930 0.000000 3.570930 
# 
# 
# High freq. dielectric constant tensor:
#      x y z
#    x 1.566290 0.000000 0.038120 
#    y 0.000000 1.609600 0.000000 
#    z 0.038120 0.000000 1.622360 
# 
# From -- ./inp_files/236875.got.cif
#   From: 2010.06.25/outbox.cif.g09.slc.cpg/sg12_119_cif.got.tgz:236875.got - 2010.06.28 00:19:55.
