data_PCOD8084292
_publ_section_title
;
Structure prediction by ZEFSAII (Michael W. Deem and Ramdas Pophale) SiO2 
 PCOD8084292
Probable space group: C 2/M
;
_chemical_formula_sum "Si O2"
_cell_formula_units_Z 64
_cell_length_a 25.974212
_cell_length_b 14.342010
_cell_length_c 8.658790
_cell_angle_alpha 90.000000
_cell_angle_beta 107.277697
_cell_angle_gamma 90.000000
_cell_volume 3080.043191
_symmetry_space_group_name_H-M "C 2/M"
_symmetry_group_IT_number 12
_symmetry_cell_setting 'monoclinic'
loop_
_space_group_symop_operation_xyz
x,y,z
-x,y,-z
-x,-y,-z
x,-y,z
1/2+x,1/2+y,z
1/2-x,1/2+y,-z
1/2-x,1/2-y,-z
1/2+x,1/2-y,z
loop_
_atom_site_type_symbol
_atom_site_label
_atom_site_fract_x
_atom_site_fract_y
_atom_site_fract_z
Si Si1 0.946597 0.709470 0.024666
Si Si2 0.648060 0.205738 0.550571
Si Si3 0.783594 0.358150 0.924157
Si Si4 0.873941 0.398358 0.769316
Si Si5 0.947416 0.609265 0.349347
Si Si6 0.755725 0.599795 0.234756
Si Si7 0.343409 0.673587 0.978892
Si Si8 0.830430 0.105819 0.292398
O O1 0.954889 0.671453 0.203852
O O2 0.931748 0.624379 0.896722
O O3 0.899629 0.786802 0.968261
O O4 0.000000 0.756089 0.000000
O O5 0.640881 0.182478 0.364587
O O6 0.605712 0.145976 0.612090
O O7 0.709079 0.177685 0.649215
O O8 0.640501 0.316954 0.572086
O O9 0.832853 0.402400 0.874904
O O10 0.799799 0.253181 0.988338
O O11 0.732628 0.368656 0.765728
O O12 0.772810 0.413302 0.071361
O O13 0.877415 0.500000 0.691496
O O14 0.939919 0.500000 0.303252
O O15 0.000000 0.625598 0.500000
O O16 0.765675 0.500000 0.325968
O O17 0.690691 0.619364 0.183998
O O18 0.354940 0.612342 0.141189
O O19 0.840292 0.000000 0.362800
#
# Coordination Sequence:
#
# PCOD8084292 Si02
#       8
#     8   8   8   8   8   8   8   8
#     4  11  23  40  62  88 122 165 203 248 306 371
#     4  12  22  38  58  93 127 164 208 248 303 353
#     4  10  18  35  55  84 122 160 201 239 296 364
#     4  11  23  36  56  89 132 168 198 240 300 375
#     4  11  23  40  65  95 127 160 199 247 299 369
#     4  11  19  33  61  89 125 162 203 252 297 364
#     4  10  18  36  58  87 118 156 207 250 308 359
#     4  11  20  36  62  86 117 160 210 253 300 358
#
# _framework density 20.778929000000002
#
# number of rings (size 3 to 8) (size 9 to 14) (size 15 to 20)
#    0.000    1.125    3.750    6.000    0.000    2.500 
#    0.000    0.000    0.000    4.875    0.000    0.000 
#    0.000    0.000    0.000    0.000    0.000    0.000 
#
# Total GULP energy -396625.880200 kJ/mol
# GULP energy per Si atom -12394.558756 kJ/mol
# Density = 2.073164 g / cm^3
# Si number density = 20.778929 Si / 1000 Ang^3
#
#
#
# Elastic Constant Matrix: (Units=GPa)
#
#
# Indices 1 2 3 4 5 6 
#
# 1 113.9059 19.9048 25.4061 0.0000 6.5321 0.0000
# 2 19.9048 124.3860 26.6892 0.0000 7.5325 0.0000
# 3 25.4061 26.6892 91.4152 0.0000 10.0345 0.0000
# 4 0.0000 0.0000 0.0000 25.9841 0.0000 6.0277
# 5 6.5321 7.5325 10.0345 0.0000 21.4070 0.0000
# 6 0.0000 0.0000 0.0000 6.0277 0.0000 12.3257
#
#
#
# Elastic Compliance Matrix: (Units=1/GPa)
#
#
# Indices 1 2 3 4 5 6 
#
# 1 0.009525 -0.000959 -0.002198 0.000000 -0.001538 0.000000
# 2 -0.000959 0.008751 -0.002090 0.000000 -0.001807 0.000000
# 3 -0.002198 -0.002090 0.012657 0.000000 -0.004527 0.000000
# 4 0.000000 0.000000 0.000000 0.043410 0.000000 -0.021229
# 5 -0.001538 -0.001807 -0.004527 0.000000 0.049941 0.000000
# 6 0.000000 0.000000 0.000000 -0.021229 0.000000 0.091513
#
#
# Mechanical properties :
#
#
# Convention : Reuss Voigt Hill
#
# Bulk Modulus (GPa) = 48.92828 52.63415 50.78122
# Shear Modulus (GPa) = 21.44960 29.12383 25.28671
#
# Velocity S-wave (km/s) = 3.21639 3.74786 3.49225
# Velocity P-wave (km/s) = 6.11488 6.64185 6.38380
#
# Compressibility (1/GPa) = 0.02043808
#
# Stress axis : x y z
#
# Youngs Moduli (GPa) = 104.98264 114.27447 79.00693
#
# Poissons Ratio (x) = 0.10964 0.17368
# Poissons Ratio (y) = 0.10072 0.16512
# Poissons Ratio (z) = 0.23078 0.23882
#
# Static dielectric constant tensor:
#      x y z
#    x 3.675860 0.000000 0.145870 
#    y 0.000000 3.806860 0.000000 
#    z 0.145870 0.000000 3.661110 
# 
# 
# High freq. dielectric constant tensor:
#      x y z
#    x 1.798110 0.000000 0.004430 
#    y 0.000000 1.805530 0.000000 
#    z 0.004430 0.000000 1.801540 
# 
# From -- ./inp_files/104652.got.cif
#   From: 2010.06.25/outbox.cif.g09.slc.cpg/sg12_53_cif.got.tgz:104652.got - 2010.06.28 00:19:55.
