data_PCOD8084269
_publ_section_title
;
Structure prediction by ZEFSAII (Michael W. Deem and Ramdas Pophale) SiO2 
 PCOD8084269
Probable space group: C 2/M
;
_chemical_formula_sum "Si O2"
_cell_formula_units_Z 56
_cell_length_a 5.260154
_cell_length_b 17.849954
_cell_length_c 32.110143
_cell_angle_alpha 90.000000
_cell_angle_beta 104.218428
_cell_angle_gamma 90.000000
_cell_volume 2922.575659
_symmetry_space_group_name_H-M "C 2/M"
_symmetry_group_IT_number 12
_symmetry_cell_setting 'monoclinic'
loop_
_space_group_symop_operation_xyz
x,y,z
-x,y,-z
-x,-y,-z
x,-y,z
1/2+x,1/2+y,z
1/2-x,1/2+y,-z
1/2-x,1/2-y,-z
1/2+x,1/2-y,z
loop_
_atom_site_type_symbol
_atom_site_label
_atom_site_fract_x
_atom_site_fract_y
_atom_site_fract_z
Si Si1 0.120779 0.295027 0.402787
Si Si2 0.789448 0.587487 0.526135
Si Si3 0.563757 0.296672 0.049380
Si Si4 0.476267 0.173241 0.302560
Si Si5 0.706522 0.586506 0.122351
Si Si6 0.211862 0.087259 0.824107
Si Si7 0.422188 0.338527 0.266317
O O1 0.402044 0.255384 0.416261
O O2 0.141423 0.372958 0.427795
O O3 0.035567 0.309719 0.352424
O O4 0.500000 0.611430 0.500000
O O5 0.806243 0.500000 0.536107
O O6 0.000000 0.612115 0.500000
O O7 0.311134 0.258787 0.060207
O O8 0.632697 0.370397 0.077672
O O9 0.500000 0.322421 0.000000
O O10 0.444836 0.249369 0.274436
O O11 0.713569 0.127021 0.290955
O O12 0.207976 0.125707 0.287682
O O13 0.678262 0.500000 0.109905
O O14 0.508157 0.608570 0.151171
O O15 0.001903 0.606678 0.147045
O O16 0.165679 0.141441 0.783413
O O17 0.191809 0.000000 0.810146
#
# Coordination Sequence:
#
# PCOD8084269 Si02
#       7
#     8   8   8   8   8   8   8
#     4  12  21  37  63  86 119 148 189 239 287 326
#     4  10  23  42  60  85 121 154 187 231 284 344
#     4  10  21  39  59  84 119 150 186 237 288 339
#     4  10  19  35  54  77 111 144 177 238 271 320
#     4  10  21  39  58  83 117 150 192 238 282 340
#     4  10  21  37  56  80 115 150 187 238 283 333
#     4  10  18  35  53  75 107 147 179 223 285 325
#
# _framework density 19.161179000000001
#
# number of rings (size 3 to 8) (size 9 to 14) (size 15 to 20)
#    0.000    1.714    2.857    2.571    0.000    2.000 
#   15.429    1.429    0.000    5.143    0.000    0.000 
#    0.000    0.000    0.000    0.000    0.000    0.000 
#
# Total GULP energy -347172.898326 kJ/mol
# GULP energy per Si atom -12399.032083 kJ/mol
# Density = 1.911757 g / cm^3
# Si number density = 19.161179 Si / 1000 Ang^3
#
#
#
# Elastic Constant Matrix: (Units=GPa)
#
#
# Indices 1 2 3 4 5 6 
#
# 1 144.0126 7.5365 24.0708 0.0000 -8.9693 0.0000
# 2 7.5365 47.2458 62.4556 0.0000 -4.8133 0.0000
# 3 24.0708 62.4556 104.4733 0.0000 -3.9256 0.0000
# 4 0.0000 0.0000 0.0000 10.1011 0.0000 -1.9826
# 5 -8.9693 -4.8133 -3.9256 0.0000 18.5488 0.0000
# 6 0.0000 0.0000 0.0000 -1.9826 0.0000 8.7380
#
#
#
# Elastic Compliance Matrix: (Units=1/GPa)
#
#
# Indices 1 2 3 4 5 6 
#
# 1 0.007791 0.006453 -0.005492 0.000000 0.004279 0.000000
# 2 0.006453 0.109747 -0.066436 0.000000 0.017539 0.000000
# 3 -0.005492 -0.066436 0.050205 0.000000 -0.009270 0.000000
# 4 0.000000 0.000000 0.000000 0.103614 0.000000 0.023509
# 5 0.004279 0.017539 -0.009270 0.000000 0.058571 0.000000
# 6 0.000000 0.000000 0.000000 0.023509 0.000000 0.119777
#
#
# Mechanical properties :
#
#
# Convention : Reuss Voigt Hill
#
# Bulk Modulus (GPa) = 27.17879 53.76193 40.47036
# Shear Modulus (GPa) = 8.43285 20.92216 14.67751
#
# Velocity S-wave (km/s) = 2.10013 3.30798 2.77068
# Velocity P-wave (km/s) = 4.48284 6.53521 5.60379
#
# Compressibility (1/GPa) = 0.03679339
#
# Stress axis : x y z
#
# Youngs Moduli (GPa) = 128.35942 9.11184 19.91815
#
# Poissons Ratio (x) = -0.05880 0.10939
# Poissons Ratio (y) = -0.82836 1.32329
# Poissons Ratio (z) = 0.70497 0.60536
#
# Static dielectric constant tensor:
#      x y z
#    x 4.991150 0.000000 -0.003040 
#    y 0.000000 3.180550 0.000000 
#    z -0.003040 0.000000 3.402070 
# 
# 
# High freq. dielectric constant tensor:
#      x y z
#    x 1.784140 0.000000 0.000200 
#    y 0.000000 1.710890 0.000000 
#    z 0.000200 0.000000 1.745800 
# 
# From -- ./inp_files/354955.got.cif
#   From: 2010.06.25/outbox.cif.g09.slc.cpg/sg12_178_cif.got.tgz:354955.got - 2010.06.28 00:19:55.
