data_PCOD8084298
_publ_section_title
;
Structure prediction by ZEFSAII (Michael W. Deem and Ramdas Pophale) SiO2 
 PCOD8084298
Probable space group: C 2/M
;
_chemical_formula_sum "Si O2"
_cell_formula_units_Z 48
_cell_length_a 17.738447
_cell_length_b 14.514545
_cell_length_c 17.252694
_cell_angle_alpha 90.000000
_cell_angle_beta 24.389025
_cell_angle_gamma 90.000000
_cell_volume 1834.223936
_symmetry_space_group_name_H-M "C 2/M"
_symmetry_group_IT_number 12
_symmetry_cell_setting 'monoclinic'
loop_
_space_group_symop_operation_xyz
x,y,z
-x,y,-z
-x,-y,-z
x,-y,z
1/2+x,1/2+y,z
1/2-x,1/2+y,-z
1/2-x,1/2-y,-z
1/2+x,1/2-y,z
loop_
_atom_site_type_symbol
_atom_site_label
_atom_site_fract_x
_atom_site_fract_y
_atom_site_fract_z
Si Si1 0.354598 0.603117 0.763605
Si Si2 0.122954 0.249230 0.466926
Si Si3 0.911162 0.145892 0.888513
Si Si4 0.159223 0.896580 0.794584
Si Si5 0.991144 0.341586 0.159734
Si Si6 0.985832 0.598542 0.702764
O O1 0.401539 0.500000 0.690303
O O2 0.452082 0.679462 0.616057
O O3 0.425227 0.612348 0.786366
O O4 0.135597 0.617748 0.962358
O O5 0.167444 0.325572 0.357295
O O6 0.299701 0.184222 0.302188
O O7 0.091888 0.312689 0.571242
O O8 0.906822 0.256252 0.893899
O O9 0.086245 0.110050 0.773921
O O10 0.732976 0.107936 0.099437
O O11 0.220540 0.000000 0.758294
O O12 0.000000 0.861232 0.000000
O O13 0.958057 0.413343 0.259845
O O14 0.039218 0.500000 0.612240
#
# Coordination Sequence:
#
# PCOD8084298 Si02
#       6
#     8   8   8   8   8   8
#     4  11  21  35  57  88 120 149 186 228 287 350
#     4  11  22  36  57  84 114 152 189 237 283 338
#     4  10  18  35  56  79 119 159 183 231 281 333
#     4  10  22  39  58  83 116 155 197 236 278 331
#     4  10  19  34  51  77 121 154 181 225 280 341
#     4  11  19  31  53  84 119 154 187 222 282 347
#
# _framework density 26.169104000000001
#
# number of rings (size 3 to 8) (size 9 to 14) (size 15 to 20)
#    0.000    1.500    3.333    5.000    2.333    1.333 
#    0.000    0.833    0.000    3.500    0.000    4.667 
#    0.000    0.000    0.000    0.000    0.000    0.000 
#
# Total GULP energy -297364.700704 kJ/mol
# GULP energy per Si atom -12390.195863 kJ/mol
# Density = 2.610954 g / cm^3
# Si number density = 26.169104 Si / 1000 Ang^3
#
#
#
# Elastic Constant Matrix: (Units=GPa)
#
#
# Indices 1 2 3 4 5 6 
#
# 1 40.9784 -3.0279 12.6329 -0.0183 -14.3862 0.0073
# 2 -3.0279 183.0231 69.6460 -0.0509 -1.7565 0.0266
# 3 12.6329 69.6460 157.8060 -0.0762 -2.5842 0.0430
# 4 -0.0183 -0.0509 -0.0762 35.1915 0.0398 7.5102
# 5 -14.3862 -1.7565 -2.5842 0.0398 27.4964 -0.0172
# 6 0.0073 0.0266 0.0430 7.5102 -0.0172 7.5669
#
#
#
# Elastic Compliance Matrix: (Units=1/GPa)
#
#
# Indices 1 2 3 4 5 6 
#
# 1 0.031132 0.001824 -0.003033 -0.000012 0.016120 0.000030
# 2 0.001824 0.006674 -0.003074 0.000005 0.001092 -0.000010
# 3 -0.003033 -0.003074 0.007919 0.000025 -0.001039 -0.000058
# 4 -0.000012 0.000005 0.000025 0.036052 -0.000078 -0.035783
# 5 0.016120 0.001092 -0.001039 -0.000078 0.044775 0.000166
# 6 0.000030 -0.000010 -0.000058 -0.035783 0.000166 0.167670
#
#
# Mechanical properties :
#
#
# Convention : Reuss Voigt Hill
#
# Bulk Modulus (GPa) = 26.91098 60.03438 43.47268
# Shear Modulus (GPa) = 15.86420 34.22139 25.04280
#
# Velocity S-wave (km/s) = 2.46482 3.62014 3.09683
# Velocity P-wave (km/s) = 4.29025 6.36118 5.42544
#
# Compressibility (1/GPa) = 0.03715955
#
# Stress axis : x y z
#
# Youngs Moduli (GPa) = 32.12120 149.83362 126.27450
#
# Poissons Ratio (x) = -0.27329 0.38302
# Poissons Ratio (y) = -0.05859 0.38812
# Poissons Ratio (z) = 0.09743 0.46054
#
# Static dielectric constant tensor:
#      x y z
#    x 4.062180 -0.000050 0.001410 
#    y -0.000050 4.920970 0.000130 
#    z 0.001410 0.000130 4.963110 
# 
# 
# High freq. dielectric constant tensor:
#      x y z
#    x 2.003250 -0.000010 -0.006930 
#    y -0.000010 2.060080 0.000010 
#    z -0.006930 0.000010 2.058430 
# 
# From -- ./inp_files/325627.got.cif
#   From: 2010.06.25/outbox.cif.g09.slc.cpg/sg12_163_cif.got.tgz:325627.got - 2010.06.28 00:19:55.
