data_PCOD8084773
_publ_section_title
;
Structure prediction by ZEFSAII (Michael W. Deem and Ramdas Pophale) SiO2 
 PCOD8084773
Probable space group: C 2/M
;
_chemical_formula_sum "Si O2"
_cell_formula_units_Z 64
_cell_length_a 27.308965
_cell_length_b 8.984730
_cell_length_c 19.408443
_cell_angle_alpha 90.000000
_cell_angle_beta 120.813643
_cell_angle_gamma 90.000000
_cell_volume 4089.895327
_symmetry_space_group_name_H-M "C 2/M"
_symmetry_group_IT_number 12
_symmetry_cell_setting 'monoclinic'
loop_
_space_group_symop_operation_xyz
x,y,z
-x,y,-z
-x,-y,-z
x,-y,z
1/2+x,1/2+y,z
1/2-x,1/2+y,-z
1/2-x,1/2-y,-z
1/2+x,1/2-y,z
loop_
_atom_site_type_symbol
_atom_site_label
_atom_site_fract_x
_atom_site_fract_y
_atom_site_fract_z
Si Si1 0.973329 0.676390 0.328736
Si Si2 0.795664 0.326922 0.484963
Si Si3 0.415142 0.671275 0.567064
Si Si4 0.800418 0.326391 0.994982
Si Si5 0.798727 0.330128 0.331638
Si Si6 0.085930 0.829885 0.593274
Si Si7 0.633739 0.826581 0.830516
Si Si8 0.751317 0.328400 0.157620
O O1 0.981514 0.500000 0.331139
O O2 0.954473 0.723294 0.391731
O O3 0.925960 0.739453 0.240368
O O4 0.033360 0.753886 0.353071
O O5 0.799165 0.500000 0.505655
O O6 0.750000 0.250000 0.500000
O O7 0.857116 0.256032 0.543051
O O8 0.775268 0.300408 0.391362
O O9 0.407975 0.500000 0.583695
O O10 0.431169 0.687354 0.498500
O O11 0.788498 0.500000 0.981124
O O12 0.858067 0.295092 0.081259
O O13 0.750000 0.250000 0.000000
O O14 0.800909 0.258298 0.917901
O O15 0.821848 0.500000 0.342473
O O16 0.848893 0.217445 0.349722
O O17 0.748961 0.304176 0.238758
O O18 0.078375 0.000000 0.612442
O O19 0.687959 0.764757 0.826552
O O20 0.631102 0.000000 0.812834
O O21 0.744368 0.500000 0.132416
#
# Coordination Sequence:
#
# PCOD8084773 Si02
#       8
#     8   8   8   8   8   8   8   8
#     4  11  19  29  44  61  85 120 156 185 216 261
#     4  10  20  35  54  71  88 115 145 180 226 273
#     4  10  21  34  45  63  89 114 145 187 225 261
#     4   9  16  26  38  55  80 114 151 185 220 256
#     4   9  17  30  47  65  87 117 151 181 220 268
#     4  10  19  29  41  60  88 117 147 186 225 254
#     4   8  15  26  39  55  82 117 150 183 216 249
#     4   9  15  27  42  59  84 113 148 188 218 253
#
# _framework density 15.648323
#
# number of rings (size 3 to 8) (size 9 to 14) (size 15 to 20)
#    0.000    2.500    1.250    3.000    0.000    4.000 
#    0.000    1.875    0.000    0.000    0.000    0.000 
#    0.000    1.000    0.000   11.500    0.000    3.500 
#
# Total GULP energy -396569.142964 kJ/mol
# GULP energy per Si atom -12392.785718 kJ/mol
# Density = 1.561271 g / cm^3
# Si number density = 15.648323 Si / 1000 Ang^3
#
#
#
# Elastic Constant Matrix: (Units=GPa)
#
#
# Indices 1 2 3 4 5 6 
#
# 1 61.4698 35.0882 48.9156 0.0000 2.3415 0.0000
# 2 35.0882 83.4324 48.6533 0.0000 4.0211 0.0000
# 3 48.9156 48.6533 114.3648 0.0000 6.4429 0.0000
# 4 0.0000 0.0000 0.0000 24.5770 0.0000 1.2119
# 5 2.3415 4.0211 6.4429 0.0000 12.7414 0.0000
# 6 0.0000 0.0000 0.0000 1.2119 0.0000 21.7920
#
#
#
# Elastic Compliance Matrix: (Units=1/GPa)
#
#
# Indices 1 2 3 4 5 6 
#
# 1 0.026840 -0.006140 -0.008954 0.000000 0.001533 0.000000
# 2 -0.006140 0.017379 -0.004654 0.000000 -0.002003 0.000000
# 3 -0.008954 -0.004654 0.014800 0.000000 -0.004370 0.000000
# 4 0.000000 0.000000 0.000000 0.040800 0.000000 -0.002269
# 5 0.001533 -0.002003 -0.004370 0.000000 0.081044 0.000000
# 6 0.000000 0.000000 0.000000 -0.002269 0.000000 0.046015
#
#
# Mechanical properties :
#
#
# Convention : Reuss Voigt Hill
#
# Bulk Modulus (GPa) = 51.22505 58.28682 54.75594
# Shear Modulus (GPa) = 18.32294 20.26273 19.29283
#
# Velocity S-wave (km/s) = 3.42558 3.60235 3.51508
# Velocity P-wave (km/s) = 6.96078 7.39131 7.17927
#
# Compressibility (1/GPa) = 0.01952170
#
# Stress axis : x y z
#
# Youngs Moduli (GPa) = 37.25768 57.54192 67.56787
#
# Poissons Ratio (x) = 0.35332 0.60501
# Poissons Ratio (y) = 0.22877 0.31447
# Poissons Ratio (z) = 0.33361 0.26781
#
# Static dielectric constant tensor:
#      x y z
#    x 2.603530 0.000000 -0.056180 
#    y 0.000000 3.067440 0.000000 
#    z -0.056180 0.000000 3.509920 
# 
# 
# High freq. dielectric constant tensor:
#      x y z
#    x 1.535810 0.000000 0.001520 
#    y 0.000000 1.605760 0.000000 
#    z 0.001520 0.000000 1.609650 
# 
# From -- ./inp_files/326917.got.cif
#   From: 2010.06.25/outbox.cif.g09.slc.cpg/sg12_164_cif.got.tgz:326917.got - 2010.06.28 00:19:55.
