data_PCOD8084729
_publ_section_title
;
Structure prediction by ZEFSAII (Michael W. Deem and Ramdas Pophale) SiO2 
 PCOD8084729
Probable space group: C 2/M
;
_chemical_formula_sum "Si O2"
_cell_formula_units_Z 48
_cell_length_a 30.720110
_cell_length_b 7.787806
_cell_length_c 12.212770
_cell_angle_alpha 90.000000
_cell_angle_beta 105.099343
_cell_angle_gamma 90.000000
_cell_volume 2820.936951
_symmetry_space_group_name_H-M "C 2/M"
_symmetry_group_IT_number 12
_symmetry_cell_setting 'monoclinic'
loop_
_space_group_symop_operation_xyz
x,y,z
-x,y,-z
-x,-y,-z
x,-y,z
1/2+x,1/2+y,z
1/2-x,1/2+y,-z
1/2-x,1/2-y,-z
1/2+x,1/2-y,z
loop_
_atom_site_type_symbol
_atom_site_label
_atom_site_fract_x
_atom_site_fract_y
_atom_site_fract_z
Si Si1 0.227931 0.800375 0.598841
Si Si2 0.677019 0.304485 0.941744
Si Si3 0.909936 0.802643 0.227689
Si Si4 0.029871 0.500000 0.682793
Si Si5 0.754079 0.802885 0.843423
Si Si6 0.125243 0.804637 0.550110
Si Si7 0.434592 0.000000 0.539546
O O1 0.250000 0.750000 0.500000
O O2 0.257201 0.713841 0.714821
O O3 0.176328 0.738778 0.568108
O O4 0.230560 0.000000 0.621127
O O5 0.665913 0.500000 0.957394
O O6 0.627900 0.226413 0.881054
O O7 0.709524 0.291319 0.857482
O O8 0.701531 0.223796 0.065625
O O9 0.952383 0.674108 0.247011
O O10 0.887374 0.795309 0.331670
O O11 0.925047 0.000000 0.212375
O O12 0.046222 0.500000 0.569547
O O13 0.975621 0.500000 0.653091
O O14 0.750355 0.000000 0.876813
O O15 0.094416 0.673277 0.460281
O O16 0.118825 0.000000 0.501505
#
# Coordination Sequence:
#
# PCOD8084729 Si02
#       7
#     8   8   8   4   8   8   4
#     4  11  22  34  47  66  93 125 167 204 236 280
#     4   9  17  29  43  66  95 126 160 194 232 285
#     4   9  16  28  45  64  95 125 153 191 233 285
#     4   9  18  28  42  72  87 123 161 195 236 286
#     4  10  19  28  45  67  91 125 163 198 235 278
#     4   9  18  30  46  64  88 126 159 193 237 284
#     4   9  18  30  46  62  95 119 161 201 234 286
#
# _framework density 17.015623999999999
#
# number of rings (size 3 to 8) (size 9 to 14) (size 15 to 20)
#    0.000    2.500    1.667    1.000    3.500    1.333 
#    0.000    3.333    0.000    0.000    0.000    0.000 
#    0.000    2.667    0.000    9.833    0.000    0.333 
#
# Total GULP energy -297413.985975 kJ/mol
# GULP energy per Si atom -12392.249416 kJ/mol
# Density = 1.697690 g / cm^3
# Si number density = 17.015624 Si / 1000 Ang^3
#
#
#
# Elastic Constant Matrix: (Units=GPa)
#
#
# Indices 1 2 3 4 5 6 
#
# 1 60.3711 38.8736 50.2800 0.0000 27.1219 0.0000
# 2 38.8736 81.7501 34.8025 0.0000 26.7529 0.0000
# 3 50.2800 34.8025 105.4923 0.0000 25.8513 0.0000
# 4 0.0000 0.0000 0.0000 18.7981 0.0000 6.9404
# 5 27.1219 26.7529 25.8513 0.0000 35.9973 0.0000
# 6 0.0000 0.0000 0.0000 6.9404 0.0000 22.7805
#
#
#
# Elastic Compliance Matrix: (Units=1/GPa)
#
#
# Indices 1 2 3 4 5 6 
#
# 1 0.038351 -0.008565 -0.012053 0.000000 -0.013873 0.000000
# 2 -0.008565 0.018841 -0.000344 0.000000 -0.007302 0.000000
# 3 -0.012053 -0.000344 0.015837 0.000000 -0.002036 0.000000
# 4 0.000000 0.000000 0.000000 0.059939 0.000000 -0.018261
# 5 -0.013873 -0.007302 -0.002036 0.000000 0.045122 0.000000
# 6 0.000000 0.000000 0.000000 -0.018261 0.000000 0.049461
#
#
# Mechanical properties :
#
#
# Convention : Reuss Voigt Hill
#
# Bulk Modulus (GPa) = 32.15045 55.05841 43.60443
# Shear Modulus (GPa) = 17.86716 23.75902 20.81309
#
# Velocity S-wave (km/s) = 3.24395 3.74077 3.50119
# Velocity P-wave (km/s) = 5.74166 7.14742 6.48276
#
# Compressibility (1/GPa) = 0.03110377
#
# Stress axis : x y z
#
# Youngs Moduli (GPa) = 26.07522 53.07451 63.14449
#
# Poissons Ratio (x) = 0.45458 0.76111
# Poissons Ratio (y) = 0.22333 0.02173
# Poissons Ratio (z) = 0.31429 0.01827
#
# Static dielectric constant tensor:
#      x y z
#    x 2.960570 0.000000 0.444420 
#    y 0.000000 3.355710 0.000000 
#    z 0.444420 0.000000 3.182190 
# 
# 
# High freq. dielectric constant tensor:
#      x y z
#    x 1.610940 0.000000 0.038620 
#    y 0.000000 1.667110 0.000000 
#    z 0.038620 0.000000 1.635230 
# 
# From -- ./inp_files/173094.got.cif
#   From: 2010.06.25/outbox.cif.g09.slc.cpg/sg12_87_cif.got.tgz:173094.got - 2010.06.28 00:19:55.
