data_PCOD8084520
_publ_section_title
;
Structure prediction by ZEFSAII (Michael W. Deem and Ramdas Pophale) SiO2 
 PCOD8084520
Probable space group: C 2/M
;
_chemical_formula_sum "Si O2"
_cell_formula_units_Z 48
_cell_length_a 10.914399
_cell_length_b 26.758045
_cell_length_c 13.519709
_cell_angle_alpha 90.000000
_cell_angle_beta 27.445507
_cell_angle_gamma 90.000000
_cell_volume 1819.838155
_symmetry_space_group_name_H-M "C 2/M"
_symmetry_group_IT_number 12
_symmetry_cell_setting 'monoclinic'
loop_
_space_group_symop_operation_xyz
x,y,z
-x,y,-z
-x,-y,-z
x,-y,z
1/2+x,1/2+y,z
1/2-x,1/2+y,-z
1/2-x,1/2-y,-z
1/2+x,1/2-y,z
loop_
_atom_site_type_symbol
_atom_site_label
_atom_site_fract_x
_atom_site_fract_y
_atom_site_fract_z
Si Si1 0.543258 0.619490 0.159202
Si Si2 0.391310 0.109906 0.176497
Si Si3 0.277611 0.716136 0.752044
Si Si4 0.465278 0.730862 0.240274
Si Si5 0.750479 0.058018 0.535289
Si Si6 0.287061 0.056554 0.736137
O O1 0.406055 0.673480 0.253820
O O2 0.451799 0.588264 0.321437
O O3 0.469292 0.590550 0.108615
O O4 0.857481 0.630030 0.940658
O O5 0.210632 0.156035 0.267061
O O6 0.219157 0.074278 0.371565
O O7 0.500000 0.081033 0.000000
O O8 0.521346 0.735024 0.648519
O O9 0.275515 0.738323 0.641189
O O10 0.000000 0.733154 0.000000
O O11 0.750000 0.750000 0.000000
O O12 0.441094 0.067968 0.727726
O O13 0.822671 0.000000 0.471508
O O14 0.500000 0.067696 0.500000
O O15 0.181654 0.000000 0.807609
#
# Coordination Sequence:
#
# PCOD8084520 Si02
#       6
#     8   8   8   8   8   8
#     4  11  20  38  68  94 125 177 209 258 336 391
#     4  11  22  41  62  90 131 171 215 266 323 382
#     4   9  18  36  59  88 130 165 206 269 322 377
#     4  10  18  36  63  95 127 170 214 264 330 387
#     4  10  24  43  64  95 132 168 218 275 321 384
#     4   8  17  37  61  90 129 165 210 272 323 377
#
# _framework density 26.375972999999998
#
# number of rings (size 3 to 8) (size 9 to 14) (size 15 to 20)
#    0.000    2.167    5.000    1.500    0.000    4.333 
#    3.000    3.333    0.000    0.000    0.000    0.000 
#    0.000    0.000    0.000    0.000    0.000    0.000 
#
# Total GULP energy -297398.054329 kJ/mol
# GULP energy per Si atom -12391.585597 kJ/mol
# Density = 2.631594 g / cm^3
# Si number density = 26.375973 Si / 1000 Ang^3
#
#
#
# Elastic Constant Matrix: (Units=GPa)
#
#
# Indices 1 2 3 4 5 6 
#
# 1 197.2490 71.3724 41.1067 0.0002 -1.0582 -0.0002
# 2 71.3724 129.2481 5.4085 0.0000 5.2012 0.0001
# 3 41.1067 5.4085 44.3805 0.0002 1.8757 -0.0006
# 4 0.0002 0.0000 0.0002 19.1948 -0.0001 -1.1810
# 5 -1.0582 5.2012 1.8757 -0.0001 55.6639 0.0003
# 6 -0.0002 0.0001 -0.0006 -1.1810 0.0003 68.7857
#
#
#
# Elastic Compliance Matrix: (Units=1/GPa)
#
#
# Indices 1 2 3 4 5 6 
#
# 1 0.008038 -0.004178 -0.006969 0.000000 0.000778 0.000000
# 2 -0.004178 0.009976 0.002701 0.000000 -0.001103 0.000000
# 3 -0.006969 0.002701 0.028715 0.000000 -0.001352 0.000000
# 4 0.000000 0.000000 0.000000 0.052153 0.000000 0.000895
# 5 0.000778 -0.001103 -0.001352 0.000000 0.018128 0.000000
# 6 0.000000 0.000000 0.000000 0.000895 0.000000 0.014553
#
#
# Mechanical properties :
#
#
# Convention : Reuss Voigt Hill
#
# Bulk Modulus (GPa) = 33.51576 67.40586 50.46081
# Shear Modulus (GPa) = 31.56538 45.59486 38.58012
#
# Velocity S-wave (km/s) = 3.46316 4.16222 3.82867
# Velocity P-wave (km/s) = 5.35964 6.97925 6.22237
#
# Compressibility (1/GPa) = 0.02983671
#
# Stress axis : x y z
#
# Youngs Moduli (GPa) = 124.40672 100.24266 34.82476
#
# Poissons Ratio (x) = 0.41886 0.24269
# Poissons Ratio (y) = 0.51983 -0.09407
# Poissons Ratio (z) = 0.86697 -0.27077
#
# Static dielectric constant tensor:
#      x y z
#    x 5.941740 0.000000 -0.001000 
#    y 0.000000 4.401760 0.000000 
#    z -0.001000 0.000000 4.730090 
# 
# 
# High freq. dielectric constant tensor:
#      x y z
#    x 2.094860 0.000000 0.002810 
#    y 0.000000 2.023230 0.000000 
#    z 0.002810 0.000000 2.074080 
# 
# From -- ./inp_files/209319.got.cif
#   From: 2010.06.25/outbox.cif.g09.slc.cpg/sg12_105_cif.got.tgz:209319.got - 2010.06.28 00:19:55.
