data_PCOD8084783
_publ_section_title
;
Structure prediction by ZEFSAII (Michael W. Deem and Ramdas Pophale) SiO2 
 PCOD8084783
Probable space group: C 2/M
;
_chemical_formula_sum "Si O2"
_cell_formula_units_Z 64
_cell_length_a 27.495871
_cell_length_b 8.884677
_cell_length_c 23.943774
_cell_angle_alpha 90.000000
_cell_angle_beta 136.277164
_cell_angle_gamma 90.000000
_cell_volume 4042.843467
_symmetry_space_group_name_H-M "C 2/M"
_symmetry_group_IT_number 12
_symmetry_cell_setting 'monoclinic'
loop_
_space_group_symop_operation_xyz
x,y,z
-x,y,-z
-x,-y,-z
x,-y,z
1/2+x,1/2+y,z
1/2-x,1/2+y,-z
1/2-x,1/2-y,-z
1/2+x,1/2-y,z
loop_
_atom_site_type_symbol
_atom_site_label
_atom_site_fract_x
_atom_site_fract_y
_atom_site_fract_z
Si Si1 0.703442 0.824393 0.008498
Si Si2 0.506211 0.330237 0.420552
Si Si3 0.702446 0.178735 0.832835
Si Si4 0.535162 0.669351 0.319226
Si Si5 0.409861 0.173028 0.168813
Si Si6 0.146964 0.322432 0.561603
Si Si7 0.313575 0.320003 0.519118
Si Si8 0.650723 0.676344 0.678088
O O1 0.721929 0.741517 0.082086
O O2 0.721369 0.000000 0.028514
O O3 0.750000 0.750000 0.000000
O O4 0.622848 0.800770 0.920417
O O5 0.531885 0.500000 0.456897
O O6 0.495760 0.316435 0.345686
O O7 0.563878 0.213041 0.489875
O O8 0.432752 0.292866 0.388581
O O9 0.641988 0.236126 0.825599
O O10 0.690245 0.246732 0.762070
O O11 0.705781 0.000000 0.831934
O O12 0.539779 0.500000 0.301876
O O13 0.487374 0.754701 0.234456
O O14 0.614387 0.733656 0.390586
O O15 0.420700 0.000000 0.190736
O O16 0.159330 0.500000 0.569939
O O17 0.188083 0.244344 0.544810
O O18 0.178935 0.254015 0.645081
O O19 0.308999 0.500000 0.512665
O O20 0.250000 0.250000 0.500000
O O21 0.667849 0.500000 0.692321
#
# Coordination Sequence:
#
# PCOD8084783 Si02
#       8
#     8   8   8   8   8   8   8   8
#     4   9  17  28  40  58  84 120 159 196 232 270
#     4   9  18  31  44  62  89 123 158 192 230 271
#     4  10  19  29  41  62  89 122 161 198 231 273
#     4   9  17  29  46  68  91 118 153 188 229 278
#     4   9  17  27  41  62  89 118 155 195 228 267
#     4  11  22  33  47  68  91 119 153 192 232 275
#     4  10  21  38  55  72  92 118 151 190 237 286
#     4  11  20  31  46  63  90 126 159 195 231 271
#
# _framework density 15.830441
#
# number of rings (size 3 to 8) (size 9 to 14) (size 15 to 20)
#    0.000    2.250    1.250    4.500    0.000    7.500 
#    0.000    0.000    0.000    0.000    0.000    0.000 
#    0.000    1.000    0.000   10.500    0.000    5.750 
#
# Total GULP energy -396660.181614 kJ/mol
# GULP energy per Si atom -12395.630675 kJ/mol
# Density = 1.579441 g / cm^3
# Si number density = 15.830441 Si / 1000 Ang^3
#
#
#
# Elastic Constant Matrix: (Units=GPa)
#
#
# Indices 1 2 3 4 5 6 
#
# 1 70.7314 36.0919 47.1541 0.0000 -1.9934 0.0000
# 2 36.0919 91.3361 59.1412 0.0000 -3.2545 0.0000
# 3 47.1541 59.1412 118.0287 0.0000 -7.8644 0.0000
# 4 0.0000 0.0000 0.0000 32.1304 0.0000 -0.7158
# 5 -1.9934 -3.2545 -7.8644 0.0000 14.7007 0.0000
# 6 0.0000 0.0000 0.0000 -0.7158 0.0000 19.7942
#
#
#
# Elastic Compliance Matrix: (Units=1/GPa)
#
#
# Indices 1 2 3 4 5 6 
#
# 1 0.020283 -0.004081 -0.006155 0.000000 -0.001446 0.000000
# 2 -0.004081 0.017037 -0.006939 0.000000 -0.000494 0.000000
# 3 -0.006155 -0.006939 0.014777 0.000000 0.005535 0.000000
# 4 0.000000 0.000000 0.000000 0.031148 0.000000 0.001126
# 5 -0.001446 -0.000494 0.005535 0.000000 0.070680 0.000000
# 6 0.000000 0.000000 0.000000 0.001126 0.000000 0.050561
#
#
# Mechanical properties :
#
#
# Convention : Reuss Voigt Hill
#
# Bulk Modulus (GPa) = 56.34780 62.76342 59.55561
# Shear Modulus (GPa) = 20.42893 22.50564 21.46728
#
# Velocity S-wave (km/s) = 3.59623 3.77459 3.68649
# Velocity P-wave (km/s) = 7.27432 7.66356 7.47147
#
# Compressibility (1/GPa) = 0.01774692
#
# Stress axis : x y z
#
# Youngs Moduli (GPa) = 49.30284 58.69629 67.67195
#
# Poissons Ratio (x) = 0.23955 0.41650
# Poissons Ratio (y) = 0.20121 0.46959
# Poissons Ratio (z) = 0.30344 0.40730
#
# Static dielectric constant tensor:
#      x y z
#    x 2.649480 0.000000 -0.004890 
#    y 0.000000 3.099150 0.000000 
#    z -0.004890 0.000000 3.284740 
# 
# 
# High freq. dielectric constant tensor:
#      x y z
#    x 1.547770 0.000000 -0.004270 
#    y 0.000000 1.619210 0.000000 
#    z -0.004270 0.000000 1.614670 
# 
# From -- ./inp_files/326863.got.cif
#   From: 2010.06.25/outbox.cif.g09.slc.cpg/sg12_164_cif.got.tgz:326863.got - 2010.06.28 00:19:55.
