data_PCOD8084008
_publ_section_title
;
Structure prediction by ZEFSAII (Michael W. Deem and Ramdas Pophale) SiO2 
 PCOD8084008
Probable space group: C 2/M
;
_chemical_formula_sum "Si O2"
_cell_formula_units_Z 48
_cell_length_a 12.260426
_cell_length_b 19.097708
_cell_length_c 12.081745
_cell_angle_alpha 90.000000
_cell_angle_beta 118.645222
_cell_angle_gamma 90.000000
_cell_volume 2482.650045
_symmetry_space_group_name_H-M "C 2/M"
_symmetry_group_IT_number 12
_symmetry_cell_setting 'monoclinic'
loop_
_space_group_symop_operation_xyz
x,y,z
-x,y,-z
-x,-y,-z
x,-y,z
1/2+x,1/2+y,z
1/2-x,1/2+y,-z
1/2-x,1/2-y,-z
1/2+x,1/2-y,z
loop_
_atom_site_type_symbol
_atom_site_label
_atom_site_fract_x
_atom_site_fract_y
_atom_site_fract_z
Si Si1 0.632588 0.700831 0.459675
Si Si2 0.369138 0.579974 0.707298
Si Si3 0.272860 0.699302 0.266279
Si Si4 0.394060 0.340948 0.107639
Si Si5 0.274378 0.853876 0.182078
Si Si6 0.011289 0.293083 0.229674
O O1 0.750000 0.750000 0.500000
O O2 0.654263 0.625631 0.413698
O O3 0.619987 0.689207 0.586286
O O4 0.521096 0.743003 0.344746
O O5 0.379765 0.500000 0.674909
O O6 0.493281 0.604746 0.830206
O O7 0.255539 0.588142 0.739618
O O8 0.310352 0.654090 0.178252
O O9 0.247606 0.779624 0.225806
O O10 0.138823 0.673267 0.248136
O O11 0.443325 0.260903 0.111160
O O12 0.312255 0.365299 0.965588
O O13 0.418817 0.857141 0.214161
#
# Coordination Sequence:
#
# PCOD8084008 Si02
#       6
#     8   8   8   8   8   8
#     4   9  17  37  57  83 111 147 190 238 289 336
#     4  11  23  39  57  82 114 153 193 233 285 348
#     4  10  18  34  55  83 112 146 188 244 287 326
#     4  10  21  32  51  82 115 149 188 229 287 338
#     4  11  20  32  52  84 114 149 188 234 283 338
#     4   9  18  30  53  83 110 143 183 242 292 329
#
# _framework density 19.334178000000001
#
# number of rings (size 3 to 8) (size 9 to 14) (size 15 to 20)
#    0.000    2.000    5.000    2.500    0.000    9.333 
#    0.000    1.667    0.000    9.000    0.000    2.333 
#    0.000    0.000    0.000    0.333    0.000    0.000 
#
# Total GULP energy -297494.010932 kJ/mol
# GULP energy per Si atom -12395.583789 kJ/mol
# Density = 1.929017 g / cm^3
# Si number density = 19.334178 Si / 1000 Ang^3
#
#
#
# Elastic Constant Matrix: (Units=GPa)
#
#
# Indices 1 2 3 4 5 6 
#
# 1 67.3789 14.4980 6.7311 0.0000 -2.2421 0.0000
# 2 14.4980 80.3513 21.5835 0.0000 -0.4172 0.0000
# 3 6.7311 21.5835 94.0162 0.0000 -13.1868 0.0000
# 4 0.0000 0.0000 0.0000 13.0780 0.0000 -3.5407
# 5 -2.2421 -0.4172 -13.1868 0.0000 28.7386 0.0000
# 6 0.0000 0.0000 0.0000 -3.5407 0.0000 18.9205
#
#
#
# Elastic Compliance Matrix: (Units=1/GPa)
#
#
# Indices 1 2 3 4 5 6 
#
# 1 0.015490 -0.002696 -0.000348 0.000000 0.001009 0.000000
# 2 -0.002696 0.013777 -0.003176 0.000000 -0.001467 0.000000
# 3 -0.000348 -0.003176 0.012163 0.000000 0.005508 0.000000
# 4 0.000000 0.000000 0.000000 0.080545 0.000000 0.015073
# 5 0.001009 -0.001467 0.005508 0.000000 0.037381 0.000000
# 6 0.000000 0.000000 0.000000 0.015073 0.000000 0.055673
#
#
# Mechanical properties :
#
#
# Convention : Reuss Voigt Hill
#
# Bulk Modulus (GPa) = 34.49497 36.37464 35.43480
# Shear Modulus (GPa) = 21.08519 25.40967 23.24743
#
# Velocity S-wave (km/s) = 3.30595 3.62917 3.47133
# Velocity P-wave (km/s) = 5.69672 6.03454 5.86806
#
# Compressibility (1/GPa) = 0.02898973
#
# Stress axis : x y z
#
# Youngs Moduli (GPa) = 64.55796 72.58361 82.21677
#
# Poissons Ratio (x) = 0.19569 0.02865
# Poissons Ratio (y) = 0.17405 0.26109
# Poissons Ratio (z) = 0.02250 0.23050
#
# Static dielectric constant tensor:
#      x y z
#    x 3.871350 0.000000 0.020600 
#    y 0.000000 2.981900 0.000000 
#    z 0.020600 0.000000 4.048270 
# 
# 
# High freq. dielectric constant tensor:
#      x y z
#    x 1.773820 0.000000 -0.001490 
#    y 0.000000 1.676750 0.000000 
#    z -0.001490 0.000000 1.764530 
# 
# From -- ./inp_files/143886.got.cif
#   From: 2010.06.25/outbox.cif.g09.slc.cpg/sg12_72_cif.got.tgz:143886.got - 2010.06.28 00:19:55.
