data_PCOD8084751
_publ_section_title
;
Structure prediction by ZEFSAII (Michael W. Deem and Ramdas Pophale) SiO2 
 PCOD8084751
Probable space group: C 2/M
;
_chemical_formula_sum "Si O2"
_cell_formula_units_Z 60
_cell_length_a 5.253444
_cell_length_b 26.334460
_cell_length_c 23.818364
_cell_angle_alpha 90.000000
_cell_angle_beta 105.081356
_cell_angle_gamma 90.000000
_cell_volume 3181.694855
_symmetry_space_group_name_H-M "C 2/M"
_symmetry_group_IT_number 12
_symmetry_cell_setting 'monoclinic'
loop_
_space_group_symop_operation_xyz
x,y,z
-x,y,-z
-x,-y,-z
x,-y,z
1/2+x,1/2+y,z
1/2-x,1/2+y,-z
1/2-x,1/2-y,-z
1/2+x,1/2-y,z
loop_
_atom_site_type_symbol
_atom_site_label
_atom_site_fract_x
_atom_site_fract_y
_atom_site_fract_z
Si Si1 0.340745 0.228086 0.564208
Si Si2 0.402393 0.558081 0.298639
Si Si3 0.230595 0.781617 0.121056
Si Si4 0.903508 0.389341 0.300083
Si Si5 0.691297 0.216803 0.752343
Si Si6 0.500000 0.715889 0.000000
Si Si7 0.925555 0.390024 0.565359
Si Si8 0.577917 0.442458 0.437030
O O1 0.250000 0.250000 0.500000
O O2 0.624122 0.252779 0.597486
O O3 0.347548 0.168276 0.557945
O O4 0.373787 0.500000 0.278207
O O5 0.619809 0.585235 0.271597
O O6 0.484557 0.562953 0.367951
O O7 0.124599 0.586591 0.272037
O O8 0.525256 0.765098 0.119569
O O9 0.251972 0.808885 0.182914
O O10 0.094708 0.814908 0.061999
O O11 0.892207 0.328488 0.293640
O O12 0.981000 0.403871 0.367350
O O13 0.453702 0.257063 0.742942
O O14 0.250000 0.750000 0.000000
O O15 0.670706 0.425857 0.537851
O O16 0.173099 0.403844 0.538707
O O17 0.662012 0.500000 0.455210
#
# Coordination Sequence:
#
# PCOD8084751 Si02
#       8
#     8   8   8   8   8   4   8   8
#     4  10  21  36  52  71  90 118 152 183 215 241
#     4   9  17  30  46  64  88 115 145 181 219 256
#     4   8  14  23  35  50  71 103 142 177 212 247
#     4  10  19  29  44  66  90 119 147 175 213 254
#     4  10  19  29  39  56  87 124 151 174 207 253
#     4   8  12  20  34  50  66  92 137 184 213 244
#     4  10  19  31  49  72  94 116 148 180 209 255
#     4   9  17  30  49  74  98 116 137 173 220 264
#
# _framework density 18.857873999999999
#
# number of rings (size 3 to 8) (size 9 to 14) (size 15 to 20)
#    0.000    2.667    0.000    2.400    0.000    4.267 
#    0.000    0.000    0.000    0.000    0.000   37.333 
#    0.000    0.000    0.000    3.600    0.000    1.333 
#
# Total GULP energy -371737.635823 kJ/mol
# GULP energy per Si atom -12391.254527 kJ/mol
# Density = 1.881495 g / cm^3
# Si number density = 18.857874 Si / 1000 Ang^3
#
#
#
# Elastic Constant Matrix: (Units=GPa)
#
#
# Indices 1 2 3 4 5 6 
#
# 1 172.8713 66.5123 17.6088 0.0000 -2.1637 0.0000
# 2 66.5123 108.8035 -8.0129 0.0000 0.9996 0.0000
# 3 17.6088 -8.0129 29.4407 0.0000 4.8733 0.0000
# 4 0.0000 0.0000 0.0000 3.0015 0.0000 -0.3783
# 5 -2.1637 0.9996 4.8733 0.0000 15.4658 0.0000
# 6 0.0000 0.0000 0.0000 -0.3783 0.0000 34.1810
#
#
#
# Elastic Compliance Matrix: (Units=1/GPa)
#
#
# Indices 1 2 3 4 5 6 
#
# 1 0.008957 -0.006079 -0.007685 0.000000 0.004068 0.000000
# 2 -0.006079 0.013537 0.008024 0.000000 -0.004254 0.000000
# 3 -0.007685 0.008024 0.043268 0.000000 -0.015228 0.000000
# 4 0.000000 0.000000 0.000000 0.333635 0.000000 0.003692
# 5 0.004068 -0.004254 -0.015228 0.000000 0.070301 0.000000
# 6 0.000000 0.000000 0.000000 0.003692 0.000000 0.029297
#
#
# Mechanical properties :
#
#
# Convention : Reuss Voigt Hill
#
# Bulk Modulus (GPa) = 18.42212 51.48133 34.95173
# Shear Modulus (GPa) = 9.45950 26.19679 17.82815
#
# Velocity S-wave (km/s) = 2.24212 3.73120 3.07806
# Velocity P-wave (km/s) = 4.06115 6.77653 5.58634
#
# Compressibility (1/GPa) = 0.05428257
#
# Stress axis : x y z
#
# Youngs Moduli (GPa) = 111.64086 73.87131 23.11180
#
# Poissons Ratio (x) = 0.44906 0.17762
# Poissons Ratio (y) = 0.67867 -0.18546
# Poissons Ratio (z) = 0.85800 -0.59278
#
# Static dielectric constant tensor:
#      x y z
#    x 2.989620 0.000000 0.028600 
#    y 0.000000 3.237370 0.000000 
#    z 0.028600 0.000000 3.689760 
# 
# 
# High freq. dielectric constant tensor:
#      x y z
#    x 1.775890 0.000000 -0.000310 
#    y 0.000000 1.686440 0.000000 
#    z -0.000310 0.000000 1.703790 
# 
# From -- ./inp_files/371653.got.cif
#   From: 2010.06.25/outbox.cif.g09.slc.cpg/sg12_186_cif.got.tgz:371653.got - 2010.06.28 00:19:55.
