data_PCOD8084059
_publ_section_title
;
Structure prediction by ZEFSAII (Michael W. Deem and Ramdas Pophale) SiO2 
 PCOD8084059
Probable space group: C 2/M
;
_chemical_formula_sum "Si O2"
_cell_formula_units_Z 40
_cell_length_a 23.662889
_cell_length_b 13.983344
_cell_length_c 9.053917
_cell_angle_alpha 90.000000
_cell_angle_beta 48.586641
_cell_angle_gamma 90.000000
_cell_volume 2246.733694
_symmetry_space_group_name_H-M "C 2/M"
_symmetry_group_IT_number 12
_symmetry_cell_setting 'monoclinic'
loop_
_space_group_symop_operation_xyz
x,y,z
-x,y,-z
-x,-y,-z
x,-y,z
1/2+x,1/2+y,z
1/2-x,1/2+y,-z
1/2-x,1/2-y,-z
1/2+x,1/2-y,z
loop_
_atom_site_type_symbol
_atom_site_label
_atom_site_fract_x
_atom_site_fract_y
_atom_site_fract_z
Si Si1 0.004885 0.721907 0.664215
Si Si2 0.697186 0.390821 0.662312
Si Si3 0.041762 0.107826 0.073905
Si Si4 0.344759 0.211128 0.425647
Si Si5 0.575291 0.894035 0.963343
O O1 0.089466 0.697157 0.569564
O O2 0.000000 0.705884 0.500000
O O3 0.983892 0.830716 0.741700
O O4 0.943710 0.652719 0.846092
O O5 0.708319 0.500000 0.587342
O O6 0.675808 0.323383 0.559125
O O7 0.773138 0.349857 0.606829
O O8 0.631462 0.387659 0.898431
O O9 0.013286 0.000000 0.150137
O O10 0.000000 0.150434 0.000000
O O11 0.365361 0.171045 0.227017
O O12 0.609096 0.000000 0.930270
O O13 0.500000 0.900522 0.000000
#
# Coordination Sequence:
#
# PCOD8084059 Si02
#       5
#     8   8   8   8   8
#     4  11  21  34  51  80 114 143 174 209 264 322
#     4  10  19  32  58  83 103 133 177 229 268 301
#     4  10  18  34  57  79 105 137 180 223 260 306
#     4  10  19  34  55  82 106 134 177 223 264 311
#     4   9  17  32  53  74 100 135 178 219 255 301
#
# _framework density 17.803622000000001
#
# number of rings (size 3 to 8) (size 9 to 14) (size 15 to 20)
#    0.000    2.000    4.000    1.200    0.000    1.600 
#    0.000    1.000    0.000    0.000    0.000    0.000 
#    0.000    0.000    0.000    0.000    0.000    0.000 
#
# Total GULP energy -247974.373749 kJ/mol
# GULP energy per Si atom -12398.718687 kJ/mol
# Density = 1.776310 g / cm^3
# Si number density = 17.803622 Si / 1000 Ang^3
#
#
#
# Elastic Constant Matrix: (Units=GPa)
#
#
# Indices 1 2 3 4 5 6 
#
# 1 83.9895 32.2918 54.4082 0.0000 -1.7293 0.0000
# 2 32.2918 127.8544 35.0915 0.0000 4.4721 0.0000
# 3 54.4082 35.0915 88.6634 0.0000 5.4051 0.0000
# 4 0.0000 0.0000 0.0000 25.1404 0.0000 -6.5843
# 5 -1.7293 4.4721 5.4051 0.0000 35.7854 0.0000
# 6 0.0000 0.0000 0.0000 -6.5843 0.0000 17.7568
#
#
#
# Elastic Compliance Matrix: (Units=1/GPa)
#
#
# Indices 1 2 3 4 5 6 
#
# 1 0.020490 -0.001997 -0.011970 0.000000 0.003048 0.000000
# 2 -0.001997 0.008981 -0.002276 0.000000 -0.000875 0.000000
# 3 -0.011970 -0.002276 0.019724 0.000000 -0.003273 0.000000
# 4 0.000000 0.000000 0.000000 0.044055 0.000000 0.016336
# 5 0.003048 -0.000875 -0.003273 0.000000 0.028695 0.000000
# 6 0.000000 0.000000 0.000000 0.016336 0.000000 0.062374
#
#
# Mechanical properties :
#
#
# Convention : Reuss Voigt Hill
#
# Bulk Modulus (GPa) = 59.83981 60.45448 60.14714
# Shear Modulus (GPa) = 22.48462 27.65091 25.06777
#
# Velocity S-wave (km/s) = 3.55762 3.94522 3.75642
# Velocity P-wave (km/s) = 7.11052 7.40156 7.25750
#
# Compressibility (1/GPa) = 0.01671128
#
# Stress axis : x y z
#
# Youngs Moduli (GPa) = 48.80316 111.34686 50.69958
#
# Poissons Ratio (x) = 0.22231 0.60685
# Poissons Ratio (y) = 0.09744 0.11539
# Poissons Ratio (z) = 0.58415 0.25342
#
# Static dielectric constant tensor:
#      x y z
#    x 3.013400 0.000000 -0.371560 
#    y 0.000000 3.641310 0.000000 
#    z -0.371560 0.000000 3.189300 
# 
# 
# High freq. dielectric constant tensor:
#      x y z
#    x 1.650580 0.000000 -0.038300 
#    y 0.000000 1.711780 0.000000 
#    z -0.038300 0.000000 1.669010 
# 
# From -- ./inp_files/72332.got.cif
#   From: 2010.06.25/outbox.cif.g09.slc.cpg/sg12_37_cif.got.tgz:72332.got - 2010.06.28 00:19:55.
