data_PCOD8084224
_publ_section_title
;
Structure prediction by ZEFSAII (Michael W. Deem and Ramdas Pophale) SiO2 
 PCOD8084224
Probable space group: C 2/M
;
_chemical_formula_sum "Si O2"
_cell_formula_units_Z 56
_cell_length_a 25.778123
_cell_length_b 14.752629
_cell_length_c 11.100570
_cell_angle_alpha 90.000000
_cell_angle_beta 136.327769
_cell_angle_gamma 90.000000
_cell_volume 2915.075191
_symmetry_space_group_name_H-M "C 2/M"
_symmetry_group_IT_number 12
_symmetry_cell_setting 'monoclinic'
loop_
_space_group_symop_operation_xyz
x,y,z
-x,y,-z
-x,-y,-z
x,-y,z
1/2+x,1/2+y,z
1/2-x,1/2+y,-z
1/2-x,1/2-y,-z
1/2+x,1/2-y,z
loop_
_atom_site_type_symbol
_atom_site_label
_atom_site_fract_x
_atom_site_fract_y
_atom_site_fract_z
Si Si1 0.589147 0.898006 0.492423
Si Si2 0.928938 0.605532 0.812486
Si Si3 0.919771 0.225525 0.374893
Si Si4 0.762147 0.647479 0.550078
Si Si5 0.737553 0.597484 0.245076
Si Si6 0.690905 0.758598 0.007009
Si Si7 0.292037 0.395058 0.287594
O O1 0.564601 0.871648 0.316893
O O2 0.557323 0.820033 0.523374
O O3 0.678094 0.892673 0.658842
O O4 0.560675 0.000000 0.478004
O O5 0.931539 0.500000 0.840799
O O6 0.849525 0.637845 0.732545
O O7 0.000000 0.652192 0.000000
O O8 0.861678 0.162683 0.351503
O O9 0.000000 0.173111 0.500000
O O10 0.890254 0.252772 0.191848
O O11 0.750000 0.750000 0.500000
O O12 0.737629 0.593211 0.390201
O O13 0.708957 0.613656 0.569383
O O14 0.704599 0.500000 0.146229
O O15 0.691708 0.679154 0.108557
O O16 0.712268 0.853919 0.106579
O O17 0.750000 0.750000 0.000000
O O18 0.298995 0.500000 0.259748
#
# Coordination Sequence:
#
# PCOD8084224 Si02
#       7
#     8   8   8   8   8   8   8
#     4   9  17  33  56  83 115 149 184 232 291 348
#     4   9  18  32  53  87 122 150 182 220 284 361
#     4  11  24  41  57  80 119 156 203 243 296 350
#     4  11  19  35  60  86 123 150 191 240 288 350
#     4  10  18  34  61  87 114 147 187 236 293 350
#     4  10  20  37  56  85 111 147 199 241 283 338
#     4  11  22  38  60  87 117 153 199 247 287 338
#
# _framework density 19.210481999999999
#
# number of rings (size 3 to 8) (size 9 to 14) (size 15 to 20)
#    0.000    1.857    4.286    3.000    0.000    4.571 
#    0.000    1.429    0.000    0.000    0.000    2.000 
#    0.000    0.000    0.000    0.000    0.000    0.000 
#
# Total GULP energy -346943.969876 kJ/mol
# GULP energy per Si atom -12390.856067 kJ/mol
# Density = 1.916676 g / cm^3
# Si number density = 19.210482 Si / 1000 Ang^3
#
#
#
# Elastic Constant Matrix: (Units=GPa)
#
#
# Indices 1 2 3 4 5 6 
#
# 1 78.9283 30.6135 46.8961 0.0000 -0.3357 0.0000
# 2 30.6135 110.5714 39.7054 0.0000 -7.8726 0.0000
# 3 46.8961 39.7054 118.2668 0.0000 7.7162 0.0000
# 4 0.0000 0.0000 0.0000 19.4394 0.0000 -4.1963
# 5 -0.3357 -7.8726 7.7162 0.0000 19.0270 0.0000
# 6 0.0000 0.0000 0.0000 -4.1963 0.0000 17.8257
#
#
#
# Elastic Compliance Matrix: (Units=1/GPa)
#
#
# Indices 1 2 3 4 5 6 
#
# 1 0.017279 -0.002450 -0.006145 0.000000 0.001783 0.000000
# 2 -0.002450 0.011297 -0.003208 0.000000 0.005932 0.000000
# 3 -0.006145 -0.003208 0.012391 0.000000 -0.006461 0.000000
# 4 0.000000 0.000000 0.000000 0.054196 0.000000 0.012758
# 5 0.001783 0.005932 -0.006461 0.000000 0.057663 0.000000
# 6 0.000000 0.000000 0.000000 0.012758 0.000000 0.059102
#
#
# Mechanical properties :
#
#
# Convention : Reuss Voigt Hill
#
# Bulk Modulus (GPa) = 57.60627 60.24407 58.92517
# Shear Modulus (GPa) = 20.71929 23.96185 22.34057
#
# Velocity S-wave (km/s) = 3.28768 3.53559 3.41388
# Velocity P-wave (km/s) = 6.66811 6.93508 6.80290
#
# Compressibility (1/GPa) = 0.01735922
#
# Stress axis : x y z
#
# Youngs Moduli (GPa) = 57.87375 88.52191 80.70507
#
# Poissons Ratio (x) = 0.21690 0.49596
# Poissons Ratio (y) = 0.14181 0.25890
# Poissons Ratio (z) = 0.35565 0.28398
#
# Static dielectric constant tensor:
#      x y z
#    x 4.708840 0.000000 -1.361480 
#    y 0.000000 3.549380 0.000000 
#    z -1.361480 0.000000 4.898860 
# 
# 
# High freq. dielectric constant tensor:
#      x y z
#    x 1.729870 0.000000 -0.019860 
#    y 0.000000 1.744250 0.000000 
#    z -0.019860 0.000000 1.743120 
# 
# From -- ./inp_files/189234.got.cif
#   From: 2010.06.25/outbox.cif.g09.slc.cpg/sg12_95_cif.got.tgz:189234.got - 2010.06.28 00:19:55.
