data_PCOD8084754
_publ_section_title
;
Structure prediction by ZEFSAII (Michael W. Deem and Ramdas Pophale) SiO2 
 PCOD8084754
Probable space group: C 2/M
;
_chemical_formula_sum "Si O2"
_cell_formula_units_Z 64
_cell_length_a 24.807647
_cell_length_b 9.201790
_cell_length_c 20.653097
_cell_angle_alpha 90.000000
_cell_angle_beta 59.289417
_cell_angle_gamma 90.000000
_cell_volume 4053.398282
_symmetry_space_group_name_H-M "C 2/M"
_symmetry_group_IT_number 12
_symmetry_cell_setting 'monoclinic'
loop_
_space_group_symop_operation_xyz
x,y,z
-x,y,-z
-x,-y,-z
x,-y,z
1/2+x,1/2+y,z
1/2-x,1/2+y,-z
1/2-x,1/2-y,-z
1/2+x,1/2-y,z
loop_
_atom_site_type_symbol
_atom_site_label
_atom_site_fract_x
_atom_site_fract_y
_atom_site_fract_z
Si Si1 0.144291 0.837505 0.856926
Si Si2 0.218857 0.669654 0.713503
Si Si3 0.079777 0.829823 0.574889
Si Si4 0.389949 0.171229 0.317733
Si Si5 0.858988 0.831064 0.599784
Si Si6 0.530663 0.336609 0.825916
Si Si7 0.031753 0.335839 0.410956
Si Si8 0.447458 0.672777 0.986379
O O1 0.199578 0.739626 0.793925
O O2 0.084178 0.834481 0.847315
O O3 0.120914 0.779654 0.942753
O O4 0.171313 0.000000 0.845949
O O5 0.216740 0.500000 0.726173
O O6 0.171470 0.714946 0.685458
O O7 0.287750 0.722435 0.651074
O O8 0.117083 0.754008 0.610215
O O9 0.120791 0.800505 0.486084
O O10 0.011300 0.756486 0.611417
O O11 0.071012 0.000000 0.593689
O O12 0.452408 0.226648 0.242297
O O13 0.395352 0.000000 0.326190
O O14 0.900586 0.739955 0.624893
O O15 0.867341 0.000000 0.611764
O O16 0.524081 0.500000 0.801509
O O17 0.464830 0.285872 0.901018
O O18 0.039449 0.500000 0.379868
O O19 0.000000 0.335659 0.500000
O O20 0.451106 0.500000 0.990670
O O21 0.500000 0.745196 0.000000
#
# Coordination Sequence:
#
# PCOD8084754 Si02
#       8
#     8   8   8   8   8   8   8   8
#     4   8  13  22  37  56  77 104 139 174 205 241
#     4   9  18  30  41  57  86 119 144 171 209 247
#     4  10  19  31  47  63  80 108 144 177 210 251
#     4  10  19  29  40  58  87 117 143 175 212 246
#     4   9  18  32  47  62  82 110 143 175 208 250
#     4   8  13  23  38  54  75 106 141 172 204 245
#     4   9  17  30  48  68  85 100 126 171 222 259
#     4   7  10  18  34  54  74  99 134 173 206 237
#
# _framework density 15.789221
#
# number of rings (size 3 to 8) (size 9 to 14) (size 15 to 20)
#    0.000    3.250    0.000    2.625    0.000    3.500 
#    0.000    0.625    0.000    3.750    0.000    0.000 
#    0.000    1.000    0.000    3.000    0.000    5.125 
#
# Total GULP energy -396490.992621 kJ/mol
# GULP energy per Si atom -12390.343519 kJ/mol
# Density = 1.575328 g / cm^3
# Si number density = 15.789221 Si / 1000 Ang^3
#
#
#
# Elastic Constant Matrix: (Units=GPa)
#
#
# Indices 1 2 3 4 5 6 
#
# 1 54.5873 32.6244 42.5984 0.0000 -17.2911 0.0000
# 2 32.6244 65.5539 40.8525 -0.0003 -12.3851 0.0010
# 3 42.5984 40.8525 99.1961 0.0000 -21.5319 0.0001
# 4 0.0000 -0.0003 0.0000 23.6624 0.0002 -0.5515
# 5 -17.2911 -12.3851 -21.5319 0.0002 8.6174 -0.0001
# 6 0.0000 0.0010 0.0001 -0.5515 -0.0001 19.4460
#
#
#
# Elastic Compliance Matrix: (Units=1/GPa)
#
#
# Indices 1 2 3 4 5 6 
#
# 1 0.054015 -0.009366 0.002765 -0.000001 0.101830 0.000001
# 2 -0.009366 0.023558 -0.005266 0.000000 0.001906 -0.000001
# 3 0.002765 -0.005266 0.023215 0.000000 0.055984 0.000001
# 4 -0.000001 0.000000 0.000000 0.042289 -0.000003 0.001199
# 5 0.101830 0.001906 0.055984 -0.000003 0.462992 0.000002
# 6 0.000001 -0.000001 0.000001 0.001199 0.000002 0.051459
#
#
# Mechanical properties :
#
#
# Convention : Reuss Voigt Hill
#
# Bulk Modulus (GPa) = 12.97811 50.16533 31.57172
# Shear Modulus (GPa) = 7.07268 17.22929 12.15099
#
# Velocity S-wave (km/s) = 2.11876 3.30692 2.77713
# Velocity P-wave (km/s) = 3.77134 6.81336 5.50658
#
# Compressibility (1/GPa) = 0.07705283
#
# Stress axis : x y z
#
# Youngs Moduli (GPa) = 18.51336 42.44884 43.07634
#
# Poissons Ratio (x) = 0.39758 -0.11910
# Poissons Ratio (y) = 0.17340 0.22684
# Poissons Ratio (z) = -0.05119 0.22353
#
# Static dielectric constant tensor:
#      x y z
#    x 2.691650 0.000000 -0.098820 
#    y 0.000000 2.977810 0.000000 
#    z -0.098820 0.000000 3.287300 
# 
# 
# High freq. dielectric constant tensor:
#      x y z
#    x 1.553580 0.000000 -0.006610 
#    y 0.000000 1.600900 0.000000 
#    z -0.006610 0.000000 1.607470 
# 
# From -- ./inp_files/350933.got.cif
#   From: 2010.06.25/outbox.cif.g09.slc.cpg/sg12_176_cif.got.tgz:350933.got - 2010.06.28 00:19:55.
