data_PCOD8084437
_publ_section_title
;
Structure prediction by ZEFSAII (Michael W. Deem and Ramdas Pophale) SiO2 
 PCOD8084437
Probable space group: C 2/M
;
_chemical_formula_sum "Si O2"
_cell_formula_units_Z 44
_cell_length_a 7.370396
_cell_length_b 24.233577
_cell_length_c 10.607988
_cell_angle_alpha 90.000000
_cell_angle_beta 92.604845
_cell_angle_gamma 90.000000
_cell_volume 1892.746230
_symmetry_space_group_name_H-M "C 2/M"
_symmetry_group_IT_number 12
_symmetry_cell_setting 'monoclinic'
loop_
_space_group_symop_operation_xyz
x,y,z
-x,y,-z
-x,-y,-z
x,-y,z
1/2+x,1/2+y,z
1/2-x,1/2+y,-z
1/2-x,1/2-y,-z
1/2+x,1/2-y,z
loop_
_atom_site_type_symbol
_atom_site_label
_atom_site_fract_x
_atom_site_fract_y
_atom_site_fract_z
Si Si1 0.133468 0.500000 0.385938
Si Si2 0.300688 0.118053 0.555050
Si Si3 0.160944 0.826227 0.323619
Si Si4 0.558843 0.793551 0.271526
Si Si5 0.000000 0.675607 0.000000
Si Si6 0.169074 0.105967 0.091435
Si Si7 0.395654 0.000000 0.130452
O O1 0.251823 0.556590 0.397209
O O2 0.000000 0.500000 0.500000
O O3 0.038460 0.500000 0.247645
O O4 0.500000 0.116568 0.500000
O O5 0.146903 0.138329 0.451448
O O6 0.291551 0.163068 0.669587
O O7 0.371611 0.819742 0.303635
O O8 0.071022 0.766308 0.335476
O O9 0.079473 0.860237 0.204257
O O10 0.564029 0.786678 0.119875
O O11 0.823921 0.639457 0.023319
O O12 0.265690 0.051768 0.145978
O O13 0.000000 0.089424 0.000000
O O14 0.500000 0.000000 0.000000
#
# Coordination Sequence:
#
# PCOD8084437 Si02
#       7
#     4   8   8   8   4   8   4
#     4  10  18  35  68  93 123 170 221 270 327 399
#     4   9  18  35  57  91 120 157 215 266 317 388
#     4  10  22  37  59  90 124 166 219 265 316 388
#     4  10  21  35  59  86 127 162 212 260 326 378
#     4  10  22  39  60  94 124 169 214 264 318 390
#     4  11  24  40  64  94 130 168 218 267 323 383
#     4  12  23  41  68  98 132 174 217 276 332 393
#
# _framework density 23.246645999999998
#
# number of rings (size 3 to 8) (size 9 to 14) (size 15 to 20)
#    0.000    1.818    0.909    5.182    3.818    1.455 
#    0.000    0.000    0.000    0.000    0.000    3.818 
#    0.000    0.000    0.000    0.000    0.000    0.000 
#
# Total GULP energy -272688.479817 kJ/mol
# GULP energy per Si atom -12394.930901 kJ/mol
# Density = 2.319374 g / cm^3
# Si number density = 23.246646 Si / 1000 Ang^3
#
#
#
# Elastic Constant Matrix: (Units=GPa)
#
#
# Indices 1 2 3 4 5 6 
#
# 1 23.4650 8.1583 17.0843 0.0000 -5.5630 0.0000
# 2 8.1583 188.7080 76.5468 0.0000 15.5944 0.0000
# 3 17.0843 76.5468 171.6196 0.0000 17.3988 0.0000
# 4 0.0000 0.0000 0.0000 46.3173 0.0000 3.9586
# 5 -5.5630 15.5944 17.3988 0.0000 14.2297 0.0000
# 6 0.0000 0.0000 0.0000 3.9586 0.0000 27.6130
#
#
#
# Elastic Compliance Matrix: (Units=1/GPa)
#
#
# Indices 1 2 3 4 5 6 
#
# 1 0.057737 -0.001977 -0.008417 0.000000 0.035030 0.000000
# 2 -0.001977 0.006750 -0.002267 0.000000 -0.005399 0.000000
# 3 -0.008417 -0.002267 0.008855 0.000000 -0.011634 0.000000
# 4 0.000000 0.000000 0.000000 0.021858 0.000000 -0.003134
# 5 0.035030 -0.005399 -0.011634 0.000000 0.104113 0.000000
# 6 0.000000 0.000000 0.000000 -0.003134 0.000000 0.036664
#
#
# Mechanical properties :
#
#
# Convention : Reuss Voigt Hill
#
# Bulk Modulus (GPa) = 20.82404 65.26350 43.04377
# Shear Modulus (GPa) = 18.03064 36.43219 27.23141
#
# Velocity S-wave (km/s) = 2.78802 3.96308 3.42630
# Velocity P-wave (km/s) = 4.39789 7.00548 5.84885
#
# Compressibility (1/GPa) = 0.04802141
#
# Stress axis : x y z
#
# Youngs Moduli (GPa) = 17.31987 148.14283 112.92750
#
# Poissons Ratio (x) = 0.29281 0.95055
# Poissons Ratio (y) = 0.03423 0.25597
# Poissons Ratio (z) = 0.14579 0.33579
#
# Static dielectric constant tensor:
#      x y z
#    x 3.814200 0.000000 0.164520 
#    y 0.000000 4.714200 0.000000 
#    z 0.164520 0.000000 4.576040 
# 
# 
# High freq. dielectric constant tensor:
#      x y z
#    x 1.893400 0.000000 0.008660 
#    y 0.000000 1.928890 0.000000 
#    z 0.008660 0.000000 1.934150 
# 
# From -- ./inp_files/122138.got.cif
#   From: 2010.06.25/outbox.cif.g09.slc.cpg/sg12_62_cif.got.tgz:122138.got - 2010.06.28 00:19:55.
