data_PCOD8084132
_publ_section_title
;
Structure prediction by ZEFSAII (Michael W. Deem and Ramdas Pophale) SiO2 
 PCOD8084132
Probable space group: C 2/M
;
_chemical_formula_sum "Si O2"
_cell_formula_units_Z 56
_cell_length_a 15.457989
_cell_length_b 9.002881
_cell_length_c 26.566737
_cell_angle_alpha 90.000000
_cell_angle_beta 126.294164
_cell_angle_gamma 90.000000
_cell_volume 2979.899435
_symmetry_space_group_name_H-M "C 2/M"
_symmetry_group_IT_number 12
_symmetry_cell_setting 'monoclinic'
loop_
_space_group_symop_operation_xyz
x,y,z
-x,y,-z
-x,-y,-z
x,-y,z
1/2+x,1/2+y,z
1/2-x,1/2+y,-z
1/2-x,1/2-y,-z
1/2+x,1/2-y,z
loop_
_atom_site_type_symbol
_atom_site_label
_atom_site_fract_x
_atom_site_fract_y
_atom_site_fract_z
Si Si1 0.288192 0.676961 0.290589
Si Si2 0.235478 0.325244 0.071718
Si Si3 0.109458 0.169381 0.507287
Si Si4 0.348327 0.176627 0.851055
Si Si5 0.589498 0.825274 0.928571
Si Si6 0.783003 0.825535 0.632948
Si Si7 0.970356 0.174704 0.626095
O O1 0.286861 0.500000 0.293900
O O2 0.223701 0.734252 0.219797
O O3 0.229706 0.739828 0.319407
O O4 0.409452 0.740438 0.327714
O O5 0.254207 0.500000 0.079734
O O6 0.201082 0.261859 0.114074
O O7 0.347511 0.250260 0.095526
O O8 0.142794 0.282084 0.000172
O O9 0.195249 0.275954 0.562363
O O10 0.088356 0.235116 0.444252
O O11 0.000000 0.175823 0.500000
O O12 0.153195 0.000000 0.521290
O O13 0.468883 0.237850 0.886479
O O14 0.351175 0.000000 0.854202
O O15 0.592193 0.000000 0.920705
O O16 0.900663 0.785317 0.651284
O O17 0.770815 0.000000 0.638151
O O18 0.981376 0.000000 0.622776
#
# Coordination Sequence:
#
# PCOD8084132 Si02
#       7
#     8   8   8   8   8   8   8
#     4  10  20  38  56  71  98 140 182 209 245 307
#     4   9  17  31  52  78 105 135 171 210 256 307
#     4  10  18  34  59  79 100 134 172 206 251 307
#     4   9  18  32  54  76  97 136 181 214 246 298
#     4   9  17  31  51  78 108 133 166 215 261 300
#     4  11  22  35  53  80 108 131 164 214 266 300
#     4   9  19  35  54  75 101 134 168 207 253 306
#
# _framework density 18.792580999999998
#
# number of rings (size 3 to 8) (size 9 to 14) (size 15 to 20)
#    0.000    2.429    1.429    1.286    0.000    3.143 
#    0.000    5.714    0.000    3.429    0.000    0.000 
#    0.000    0.000    0.000    0.000    0.000    0.000 
#
# Total GULP energy -347208.960178 kJ/mol
# GULP energy per Si atom -12400.320006 kJ/mol
# Density = 1.874981 g / cm^3
# Si number density = 18.792581 Si / 1000 Ang^3
#
#
#
# Elastic Constant Matrix: (Units=GPa)
#
#
# Indices 1 2 3 4 5 6 
#
# 1 157.5080 28.1638 90.5733 0.0000 -14.3139 0.0000
# 2 28.1638 23.5882 24.1149 0.0000 -1.5084 0.0000
# 3 90.5733 24.1149 141.9895 0.0000 -8.7257 0.0000
# 4 0.0000 0.0000 0.0000 14.1090 0.0000 -5.1167
# 5 -14.3139 -1.5084 -8.7257 0.0000 18.0908 0.0000
# 6 0.0000 0.0000 0.0000 -5.1167 0.0000 28.1684
#
#
#
# Elastic Compliance Matrix: (Units=1/GPa)
#
#
# Indices 1 2 3 4 5 6 
#
# 1 0.011493 -0.007528 -0.005701 0.000000 0.005716 0.000000
# 2 -0.007528 0.056233 -0.004974 0.000000 -0.003667 0.000000
# 3 -0.005701 -0.004974 0.011564 0.000000 0.000652 0.000000
# 4 0.000000 0.000000 0.000000 0.075875 0.000000 0.013782
# 5 0.005716 -0.003667 0.000652 0.000000 0.059808 0.000000
# 6 0.000000 0.000000 0.000000 0.013782 0.000000 0.038004
#
#
# Mechanical properties :
#
#
# Convention : Reuss Voigt Hill
#
# Bulk Modulus (GPa) = 23.31880 67.64330 45.48105
# Shear Modulus (GPa) = 16.46478 24.08921 20.27700
#
# Velocity S-wave (km/s) = 2.96316 3.58417 3.28836
# Velocity P-wave (km/s) = 4.91351 7.29392 6.21867
#
# Compressibility (1/GPa) = 0.04288385
#
# Stress axis : x y z
#
# Youngs Moduli (GPa) = 87.00987 17.78324 86.47244
#
# Poissons Ratio (x) = 0.13387 0.49301
# Poissons Ratio (y) = 0.65502 0.43008
# Poissons Ratio (z) = 0.49608 0.08845
#
# Static dielectric constant tensor:
#      x y z
#    x 3.718620 0.000000 0.018750 
#    y 0.000000 3.096060 0.000000 
#    z 0.018750 0.000000 3.583410 
# 
# 
# High freq. dielectric constant tensor:
#      x y z
#    x 1.745070 0.000000 -0.003440 
#    y 0.000000 1.692400 0.000000 
#    z -0.003440 0.000000 1.730020 
# 
# From -- ./inp_files/309020.got.cif
#   From: 2010.06.25/outbox.cif.g09.slc.cpg/sg12_155_cif.got.tgz:309020.got - 2010.06.28 00:19:55.
