data_PCOD8084706
_publ_section_title
;
Structure prediction by ZEFSAII (Michael W. Deem and Ramdas Pophale) SiO2 
 PCOD8084706
Probable space group: C 2/M
;
_chemical_formula_sum "Si O2"
_cell_formula_units_Z 40
_cell_length_a 11.860561
_cell_length_b 23.532013
_cell_length_c 12.851947
_cell_angle_alpha 90.000000
_cell_angle_beta 35.004287
_cell_angle_gamma 90.000000
_cell_volume 2057.647336
_symmetry_space_group_name_H-M "C 2/M"
_symmetry_group_IT_number 12
_symmetry_cell_setting 'monoclinic'
loop_
_space_group_symop_operation_xyz
x,y,z
-x,y,-z
-x,-y,-z
x,-y,z
1/2+x,1/2+y,z
1/2-x,1/2+y,-z
1/2-x,1/2-y,-z
1/2+x,1/2-y,z
loop_
_atom_site_type_symbol
_atom_site_label
_atom_site_fract_x
_atom_site_fract_y
_atom_site_fract_z
Si Si1 0.685272 0.757573 0.802807
Si Si2 0.498937 0.853574 0.798032
Si Si3 0.194597 0.436534 0.784447
Si Si4 0.216431 0.693942 0.460463
Si Si5 0.623006 0.348833 0.208717
O O1 0.590978 0.805532 0.801681
O O2 0.806348 0.710865 0.644033
O O3 0.834111 0.787136 0.771172
O O4 0.500000 0.727547 0.000000
O O5 0.627414 0.910131 0.724728
O O6 0.526486 0.838082 0.654516
O O7 0.269727 0.859996 0.000305
O O8 0.277990 0.500000 0.704923
O O9 0.359539 0.398727 0.718208
O O10 0.000000 0.436019 0.000000
O O11 0.250000 0.750000 0.500000
O O12 0.403752 0.652167 0.330726
#
# Coordination Sequence:
#
# PCOD8084706 Si02
#       5
#     8   8   8   8   8
#     4   8  16  28  41  59  83 116 149 174 209 254
#     4   8  16  28  41  61  86 112 144 175 207 254
#     4   8  14  27  47  67  90 120 146 173 219 273
#     4  10  19  28  42  61  83 118 154 178 210 257
#     4   9  17  31  44  60  92 120 141 178 217 253
#
# _framework density 19.439675999999999
#
# number of rings (size 3 to 8) (size 9 to 14) (size 15 to 20)
#    0.000    3.400    0.000    2.400    0.000   14.400 
#    0.000    4.000    0.000    0.000    0.000    0.000 
#    0.000    3.200    0.000   90.800    0.000    4.400 
#
# Total GULP energy -247788.363387 kJ/mol
# GULP energy per Si atom -12389.418169 kJ/mol
# Density = 1.939543 g / cm^3
# Si number density = 19.439676 Si / 1000 Ang^3
#
#
#
# Elastic Constant Matrix: (Units=GPa)
#
#
# Indices 1 2 3 4 5 6 
#
# 1 22.6766 16.6351 19.8498 -0.0001 3.0379 -0.0001
# 2 16.6351 78.1983 35.0928 0.0003 11.8480 -0.0002
# 3 19.8498 35.0928 101.1280 -0.0008 16.2210 0.0004
# 4 -0.0001 0.0003 -0.0008 12.8505 0.0005 1.9851
# 5 3.0379 11.8480 16.2210 0.0005 26.2409 -0.0001
# 6 -0.0001 -0.0002 0.0004 1.9851 -0.0001 16.5571
#
#
#
# Elastic Compliance Matrix: (Units=1/GPa)
#
#
# Indices 1 2 3 4 5 6 
#
# 1 0.057829 -0.008789 -0.008729 0.000000 0.002669 0.000001
# 2 -0.008789 0.016867 -0.003408 -0.000001 -0.004492 0.000000
# 3 -0.008729 -0.003408 0.013738 0.000001 -0.005943 -0.000001
# 4 0.000000 -0.000001 0.000001 0.079287 -0.000002 -0.009506
# 5 0.002669 -0.004492 -0.005943 -0.000002 0.043501 0.000001
# 6 0.000001 0.000000 -0.000001 -0.009506 0.000001 0.061537
#
#
# Mechanical properties :
#
#
# Convention : Reuss Voigt Hill
#
# Bulk Modulus (GPa) = 21.46727 38.35092 29.90909
# Shear Modulus (GPa) = 15.14519 19.82473 17.48496
#
# Velocity S-wave (km/s) = 2.79424 3.19691 3.00233
# Velocity P-wave (km/s) = 4.63437 5.77910 5.23810
#
# Compressibility (1/GPa) = 0.04658253
#
# Stress axis : x y z
#
# Youngs Moduli (GPa) = 17.29231 59.28576 72.79307
#
# Poissons Ratio (x) = 0.52106 0.63543
# Poissons Ratio (y) = 0.15198 0.24805
# Poissons Ratio (z) = 0.15095 0.20202
#
# Static dielectric constant tensor:
#      x y z
#    x 3.295310 0.000000 0.299990 
#    y 0.000000 3.648210 0.000000 
#    z 0.299990 0.000000 4.183750 
# 
# 
# High freq. dielectric constant tensor:
#      x y z
#    x 1.710880 0.000000 -0.006280 
#    y 0.000000 1.705820 0.000000 
#    z -0.006280 0.000000 1.775710 
# 
# From -- ./inp_files/50062.got.cif
#   From: 2010.06.25/outbox.cif.g09.slc.cpg/sg12_26_cif.got.tgz:50062.got - 2010.06.28 00:19:55.
