data_PCOD8084421
_publ_section_title
;
Structure prediction by ZEFSAII (Michael W. Deem and Ramdas Pophale) SiO2 
 PCOD8084421
Probable space group: C 2/M
;
_chemical_formula_sum "Si O2"
_cell_formula_units_Z 40
_cell_length_a 17.927396
_cell_length_b 13.565700
_cell_length_c 10.423161
_cell_angle_alpha 90.000000
_cell_angle_beta 139.834940
_cell_angle_gamma 90.000000
_cell_volume 1634.982294
_symmetry_space_group_name_H-M "C 2/M"
_symmetry_group_IT_number 12
_symmetry_cell_setting 'monoclinic'
loop_
_space_group_symop_operation_xyz
x,y,z
-x,y,-z
-x,-y,-z
x,-y,z
1/2+x,1/2+y,z
1/2-x,1/2+y,-z
1/2-x,1/2-y,-z
1/2+x,1/2-y,z
loop_
_atom_site_type_symbol
_atom_site_label
_atom_site_fract_x
_atom_site_fract_y
_atom_site_fract_z
Si Si1 0.380193 0.780673 0.664749
Si Si2 0.047067 0.892360 0.921053
Si Si3 0.278901 0.216748 0.180042
Si Si4 0.026970 0.388457 0.694972
Si Si5 0.165159 0.386351 0.143304
O O1 0.250000 0.750000 0.500000
O O2 0.465068 0.688727 0.749518
O O3 0.399021 0.844619 0.558327
O O4 0.405944 0.845579 0.826938
O O5 0.039923 0.000000 0.841968
O O6 0.180216 0.858216 0.099131
O O7 0.000000 0.905796 0.000000
O O8 0.404693 0.163325 0.334124
O O9 0.277956 0.315159 0.269482
O O10 0.250000 0.250000 0.000000
O O11 0.017188 0.500000 0.640166
O O12 0.088442 0.374579 0.914719
O O13 0.202498 0.500000 0.215014
#
# Coordination Sequence:
#
# PCOD8084421 Si02
#       5
#     8   8   8   8   8
#     4  12  23  38  57  83 123 157 192 236 289 352
#     4  11  21  37  60  83 112 152 196 243 292 342
#     4  10  18  35  62  90 115 139 189 251 297 334
#     4  10  20  37  65  91 113 148 196 247 291 340
#     4  10  20  37  64  89 111 146 197 247 288 336
#
# _framework density 24.465097
#
# number of rings (size 3 to 8) (size 9 to 14) (size 15 to 20)
#    0.000    1.400    6.000    1.800    0.000    4.000 
#    0.000    1.000    0.000    2.400    0.000    0.000 
#    0.000    0.000    0.000    0.000    0.000    0.000 
#
# Total GULP energy -247812.607573 kJ/mol
# GULP energy per Si atom -12390.630379 kJ/mol
# Density = 2.440941 g / cm^3
# Si number density = 24.465097 Si / 1000 Ang^3
#
#
#
# Elastic Constant Matrix: (Units=GPa)
#
#
# Indices 1 2 3 4 5 6 
#
# 1 201.9597 93.3529 44.2560 0.0000 25.9101 0.0000
# 2 93.3529 223.4971 27.6348 0.0000 29.2458 0.0000
# 3 44.2560 27.6348 49.7116 0.0000 28.0695 0.0000
# 4 0.0000 0.0000 0.0000 12.4088 0.0000 7.7837
# 5 25.9101 29.2458 28.0695 0.0000 53.6364 0.0000
# 6 0.0000 0.0000 0.0000 7.7837 0.0000 31.8709
#
#
#
# Elastic Compliance Matrix: (Units=1/GPa)
#
#
# Indices 1 2 3 4 5 6 
#
# 1 0.007168 -0.002413 -0.005433 0.000000 0.000697 0.000000
# 2 -0.002413 0.005734 0.000097 0.000000 -0.002011 0.000000
# 3 -0.005433 0.000097 0.033282 0.000000 -0.014845 0.000000
# 4 0.000000 0.000000 0.000000 0.095168 0.000000 -0.023242
# 5 0.000697 -0.002011 -0.014845 0.000000 0.027173 0.000000
# 6 0.000000 0.000000 0.000000 -0.023242 0.000000 0.037053
#
#
# Mechanical properties :
#
#
# Convention : Reuss Voigt Hill
#
# Bulk Modulus (GPa) = 32.59055 89.51730 61.05392
# Shear Modulus (GPa) = 21.61646 40.24485 30.93066
#
# Velocity S-wave (km/s) = 2.97570 4.06025 3.55952
# Velocity P-wave (km/s) = 5.01563 7.65833 6.47328
#
# Compressibility (1/GPa) = 0.03068375
#
# Stress axis : x y z
#
# Youngs Moduli (GPa) = 139.50245 174.41006 30.04657
#
# Poissons Ratio (x) = 0.42094 0.16325
# Poissons Ratio (y) = 0.33669 -0.00291
# Poissons Ratio (z) = 0.75796 -0.01689
#
# Static dielectric constant tensor:
#      x y z
#    x 5.450550 0.000000 0.132570 
#    y 0.000000 5.240800 0.000000 
#    z 0.132570 0.000000 4.239430 
# 
# 
# High freq. dielectric constant tensor:
#      x y z
#    x 2.010070 0.000000 -0.006010 
#    y 0.000000 1.980310 0.000000 
#    z -0.006010 0.000000 1.950200 
# 
# From -- ./inp_files/155594.got.cif
#   From: 2010.06.25/outbox.cif.g09.slc.cpg/sg12_78_cif.got.tgz:155594.got - 2010.06.28 00:19:55.
