data_PCOD8084703
_publ_section_title
;
Structure prediction by ZEFSAII (Michael W. Deem and Ramdas Pophale) SiO2 
 PCOD8084703
Probable space group: C 2/M
;
_chemical_formula_sum "Si O2"
_cell_formula_units_Z 64
_cell_length_a 22.131082
_cell_length_b 9.084750
_cell_length_c 22.794940
_cell_angle_alpha 90.000000
_cell_angle_beta 124.096023
_cell_angle_gamma 90.000000
_cell_volume 3795.215765
_symmetry_space_group_name_H-M "C 2/M"
_symmetry_group_IT_number 12
_symmetry_cell_setting 'monoclinic'
loop_
_space_group_symop_operation_xyz
x,y,z
-x,y,-z
-x,-y,-z
x,-y,z
1/2+x,1/2+y,z
1/2-x,1/2+y,-z
1/2-x,1/2-y,-z
1/2+x,1/2-y,z
loop_
_atom_site_type_symbol
_atom_site_label
_atom_site_fract_x
_atom_site_fract_y
_atom_site_fract_z
Si Si1 0.428210 0.670066 0.536949
Si Si2 0.151761 0.170844 0.300384
Si Si3 0.556552 0.174977 0.985236
Si Si4 0.271700 0.830650 0.267353
Si Si5 0.404927 0.668770 0.391491
Si Si6 0.449637 0.834548 0.834890
Si Si7 0.821809 0.325004 0.563966
Si Si8 0.327350 0.164639 0.868181
O O1 0.407766 0.500000 0.538455
O O2 0.401569 0.716163 0.457697
O O3 0.514485 0.693559 0.589944
O O4 0.390660 0.777344 0.562721
O O5 0.218285 0.200171 0.292577
O O6 0.075717 0.222126 0.229403
O O7 0.166399 0.271869 0.363827
O O8 0.145363 0.000000 0.314679
O O9 0.529204 0.217229 0.904333
O O10 0.552759 0.000000 0.989193
O O11 0.500000 0.248407 0.000000
O O12 0.638588 0.222898 0.050598
O O13 0.350253 0.763604 0.323222
O O14 0.239185 0.765173 0.189458
O O15 0.283386 0.000000 0.261922
O O16 0.381510 0.500000 0.373156
O O17 0.392566 0.833416 0.856902
O O18 0.454744 0.000000 0.811434
O O19 0.812906 0.500000 0.557661
O O20 0.750000 0.250000 0.500000
O O21 0.296267 0.000000 0.858230
#
# Coordination Sequence:
#
# PCOD8084703 Si02
#       8
#     8   8   8   8   8   8   8   8
#     4   9  19  36  54  72  91 113 146 185 223 267
#     4  10  20  32  44  63  92 124 156 189 225 266
#     4   7  10  18  34  55  78 108 147 185 219 259
#     4  10  19  28  41  64  93 122 153 189 226 262
#     4   9  18  33  53  71  89 116 147 180 222 271
#     4   8  13  23  39  58  81 112 150 188 223 262
#     4  12  24  36  51  70  92 120 151 185 225 265
#     4   8  13  22  37  56  81 115 151 184 220 265
#
# _framework density 16.863337000000001
#
# number of rings (size 3 to 8) (size 9 to 14) (size 15 to 20)
#    0.000    2.875    0.000    4.875    0.000    4.500 
#    0.000    1.875    0.000    3.750    0.000    0.000 
#    0.000    1.000    0.000    3.000    0.000    4.375 
#
# Total GULP energy -396529.357199 kJ/mol
# GULP energy per Si atom -12391.542412 kJ/mol
# Density = 1.682496 g / cm^3
# Si number density = 16.863337 Si / 1000 Ang^3
#
#
#
# Elastic Constant Matrix: (Units=GPa)
#
#
# Indices 1 2 3 4 5 6 
#
# 1 33.5560 31.1286 30.0214 0.0000 7.7939 0.0000
# 2 31.1286 95.2803 63.0630 0.0000 10.1074 0.0000
# 3 30.0214 63.0630 152.6348 0.0000 25.1695 0.0000
# 4 0.0000 0.0000 0.0000 22.6511 0.0000 2.2383
# 5 7.7939 10.1074 25.1695 0.0000 17.5155 0.0000
# 6 0.0000 0.0000 0.0000 2.2383 0.0000 19.8263
#
#
#
# Elastic Compliance Matrix: (Units=1/GPa)
#
#
# Indices 1 2 3 4 5 6 
#
# 1 0.045564 -0.012367 -0.002209 0.000000 -0.009963 0.000000
# 2 -0.012367 0.017803 -0.005421 0.000000 0.003020 0.000000
# 3 -0.002209 -0.005421 0.011203 0.000000 -0.011986 0.000000
# 4 0.000000 0.000000 0.000000 0.044646 0.000000 -0.005040
# 5 -0.009963 0.003020 -0.011986 0.000000 0.077008 0.000000
# 6 0.000000 0.000000 0.000000 -0.005040 0.000000 0.051007
#
#
# Mechanical properties :
#
#
# Convention : Reuss Voigt Hill
#
# Bulk Modulus (GPa) = 28.92247 58.87747 43.89997
# Shear Modulus (GPa) = 16.73636 22.48245 19.60941
#
# Velocity S-wave (km/s) = 3.15377 3.65528 3.41375
# Velocity P-wave (km/s) = 5.51815 7.26671 6.45194
#
# Compressibility (1/GPa) = 0.03457519
#
# Stress axis : x y z
#
# Youngs Moduli (GPa) = 21.94715 56.16885 89.26520
#
# Poissons Ratio (x) = 0.69462 0.19723
# Poissons Ratio (y) = 0.27141 0.48393
# Poissons Ratio (z) = 0.04849 0.30451
#
# Static dielectric constant tensor:
#      x y z
#    x 2.693830 0.000000 0.147880 
#    y 0.000000 3.087590 0.000000 
#    z 0.147880 0.000000 3.635280 
# 
# 
# High freq. dielectric constant tensor:
#      x y z
#    x 1.588290 0.000000 0.017000 
#    y 0.000000 1.640590 0.000000 
#    z 0.017000 0.000000 1.670420 
# 
# From -- ./inp_files/348578.got.cif
#   From: 2010.06.25/outbox.cif.g09.slc.cpg/sg12_175_cif.got.tgz:348578.got - 2010.06.28 00:19:55.
