data_PCOD8084748
_publ_section_title
;
Structure prediction by ZEFSAII (Michael W. Deem and Ramdas Pophale) SiO2 
 PCOD8084748
Probable space group: C 2/M
;
_chemical_formula_sum "Si O2"
_cell_formula_units_Z 56
_cell_length_a 21.420141
_cell_length_b 21.854516
_cell_length_c 7.646657
_cell_angle_alpha 90.000000
_cell_angle_beta 60.887426
_cell_angle_gamma 90.000000
_cell_volume 3127.377450
_symmetry_space_group_name_H-M "C 2/M"
_symmetry_group_IT_number 12
_symmetry_cell_setting 'monoclinic'
loop_
_space_group_symop_operation_xyz
x,y,z
-x,y,-z
-x,-y,-z
x,-y,z
1/2+x,1/2+y,z
1/2-x,1/2+y,-z
1/2-x,1/2-y,-z
1/2+x,1/2-y,z
loop_
_atom_site_type_symbol
_atom_site_label
_atom_site_fract_x
_atom_site_fract_y
_atom_site_fract_z
Si Si1 0.813330 0.429568 0.501074
Si Si2 0.578200 0.261544 0.353136
Si Si3 0.353295 0.863501 0.096747
Si Si4 0.275066 0.290950 0.717971
Si Si5 0.784742 0.175774 0.320228
Si Si6 0.080073 0.761368 0.947031
Si Si7 0.919721 0.379862 0.638113
O O1 0.791890 0.500000 0.527545
O O2 0.840624 0.412782 0.267680
O O3 0.741734 0.393884 0.664889
O O4 0.873269 0.417999 0.564915
O O5 0.500000 0.289275 0.500000
O O6 0.641305 0.301208 0.356948
O O7 0.583769 0.191747 0.409888
O O8 0.591797 0.268287 0.133681
O O9 0.278934 0.837648 0.109700
O O10 0.396186 0.807592 0.133921
O O11 0.397046 0.891372 0.872355
O O12 0.250895 0.219927 0.781186
O O13 0.253862 0.305148 0.548609
O O14 0.870440 0.185777 0.206278
O O15 0.000000 0.774425 0.000000
O O16 0.000000 0.403684 0.500000
#
# Coordination Sequence:
#
# PCOD8084748 Si02
#       7
#     8   8   8   8   8   8   8
#     4  11  23  38  56  73 102 147 188 224 260 299
#     4  10  19  28  49  81 113 138 166 206 267 331
#     4   9  22  35  55  79 109 139 177 218 266 322
#     4   9  16  31  52  76 104 139 163 217 273 314
#     4   9  18  32  51  75 106 131 179 217 261 320
#     4  10  20  30  54  83 109 139 162 213 278 326
#     4  10  22  35  53  77 106 139 177 225 257 310
#
# _framework density 17.906375000000001
#
# number of rings (size 3 to 8) (size 9 to 14) (size 15 to 20)
#    0.000    2.286    1.429    1.714    8.000    2.571 
#    0.000    0.714    0.000    0.429    0.000    0.000 
#    0.000    6.000    0.000    0.000    0.000    0.000 
#
# Total GULP energy -346905.871209 kJ/mol
# GULP energy per Si atom -12389.495400 kJ/mol
# Density = 1.786562 g / cm^3
# Si number density = 17.906375 Si / 1000 Ang^3
#
#
#
# Elastic Constant Matrix: (Units=GPa)
#
#
# Indices 1 2 3 4 5 6 
#
# 1 112.4515 40.6843 25.8613 0.0000 -24.0055 0.0000
# 2 40.6843 90.5962 40.3375 0.0000 -7.0903 0.0000
# 3 25.8613 40.3375 72.7172 0.0000 -12.8007 0.0000
# 4 0.0000 0.0000 0.0000 14.9709 0.0000 1.6454
# 5 -24.0055 -7.0903 -12.8007 0.0000 35.6947 0.0000
# 6 0.0000 0.0000 0.0000 1.6454 0.0000 13.7075
#
#
#
# Elastic Compliance Matrix: (Units=1/GPa)
#
#
# Indices 1 2 3 4 5 6 
#
# 1 0.012230 -0.004723 -0.000477 0.000000 0.007116 0.000000
# 2 -0.004723 0.016482 -0.007948 0.000000 -0.002753 0.000000
# 3 -0.000477 -0.007948 0.019209 0.000000 0.004989 0.000000
# 4 0.000000 0.000000 0.000000 0.067689 0.000000 -0.008125
# 5 0.007116 -0.002753 0.004989 0.000000 0.034043 0.000000
# 6 0.000000 0.000000 0.000000 -0.008125 0.000000 0.073928
#
#
# Mechanical properties :
#
#
# Convention : Reuss Voigt Hill
#
# Bulk Modulus (GPa) = 46.24197 54.39236 50.31717
# Shear Modulus (GPa) = 19.44872 24.13339 21.79105
#
# Velocity S-wave (km/s) = 3.29923 3.67516 3.49226
# Velocity P-wave (km/s) = 6.35560 6.96067 6.66500
#
# Compressibility (1/GPa) = 0.02162537
#
# Stress axis : x y z
#
# Youngs Moduli (GPa) = 81.76464 60.67125 52.05998
#
# Poissons Ratio (x) = 0.28655 0.02483
# Poissons Ratio (y) = 0.38617 0.41377
# Poissons Ratio (z) = 0.03900 0.48221
#
# Static dielectric constant tensor:
#      x y z
#    x 3.128200 0.000000 -0.069120 
#    y 0.000000 2.951440 0.000000 
#    z -0.069120 0.000000 3.459560 
# 
# 
# High freq. dielectric constant tensor:
#      x y z
#    x 1.696310 0.000000 -0.003220 
#    y 0.000000 1.630440 0.000000 
#    z -0.003220 0.000000 1.708360 
# 
# From -- ./inp_files/89091.got.cif
#   From: 2010.06.25/outbox.cif.g09.slc.cpg/sg12_45_cif.got.tgz:89091.got - 2010.06.28 00:19:55.
