data_PCOD8084648
_publ_section_title
;
Structure prediction by ZEFSAII (Michael W. Deem and Ramdas Pophale) SiO2 
 PCOD8084648
Probable space group: C 2/M
;
_chemical_formula_sum "Si O2"
_cell_formula_units_Z 48
_cell_length_a 11.095000
_cell_length_b 34.878231
_cell_length_c 5.378831
_cell_angle_alpha 90.000000
_cell_angle_beta 81.420192
_cell_angle_gamma 90.000000
_cell_volume 2058.173936
_symmetry_space_group_name_H-M "C 2/M"
_symmetry_group_IT_number 12
_symmetry_cell_setting 'monoclinic'
loop_
_space_group_symop_operation_xyz
x,y,z
-x,y,-z
-x,-y,-z
x,-y,z
1/2+x,1/2+y,z
1/2-x,1/2+y,-z
1/2-x,1/2-y,-z
1/2+x,1/2-y,z
loop_
_atom_site_type_symbol
_atom_site_label
_atom_site_fract_x
_atom_site_fract_y
_atom_site_fract_z
Si Si1 0.791109 0.044508 0.540795
Si Si2 0.715265 0.293522 0.968876
Si Si3 0.137589 0.637253 0.088392
Si Si4 0.365984 0.330086 0.498811
Si Si5 0.867168 0.918483 0.006168
Si Si6 0.860751 0.387222 0.413240
O O1 0.844371 0.055011 0.254412
O O2 0.664421 0.067921 0.618757
O O3 0.760125 0.000000 0.556968
O O4 0.874378 0.055330 0.753687
O O5 0.839893 0.317693 0.883592
O O6 0.634268 0.301890 0.745592
O O7 0.750000 0.250000 0.000000
O O8 0.656520 0.305750 0.246612
O O9 0.267667 0.615150 0.002692
O O10 0.067785 0.618416 0.346529
O O11 0.068430 0.631273 0.845046
O O12 0.500000 0.348401 0.500000
O O13 0.268381 0.364525 0.494263
O O14 0.000000 0.898973 0.000000
#
# Coordination Sequence:
#
# PCOD8084648 Si02
#       6
#     8   8   8   8   8   8
#     4  10  19  27  34  46  65  88 115 152 196 229
#     4  10  19  30  44  63  83 100 124 165 212 243
#     4   8  16  27  39  51  67  91 116 147 191 232
#     4  10  19  31  46  61  79 106 136 163 200 248
#     4  10  19  28  36  47  64  88 120 153 186 226
#     4   8  16  27  39  53  69  92 125 159 190 228
#
# _framework density 23.321643000000002
#
# number of rings (size 3 to 8) (size 9 to 14) (size 15 to 20)
#    0.000    2.667    0.000    2.000    0.000   14.000 
#    0.000    0.000    0.000    0.000    0.000    0.000 
#    0.000    0.000    0.000    0.000    0.000    0.000 
#
# Total GULP energy -297375.289341 kJ/mol
# GULP energy per Si atom -12390.637056 kJ/mol
# Density = 2.326856 g / cm^3
# Si number density = 23.321643 Si / 1000 Ang^3
#
#
#
# Elastic Constant Matrix: (Units=GPa)
#
#
# Indices 1 2 3 4 5 6 
#
# 1 92.2191 28.8921 22.3590 0.0000 20.5540 0.0000
# 2 28.8921 149.4229 35.9900 0.0000 13.7767 0.0000
# 3 22.3590 35.9900 188.6550 0.0000 31.2132 0.0000
# 4 0.0000 0.0000 0.0000 31.7570 0.0000 2.9051
# 5 20.5540 13.7767 31.2132 0.0000 28.1589 0.0000
# 6 0.0000 0.0000 0.0000 2.9051 0.0000 8.9695
#
#
#
# Elastic Compliance Matrix: (Units=1/GPa)
#
#
# Indices 1 2 3 4 5 6 
#
# 1 0.013393 -0.001809 0.000280 0.000000 -0.009202 0.000000
# 2 -0.001809 0.007392 -0.000999 0.000000 -0.001189 0.000000
# 3 0.000280 -0.000999 0.006626 0.000000 -0.007061 0.000000
# 4 0.000000 0.000000 0.000000 0.032451 0.000000 -0.010510
# 5 -0.009202 -0.001189 -0.007061 0.000000 0.050638 0.000000
# 6 0.000000 0.000000 0.000000 -0.010510 0.000000 0.114893
#
#
# Mechanical properties :
#
#
# Convention : Reuss Voigt Hill
#
# Bulk Modulus (GPa) = 44.72967 67.19769 55.96368
# Shear Modulus (GPa) = 21.01713 36.64749 28.83231
#
# Velocity S-wave (km/s) = 3.00523 3.96838 3.51991
# Velocity P-wave (km/s) = 5.59133 7.06211 6.36932
#
# Compressibility (1/GPa) = 0.02235652
#
# Stress axis : x y z
#
# Youngs Moduli (GPa) = 74.66338 135.27341 150.91401
#
# Poissons Ratio (x) = 0.24468 -0.04228
# Poissons Ratio (y) = 0.13505 0.15079
# Poissons Ratio (z) = -0.02092 0.13516
#
# Static dielectric constant tensor:
#      x y z
#    x 4.159600 0.000000 0.348310 
#    y 0.000000 3.914810 0.000000 
#    z 0.348310 0.000000 5.470220 
# 
# 
# High freq. dielectric constant tensor:
#      x y z
#    x 1.934830 0.000000 0.014250 
#    y 0.000000 1.887350 0.000000 
#    z 0.014250 0.000000 1.989270 
# 
# From -- ./inp_files/12830.got.cif
#   From: 2010.06.25/outbox.cif.g09.slc.cpg/sg12_7_cif.got.tgz:12830.got - 2010.06.28 00:19:55.
