data_PCOD8084911
_publ_section_title
;
Structure prediction by ZEFSAII (Michael W. Deem and Ramdas Pophale) SiO2 
 PCOD8084911
Probable space group: C 2/M
;
_chemical_formula_sum "Si O2"
_cell_formula_units_Z 56
_cell_length_a 23.943673
_cell_length_b 9.282415
_cell_length_c 17.663251
_cell_angle_alpha 90.000000
_cell_angle_beta 65.220369
_cell_angle_gamma 90.000000
_cell_volume 3564.290598
_symmetry_space_group_name_H-M "C 2/M"
_symmetry_group_IT_number 12
_symmetry_cell_setting 'monoclinic'
loop_
_space_group_symop_operation_xyz
x,y,z
-x,y,-z
-x,-y,-z
x,-y,z
1/2+x,1/2+y,z
1/2-x,1/2+y,-z
1/2-x,1/2-y,-z
1/2+x,1/2-y,z
loop_
_atom_site_type_symbol
_atom_site_label
_atom_site_fract_x
_atom_site_fract_y
_atom_site_fract_z
Si Si1 0.161526 0.168184 0.010004
Si Si2 0.796402 0.668091 0.871996
Si Si3 0.852259 0.669475 0.231343
Si Si4 0.689610 0.659006 0.448340
Si Si5 0.217836 0.170859 0.267482
Si Si6 0.833340 0.340075 0.403106
Si Si7 0.571640 0.832683 0.953549
O O1 0.162643 0.252983 0.088364
O O2 0.150018 0.000000 0.032075
O O3 0.224589 0.194044 0.929217
O O4 0.105692 0.232184 0.993768
O O5 0.813422 0.500000 0.861201
O O6 0.813699 0.740712 0.782247
O O7 0.844171 0.500000 0.247652
O O8 0.788316 0.726219 0.232788
O O9 0.864415 0.731110 0.309702
O O10 0.907547 0.709523 0.143495
O O11 0.661932 0.500000 0.470922
O O12 0.682651 0.712154 0.365437
O O13 0.760840 0.658332 0.429582
O O14 0.650619 0.754017 0.529545
O O15 0.214426 0.000000 0.253099
O O16 0.858785 0.500000 0.402658
O O17 0.587487 0.000000 0.961107
O O18 0.500000 0.800934 0.000000
#
# Coordination Sequence:
#
# PCOD8084911 Si02
#       7
#     8   8   8   8   8   8   8
#     4  10  20  32  45  62  85 114 144 178 222 259
#     4  10  19  29  44  65  86 110 145 182 213 255
#     4   8  14  25  40  57  80 110 144 176 210 252
#     4   8  14  22  33  53  78 106 137 168 204 245
#     4   9  15  25  41  58  83 115 141 170 211 256
#     4   8  13  22  35  50  73 108 140 168 203 243
#     4  10  19  31  48  66  85 113 149 186 218 250
#
# _framework density 15.711401
#
# number of rings (size 3 to 8) (size 9 to 14) (size 15 to 20)
#    0.000    3.000    1.429    2.571    0.000    2.000 
#    0.000    2.857    0.000    0.000    0.000    0.000 
#    0.000    1.143    0.000   13.143    0.000    3.857 
#
# Total GULP energy -347011.022573 kJ/mol
# GULP energy per Si atom -12393.250806 kJ/mol
# Density = 1.567564 g / cm^3
# Si number density = 15.711401 Si / 1000 Ang^3
#
#
#
# Elastic Constant Matrix: (Units=GPa)
#
#
# Indices 1 2 3 4 5 6 
#
# 1 47.6617 36.9412 46.4076 0.0000 11.5690 0.0000
# 2 36.9412 80.8573 59.5221 0.0000 20.3118 0.0000
# 3 46.4076 59.5221 138.1428 0.0000 31.4277 0.0000
# 4 0.0000 0.0000 0.0000 25.5217 0.0000 9.3815
# 5 11.5690 20.3118 31.4277 0.0000 23.7495 0.0000
# 6 0.0000 0.0000 0.0000 9.3815 0.0000 19.4592
#
#
#
# Elastic Compliance Matrix: (Units=1/GPa)
#
#
# Indices 1 2 3 4 5 6 
#
# 1 0.037316 -0.011763 -0.008042 0.000000 0.002524 0.000000
# 2 -0.011763 0.022774 -0.003911 0.000000 -0.008572 0.000000
# 3 -0.008042 -0.003911 0.014269 0.000000 -0.011620 0.000000
# 4 0.000000 0.000000 0.000000 0.047622 0.000000 -0.022959
# 5 0.002524 -0.008572 -0.011620 0.000000 0.063585 0.000000
# 6 0.000000 0.000000 0.000000 -0.022959 0.000000 0.062458
#
#
# Mechanical properties :
#
#
# Convention : Reuss Voigt Hill
#
# Bulk Modulus (GPa) = 37.13640 61.37819 49.25730
# Shear Modulus (GPa) = 16.42414 21.99881 19.21147
#
# Velocity S-wave (km/s) = 3.23672 3.74596 3.50061
# Velocity P-wave (km/s) = 6.13648 7.60661 6.91075
#
# Compressibility (1/GPa) = 0.02692776
#
# Stress axis : x y z
#
# Youngs Moduli (GPa) = 26.79849 43.91010 70.08104
#
# Poissons Ratio (x) = 0.51649 0.56358
# Poissons Ratio (y) = 0.31522 0.27408
# Poissons Ratio (z) = 0.21551 0.17173
#
# Static dielectric constant tensor:
#      x y z
#    x 2.511580 0.000000 0.267550 
#    y 0.000000 2.970050 0.000000 
#    z 0.267550 0.000000 3.227510 
# 
# 
# High freq. dielectric constant tensor:
#      x y z
#    x 1.543540 0.000000 0.032540 
#    y 0.000000 1.594280 0.000000 
#    z 0.032540 0.000000 1.609140 
# 
# From -- ./inp_files/287351.got.cif
#   From: 2010.06.25/outbox.cif.g09.slc.cpg/sg12_144_cif.got.tgz:287351.got - 2010.06.28 00:19:55.
