data_PCOD8084462
_publ_section_title
;
Structure prediction by ZEFSAII (Michael W. Deem and Ramdas Pophale) SiO2 
 PCOD8084462
Probable space group: C 2/M
;
_chemical_formula_sum "Si O2"
_cell_formula_units_Z 56
_cell_length_a 28.227690
_cell_length_b 17.932341
_cell_length_c 17.790509
_cell_angle_alpha 90.000000
_cell_angle_beta 18.885850
_cell_angle_gamma 90.000000
_cell_volume 2914.886247
_symmetry_space_group_name_H-M "C 2/M"
_symmetry_group_IT_number 12
_symmetry_cell_setting 'monoclinic'
loop_
_space_group_symop_operation_xyz
x,y,z
-x,y,-z
-x,-y,-z
x,-y,z
1/2+x,1/2+y,z
1/2-x,1/2+y,-z
1/2-x,1/2-y,-z
1/2+x,1/2-y,z
loop_
_atom_site_type_symbol
_atom_site_label
_atom_site_fract_x
_atom_site_fract_y
_atom_site_fract_z
Si Si1 0.623947 0.084989 0.005258
Si Si2 0.583167 0.837991 0.795293
Si Si3 0.192215 0.845014 0.783525
Si Si4 0.119430 0.724043 0.244029
Si Si5 0.677282 0.720540 0.317699
Si Si6 0.376535 0.330697 0.285746
Si Si7 0.010467 0.584070 0.630730
O O1 0.764416 0.137378 0.781969
O O2 0.675397 0.000000 0.916930
O O3 0.497793 0.102985 0.135362
O O4 0.560197 0.099551 0.182682
O O5 0.578057 0.755285 0.768591
O O6 0.759517 0.858657 0.525312
O O7 0.500000 0.841555 0.000000
O O8 0.226405 0.761811 0.763599
O O9 0.194556 0.839479 0.689899
O O10 0.315239 0.902314 0.626367
O O11 0.033238 0.873654 0.052985
O O12 0.172128 0.729402 0.250260
O O13 0.068510 0.638865 0.308825
O O14 0.993729 0.781985 0.404265
O O15 0.250000 0.750000 0.000000
O O16 0.983368 0.500000 0.644038
#
# Coordination Sequence:
#
# PCOD8084462 Si02
#       7
#     8   8   8   8   8   8   8
#     4  11  21  36  56  84 122 157 190 234 292 354
#     4  11  20  34  53  85 115 155 200 243 281 333
#     4  10  18  36  56  84 117 150 197 241 279 343
#     4  10  20  37  60  84 112 145 194 242 283 351
#     4  10  20  36  57  88 109 147 196 235 293 336
#     4  10  19  32  56  85 116 149 201 243 279 325
#     4  10  21  37  60  87 117 154 189 239 300 349
#
# _framework density 19.211728000000001
#
# number of rings (size 3 to 8) (size 9 to 14) (size 15 to 20)
#    0.000    1.714    5.714    0.000    0.000    0.286 
#    2.571   10.000    0.000    0.000    0.000    0.000 
#    0.000    0.000    0.000    0.000    0.000    0.000 
#
# Total GULP energy -346931.383058 kJ/mol
# GULP energy per Si atom -12390.406538 kJ/mol
# Density = 1.916800 g / cm^3
# Si number density = 19.211728 Si / 1000 Ang^3
#
#
#
# Elastic Constant Matrix: (Units=GPa)
#
#
# Indices 1 2 3 4 5 6 
#
# 1 59.6001 28.3002 40.2315 -0.0020 1.9974 -0.0010
# 2 28.3002 104.7121 49.0766 0.0044 3.9078 0.0010
# 3 40.2315 49.0766 170.8013 0.0032 17.0674 -0.0011
# 4 -0.0020 0.0044 0.0032 25.5962 0.0004 -0.0503
# 5 1.9974 3.9078 17.0674 0.0004 19.9823 0.0010
# 6 -0.0010 0.0010 -0.0011 -0.0503 0.0010 17.6923
#
#
#
# Elastic Compliance Matrix: (Units=1/GPa)
#
#
# Indices 1 2 3 4 5 6 
#
# 1 0.021347 -0.003920 -0.004116 0.000003 0.002149 0.000001
# 2 -0.003920 0.011763 -0.002477 -0.000002 0.000207 -0.000001
# 3 -0.004116 -0.002477 0.008141 -0.000001 -0.006058 0.000001
# 4 0.000003 -0.000002 -0.000001 0.039068 0.000000 0.000111
# 5 0.002149 0.000207 -0.006058 0.000000 0.054963 -0.000003
# 6 0.000001 -0.000001 0.000001 0.000111 -0.000003 0.056522
#
#
# Mechanical properties :
#
#
# Convention : Reuss Voigt Hill
#
# Bulk Modulus (GPa) = 49.44784 63.36999 56.40892
# Shear Modulus (GPa) = 22.77146 27.15452 24.96299
#
# Velocity S-wave (km/s) = 3.44654 3.76365 3.60858
# Velocity P-wave (km/s) = 6.45232 7.20717 6.84017
#
# Compressibility (1/GPa) = 0.02022333
#
# Stress axis : x y z
#
# Youngs Moduli (GPa) = 46.84585 85.01425 122.82807
#
# Poissons Ratio (x) = 0.33327 0.50561
# Poissons Ratio (y) = 0.18364 0.30426
# Poissons Ratio (z) = 0.19284 0.21059
#
# Static dielectric constant tensor:
#      x y z
#    x 3.425040 0.000020 0.037690 
#    y 0.000020 2.676830 0.000040 
#    z 0.037690 0.000040 3.955970 
# 
# 
# High freq. dielectric constant tensor:
#      x y z
#    x 1.738380 0.000000 0.001970 
#    y 0.000000 1.713550 0.000000 
#    z 0.001970 0.000000 1.769050 
# 
# From -- ./inp_files/293848.got.cif
#   From: 2010.06.25/outbox.cif.g09.slc.cpg/sg12_147_cif.got.tgz:293848.got - 2010.06.28 00:19:55.
