data_PCOD8084792
_publ_section_title
;
Structure prediction by ZEFSAII (Michael W. Deem and Ramdas Pophale) SiO2 
 PCOD8084792
Probable space group: C 2/M
;
_chemical_formula_sum "Si O2"
_cell_formula_units_Z 64
_cell_length_a 26.926517
_cell_length_b 9.223500
_cell_length_c 18.364367
_cell_angle_alpha 90.000000
_cell_angle_beta 69.311624
_cell_angle_gamma 90.000000
_cell_volume 4266.806881
_symmetry_space_group_name_H-M "C 2/M"
_symmetry_group_IT_number 12
_symmetry_cell_setting 'monoclinic'
loop_
_space_group_symop_operation_xyz
x,y,z
-x,y,-z
-x,-y,-z
x,-y,z
1/2+x,1/2+y,z
1/2-x,1/2+y,-z
1/2-x,1/2-y,-z
1/2+x,1/2-y,z
loop_
_atom_site_type_symbol
_atom_site_label
_atom_site_fract_x
_atom_site_fract_y
_atom_site_fract_z
Si Si1 0.168172 0.331308 0.526267
Si Si2 0.250549 0.832688 0.391129
Si Si3 0.551215 0.670987 0.383558
Si Si4 0.327230 0.163924 0.925890
Si Si5 0.252514 0.833174 0.224819
Si Si6 0.136639 0.169261 0.226249
Si Si7 0.209023 0.836418 0.925416
Si Si8 0.932742 0.171251 0.462096
O O1 0.160792 0.500000 0.514304
O O2 0.201386 0.263546 0.442762
O O3 0.197704 0.302027 0.587160
O O4 0.111151 0.255300 0.561814
O O5 0.265015 0.790310 0.301304
O O6 0.232502 0.000000 0.405628
O O7 0.557385 0.500000 0.383123
O O8 0.589164 0.732940 0.300730
O O9 0.490198 0.712695 0.398940
O O10 0.569420 0.727832 0.453349
O O11 0.365107 0.244420 0.848685
O O12 0.267616 0.166005 0.927762
O O13 0.347390 0.000000 0.926663
O O14 0.330205 0.247674 0.001250
O O15 0.190901 0.801823 0.241322
O O16 0.290486 0.737024 0.154227
O O17 0.266035 0.000000 0.201575
O O18 0.129349 0.000000 0.212239
O O19 0.187689 0.000000 0.929267
O O20 0.922436 0.000000 0.462230
#
# Coordination Sequence:
#
# PCOD8084792 Si02
#       8
#     8   8   8   8   8   8   8   8
#     4  10  19  29  42  61  83 106 135 172 209 240
#     4   9  18  31  44  58  79 109 141 168 199 243
#     4   8  15  27  44  62  78 104 142 173 197 239
#     4   9  16  25  36  52  76 106 135 159 190 234
#     4   9  16  26  41  58  77 104 135 166 198 233
#     4   9  15  24  39  58  78 101 133 170 201 228
#     4   9  16  25  37  54  77 104 132 162 194 229
#     4   9  16  29  46  60  78 107 140 170 203 243
#
# _framework density 14.999506999999999
#
# number of rings (size 3 to 8) (size 9 to 14) (size 15 to 20)
#    0.000    3.000    0.000    2.625    0.000    6.000 
#    0.000    5.000    0.000    0.000    0.000    0.000 
#    0.000    1.000    0.000   11.500    0.000    4.000 
#
# Total GULP energy -396749.537166 kJ/mol
# GULP energy per Si atom -12398.423036 kJ/mol
# Density = 1.496537 g / cm^3
# Si number density = 14.999507 Si / 1000 Ang^3
#
#
#
# Elastic Constant Matrix: (Units=GPa)
#
#
# Indices 1 2 3 4 5 6 
#
# 1 58.1186 31.8753 37.6763 0.0000 -3.1787 0.0000
# 2 31.8753 79.4958 57.2645 0.0000 -1.0203 0.0000
# 3 37.6763 57.2645 134.8324 0.0000 -6.4442 0.0000
# 4 0.0000 0.0000 0.0000 24.9697 0.0000 0.2864
# 5 -3.1787 -1.0203 -6.4442 0.0000 17.9584 0.0000
# 6 0.0000 0.0000 0.0000 0.2864 0.0000 18.3186
#
#
#
# Elastic Compliance Matrix: (Units=1/GPa)
#
#
# Indices 1 2 3 4 5 6 
#
# 1 0.023351 -0.006795 -0.003520 0.000000 0.002484 0.000000
# 2 -0.006795 0.020157 -0.006781 0.000000 -0.002491 0.000000
# 3 -0.003520 -0.006781 0.011428 0.000000 0.003093 0.000000
# 4 0.000000 0.000000 0.000000 0.040056 0.000000 -0.000626
# 5 0.002484 -0.002491 0.003093 0.000000 0.057092 0.000000
# 6 0.000000 0.000000 0.000000 -0.000626 0.000000 0.054599
#
#
# Mechanical properties :
#
#
# Convention : Reuss Voigt Hill
#
# Bulk Modulus (GPa) = 48.20985 58.45321 53.33153
# Shear Modulus (GPa) = 20.17838 21.95804 21.06821
#
# Velocity S-wave (km/s) = 3.67177 3.83027 3.75186
# Velocity P-wave (km/s) = 7.08425 7.65611 7.37572
#
# Compressibility (1/GPa) = 0.02074265
#
# Stress axis : x y z
#
# Youngs Moduli (GPa) = 42.82471 49.61139 87.50434
#
# Poissons Ratio (x) = 0.33713 0.30804
# Poissons Ratio (y) = 0.29101 0.59336
# Poissons Ratio (z) = 0.15075 0.33641
#
# Static dielectric constant tensor:
#      x y z
#    x 2.615200 0.000000 -0.078370 
#    y 0.000000 2.875280 0.000000 
#    z -0.078370 0.000000 3.049600 
# 
# 
# High freq. dielectric constant tensor:
#      x y z
#    x 1.527820 0.000000 -0.003080 
#    y 0.000000 1.571290 0.000000 
#    z -0.003080 0.000000 1.575060 
# 
# From -- ./inp_files/294533.got.cif
#   From: 2010.06.25/outbox.cif.g09.slc.cpg/sg12_148_cif.got.tgz:294533.got - 2010.06.28 00:19:55.
