data_PCOD8084681
_publ_section_title
;
Structure prediction by ZEFSAII (Michael W. Deem and Ramdas Pophale) SiO2 
 PCOD8084681
Probable space group: C 2/M
;
_chemical_formula_sum "Si O2"
_cell_formula_units_Z 64
_cell_length_a 28.055970
_cell_length_b 9.070549
_cell_length_c 16.057314
_cell_angle_alpha 90.000000
_cell_angle_beta 87.332473
_cell_angle_gamma 90.000000
_cell_volume 4081.886373
_symmetry_space_group_name_H-M "C 2/M"
_symmetry_group_IT_number 12
_symmetry_cell_setting 'monoclinic'
loop_
_space_group_symop_operation_xyz
x,y,z
-x,y,-z
-x,-y,-z
x,-y,z
1/2+x,1/2+y,z
1/2-x,1/2+y,-z
1/2-x,1/2-y,-z
1/2+x,1/2-y,z
loop_
_atom_site_type_symbol
_atom_site_label
_atom_site_fract_x
_atom_site_fract_y
_atom_site_fract_z
Si Si1 0.919406 0.324618 0.154471
Si Si2 0.818520 0.837170 0.456198
Si Si3 0.982164 0.660633 0.908212
Si Si4 0.615419 0.175470 0.024801
Si Si5 0.251190 0.830030 0.241701
Si Si6 0.212349 0.170068 0.061069
Si Si7 0.712532 0.163724 0.394416
Si Si8 0.152627 0.175050 0.723404
O O1 0.918918 0.500000 0.169697
O O2 0.894943 0.239713 0.232162
O O3 0.974353 0.262170 0.145878
O O4 0.891341 0.286572 0.071901
O O5 0.764158 0.842404 0.431175
O O6 0.824600 0.730391 0.535056
O O7 0.849497 0.782555 0.374553
O O8 0.834936 0.000000 0.482673
O O9 0.974456 0.500000 0.868411
O O10 0.930096 0.738230 0.917467
O O11 0.000000 0.638427 0.000000
O O12 0.661077 0.257384 0.055361
O O13 0.620540 0.000000 0.035804
O O14 0.227459 0.810987 0.154642
O O15 0.214286 0.763434 0.311787
O O16 0.301324 0.745454 0.236519
O O17 0.260903 0.000000 0.263256
O O18 0.209939 0.000000 0.034823
O O19 0.250000 0.250000 0.000000
O O20 0.695000 0.000000 0.371826
O O21 0.155893 0.000000 0.734988
#
# Coordination Sequence:
#
# PCOD8084681 Si02
#       8
#     8   8   8   8   8   8   8   8
#     4   9  16  27  44  64  85 110 139 170 208 253
#     4   8  15  26  38  55  81 110 135 162 201 247
#     4   7  12  25  44  63  81 104 136 170 206 252
#     4   9  17  30  47  63  81 109 143 178 213 246
#     4  10  20  32  43  56  79 113 147 175 208 248
#     4  11  23  34  44  60  83 113 147 180 212 245
#     4   9  16  26  42  61  78 101 136 174 207 240
#     4  10  19  28  40  61  87 113 141 172 206 244
#
# _framework density 15.679024999999999
#
# number of rings (size 3 to 8) (size 9 to 14) (size 15 to 20)
#    0.000    2.875    0.000    4.500    0.000    9.000 
#    0.000    0.625    0.000    2.250    0.000    0.000 
#    0.000    1.000    0.000   11.250    0.000    5.250 
#
# Total GULP energy -396512.712388 kJ/mol
# GULP energy per Si atom -12391.022262 kJ/mol
# Density = 1.564334 g / cm^3
# Si number density = 15.679025 Si / 1000 Ang^3
#
#
#
# Elastic Constant Matrix: (Units=GPa)
#
#
# Indices 1 2 3 4 5 6 
#
# 1 101.9627 44.9070 48.7668 0.0000 -24.9713 0.0000
# 2 44.9070 82.9343 49.8790 0.0000 -15.1204 0.0000
# 3 48.7668 49.8790 85.1851 0.0000 -29.1603 0.0000
# 4 0.0000 0.0000 0.0000 25.8881 0.0000 -3.2199
# 5 -24.9713 -15.1204 -29.1603 0.0000 24.3060 0.0000
# 6 0.0000 0.0000 0.0000 -3.2199 0.0000 16.0535
#
#
#
# Elastic Compliance Matrix: (Units=1/GPa)
#
#
# Indices 1 2 3 4 5 6 
#
# 1 0.015737 -0.005146 -0.002643 0.000000 0.009796 0.000000
# 2 -0.005146 0.020388 -0.010962 0.000000 -0.005755 0.000000
# 3 -0.002643 -0.010962 0.027840 0.000000 0.023867 0.000000
# 4 0.000000 0.000000 0.000000 0.039616 0.000000 0.007946
# 5 0.009796 -0.005755 0.023867 0.000000 0.076260 0.000000
# 6 0.000000 0.000000 0.000000 0.007946 0.000000 0.063885
#
#
# Mechanical properties :
#
#
# Convention : Reuss Voigt Hill
#
# Bulk Modulus (GPa) = 37.78647 61.90973 49.84810
# Shear Modulus (GPa) = 17.23852 21.68481 19.46167
#
# Velocity S-wave (km/s) = 3.31941 3.72297 3.52697
# Velocity P-wave (km/s) = 6.23247 7.61919 6.96045
#
# Compressibility (1/GPa) = 0.02646450
#
# Stress axis : x y z
#
# Youngs Moduli (GPa) = 63.54499 49.04951 35.91892
#
# Poissons Ratio (x) = 0.25240 0.09492
# Poissons Ratio (y) = 0.32699 0.39374
# Poissons Ratio (z) = 0.16793 0.53767
#
# Static dielectric constant tensor:
#      x y z
#    x 2.968460 0.000000 -0.340190 
#    y 0.000000 3.048790 0.000000 
#    z -0.340190 0.000000 3.022620 
# 
# 
# High freq. dielectric constant tensor:
#      x y z
#    x 1.571780 0.000000 -0.030860 
#    y 0.000000 1.599650 0.000000 
#    z -0.030860 0.000000 1.587670 
# 
# From -- ./inp_files/248348.got.cif
#   From: 2010.06.25/outbox.cif.g09.slc.cpg/sg12_125_cif.got.tgz:248348.got - 2010.06.28 00:19:55.
