data_PCOD8084118
_publ_section_title
;
Structure prediction by ZEFSAII (Michael W. Deem and Ramdas Pophale) SiO2 
 PCOD8084118
Probable space group: C 2/M
;
_chemical_formula_sum "Si O2"
_cell_formula_units_Z 64
_cell_length_a 27.992135
_cell_length_b 8.686622
_cell_length_c 14.371692
_cell_angle_alpha 90.000000
_cell_angle_beta 66.139254
_cell_angle_gamma 90.000000
_cell_volume 3195.901800
_symmetry_space_group_name_H-M "C 2/M"
_symmetry_group_IT_number 12
_symmetry_cell_setting 'monoclinic'
loop_
_space_group_symop_operation_xyz
x,y,z
-x,y,-z
-x,-y,-z
x,-y,z
1/2+x,1/2+y,z
1/2-x,1/2+y,-z
1/2-x,1/2-y,-z
1/2+x,1/2-y,z
loop_
_atom_site_type_symbol
_atom_site_label
_atom_site_fract_x
_atom_site_fract_y
_atom_site_fract_z
Si Si1 0.073655 0.679818 0.352592
Si Si2 0.232580 0.182654 0.794313
Si Si3 0.173848 0.319256 0.153174
Si Si4 0.277697 0.817539 0.567352
Si Si5 0.358489 0.318344 0.009782
Si Si6 0.607789 0.319384 0.512603
Si Si7 0.024252 0.181248 0.080157
Si Si8 0.977350 0.318732 0.299270
O O1 0.072770 0.500000 0.378763
O O2 0.123406 0.724828 0.252621
O O3 0.074819 0.774143 0.447276
O O4 0.023110 0.729512 0.334139
O O5 0.276066 0.244884 0.831631
O O6 0.244641 0.245124 0.681769
O O7 0.236843 0.000000 0.790157
O O8 0.175337 0.237847 0.874016
O O9 0.176185 0.500000 0.131910
O O10 0.172241 0.232622 0.057152
O O11 0.250000 0.750000 0.500000
O O12 0.337039 0.765390 0.530414
O O13 0.276681 0.000000 0.563007
O O14 0.362315 0.500000 0.008340
O O15 0.416870 0.250185 0.966824
O O16 0.617596 0.500000 0.508842
O O17 0.575437 0.267162 0.628682
O O18 0.991113 0.267294 0.184454
O O19 0.023173 0.000000 0.101910
O O20 0.000000 0.220766 0.000000
O O21 0.967927 0.500000 0.308093
#
# Coordination Sequence:
#
# PCOD8084118 Si02
#       8
#     8   8   8   8   8   8   8   8
#     4  10  20  37  61  88 121 160 196 241 306 370
#     4   9  19  36  59  84 117 156 192 236 294 355
#     4  10  18  34  58  85 117 155 190 233 297 358
#     4  11  23  43  65  88 121 161 207 253 299 354
#     4  10  20  35  57  86 115 150 193 240 294 351
#     4  12  25  40  62  92 123 157 200 250 307 365
#     4  10  22  39  58  83 119 159 200 249 301 356
#     4  11  23  40  63  89 120 159 202 249 306 367
#
# _framework density 20.025648
#
# number of rings (size 3 to 8) (size 9 to 14) (size 15 to 20)
#    0.000    1.625    2.500    2.625    0.000    4.250 
#    0.000    3.750    0.000    0.000    0.000    0.000 
#    0.000    0.000    0.000    0.000    0.000    0.000 
#
# Total GULP energy -396885.208215 kJ/mol
# GULP energy per Si atom -12402.662757 kJ/mol
# Density = 1.998007 g / cm^3
# Si number density = 20.025648 Si / 1000 Ang^3
#
#
#
# Elastic Constant Matrix: (Units=GPa)
#
#
# Indices 1 2 3 4 5 6 
#
# 1 62.4830 17.8386 56.6738 0.0000 14.4447 0.0000
# 2 17.8386 42.4505 27.4803 0.0000 -1.3831 0.0000
# 3 56.6738 27.4803 159.4315 0.0000 -7.3343 0.0000
# 4 0.0000 0.0000 0.0000 29.6350 0.0000 4.9216
# 5 14.4447 -1.3831 -7.3343 0.0000 34.9254 0.0000
# 6 0.0000 0.0000 0.0000 4.9216 0.0000 25.2724
#
#
#
# Elastic Compliance Matrix: (Units=1/GPa)
#
#
# Indices 1 2 3 4 5 6 
#
# 1 0.031077 -0.006698 -0.010598 0.000000 -0.015344 0.000000
# 2 -0.006698 0.027959 -0.002282 0.000000 0.003398 0.000000
# 3 -0.010598 -0.002282 0.010734 0.000000 0.006547 0.000000
# 4 0.000000 0.000000 0.000000 0.034872 0.000000 -0.006791
# 5 -0.015344 0.003398 0.006547 0.000000 0.036488 0.000000
# 6 0.000000 0.000000 0.000000 -0.006791 0.000000 0.040891
#
#
# Mechanical properties :
#
#
# Convention : Reuss Voigt Hill
#
# Bulk Modulus (GPa) = 32.66516 52.03895 42.35206
# Shear Modulus (GPa) = 21.60920 28.79137 25.20028
#
# Velocity S-wave (km/s) = 3.28849 3.79585 3.55124
# Velocity P-wave (km/s) = 5.54671 6.72710 6.16522
#
# Compressibility (1/GPa) = 0.03061366
#
# Stress axis : x y z
#
# Youngs Moduli (GPa) = 32.17831 35.76607 93.16010
#
# Poissons Ratio (x) = 0.23957 0.98734
# Poissons Ratio (y) = 0.21554 0.21257
# Poissons Ratio (z) = 0.34104 0.08161
#
# Static dielectric constant tensor:
#      x y z
#    x 3.704720 0.000000 -0.084930 
#    y 0.000000 3.424110 0.000000 
#    z -0.084930 0.000000 3.954290 
# 
# 
# High freq. dielectric constant tensor:
#      x y z
#    x 1.782250 0.000000 -0.008700 
#    y 0.000000 1.761580 0.000000 
#    z -0.008700 0.000000 1.799430 
# 
# From -- ./inp_files/248979.got.cif
#   From: 2010.06.25/outbox.cif.g09.slc.cpg/sg12_125_cif.got.tgz:248979.got - 2010.06.28 00:19:55.
