data_PCOD8084015
_publ_section_title
;
Structure prediction by ZEFSAII (Michael W. Deem and Ramdas Pophale) SiO2 
 PCOD8084015
Probable space group: C 2/M
;
_chemical_formula_sum "Si O2"
_cell_formula_units_Z 64
_cell_length_a 23.862401
_cell_length_b 9.131966
_cell_length_c 19.789298
_cell_angle_alpha 90.000000
_cell_angle_beta 130.544827
_cell_angle_gamma 90.000000
_cell_volume 3276.905350
_symmetry_space_group_name_H-M "C 2/M"
_symmetry_group_IT_number 12
_symmetry_cell_setting 'monoclinic'
loop_
_space_group_symop_operation_xyz
x,y,z
-x,y,-z
-x,-y,-z
x,-y,z
1/2+x,1/2+y,z
1/2-x,1/2+y,-z
1/2-x,1/2-y,-z
1/2+x,1/2-y,z
loop_
_atom_site_type_symbol
_atom_site_label
_atom_site_fract_x
_atom_site_fract_y
_atom_site_fract_z
Si Si1 0.772907 0.325758 0.334682
Si Si2 0.963657 0.673907 0.672732
Si Si3 0.371094 0.326300 0.029267
Si Si4 0.491699 0.169240 0.915316
Si Si5 0.362123 0.170680 0.715408
Si Si6 0.125889 0.327586 0.835840
Si Si7 0.249713 0.172439 0.167805
Si Si8 0.936416 0.674277 0.500840
O O1 0.767741 0.500000 0.335614
O O2 0.714837 0.257305 0.341638
O O3 0.751175 0.262329 0.244080
O O4 0.855881 0.272149 0.414329
O O5 0.963867 0.500000 0.671003
O O6 0.904160 0.728495 0.681235
O O7 0.947336 0.736493 0.585215
O O8 0.043739 0.730002 0.757766
O O9 0.368794 0.500000 0.032527
O O10 0.453691 0.270639 0.083864
O O11 0.340056 0.258084 0.073946
O O12 0.320276 0.266429 0.928327
O O13 0.410680 0.200570 0.821267
O O14 0.513219 0.000000 0.920434
O O15 0.500000 0.213050 0.000000
O O16 0.344319 0.000000 0.694585
O O17 0.128821 0.500000 0.853374
O O18 0.174273 0.285306 0.809010
O O19 0.242707 0.000000 0.167858
O O20 0.940790 0.500000 0.504419
O O21 0.000000 0.735403 0.500000
#
# Coordination Sequence:
#
# PCOD8084015 Si02
#       8
#     8   8   8   8   8   8   8   8
#     4  10  20  35  55  81 108 135 174 218 263 313
#     4   9  17  31  53  77 103 136 175 218 262 308
#     4  11  21  32  48  76 110 138 172 219 272 316
#     4  10  20  35  54  74  99 141 192 225 251 307
#     4  10  20  35  52  75 106 141 177 214 260 312
#     4  10  18  34  56  74 101 142 181 216 259 314
#     4   9  19  33  51  76 106 139 174 217 268 316
#     4   9  17  31  55  85 108 130 170 220 263 311
#
# _framework density 19.530622000000001
#
# number of rings (size 3 to 8) (size 9 to 14) (size 15 to 20)
#    0.000    2.250    1.250    2.250    0.000    4.250 
#    0.000    1.875    0.000    1.125    0.000    0.000 
#    0.000    0.000    0.000    0.000    0.000    0.000 
#
# Total GULP energy -396760.519560 kJ/mol
# GULP energy per Si atom -12398.766236 kJ/mol
# Density = 1.948617 g / cm^3
# Si number density = 19.530622 Si / 1000 Ang^3
#
#
#
# Elastic Constant Matrix: (Units=GPa)
#
#
# Indices 1 2 3 4 5 6 
#
# 1 133.5075 23.9144 56.3354 0.0000 7.1483 0.0000
# 2 23.9144 29.6467 21.3038 0.0000 3.3927 0.0000
# 3 56.3354 21.3038 111.4205 0.0000 -1.7247 0.0000
# 4 0.0000 0.0000 0.0000 16.0269 0.0000 1.2015
# 5 7.1483 3.3927 -1.7247 0.0000 40.7655 0.0000
# 6 0.0000 0.0000 0.0000 1.2015 0.0000 26.3874
#
#
#
# Elastic Compliance Matrix: (Units=1/GPa)
#
#
# Indices 1 2 3 4 5 6 
#
# 1 0.010273 -0.005053 -0.004252 0.000000 -0.001561 0.000000
# 2 -0.005053 0.042115 -0.005542 0.000000 -0.002854 0.000000
# 3 -0.004252 -0.005542 0.012211 0.000000 0.001724 0.000000
# 4 0.000000 0.000000 0.000000 0.062609 0.000000 -0.002851
# 5 -0.001561 -0.002854 0.001724 0.000000 0.025115 0.000000
# 6 0.000000 0.000000 0.000000 -0.002851 0.000000 0.038027
#
#
# Mechanical properties :
#
#
# Convention : Reuss Voigt Hill
#
# Bulk Modulus (GPa) = 28.64849 53.07578 40.86213
# Shear Modulus (GPa) = 21.58159 28.17070 24.87614
#
# Velocity S-wave (km/s) = 3.32778 3.80200 3.57276
# Velocity P-wave (km/s) = 5.42824 6.81969 6.16336
#
# Compressibility (1/GPa) = 0.03490585
#
# Stress axis : x y z
#
# Youngs Moduli (GPa) = 97.34126 23.74443 81.89095
#
# Poissons Ratio (x) = 0.11997 0.34823
# Poissons Ratio (y) = 0.49182 0.45385
# Poissons Ratio (z) = 0.41393 0.13159
#
# Static dielectric constant tensor:
#      x y z
#    x 3.690040 0.000000 -0.140120 
#    y 0.000000 3.038900 0.000000 
#    z -0.140120 0.000000 3.856340 
# 
# 
# High freq. dielectric constant tensor:
#      x y z
#    x 1.773530 0.000000 -0.002710 
#    y 0.000000 1.707330 0.000000 
#    z -0.002710 0.000000 1.769080 
# 
# From -- ./inp_files/324315.got.cif
#   From: 2010.06.25/outbox.cif.g09.slc.cpg/sg12_163_cif.got.tgz:324315.got - 2010.06.28 00:19:55.
