data_PCOD8084871
_publ_section_title
;
Structure prediction by ZEFSAII (Michael W. Deem and Ramdas Pophale) SiO2 
 PCOD8084871
Probable space group: C 2/M
;
_chemical_formula_sum "Si O2"
_cell_formula_units_Z 64
_cell_length_a 20.575827
_cell_length_b 9.396380
_cell_length_c 34.314285
_cell_angle_alpha 90.000000
_cell_angle_beta 146.336834
_cell_angle_gamma 90.000000
_cell_volume 3677.436010
_symmetry_space_group_name_H-M "C 2/M"
_symmetry_group_IT_number 12
_symmetry_cell_setting 'monoclinic'
loop_
_space_group_symop_operation_xyz
x,y,z
-x,y,-z
-x,-y,-z
x,-y,z
1/2+x,1/2+y,z
1/2-x,1/2+y,-z
1/2-x,1/2-y,-z
1/2+x,1/2-y,z
loop_
_atom_site_type_symbol
_atom_site_label
_atom_site_fract_x
_atom_site_fract_y
_atom_site_fract_z
Si Si1 0.161898 0.835897 0.904910
Si Si2 0.923846 0.669623 0.926045
Si Si3 0.004979 0.330833 0.598646
Si Si4 0.330210 0.668396 0.178355
Si Si5 0.381867 0.167437 0.420242
Si Si6 0.732097 0.169201 0.562499
Si Si7 0.419803 0.836067 0.066084
Si Si8 0.014742 0.168717 0.334731
O O1 0.144764 0.773828 0.852711
O O2 0.077366 0.751517 0.892281
O O3 0.124685 0.000000 0.888870
O O4 0.297236 0.814025 0.982988
O O5 0.928139 0.500000 0.928963
O O6 0.791509 0.728648 0.864588
O O7 0.978695 0.721620 0.912266
O O8 0.000000 0.730077 0.000000
O O9 0.007235 0.500000 0.606881
O O10 0.876924 0.282228 0.518760
O O11 0.036379 0.247442 0.653289
O O12 0.107647 0.280544 0.619355
O O13 0.317938 0.500000 0.169426
O O14 0.436850 0.714946 0.259080
O O15 0.500000 0.214358 0.500000
O O16 0.279781 0.226126 0.398182
O O17 0.371859 0.000000 0.413442
O O18 0.853692 0.227567 0.606245
O O19 0.734928 0.000000 0.565128
O O20 0.440062 0.000000 0.087022
O O21 0.010672 0.000000 0.339446
#
# Coordination Sequence:
#
# PCOD8084871 Si02
#       8
#     8   8   8   8   8   8   8   8
#     4   9  16  28  45  65  90 114 139 177 221 262
#     4   9  14  25  46  68  85 109 149 185 207 246
#     4   9  16  28  47  67  87 114 149 185 216 254
#     4   9  17  29  44  63  88 118 150 182 217 258
#     4   7  11  22  42  64  81 103 142 184 210 239
#     4   8  14  26  45  67  87 112 150 186 214 253
#     4   9  16  26  46  71  87 106 143 185 218 250
#     4  10  19  29  43  65  92 118 143 179 226 266
#
# _framework density 17.40343
#
# number of rings (size 3 to 8) (size 9 to 14) (size 15 to 20)
#    0.000    3.250    1.250    1.875    0.000    0.000 
#    0.000    1.875    0.000    7.500    0.000    0.000 
#    0.000    0.000    0.000    0.000    0.000    0.000 
#
# Total GULP energy -396432.888128 kJ/mol
# GULP energy per Si atom -12388.527754 kJ/mol
# Density = 1.736382 g / cm^3
# Si number density = 17.403430 Si / 1000 Ang^3
#
#
#
# Elastic Constant Matrix: (Units=GPa)
#
#
# Indices 1 2 3 4 5 6 
#
# 1 126.8707 30.2506 46.5087 0.0000 -39.1451 0.0000
# 2 30.2506 25.5131 22.4465 -0.0002 -11.7399 0.0001
# 3 46.5087 22.4465 75.7248 0.0000 -24.5529 0.0000
# 4 0.0000 -0.0002 0.0000 13.4192 0.0000 -7.4729
# 5 -39.1451 -11.7399 -24.5529 0.0000 30.3743 0.0000
# 6 0.0000 0.0001 0.0000 -7.4729 0.0000 21.8510
#
#
#
# Elastic Compliance Matrix: (Units=1/GPa)
#
#
# Indices 1 2 3 4 5 6 
#
# 1 0.015412 -0.010011 -0.001779 0.000000 0.014555 0.000000
# 2 -0.010011 0.062148 -0.011747 0.000001 0.001623 0.000000
# 3 -0.001779 -0.011747 0.021093 0.000000 0.010218 0.000000
# 4 0.000000 0.000001 0.000000 0.092051 0.000000 0.031481
# 5 0.014555 0.001623 0.010218 0.000000 0.060567 0.000000
# 6 0.000000 0.000000 0.000000 0.031481 0.000000 0.056531
#
#
# Mechanical properties :
#
#
# Convention : Reuss Voigt Hill
#
# Bulk Modulus (GPa) = 19.38790 47.39113 33.38952
# Shear Modulus (GPa) = 13.43834 21.72240 17.58037
#
# Velocity S-wave (km/s) = 2.78180 3.53677 3.18176
# Velocity P-wave (km/s) = 4.63491 6.63087 5.72061
#
# Compressibility (1/GPa) = 0.05157857
#
# Stress axis : x y z
#
# Youngs Moduli (GPa) = 64.88421 16.09070 47.40819
#
# Poissons Ratio (x) = 0.16109 0.08434
# Poissons Ratio (y) = 0.64958 0.55691
# Poissons Ratio (z) = 0.11542 0.18902
#
# Static dielectric constant tensor:
#      x y z
#    x 3.760480 0.000000 -0.107210 
#    y 0.000000 2.705330 0.000000 
#    z -0.107210 0.000000 3.086010 
# 
# 
# High freq. dielectric constant tensor:
#      x y z
#    x 1.693860 0.000000 -0.017390 
#    y 0.000000 1.611370 0.000000 
#    z -0.017390 0.000000 1.647110 
# 
# From -- ./inp_files/346860.got.cif
#   From: 2010.06.25/outbox.cif.g09.slc.cpg/sg12_174_cif.got.tgz:346860.got - 2010.06.28 00:19:55.
