data_PCOD8084037
_publ_section_title
;
Structure prediction by ZEFSAII (Michael W. Deem and Ramdas Pophale) SiO2 
 PCOD8084037
Probable space group: C 2/M
;
_chemical_formula_sum "Si O2"
_cell_formula_units_Z 56
_cell_length_a 18.136526
_cell_length_b 20.025502
_cell_length_c 11.159104
_cell_angle_alpha 90.000000
_cell_angle_beta 47.432691
_cell_angle_gamma 90.000000
_cell_volume 2984.899177
_symmetry_space_group_name_H-M "C 2/M"
_symmetry_group_IT_number 12
_symmetry_cell_setting 'monoclinic'
loop_
_space_group_symop_operation_xyz
x,y,z
-x,y,-z
-x,-y,-z
x,-y,z
1/2+x,1/2+y,z
1/2-x,1/2+y,-z
1/2-x,1/2-y,-z
1/2+x,1/2-y,z
loop_
_atom_site_type_symbol
_atom_site_label
_atom_site_fract_x
_atom_site_fract_y
_atom_site_fract_z
Si Si1 0.971552 0.792315 0.358651
Si Si2 0.266635 0.921985 0.524414
Si Si3 0.100132 0.341227 0.452934
Si Si4 0.191836 0.242048 0.187214
Si Si5 0.000036 0.000000 0.295417
Si Si6 0.212699 0.135035 0.341137
Si Si7 0.843677 0.000000 0.666486
Si Si8 0.047149 0.115350 0.819315
O O1 0.923980 0.719801 0.430770
O O2 0.904018 0.848825 0.498998
O O3 0.966924 0.810687 0.222659
O O4 0.084034 0.793247 0.286052
O O5 0.352392 0.900769 0.523355
O O6 0.275271 0.876047 0.395019
O O7 0.161285 0.908609 0.704930
O O8 0.280908 0.000000 0.478116
O O9 0.176214 0.314272 0.266244
O O10 0.000000 0.369037 0.500000
O O11 0.254664 0.194745 0.210462
O O12 0.250000 0.250000 0.000000
O O13 0.082132 0.000000 0.306039
O O14 0.891878 0.000000 0.479216
O O15 0.014096 0.935258 0.197665
O O16 0.221525 0.067129 0.254113
O O17 0.000000 0.116468 0.000000
#
# Coordination Sequence:
#
# PCOD8084037 Si02
#       8
#     8   8   8   8   4   8   4   8
#     4   9  19  36  53  80 108 149 186 221 271 334
#     4  11  21  37  57  83 110 144 197 232 272 338
#     4   9  21  40  60  77 106 143 193 244 277 318
#     4  10  21  35  55  83 116 145 187 229 276 332
#     4  11  19  28  48  76 113 159 180 204 258 332
#     4  10  18  34  56  82 113 146 180 227 272 332
#     4  11  18  30  54  76 108 149 192 207 253 333
#     4  11  21  33  50  81 127 147 172 218 288 337
#
# _framework density 18.761102000000001
#
# number of rings (size 3 to 8) (size 9 to 14) (size 15 to 20)
#    0.000    1.857    4.286    2.357    4.000    5.429 
#    0.000    0.000    0.000    0.000    0.000    4.000 
#    0.000    0.000    0.000    0.000    0.000    0.000 
#
# Total GULP energy -347060.079336 kJ/mol
# GULP energy per Si atom -12395.002833 kJ/mol
# Density = 1.871840 g / cm^3
# Si number density = 18.761102 Si / 1000 Ang^3
#
#
#
# Elastic Constant Matrix: (Units=GPa)
#
#
# Indices 1 2 3 4 5 6 
#
# 1 108.4065 48.8252 36.7136 0.0000 16.9636 0.0000
# 2 48.8252 62.4460 28.2139 0.0000 7.2274 0.0000
# 3 36.7136 28.2139 89.5612 0.0000 32.2737 0.0000
# 4 0.0000 0.0000 0.0000 16.5737 0.0000 10.9903
# 5 16.9636 7.2274 32.2737 0.0000 26.9885 0.0000
# 6 0.0000 0.0000 0.0000 10.9903 0.0000 40.5595
#
#
#
# Elastic Compliance Matrix: (Units=1/GPa)
#
#
# Indices 1 2 3 4 5 6 
#
# 1 0.015328 -0.010984 -0.000723 0.000000 -0.005829 0.000000
# 2 -0.010984 0.026740 -0.006728 0.000000 0.007788 0.000000
# 3 -0.000723 -0.006728 0.022437 0.000000 -0.024575 0.000000
# 4 0.000000 0.000000 0.000000 0.073552 0.000000 -0.019930
# 5 -0.005829 0.007788 -0.024575 0.000000 0.068018 0.000000
# 6 0.000000 0.000000 0.000000 -0.019930 0.000000 0.030056
#
#
# Mechanical properties :
#
#
# Convention : Reuss Voigt Hill
#
# Bulk Modulus (GPa) = 36.18413 54.21324 45.19868
# Shear Modulus (GPa) = 17.71716 26.60174 22.15945
#
# Velocity S-wave (km/s) = 3.07637 3.76961 3.44050
# Velocity P-wave (km/s) = 5.65220 6.92142 6.31876
#
# Compressibility (1/GPa) = 0.02763642
#
# Stress axis : x y z
#
# Youngs Moduli (GPa) = 65.23821 37.39706 44.56947
#
# Poissons Ratio (x) = 0.41076 0.03223
# Poissons Ratio (y) = 0.71656 0.29985
# Poissons Ratio (z) = 0.04717 0.25160
#
# Static dielectric constant tensor:
#      x y z
#    x 3.421210 0.000000 0.267040 
#    y 0.000000 3.474310 0.000000 
#    z 0.267040 0.000000 3.223140 
# 
# 
# High freq. dielectric constant tensor:
#      x y z
#    x 1.726310 0.000000 0.028620 
#    y 0.000000 1.723750 0.000000 
#    z 0.028620 0.000000 1.690070 
# 
# From -- ./inp_files/159217.got.cif
#   From: 2010.06.25/outbox.cif.g09.slc.cpg/sg12_80_cif.got.tgz:159217.got - 2010.06.28 00:19:55.
