data_PCOD8084775
_publ_section_title
;
Structure prediction by ZEFSAII (Michael W. Deem and Ramdas Pophale) SiO2 
 PCOD8084775
Probable space group: C 2/M
;
_chemical_formula_sum "Si O2"
_cell_formula_units_Z 56
_cell_length_a 25.869825
_cell_length_b 8.940134
_cell_length_c 18.787364
_cell_angle_alpha 90.000000
_cell_angle_beta 48.577540
_cell_angle_gamma 90.000000
_cell_volume 3258.207913
_symmetry_space_group_name_H-M "C 2/M"
_symmetry_group_IT_number 12
_symmetry_cell_setting 'monoclinic'
loop_
_space_group_symop_operation_xyz
x,y,z
-x,y,-z
-x,-y,-z
x,-y,z
1/2+x,1/2+y,z
1/2-x,1/2+y,-z
1/2-x,1/2-y,-z
1/2+x,1/2-y,z
loop_
_atom_site_type_symbol
_atom_site_label
_atom_site_fract_x
_atom_site_fract_y
_atom_site_fract_z
Si Si1 0.773669 0.663772 0.045762
Si Si2 0.049601 0.667735 0.521711
Si Si3 0.442840 0.676308 0.995803
Si Si4 0.062048 0.176415 0.290473
Si Si5 0.427923 0.835794 0.868710
Si Si6 0.159708 0.824057 0.333356
Si Si7 0.788520 0.824772 0.169398
O O1 0.736789 0.500000 0.088658
O O2 0.853763 0.635477 0.968679
O O3 0.750000 0.750000 0.000000
O O4 0.754348 0.774896 0.126493
O O5 0.067826 0.500000 0.530767
O O6 0.118869 0.754122 0.437039
O O7 0.000000 0.662226 0.500000
O O8 0.011496 0.755890 0.619543
O O9 0.441272 0.500000 0.984557
O O10 0.368674 0.726151 0.096830
O O11 0.500000 0.726992 0.000000
O O12 0.465119 0.747426 0.899442
O O13 0.078799 0.242266 0.197613
O O14 0.122007 0.218857 0.292651
O O15 0.053725 0.000000 0.291606
O O16 0.462256 0.000000 0.823719
O O17 0.238013 0.760696 0.270303
O O18 0.161507 0.000000 0.341759
O O19 0.780727 0.000000 0.188750
#
# Coordination Sequence:
#
# PCOD8084775 Si02
#       7
#     8   8   8   8   8   8   8
#     4  10  19  29  41  60  89 122 153 185 222 266
#     4   9  17  29  45  65  92 126 162 197 230 264
#     4   9  19  36  54  70  90 117 151 193 239 285
#     4  10  19  30  45  66  95 130 163 193 226 267
#     4  10  20  31  45  67  92 119 153 191 231 275
#     4  10  19  30  45  67  97 130 162 193 226 268
#     4  10  19  30  46  67  90 118 153 190 230 275
#
# _framework density 17.187362
#
# number of rings (size 3 to 8) (size 9 to 14) (size 15 to 20)
#    0.000    2.286    0.000    3.429    0.000    8.286 
#    0.000    0.000    0.000    0.000    0.000    1.000 
#    0.000    0.000    0.000    0.000    0.000    0.000 
#
# Total GULP energy -346930.983791 kJ/mol
# GULP energy per Si atom -12390.392278 kJ/mol
# Density = 1.714824 g / cm^3
# Si number density = 17.187362 Si / 1000 Ang^3
#
#
#
# Elastic Constant Matrix: (Units=GPa)
#
#
# Indices 1 2 3 4 5 6 
#
# 1 52.3644 27.4511 15.9300 -0.0111 -6.9604 0.0068
# 2 27.4511 98.0154 39.2760 -0.0257 -7.0407 0.0238
# 3 15.9300 39.2760 81.3022 -0.0159 -17.7653 0.0113
# 4 -0.0111 -0.0257 -0.0159 34.1221 -0.0018 -0.1161
# 5 -6.9604 -7.0407 -17.7653 -0.0018 20.6157 0.0012
# 6 0.0068 0.0238 0.0113 -0.1161 0.0012 15.9713
#
#
#
# Elastic Compliance Matrix: (Units=1/GPa)
#
#
# Indices 1 2 3 4 5 6 
#
# 1 0.023035 -0.005861 -0.000517 0.000003 0.005330 -0.000001
# 2 -0.005861 0.014166 -0.006246 0.000006 -0.002524 -0.000014
# 3 -0.000517 -0.006246 0.018374 0.000004 0.013526 -0.000004
# 4 0.000003 0.000006 0.000004 0.029307 0.000009 0.000213
# 5 0.005330 -0.002524 0.013526 0.000009 0.061100 -0.000013
# 6 -0.000001 -0.000014 -0.000004 0.000213 -0.000013 0.062614
#
#
# Mechanical properties :
#
#
# Convention : Reuss Voigt Hill
#
# Bulk Modulus (GPa) = 32.97556 44.11068 38.54312
# Shear Modulus (GPa) = 20.49558 24.07681 22.28620
#
# Velocity S-wave (km/s) = 3.45698 3.74685 3.60483
# Velocity P-wave (km/s) = 5.92974 6.66624 6.30875
#
# Compressibility (1/GPa) = 0.03032549
#
# Stress axis : x y z
#
# Youngs Moduli (GPa) = 43.41127 70.59274 54.42420
#
# Poissons Ratio (x) = 0.41377 0.02815
# Poissons Ratio (y) = 0.25445 0.33995
# Poissons Ratio (z) = 0.02246 0.44094
#
# Static dielectric constant tensor:
#      x y z
#    x 2.131270 0.000100 0.504620 
#    y 0.000100 3.486320 -0.000070 
#    z 0.504620 -0.000070 2.711470 
# 
# 
# High freq. dielectric constant tensor:
#      x y z
#    x 1.608830 0.000000 -0.013270 
#    y 0.000000 1.682070 0.000000 
#    z -0.013270 0.000000 1.663340 
# 
# From -- ./inp_files/288208.got.cif
#   From: 2010.06.25/outbox.cif.g09.slc.cpg/sg12_145_cif.got.tgz:288208.got - 2010.06.28 00:19:55.
