data_PCOD8084994
_publ_section_title
;
Structure prediction by ZEFSAII (Michael W. Deem and Ramdas Pophale) SiO2 
 PCOD8084994
Probable space group: C 2/M
;
_chemical_formula_sum "Si O2"
_cell_formula_units_Z 56
_cell_length_a 19.415874
_cell_length_b 8.961689
_cell_length_c 22.144786
_cell_angle_alpha 90.000000
_cell_angle_beta 125.673894
_cell_angle_gamma 90.000000
_cell_volume 3130.120991
_symmetry_space_group_name_H-M "C 2/M"
_symmetry_group_IT_number 12
_symmetry_cell_setting 'monoclinic'
loop_
_space_group_symop_operation_xyz
x,y,z
-x,y,-z
-x,-y,-z
x,-y,z
1/2+x,1/2+y,z
1/2-x,1/2+y,-z
1/2-x,1/2-y,-z
1/2+x,1/2-y,z
loop_
_atom_site_type_symbol
_atom_site_label
_atom_site_fract_x
_atom_site_fract_y
_atom_site_fract_z
Si Si1 0.166986 0.675878 0.746408
Si Si2 0.244171 0.173035 0.901363
Si Si3 0.531322 0.327642 0.194269
Si Si4 0.190414 0.177983 0.420199
Si Si5 0.481867 0.175068 0.688287
Si Si6 0.370800 0.671043 0.043716
Si Si7 0.280047 0.326492 0.698426
O O1 0.181074 0.500000 0.758185
O O2 0.217874 0.745156 0.827488
O O3 0.207559 0.741425 0.704904
O O4 0.067597 0.715849 0.695875
O O5 0.175861 0.211669 0.917715
O O6 0.249818 0.000000 0.889935
O O7 0.336397 0.228956 0.971281
O O8 0.521486 0.500000 0.210649
O O9 0.504052 0.222872 0.235491
O O10 0.470577 0.295886 0.105876
O O11 0.627974 0.293979 0.224640
O O12 0.250000 0.250000 0.500000
O O13 0.094475 0.234004 0.381681
O O14 0.222231 0.237994 0.370912
O O15 0.192255 0.000000 0.425928
O O16 0.461766 0.000000 0.674942
O O17 0.354354 0.500000 0.017757
O O18 0.263254 0.500000 0.683701
#
# Coordination Sequence:
#
# PCOD8084994 Si02
#       7
#     8   8   8   8   8   8   8
#     4  10  19  33  51  74 103 134 169 205 247 301
#     4  10  19  29  45  70 100 132 169 215 262 299
#     4   9  16  31  52  72  96 130 175 219 252 292
#     4  10  20  37  60  81 104 131 165 204 242 289
#     4  10  19  30  51  79 104 131 165 203 246 296
#     4   9  17  29  46  69  96 129 173 218 259 299
#     4   8  17  33  54  76  99 131 167 204 246 295
#
# _framework density 17.890682000000002
#
# number of rings (size 3 to 8) (size 9 to 14) (size 15 to 20)
#    0.000    2.571    1.429    2.143    0.000    1.714 
#    0.000    5.000    0.000    8.571    0.000    0.000 
#    0.000    0.000    0.000    0.000    0.000    0.000 
#
# Total GULP energy -347099.928680 kJ/mol
# GULP energy per Si atom -12396.426024 kJ/mol
# Density = 1.784996 g / cm^3
# Si number density = 17.890682 Si / 1000 Ang^3
#
#
#
# Elastic Constant Matrix: (Units=GPa)
#
#
# Indices 1 2 3 4 5 6 
#
# 1 120.7726 40.7084 65.0081 0.0000 7.0934 0.0000
# 2 40.7084 51.0413 43.9712 0.0000 5.0555 0.0000
# 3 65.0081 43.9712 142.3366 0.0000 10.6616 0.0000
# 4 0.0000 0.0000 0.0000 32.1657 0.0000 1.9225
# 5 7.0934 5.0555 10.6616 0.0000 18.7739 0.0000
# 6 0.0000 0.0000 0.0000 1.9225 0.0000 17.9393
#
#
#
# Elastic Compliance Matrix: (Units=1/GPa)
#
#
# Indices 1 2 3 4 5 6 
#
# 1 0.012557 -0.006873 -0.003546 0.000000 -0.000880 0.000000
# 2 -0.006873 0.030583 -0.006148 0.000000 -0.002147 0.000000
# 3 -0.003546 -0.006148 0.010778 0.000000 -0.003126 0.000000
# 4 0.000000 0.000000 0.000000 0.031289 0.000000 -0.003353
# 5 -0.000880 -0.002147 -0.003126 0.000000 0.055951 0.000000
# 6 0.000000 0.000000 0.000000 -0.003353 0.000000 0.056103
#
#
# Mechanical properties :
#
#
# Convention : Reuss Voigt Hill
#
# Bulk Modulus (GPa) = 48.11279 68.16954 58.14117
# Shear Modulus (GPa) = 21.06832 24.73997 22.90415
#
# Velocity S-wave (km/s) = 3.43536 3.72269 3.58191
# Velocity P-wave (km/s) = 6.53350 7.52755 7.04807
#
# Compressibility (1/GPa) = 0.02078449
#
# Stress axis : x y z
#
# Youngs Moduli (GPa) = 79.63663 32.69839 92.77811
#
# Poissons Ratio (x) = 0.22474 0.32898
# Poissons Ratio (y) = 0.54735 0.57038
# Poissons Ratio (z) = 0.28238 0.20102
#
# Static dielectric constant tensor:
#      x y z
#    x 3.474290 0.000000 0.117380 
#    y 0.000000 3.222680 0.000000 
#    z 0.117380 0.000000 3.338110 
# 
# 
# High freq. dielectric constant tensor:
#      x y z
#    x 1.674460 0.000000 0.015130 
#    y 0.000000 1.682370 0.000000 
#    z 0.015130 0.000000 1.689910 
# 
# From -- ./inp_files/342546.got.cif
#   From: 2010.06.25/outbox.cif.g09.slc.cpg/sg12_172_cif.got.tgz:342546.got - 2010.06.28 00:19:55.
