data_PCOD8084757
_publ_section_title
;
Structure prediction by ZEFSAII (Michael W. Deem and Ramdas Pophale) SiO2 
 PCOD8084757
Probable space group: C 2/M
;
_chemical_formula_sum "Si O2"
_cell_formula_units_Z 64
_cell_length_a 28.023504
_cell_length_b 9.199987
_cell_length_c 21.963450
_cell_angle_alpha 90.000000
_cell_angle_beta 47.194692
_cell_angle_gamma 90.000000
_cell_volume 4154.408008
_symmetry_space_group_name_H-M "C 2/M"
_symmetry_group_IT_number 12
_symmetry_cell_setting 'monoclinic'
loop_
_space_group_symop_operation_xyz
x,y,z
-x,y,-z
-x,-y,-z
x,-y,z
1/2+x,1/2+y,z
1/2-x,1/2+y,-z
1/2-x,1/2-y,-z
1/2+x,1/2-y,z
loop_
_atom_site_type_symbol
_atom_site_label
_atom_site_fract_x
_atom_site_fract_y
_atom_site_fract_z
Si Si1 0.237220 0.164526 0.103476
Si Si2 0.924770 0.167713 0.579105
Si Si3 0.950423 0.331807 0.793960
Si Si4 0.128068 0.331036 0.260124
Si Si5 0.224593 0.333696 0.578944
Si Si6 0.146479 0.169860 0.479865
Si Si7 0.593821 0.170175 0.643891
Si Si8 0.343653 0.335881 0.950114
O O1 0.196034 0.248133 0.190456
O O2 0.198387 0.165178 0.074384
O O3 0.250617 0.000000 0.113680
O O4 0.305785 0.246770 0.035187
O O5 0.906834 0.268169 0.650824
O O6 0.883286 0.224552 0.557568
O O7 0.000000 0.189228 0.500000
O O8 0.908805 0.000000 0.608300
O O9 0.945154 0.500000 0.817226
O O10 0.920376 0.304851 0.753775
O O11 0.912879 0.239522 0.877599
O O12 0.024569 0.274908 0.728671
O O13 0.143670 0.500000 0.255820
O O14 0.231892 0.500000 0.555021
O O15 0.250000 0.250000 0.500000
O O16 0.274612 0.298571 0.591029
O O17 0.147315 0.297518 0.651664
O O18 0.112175 0.250633 0.565489
O O19 0.131452 0.000000 0.501448
O O20 0.589117 0.000000 0.632567
O O21 0.355184 0.500000 0.962987
#
# Coordination Sequence:
#
# PCOD8084757 Si02
#       8
#     8   8   8   8   8   8   8   8
#     4   9  16  27  42  57  77 105 134 164 197 232
#     4  10  20  31  41  55  78 108 140 171 202 235
#     4   9  17  27  38  56  82 108 132 160 197 238
#     4  10  19  29  41  57  78 105 138 171 198 229
#     4   8  14  25  40  57  75  97 127 163 202 240
#     4   9  17  28  41  56  76 103 135 170 204 237
#     4   9  16  26  41  59  79 103 131 163 200 242
#     4   9  16  25  39  59  80 104 133 162 193 231
#
# _framework density 15.405324999999999
#
# number of rings (size 3 to 8) (size 9 to 14) (size 15 to 20)
#    0.000    2.875    0.000    1.875    0.000    4.750 
#    0.000    0.000    0.000    0.000    0.000    0.000 
#    0.000    1.000    0.000   11.750    0.000    2.750 
#
# Total GULP energy -396544.757897 kJ/mol
# GULP energy per Si atom -12392.023684 kJ/mol
# Density = 1.537026 g / cm^3
# Si number density = 15.405325 Si / 1000 Ang^3
#
#
#
# Elastic Constant Matrix: (Units=GPa)
#
#
# Indices 1 2 3 4 5 6 
#
# 1 77.6199 31.2775 38.8194 -0.0028 -20.2388 0.0017
# 2 31.2775 79.7981 50.5903 -0.0108 -12.9744 0.0089
# 3 38.8194 50.5903 92.6904 -0.0028 -25.8620 0.0029
# 4 -0.0028 -0.0108 -0.0028 29.1474 0.0046 -1.6360
# 5 -20.2388 -12.9744 -25.8620 0.0046 22.2201 -0.0002
# 6 0.0017 0.0089 0.0029 -1.6360 -0.0002 12.2627
#
#
#
# Elastic Compliance Matrix: (Units=1/GPa)
#
#
# Indices 1 2 3 4 5 6 
#
# 1 0.018789 -0.003897 -0.002372 -0.000002 0.012077 0.000001
# 2 -0.003897 0.020002 -0.010391 0.000006 -0.003964 -0.000011
# 3 -0.002372 -0.010391 0.022448 -0.000005 0.017898 0.000002
# 4 -0.000002 0.000006 -0.000005 0.034567 -0.000011 0.004612
# 5 0.012077 -0.003964 0.017898 -0.000011 0.074521 -0.000004
# 6 0.000001 -0.000011 0.000002 0.004612 -0.000004 0.082163
#
#
# Mechanical properties :
#
#
# Convention : Reuss Voigt Hill
#
# Bulk Modulus (GPa) = 35.81944 54.60920 45.21432
# Shear Modulus (GPa) = 16.94237 21.35413 19.14825
#
# Velocity S-wave (km/s) = 3.31988 3.72715 3.52939
# Velocity P-wave (km/s) = 6.16419 7.35169 6.78398
#
# Compressibility (1/GPa) = 0.02791780
#
# Stress axis : x y z
#
# Youngs Moduli (GPa) = 53.22254 49.99421 44.54805
#
# Poissons Ratio (x) = 0.19482 0.10569
# Poissons Ratio (y) = 0.20740 0.46291
# Poissons Ratio (z) = 0.12627 0.51951
#
# Static dielectric constant tensor:
#      x y z
#    x 3.157890 0.000010 -0.360290 
#    y 0.000010 3.022030 0.000010 
#    z -0.360290 0.000010 2.844710 
# 
# 
# High freq. dielectric constant tensor:
#      x y z
#    x 1.561310 0.000000 -0.030200 
#    y 0.000000 1.600460 0.000000 
#    z -0.030200 0.000000 1.572000 
# 
# From -- ./inp_files/326798.got.cif
#   From: 2010.06.25/outbox.cif.g09.slc.cpg/sg12_164_cif.got.tgz:326798.got - 2010.06.28 00:19:55.
