data_PCOD8084906
_publ_section_title
;
Structure prediction by ZEFSAII (Michael W. Deem and Ramdas Pophale) SiO2 
 PCOD8084906
Probable space group: C 2/M
;
_chemical_formula_sum "Si O2"
_cell_formula_units_Z 40
_cell_length_a 16.110644
_cell_length_b 17.540444
_cell_length_c 9.982572
_cell_angle_alpha 90.000000
_cell_angle_beta 111.721710
_cell_angle_gamma 90.000000
_cell_volume 2620.644417
_symmetry_space_group_name_H-M "C 2/M"
_symmetry_group_IT_number 12
_symmetry_cell_setting 'monoclinic'
loop_
_space_group_symop_operation_xyz
x,y,z
-x,y,-z
-x,-y,-z
x,-y,z
1/2+x,1/2+y,z
1/2-x,1/2+y,-z
1/2-x,1/2-y,-z
1/2+x,1/2-y,z
loop_
_atom_site_type_symbol
_atom_site_label
_atom_site_fract_x
_atom_site_fract_y
_atom_site_fract_z
Si Si1 0.925592 0.337751 0.275623
Si Si2 0.761844 0.589888 0.681678
Si Si3 0.121709 0.660105 0.467491
Si Si4 0.596786 0.089494 0.008633
Si Si5 0.597071 0.307680 0.592313
O O1 0.883074 0.376110 0.384879
O O2 0.877691 0.368581 0.114434
O O3 0.912512 0.245803 0.280486
O O4 0.030646 0.359189 0.333043
O O5 0.752975 0.500000 0.661196
O O6 0.795311 0.624919 0.561729
O O7 0.665245 0.623905 0.658683
O O8 0.829398 0.613334 0.839454
O O9 0.129756 0.752311 0.489542
O O10 0.596504 0.000000 0.981071
O O11 0.500000 0.117518 0.000000
O O12 0.500000 0.343221 0.500000
#
# Coordination Sequence:
#
# PCOD8084906 Si02
#       5
#     8   8   8   8   8
#     4   8  16  31  49  66  93 127 150 186 229 272
#     4  11  20  29  48  73  95 123 154 187 235 276
#     4   8  16  31  49  69  89 121 158 192 222 272
#     4  10  19  29  43  70 104 124 143 184 233 282
#     4   8  18  34  50  66  91 120 162 198 223 259
#
# _framework density 15.263420999999999
#
# number of rings (size 3 to 8) (size 9 to 14) (size 15 to 20)
#    1.200    1.800    2.000    0.600    0.000    2.000 
#    0.000    2.000    0.000    0.000    0.000    0.000 
#    0.000    5.600    0.000    0.000    0.000    0.000 
#
# Total GULP energy -247768.286447 kJ/mol
# GULP energy per Si atom -12388.414322 kJ/mol
# Density = 1.522868 g / cm^3
# Si number density = 15.263421 Si / 1000 Ang^3
#
#
#
# Elastic Constant Matrix: (Units=GPa)
#
#
# Indices 1 2 3 4 5 6 
#
# 1 83.6647 39.5946 48.7668 0.0000 9.4077 0.0000
# 2 39.5946 50.2840 39.9496 0.0000 7.6112 0.0000
# 3 48.7668 39.9496 88.3113 0.0000 3.7203 0.0000
# 4 0.0000 0.0000 0.0000 19.1987 0.0000 6.9961
# 5 9.4077 7.6112 3.7203 0.0000 21.6765 0.0000
# 6 0.0000 0.0000 0.0000 6.9961 0.0000 19.9861
#
#
#
# Elastic Compliance Matrix: (Units=1/GPa)
#
#
# Indices 1 2 3 4 5 6 
#
# 1 0.021572 -0.010940 -0.006780 0.000000 -0.004357 0.000000
# 2 -0.010940 0.038251 -0.010976 0.000000 -0.006799 0.000000
# 3 -0.006780 -0.010976 0.019890 0.000000 0.003383 0.000000
# 4 0.000000 0.000000 0.000000 0.059703 0.000000 -0.020899
# 5 -0.004357 -0.006799 0.003383 0.000000 0.049831 0.000000
# 6 0.000000 0.000000 0.000000 -0.020899 0.000000 0.057350
#
#
# Mechanical properties :
#
#
# Convention : Reuss Voigt Hill
#
# Bulk Modulus (GPa) = 44.80036 53.20910 49.00473
# Shear Modulus (GPa) = 16.05510 18.43552 17.24531
#
# Velocity S-wave (km/s) = 3.24677 3.47915 3.36496
# Velocity P-wave (km/s) = 6.59322 7.14671 6.87554
#
# Compressibility (1/GPa) = 0.02232125
#
# Stress axis : x y z
#
# Youngs Moduli (GPa) = 46.35727 26.14329 50.27638
#
# Poissons Ratio (x) = 0.28601 0.34085
# Poissons Ratio (y) = 0.50715 0.55183
# Poissons Ratio (z) = 0.31428 0.28694
#
# Static dielectric constant tensor:
#      x y z
#    x 2.736080 0.000000 -0.000120 
#    y 0.000000 2.626380 0.000000 
#    z -0.000120 0.000000 2.780600 
# 
# 
# High freq. dielectric constant tensor:
#      x y z
#    x 1.573430 0.000000 -0.001060 
#    y 0.000000 1.560070 0.000000 
#    z -0.001060 0.000000 1.575100 
# 
# From -- ./inp_files/62303.got.cif
#   From: 2010.06.25/outbox.cif.g09.slc.cpg/sg12_32_cif.got.tgz:62303.got - 2010.06.28 00:19:55.
