data_PCOD8084885
_publ_section_title
;
Structure prediction by ZEFSAII (Michael W. Deem and Ramdas Pophale) SiO2 
 PCOD8084885
Probable space group: C 2/M
;
_chemical_formula_sum "Si O2"
_cell_formula_units_Z 56
_cell_length_a 31.673546
_cell_length_b 9.028467
_cell_length_c 15.948297
_cell_angle_alpha 90.000000
_cell_angle_beta 49.660346
_cell_angle_gamma 90.000000
_cell_volume 3476.207138
_symmetry_space_group_name_H-M "C 2/M"
_symmetry_group_IT_number 12
_symmetry_cell_setting 'monoclinic'
loop_
_space_group_symop_operation_xyz
x,y,z
-x,y,-z
-x,-y,-z
x,-y,z
1/2+x,1/2+y,z
1/2-x,1/2+y,-z
1/2-x,1/2-y,-z
1/2+x,1/2-y,z
loop_
_atom_site_type_symbol
_atom_site_label
_atom_site_fract_x
_atom_site_fract_y
_atom_site_fract_z
Si Si1 0.987440 0.670357 0.880649
Si Si2 0.559275 0.833007 0.380541
Si Si3 0.310231 0.828157 0.518034
Si Si4 0.606647 0.674079 0.470510
Si Si5 0.990841 0.826880 0.703039
Si Si6 0.317182 0.671087 0.337674
Si Si7 0.089007 0.670032 0.868633
O O1 0.988973 0.500000 0.848804
O O2 0.981694 0.777675 0.809626
O O3 0.043176 0.710654 0.858419
O O4 0.934957 0.698860 0.008080
O O5 0.500000 0.830716 0.500000
O O6 0.601930 0.742913 0.383750
O O7 0.554369 0.755474 0.296506
O O8 0.581178 0.000000 0.340509
O O9 0.339682 0.743881 0.555668
O O10 0.330814 0.763661 0.403327
O O11 0.245011 0.801415 0.613616
O O12 0.326328 0.000000 0.499977
O O13 0.614826 0.500000 0.450860
O O14 0.553009 0.714368 0.595030
O O15 0.979932 0.000000 0.708260
O O16 0.327734 0.500000 0.344851
O O17 0.357877 0.725546 0.212019
O O18 0.107198 0.500000 0.835693
#
# Coordination Sequence:
#
# PCOD8084885 Si02
#       7
#     8   8   8   8   8   8   8
#     4   9  18  31  46  66  90 119 154 185 219 267
#     4   9  17  29  45  64  88 120 152 181 219 267
#     4  10  20  32  46  65  90 121 154 184 220 268
#     4  10  19  30  45  67  94 120 149 186 224 263
#     4  10  19  29  43  66  94 121 149 185 225 262
#     4  10  20  32  46  66  91 118 151 190 226 261
#     4   9  18  32  48  65  89 120 152 187 224 264
#
# _framework density 16.109511999999999
#
# number of rings (size 3 to 8) (size 9 to 14) (size 15 to 20)
#    0.000    2.429    0.000    3.857    0.000    8.571 
#    0.000    1.429    0.000    0.000    0.000    1.000 
#    0.000    0.000    0.000    0.000    0.000    0.000 
#
# Total GULP energy -347275.421802 kJ/mol
# GULP energy per Si atom -12402.693636 kJ/mol
# Density = 1.607285 g / cm^3
# Si number density = 16.109512 Si / 1000 Ang^3
#
#
#
# Elastic Constant Matrix: (Units=GPa)
#
#
# Indices 1 2 3 4 5 6 
#
# 1 94.5278 55.6890 31.5083 0.0000 15.2985 0.0000
# 2 55.6890 98.9159 37.1207 0.0000 5.4891 0.0002
# 3 31.5083 37.1207 67.1726 0.0000 4.0093 0.0000
# 4 0.0000 0.0000 0.0000 27.8146 0.0000 3.7082
# 5 15.2985 5.4891 4.0093 0.0000 24.2616 0.0000
# 6 0.0000 0.0002 0.0000 3.7082 0.0000 31.1146
#
#
#
# Elastic Compliance Matrix: (Units=1/GPa)
#
#
# Indices 1 2 3 4 5 6 
#
# 1 0.018112 -0.008468 -0.003281 0.000000 -0.008963 0.000000
# 2 -0.008468 0.016787 -0.005450 0.000000 0.002443 0.000000
# 3 -0.003281 -0.005450 0.019433 0.000000 0.000091 0.000000
# 4 0.000000 0.000000 0.000000 0.036533 0.000000 -0.004354
# 5 -0.008963 0.002443 0.000091 0.000000 0.046301 0.000000
# 6 0.000000 0.000000 0.000000 -0.004354 0.000000 0.032658
#
#
# Mechanical properties :
#
#
# Convention : Reuss Voigt Hill
#
# Bulk Modulus (GPa) = 50.17009 56.58359 53.37684
# Shear Modulus (GPa) = 23.71159 25.72471 24.71815
#
# Velocity S-wave (km/s) = 3.84070 4.00041 3.92137
# Velocity P-wave (km/s) = 7.13293 7.51920 7.32861
#
# Compressibility (1/GPa) = 0.01993219
#
# Stress axis : x y z
#
# Youngs Moduli (GPa) = 55.21208 59.56979 51.45992
#
# Poissons Ratio (x) = 0.50445 0.16884
# Poissons Ratio (y) = 0.46755 0.28048
# Poissons Ratio (z) = 0.18115 0.32468
#
# Static dielectric constant tensor:
#      x y z
#    x 2.986060 0.000000 0.070680 
#    y 0.000000 3.129000 0.000000 
#    z 0.070680 0.000000 2.831530 
# 
# 
# High freq. dielectric constant tensor:
#      x y z
#    x 1.609540 0.000000 0.011190 
#    y 0.000000 1.634100 0.000000 
#    z 0.011190 0.000000 1.590710 
# 
# From -- ./inp_files/237821.got.cif
#   From: 2010.06.25/outbox.cif.g09.slc.cpg/sg12_119_cif.got.tgz:237821.got - 2010.06.28 00:19:55.
