data_PCOD8084322
_publ_section_title
;
Structure prediction by ZEFSAII (Michael W. Deem and Ramdas Pophale) SiO2 
 PCOD8084322
Probable space group: C 2/M
;
_chemical_formula_sum "Si O2"
_cell_formula_units_Z 40
_cell_length_a 30.400802
_cell_length_b 16.116562
_cell_length_c 8.792899
_cell_angle_alpha 90.000000
_cell_angle_beta 150.480963
_cell_angle_gamma 90.000000
_cell_volume 2122.673995
_symmetry_space_group_name_H-M "C 2/M"
_symmetry_group_IT_number 12
_symmetry_cell_setting 'monoclinic'
loop_
_space_group_symop_operation_xyz
x,y,z
-x,y,-z
-x,-y,-z
x,-y,z
1/2+x,1/2+y,z
1/2-x,1/2+y,-z
1/2-x,1/2-y,-z
1/2+x,1/2-y,z
loop_
_atom_site_type_symbol
_atom_site_label
_atom_site_fract_x
_atom_site_fract_y
_atom_site_fract_z
Si Si1 0.086458 0.000000 0.360663
Si Si2 0.767505 0.246204 0.797929
Si Si3 0.832586 0.500000 0.185340
Si Si4 0.525907 0.000000 0.902230
Si Si5 0.192346 0.865023 0.815664
Si Si6 0.666377 0.857435 0.256549
Si Si7 0.753009 0.000000 0.378578
O O1 0.102461 0.080962 0.514267
O O2 0.158341 0.000000 0.446462
O O3 0.000000 0.000000 0.000000
O O4 0.707125 0.307685 0.714382
O O5 0.692500 0.194194 0.482818
O O6 0.838727 0.293745 0.903005
O O7 0.824240 0.186764 0.080517
O O8 0.935793 0.500000 0.535582
O O9 0.781576 0.420592 0.102311
O O10 0.829119 0.500000 0.990537
O O11 0.500000 0.000000 0.000000
O O12 0.579156 0.915052 0.020789
O O13 0.749040 0.918886 0.471629
#
# Coordination Sequence:
#
# PCOD8084322 Si02
#       7
#     4   8   4   4   8   8   4
#     4  10  19  36  60  81 107 152 196 239 270 334
#     4  10  18  35  58  84 112 148 190 225 287 347
#     4  10  18  36  57  81 115 148 190 231 282 349
#     4  11  23  36  56  90 117 149 198 241 288 341
#     4   9  19  36  61  81 111 152 189 232 285 347
#     4  10  20  34  60  82 115 156 183 236 282 344
#     4   9  18  37  56  81 104 157 193 216 285 338
#
# _framework density 18.844155000000001
#
# number of rings (size 3 to 8) (size 9 to 14) (size 15 to 20)
#    0.000    2.400    4.000    1.200    0.000    4.000 
#    0.000    5.000    4.400    1.200    0.000    0.000 
#    0.000    0.000    0.000    0.000    0.000    0.000 
#
# Total GULP energy -247792.156998 kJ/mol
# GULP energy per Si atom -12389.607850 kJ/mol
# Density = 1.880127 g / cm^3
# Si number density = 18.844155 Si / 1000 Ang^3
#
#
#
# Elastic Constant Matrix: (Units=GPa)
#
#
# Indices 1 2 3 4 5 6 
#
# 1 96.5531 55.2216 40.3928 0.0000 -21.9604 0.0000
# 2 55.2216 137.3997 62.9719 0.0000 -16.0944 0.0000
# 3 40.3928 62.9719 126.4004 0.0000 -10.7656 0.0000
# 4 0.0000 0.0000 0.0000 23.7546 0.0000 -7.9719
# 5 -21.9604 -16.0944 -10.7656 0.0000 20.5679 0.0000
# 6 0.0000 0.0000 0.0000 -7.9719 0.0000 23.5205
#
#
#
# Elastic Compliance Matrix: (Units=1/GPa)
#
#
# Indices 1 2 3 4 5 6 
#
# 1 0.016678 -0.004160 -0.002112 0.000000 0.013447 0.000000
# 2 -0.004160 0.011021 -0.003983 0.000000 0.002098 0.000000
# 3 -0.002112 -0.003983 0.010585 0.000000 0.000169 0.000000
# 4 0.000000 0.000000 0.000000 0.047500 0.000000 0.016099
# 5 0.013447 0.002098 0.000169 0.000000 0.064706 0.000000
# 6 0.000000 0.000000 0.000000 0.016099 0.000000 0.047973
#
#
# Mechanical properties :
#
#
# Convention : Reuss Voigt Hill
#
# Bulk Modulus (GPa) = 56.25938 75.28063 65.77001
# Shear Modulus (GPa) = 22.23245 27.01974 24.62609
#
# Velocity S-wave (km/s) = 3.43856 3.79073 3.61893
# Velocity P-wave (km/s) = 6.75905 7.69385 7.24155
#
# Compressibility (1/GPa) = 0.01777481
#
# Stress axis : x y z
#
# Youngs Moduli (GPa) = 59.95884 90.73664 94.47585
#
# Poissons Ratio (x) = 0.37746 0.19953
# Poissons Ratio (y) = 0.24943 0.37625
# Poissons Ratio (z) = 0.12663 0.36136
#
# Static dielectric constant tensor:
#      x y z
#    x 3.493140 0.000000 -0.181170 
#    y 0.000000 4.019770 0.000000 
#    z -0.181170 0.000000 2.722160 
# 
# 
# High freq. dielectric constant tensor:
#      x y z
#    x 1.730980 0.000000 -0.027240 
#    y 0.000000 1.756980 0.000000 
#    z -0.027240 0.000000 1.693330 
# 
# From -- ./inp_files/112147.got.cif
#   From: 2010.06.25/outbox.cif.g09.slc.cpg/sg12_57_cif.got.tgz:112147.got - 2010.06.28 00:19:55.
