data_PCOD8084143
_publ_section_title
;
Structure prediction by ZEFSAII (Michael W. Deem and Ramdas Pophale) SiO2 
 PCOD8084143
Probable space group: C 2/M
;
_chemical_formula_sum "Si O2"
_cell_formula_units_Z 56
_cell_length_a 15.238502
_cell_length_b 8.784591
_cell_length_c 24.366162
_cell_angle_alpha 90.000000
_cell_angle_beta 62.753614
_cell_angle_gamma 90.000000
_cell_volume 2899.847719
_symmetry_space_group_name_H-M "C 2/M"
_symmetry_group_IT_number 12
_symmetry_cell_setting 'monoclinic'
loop_
_space_group_symop_operation_xyz
x,y,z
-x,y,-z
-x,-y,-z
x,-y,z
1/2+x,1/2+y,z
1/2-x,1/2+y,-z
1/2-x,1/2-y,-z
1/2+x,1/2-y,z
loop_
_atom_site_type_symbol
_atom_site_label
_atom_site_fract_x
_atom_site_fract_y
_atom_site_fract_z
Si Si1 0.263500 0.819303 0.651408
Si Si2 0.984179 0.679431 0.567579
Si Si3 0.401925 0.327422 0.992741
Si Si4 0.247597 0.178509 0.875462
Si Si5 0.172769 0.180294 0.564037
Si Si6 0.450757 0.176600 0.866700
Si Si7 0.842823 0.819384 0.210310
O O1 0.376319 0.762212 0.616405
O O2 0.202170 0.762098 0.616311
O O3 0.212534 0.751702 0.720593
O O4 0.263334 0.000000 0.652499
O O5 0.997775 0.500000 0.571941
O O6 0.062533 0.764540 0.583311
O O7 0.000000 0.725164 0.500000
O O8 0.379246 0.500000 0.979489
O O9 0.413854 0.218811 0.937587
O O10 0.500000 0.325339 0.000000
O O11 0.313890 0.256923 0.055085
O O12 0.363094 0.213960 0.849042
O O13 0.209268 0.249819 0.829175
O O14 0.225393 0.000000 0.880672
O O15 0.250000 0.250000 0.500000
O O16 0.179214 0.000000 0.557593
O O17 0.543179 0.274178 0.820724
O O18 0.479104 0.000000 0.857664
O O19 0.835526 0.000000 0.212598
#
# Coordination Sequence:
#
# PCOD8084143 Si02
#       7
#     8   8   8   8   8   8   8
#     4   9  20  37  59  82 110 147 189 230 276 332
#     4  10  19  36  59  85 114 146 184 230 282 338
#     4  10  18  34  59  82 104 143 192 227 266 334
#     4   9  19  35  56  80 108 143 185 227 271 329
#     4  11  21  36  57  87 116 147 185 231 282 335
#     4  11  22  35  54  85 117 141 175 235 290 322
#     4  10  20  40  61  76 104 154 196 222 264 336
#
# _framework density 19.311357999999998
#
# number of rings (size 3 to 8) (size 9 to 14) (size 15 to 20)
#    0.000    2.000    2.857    1.286    0.000    1.714 
#    0.000    5.714    0.000    0.000    0.000    0.000 
#    0.000    0.000    0.000    0.000    0.000    0.000 
#
# Total GULP energy -347230.741827 kJ/mol
# GULP energy per Si atom -12401.097922 kJ/mol
# Density = 1.926740 g / cm^3
# Si number density = 19.311358 Si / 1000 Ang^3
#
#
#
# Elastic Constant Matrix: (Units=GPa)
#
#
# Indices 1 2 3 4 5 6 
#
# 1 145.4535 22.7296 73.7171 0.0000 -7.4569 0.0000
# 2 22.7296 26.1278 17.4289 0.0000 3.8543 0.0001
# 3 73.7171 17.4289 164.0407 0.0000 -7.4006 0.0000
# 4 0.0000 0.0000 0.0000 9.8952 0.0000 -4.2017
# 5 -7.4569 3.8543 -7.4006 0.0000 19.4949 0.0000
# 6 0.0000 0.0001 0.0000 -4.2017 0.0000 30.1953
#
#
#
# Elastic Compliance Matrix: (Units=1/GPa)
#
#
# Indices 1 2 3 4 5 6 
#
# 1 0.009948 -0.006831 -0.003573 0.000000 0.003799 0.000000
# 2 -0.006831 0.047883 -0.002607 0.000000 -0.013070 0.000000
# 3 -0.003573 -0.002607 0.008079 0.000000 0.002215 0.000000
# 4 0.000000 0.000000 0.000000 0.107405 0.000000 0.014946
# 5 0.003799 -0.013070 0.002215 0.000000 0.056174 0.000000
# 6 0.000000 0.000000 0.000000 0.014946 0.000000 0.035197
#
#
# Mechanical properties :
#
#
# Convention : Reuss Voigt Hill
#
# Bulk Modulus (GPa) = 25.07098 62.59703 43.83400
# Shear Modulus (GPa) = 16.44702 26.70018 21.57360
#
# Velocity S-wave (km/s) = 2.92151 3.72239 3.34600
# Velocity P-wave (km/s) = 4.93873 7.13862 6.13803
#
# Compressibility (1/GPa) = 0.03988676
#
# Stress axis : x y z
#
# Youngs Moduli (GPa) = 100.51896 20.88406 123.78009
#
# Poissons Ratio (x) = 0.14266 0.44232
# Poissons Ratio (y) = 0.68667 0.32272
# Poissons Ratio (z) = 0.35920 0.05445
#
# Static dielectric constant tensor:
#      x y z
#    x 3.800740 0.000000 0.064840 
#    y 0.000000 3.204830 0.000000 
#    z 0.064840 0.000000 3.774170 
# 
# 
# High freq. dielectric constant tensor:
#      x y z
#    x 1.767200 0.000000 -0.002440 
#    y 0.000000 1.717420 0.000000 
#    z -0.002440 0.000000 1.753950 
# 
# From -- ./inp_files/338547.got.cif
#   From: 2010.06.25/outbox.cif.g09.slc.cpg/sg12_170_cif.got.tgz:338547.got - 2010.06.28 00:19:55.
