data_PCOD8084134
_publ_section_title
;
Structure prediction by ZEFSAII (Michael W. Deem and Ramdas Pophale) SiO2 
 PCOD8084134
Probable space group: C 2/M
;
_chemical_formula_sum "Si O2"
_cell_formula_units_Z 64
_cell_length_a 18.033999
_cell_length_b 17.035391
_cell_length_c 11.707864
_cell_angle_alpha 90.000000
_cell_angle_beta 94.784681
_cell_angle_gamma 90.000000
_cell_volume 3584.311471
_symmetry_space_group_name_H-M "C 2/M"
_symmetry_group_IT_number 12
_symmetry_cell_setting 'monoclinic'
loop_
_space_group_symop_operation_xyz
x,y,z
-x,y,-z
-x,-y,-z
x,-y,z
1/2+x,1/2+y,z
1/2-x,1/2+y,-z
1/2-x,1/2-y,-z
1/2+x,1/2-y,z
loop_
_atom_site_type_symbol
_atom_site_label
_atom_site_fract_x
_atom_site_fract_y
_atom_site_fract_z
Si Si1 0.703651 0.678357 0.441757
Si Si2 0.789728 0.664033 0.810324
Si Si3 0.711477 0.170853 0.756331
Si Si4 0.578469 0.726779 0.775152
Si Si5 0.739845 0.412846 0.021386
Si Si6 0.917489 0.847920 0.986120
Si Si7 0.335494 0.409071 0.339304
Si Si8 0.089317 0.242178 0.250414
O O1 0.750000 0.750000 0.500000
O O2 0.761424 0.636346 0.361929
O O3 0.675258 0.616956 0.531634
O O4 0.630242 0.706085 0.365366
O O5 0.758358 0.751012 0.787453
O O6 0.744157 0.599336 0.733510
O O7 0.875208 0.671904 0.777639
O O8 0.782942 0.645988 0.942960
O O9 0.625790 0.197442 0.742887
O O10 0.728723 0.104157 0.849736
O O11 0.584136 0.717044 0.913062
O O12 0.604035 0.646016 0.716237
O O13 0.496116 0.749725 0.725359
O O14 0.762723 0.500000 0.989892
O O15 0.649982 0.407879 0.000155
O O16 0.902365 0.811542 0.860764
O O17 0.000000 0.888597 0.000000
O O18 0.361324 0.500000 0.337389
#
# Coordination Sequence:
#
# PCOD8084134 Si02
#       8
#     8   8   8   8   8   8   8   8
#     4  11  19  37  55  80 109 148 195 239 262 328
#     4  10  18  34  59  79 108 143 197 233 263 330
#     4  10  19  35  58  75 107 143 197 233 269 322
#     4  10  20  35  60  85 108 147 188 228 283 340
#     4  12  21  32  55  85 112 149 185 229 290 338
#     4  10  19  33  52  82 116 146 175 221 280 341
#     4  11  22  36  56  84 117 149 181 234 290 333
#     4  10  20  35  59  83 110 143 194 229 274 323
#
# _framework density 17.855591
#
# number of rings (size 3 to 8) (size 9 to 14) (size 15 to 20)
#    0.000    1.500    8.750    1.500    0.000    1.250 
#    0.000    3.125    0.000    2.250    0.000    0.875 
#    0.000    0.000    0.000    0.000    0.000    0.000 
#
# Total GULP energy -396575.234170 kJ/mol
# GULP energy per Si atom -12392.976068 kJ/mol
# Density = 1.781495 g / cm^3
# Si number density = 17.855591 Si / 1000 Ang^3
#
#
#
# Elastic Constant Matrix: (Units=GPa)
#
#
# Indices 1 2 3 4 5 6 
#
# 1 138.2873 39.7052 38.3135 0.0000 -0.6141 0.0000
# 2 39.7052 44.9788 13.9144 0.0000 -3.3909 0.0000
# 3 38.3135 13.9144 109.0213 0.0000 0.4086 0.0000
# 4 0.0000 0.0000 0.0000 18.2210 0.0000 1.7168
# 5 -0.6141 -3.3909 0.4086 0.0000 26.3374 0.0000
# 6 0.0000 0.0000 0.0000 1.7168 0.0000 15.0274
#
#
#
# Elastic Compliance Matrix: (Units=1/GPa)
#
#
# Indices 1 2 3 4 5 6 
#
# 1 0.010351 -0.008405 -0.002562 0.000000 -0.000801 0.000000
# 2 -0.008405 0.030215 -0.000916 0.000000 0.003708 0.000000
# 3 -0.002562 -0.000916 0.010191 0.000000 -0.000336 0.000000
# 4 0.000000 0.000000 0.000000 0.055479 0.000000 -0.006338
# 5 -0.000801 0.003708 -0.000336 0.000000 0.038433 0.000000
# 6 0.000000 0.000000 0.000000 -0.006338 0.000000 0.067269
#
#
# Mechanical properties :
#
#
# Convention : Reuss Voigt Hill
#
# Bulk Modulus (GPa) = 37.05013 52.90594 44.97803
# Shear Modulus (GPa) = 20.43302 25.27411 22.85356
#
# Velocity S-wave (km/s) = 3.38649 3.76636 3.58147
# Velocity P-wave (km/s) = 6.00716 6.97196 6.50746
#
# Compressibility (1/GPa) = 0.02699046
#
# Stress axis : x y z
#
# Youngs Moduli (GPa) = 96.61060 33.09566 98.12512
#
# Poissons Ratio (x) = 0.27817 0.25138
# Poissons Ratio (y) = 0.81202 0.08993
# Poissons Ratio (z) = 0.24750 0.03033
#
# Static dielectric constant tensor:
#      x y z
#    x 3.745350 0.000000 -0.103300 
#    y 0.000000 2.906810 0.000000 
#    z -0.103300 0.000000 3.603370 
# 
# 
# High freq. dielectric constant tensor:
#      x y z
#    x 1.689460 0.000000 -0.006440 
#    y 0.000000 1.643740 0.000000 
#    z -0.006440 0.000000 1.708690 
# 
# From -- ./inp_files/157856.got.cif
#   From: 2010.06.25/outbox.cif.g09.slc.cpg/sg12_79_cif.got.tgz:157856.got - 2010.06.28 00:19:55.
