data_PCOD8084646
_publ_section_title
;
Structure prediction by ZEFSAII (Michael W. Deem and Ramdas Pophale) SiO2 
 PCOD8084646
Probable space group: C 2/M
;
_chemical_formula_sum "Si O2"
_cell_formula_units_Z 56
_cell_length_a 24.987509
_cell_length_b 7.915543
_cell_length_c 26.312868
_cell_angle_alpha 90.000000
_cell_angle_beta 140.501988
_cell_angle_gamma 90.000000
_cell_volume 3310.275257
_symmetry_space_group_name_H-M "C 2/M"
_symmetry_group_IT_number 12
_symmetry_cell_setting 'monoclinic'
loop_
_space_group_symop_operation_xyz
x,y,z
-x,y,-z
-x,-y,-z
x,-y,z
1/2+x,1/2+y,z
1/2-x,1/2+y,-z
1/2-x,1/2-y,-z
1/2+x,1/2-y,z
loop_
_atom_site_type_symbol
_atom_site_label
_atom_site_fract_x
_atom_site_fract_y
_atom_site_fract_z
Si Si1 0.624712 0.500000 0.127794
Si Si2 0.563609 0.500000 0.972325
Si Si3 0.257161 0.192292 0.763361
Si Si4 0.884258 0.809777 0.259175
Si Si5 0.135207 0.307068 0.597027
Si Si6 0.509240 0.808231 0.425893
Si Si7 0.184140 0.310092 0.890540
Si Si8 0.363150 0.191023 0.033459
O O1 0.533295 0.500000 0.084679
O O2 0.668627 0.327832 0.178840
O O3 0.622340 0.500000 0.065084
O O4 0.580370 0.327946 0.953857
O O5 0.188048 0.246900 0.754469
O O6 0.214369 0.200052 0.675785
O O7 0.290058 0.000000 0.796065
O O8 0.976952 0.790883 0.352396
O O9 0.877611 0.701360 0.203006
O O10 0.870745 0.000000 0.232430
O O11 0.164621 0.500000 0.612085
O O12 0.061241 0.294331 0.583244
O O13 0.097022 0.238274 0.515024
O O14 0.523276 0.000000 0.419360
O O15 0.218358 0.500000 0.921348
O O16 0.133037 0.261463 0.903928
O O17 0.266371 0.194475 0.943464
O O18 0.397188 0.000000 0.048235
#
# Coordination Sequence:
#
# PCOD8084646 Si02
#       8
#     4   4   8   8   8   8   8   8
#     4  11  24  38  54  73  94 130 172 205 252 292
#     4  11  24  40  56  72  98 132 160 208 256 290
#     4  10  20  32  48  72  98 132 172 211 240 281
#     4  10  19  26  41  71 104 136 169 201 239 290
#     4   8  13  25  43  61  90 131 171 200 235 286
#     4   8  14  23  38  61  93 135 166 194 238 286
#     4  10  19  31  51  75 100 132 162 197 240 295
#     4  10  21  36  54  76  98 126 165 201 245 297
#
# _framework density 16.917021999999999
#
# number of rings (size 3 to 8) (size 9 to 14) (size 15 to 20)
#    0.000    2.429    1.429    2.571    4.000    2.857 
#    0.000    4.286    0.000    0.000    0.000    0.000 
#    0.000    1.143    0.571    0.000    0.000    0.000 
#
# Total GULP energy -346966.868241 kJ/mol
# GULP energy per Si atom -12391.673866 kJ/mol
# Density = 1.687852 g / cm^3
# Si number density = 16.917022 Si / 1000 Ang^3
#
#
#
# Elastic Constant Matrix: (Units=GPa)
#
#
# Indices 1 2 3 4 5 6 
#
# 1 43.5589 31.2854 31.6971 0.0000 -5.5301 0.0000
# 2 31.2854 84.7912 37.1515 0.0005 1.5063 -0.0003
# 3 31.6971 37.1515 129.7505 -0.0001 -12.2967 0.0000
# 4 0.0000 0.0005 -0.0001 22.4028 0.0000 -1.4017
# 5 -5.5301 1.5063 -12.2967 0.0000 16.4816 0.0000
# 6 0.0000 -0.0003 0.0000 -1.4017 0.0000 17.5235
#
#
#
# Elastic Compliance Matrix: (Units=1/GPa)
#
#
# Indices 1 2 3 4 5 6 
#
# 1 0.035615 -0.011317 -0.004551 0.000000 0.009588 0.000000
# 2 -0.011317 0.017389 -0.002932 0.000000 -0.007574 0.000000
# 3 -0.004551 -0.002932 0.010265 0.000000 0.006399 0.000000
# 4 0.000000 0.000000 0.000000 0.044862 0.000000 0.003589
# 5 0.009588 -0.007574 0.006399 0.000000 0.069357 0.000000
# 6 0.000000 0.000000 0.000000 0.003589 0.000000 0.057353
#
#
# Mechanical properties :
#
#
# Convention : Reuss Voigt Hill
#
# Bulk Modulus (GPa) = 38.95940 50.92982 44.94461
# Shear Modulus (GPa) = 17.79375 21.81270 19.80323
#
# Velocity S-wave (km/s) = 3.24670 3.59471 3.42513
# Velocity P-wave (km/s) = 6.09381 6.88478 6.50134
#
# Compressibility (1/GPa) = 0.02566775
#
# Stress axis : x y z
#
# Youngs Moduli (GPa) = 28.07810 57.50920 97.41883
#
# Poissons Ratio (x) = 0.65083 0.44339
# Poissons Ratio (y) = 0.31776 0.28563
# Poissons Ratio (z) = 0.12779 0.16862
#
# Static dielectric constant tensor:
#      x y z
#    x 2.617440 0.000000 -0.179750 
#    y 0.000000 3.198980 0.000000 
#    z -0.179750 0.000000 4.134910 
# 
# 
# High freq. dielectric constant tensor:
#      x y z
#    x 1.573830 0.000000 -0.017120 
#    y 0.000000 1.661390 0.000000 
#    z -0.017120 0.000000 1.666960 
# 
# From -- ./inp_files/287038.got.cif
#   From: 2010.06.25/outbox.cif.g09.slc.cpg/sg12_144_cif.got.tgz:287038.got - 2010.06.28 00:19:55.
