data_PCOD8084725
_publ_section_title
;
Structure prediction by ZEFSAII (Michael W. Deem and Ramdas Pophale) SiO2 
 PCOD8084725
Probable space group: C 2/M
;
_chemical_formula_sum "Si O2"
_cell_formula_units_Z 64
_cell_length_a 24.750362
_cell_length_b 9.030696
_cell_length_c 20.341085
_cell_angle_alpha 90.000000
_cell_angle_beta 55.059841
_cell_angle_gamma 90.000000
_cell_volume 3726.993749
_symmetry_space_group_name_H-M "C 2/M"
_symmetry_group_IT_number 12
_symmetry_cell_setting 'monoclinic'
loop_
_space_group_symop_operation_xyz
x,y,z
-x,y,-z
-x,-y,-z
x,-y,z
1/2+x,1/2+y,z
1/2-x,1/2+y,-z
1/2-x,1/2-y,-z
1/2+x,1/2-y,z
loop_
_atom_site_type_symbol
_atom_site_label
_atom_site_fract_x
_atom_site_fract_y
_atom_site_fract_z
Si Si1 0.554856 0.324404 0.774234
Si Si2 0.357519 0.675977 0.169292
Si Si3 0.328101 0.675187 0.048198
Si Si4 0.179378 0.674734 0.179282
Si Si5 0.904829 0.175794 0.868996
Si Si6 0.286718 0.173104 0.704739
Si Si7 0.712220 0.828790 0.438692
Si Si8 0.344009 0.172123 0.386658
O O1 0.560608 0.500000 0.765228
O O2 0.585562 0.264359 0.821698
O O3 0.479816 0.270625 0.823947
O O4 0.593300 0.257225 0.685404
O O5 0.359152 0.500000 0.169264
O O6 0.365726 0.732017 0.088114
O O7 0.287612 0.737165 0.244622
O O8 0.333331 0.500000 0.042378
O O9 0.251514 0.722231 0.102429
O O10 0.363861 0.742219 0.959264
O O11 0.168037 0.500000 0.179698
O O12 0.123531 0.759185 0.178338
O O13 0.172625 0.731180 0.260202
O O14 0.899860 0.000000 0.869793
O O15 0.319849 0.208846 0.610726
O O16 0.279982 0.000000 0.722137
O O17 0.658376 0.798332 0.532779
O O18 0.776289 0.728693 0.402692
O O19 0.735518 0.000000 0.424292
O O20 0.351347 0.000000 0.365373
#
# Coordination Sequence:
#
# PCOD8084725 Si02
#       8
#     8   8   8   8   8   8   8   8
#     4  10  19  31  47  64  92 132 160 183 224 276
#     4   8  13  24  45  68  89 116 150 189 228 265
#     4   8  15  28  47  71  92 111 151 202 236 268
#     4   9  17  30  50  70  89 118 153 192 235 273
#     4  10  20  31  45  68  94 122 157 194 231 274
#     4   8  13  25  48  71  89 114 151 188 223 269
#     4   9  16  29  49  71  96 122 150 185 227 273
#     4  10  19  28  44  72 100 123 148 185 228 273
#
# _framework density 17.172017
#
# number of rings (size 3 to 8) (size 9 to 14) (size 15 to 20)
#    0.000    3.000    1.250    2.250    0.000    1.500 
#    0.000    3.125    0.000    1.500    0.000    7.000 
#    0.000    0.000    0.000    0.000    0.000    0.000 
#
# Total GULP energy -396516.401127 kJ/mol
# GULP energy per Si atom -12391.137535 kJ/mol
# Density = 1.713293 g / cm^3
# Si number density = 17.172017 Si / 1000 Ang^3
#
#
#
# Elastic Constant Matrix: (Units=GPa)
#
#
# Indices 1 2 3 4 5 6 
#
# 1 137.4485 21.4023 58.1458 0.0002 19.8980 -0.0003
# 2 21.4023 18.4166 17.0350 -0.0008 0.5726 -0.0029
# 3 58.1458 17.0350 78.4298 -0.0028 23.8904 0.0032
# 4 0.0002 -0.0008 -0.0028 20.2056 -0.0002 1.0933
# 5 19.8980 0.5726 23.8904 -0.0002 28.5786 0.0006
# 6 -0.0003 -0.0029 0.0032 1.0933 0.0006 21.4641
#
#
#
# Elastic Compliance Matrix: (Units=1/GPa)
#
#
# Indices 1 2 3 4 5 6 
#
# 1 0.011379 -0.007671 -0.005908 -0.000001 -0.002830 0.000000
# 2 -0.007671 0.078078 -0.016666 0.000000 0.017708 0.000012
# 3 -0.005908 -0.016666 0.026021 0.000003 -0.017305 -0.000006
# 4 -0.000001 0.000000 0.000003 0.049628 -0.000001 -0.002528
# 5 -0.002830 0.017708 -0.017305 -0.000001 0.051073 0.000003
# 6 0.000000 0.000012 -0.000006 -0.002528 0.000003 0.046718
#
#
# Mechanical properties :
#
#
# Convention : Reuss Voigt Hill
#
# Bulk Modulus (GPa) = 18.18523 47.49570 32.84047
# Shear Modulus (GPa) = 14.63199 23.23044 18.93122
#
# Velocity S-wave (km/s) = 2.92221 3.68204 3.32391
# Velocity P-wave (km/s) = 4.69029 6.76723 5.82212
#
# Compressibility (1/GPa) = 0.05498967
#
# Stress axis : x y z
#
# Youngs Moduli (GPa) = 87.88254 12.80763 38.43021
#
# Poissons Ratio (x) = 0.09825 0.22703
# Poissons Ratio (y) = 0.67415 0.64046
# Poissons Ratio (z) = 0.51918 0.21345
#
# Static dielectric constant tensor:
#      x y z
#    x 3.257320 0.000000 0.321640 
#    y 0.000000 2.817770 0.000000 
#    z 0.321640 0.000000 3.444280 
# 
# 
# High freq. dielectric constant tensor:
#      x y z
#    x 1.650620 0.000000 0.027000 
#    y 0.000000 1.622300 0.000000 
#    z 0.027000 0.000000 1.662160 
# 
# From -- ./inp_files/324178.got.cif
#   From: 2010.06.25/outbox.cif.g09.slc.cpg/sg12_163_cif.got.tgz:324178.got - 2010.06.28 00:19:55.
