data_PCOD8084130
_publ_section_title
;
Structure prediction by ZEFSAII (Michael W. Deem and Ramdas Pophale) SiO2 
 PCOD8084130
Probable space group: C 2/M
;
_chemical_formula_sum "Si O2"
_cell_formula_units_Z 40
_cell_length_a 12.746241
_cell_length_b 26.049871
_cell_length_c 8.610318
_cell_angle_alpha 90.000000
_cell_angle_beta 136.083132
_cell_angle_gamma 90.000000
_cell_volume 1983.009070
_symmetry_space_group_name_H-M "C 2/M"
_symmetry_group_IT_number 12
_symmetry_cell_setting 'monoclinic'
loop_
_space_group_symop_operation_xyz
x,y,z
-x,y,-z
-x,-y,-z
x,-y,z
1/2+x,1/2+y,z
1/2-x,1/2+y,-z
1/2-x,1/2-y,-z
1/2+x,1/2-y,z
loop_
_atom_site_type_symbol
_atom_site_label
_atom_site_fract_x
_atom_site_fract_y
_atom_site_fract_z
Si Si1 0.000000 0.139091 0.000000
Si Si2 0.522876 0.111236 0.209051
Si Si3 0.333020 0.500000 0.263847
Si Si4 0.198226 0.899023 0.950793
Si Si5 0.500000 0.660083 0.500000
Si Si6 0.400547 0.000000 0.742306
Si Si7 0.791592 0.808532 0.530227
O O1 0.876686 0.103173 0.957471
O O2 0.089330 0.176460 0.210596
O O3 0.572331 0.053736 0.321923
O O4 0.648332 0.153251 0.387116
O O5 0.500000 0.110676 0.000000
O O6 0.365187 0.127097 0.125932
O O7 0.500000 0.500000 0.500000
O O8 0.278159 0.454976 0.093502
O O9 0.266647 0.500000 0.366684
O O10 0.075768 0.873922 0.710595
O O11 0.631371 0.692077 0.557328
O O12 0.500000 0.000000 0.000000
O O13 0.750000 0.750000 0.500000
#
# Coordination Sequence:
#
# PCOD8084130 Si02
#       7
#     4   8   4   8   4   4   8
#     4  10  28  43  56  94 134 161 210 262 342 388
#     4  11  20  38  68  97 122 161 225 272 309 371
#     4  12  20  31  65  96 128 170 222 260 310 383
#     4  11  21  39  62  93 131 169 212 266 318 380
#     4  10  20  39  62  90 120 167 216 264 306 386
#     4  10  18  34  59 104 117 153 222 270 298 361
#     4  11  25  43  67  91 128 170 216 269 327 384
#
# _framework density 20.171365999999999
#
# number of rings (size 3 to 8) (size 9 to 14) (size 15 to 20)
#    0.000    1.200    7.000    0.000    4.200    2.800 
#    0.000    5.000    0.000    2.400    0.000    0.000 
#    0.000    0.000    0.000    0.000    0.000    0.000 
#
# Total GULP energy -247783.275469 kJ/mol
# GULP energy per Si atom -12389.163773 kJ/mol
# Density = 2.012546 g / cm^3
# Si number density = 20.171366 Si / 1000 Ang^3
#
#
#
# Elastic Constant Matrix: (Units=GPa)
#
#
# Indices 1 2 3 4 5 6 
#
# 1 165.7036 28.5480 27.3606 0.0000 20.0810 0.0000
# 2 28.5480 119.7422 22.5447 0.0000 11.0756 0.0000
# 3 27.3606 22.5447 71.4029 0.0000 17.9742 0.0000
# 4 0.0000 0.0000 0.0000 21.8455 0.0000 4.5896
# 5 20.0810 11.0756 17.9742 0.0000 38.7682 0.0000
# 6 0.0000 0.0000 0.0000 4.5896 0.0000 26.5954
#
#
#
# Elastic Compliance Matrix: (Units=1/GPa)
#
#
# Indices 1 2 3 4 5 6 
#
# 1 0.006789 -0.001083 -0.001644 0.000000 -0.002445 0.000000
# 2 -0.001083 0.009120 -0.002207 0.000000 -0.001021 0.000000
# 3 -0.001644 -0.002207 0.016935 0.000000 -0.006370 0.000000
# 4 0.000000 0.000000 0.000000 0.047498 0.000000 -0.008197
# 5 -0.002445 -0.001021 -0.006370 0.000000 0.030306 0.000000
# 6 0.000000 0.000000 0.000000 -0.008197 0.000000 0.039015
#
#
# Mechanical properties :
#
#
# Convention : Reuss Voigt Hill
#
# Bulk Modulus (GPa) = 43.52523 57.08392 50.30458
# Shear Modulus (GPa) = 29.90603 36.00150 32.95376
#
# Velocity S-wave (km/s) = 3.85463 4.22925 4.04628
# Velocity P-wave (km/s) = 6.43704 7.22563 6.84270
#
# Compressibility (1/GPa) = 0.02297518
#
# Stress axis : x y z
#
# Youngs Moduli (GPa) = 147.29234 109.65511 59.04782
#
# Poissons Ratio (x) = 0.11875 0.09708
# Poissons Ratio (y) = 0.15951 0.13034
# Poissons Ratio (z) = 0.24217 0.24205
#
# Static dielectric constant tensor:
#      x y z
#    x 3.080250 0.000000 0.052000 
#    y 0.000000 3.770550 0.000000 
#    z 0.052000 0.000000 3.553410 
# 
# 
# High freq. dielectric constant tensor:
#      x y z
#    x 1.803550 0.000000 0.025650 
#    y 0.000000 1.774830 0.000000 
#    z 0.025650 0.000000 1.779720 
# 
# From -- ./inp_files/52383.got.cif
#   From: 2010.06.25/outbox.cif.g09.slc.cpg/sg12_27_cif.got.tgz:52383.got - 2010.06.28 00:19:55.
