data_PCOD8084724
_publ_section_title
;
Structure prediction by ZEFSAII (Michael W. Deem and Ramdas Pophale) SiO2 
 PCOD8084724
Probable space group: C 2/M
;
_chemical_formula_sum "Si O2"
_cell_formula_units_Z 56
_cell_length_a 19.577001
_cell_length_b 8.930636
_cell_length_c 28.700970
_cell_angle_alpha 90.000000
_cell_angle_beta 141.138416
_cell_angle_gamma 90.000000
_cell_volume 3148.459422
_symmetry_space_group_name_H-M "C 2/M"
_symmetry_group_IT_number 12
_symmetry_cell_setting 'monoclinic'
loop_
_space_group_symop_operation_xyz
x,y,z
-x,y,-z
-x,-y,-z
x,-y,z
1/2+x,1/2+y,z
1/2-x,1/2+y,-z
1/2-x,1/2-y,-z
1/2+x,1/2-y,z
loop_
_atom_site_type_symbol
_atom_site_label
_atom_site_fract_x
_atom_site_fract_y
_atom_site_fract_z
Si Si1 0.459079 0.177325 0.756340
Si Si2 0.631617 0.676504 0.204097
Si Si3 0.134042 0.324901 0.689030
Si Si4 0.318991 0.673530 0.605567
Si Si5 0.601354 0.322636 0.081903
Si Si6 0.101701 0.326962 0.444173
Si Si7 0.661157 0.822083 0.806272
O O1 0.446317 0.238679 0.801553
O O2 0.360710 0.234445 0.671778
O O3 0.575344 0.238520 0.798857
O O4 0.455205 0.000000 0.754889
O O5 0.619673 0.500000 0.206222
O O6 0.756974 0.734372 0.278796
O O7 0.594995 0.723303 0.132713
O O8 0.154581 0.500000 0.705150
O O9 0.124027 0.259867 0.736095
O O10 0.020647 0.289139 0.601948
O O11 0.344284 0.500000 0.627572
O O12 0.188654 0.702580 0.531345
O O13 0.375835 0.723880 0.588213
O O14 0.597017 0.500000 0.075824
O O15 0.714867 0.266007 0.118804
O O16 0.500000 0.250321 0.000000
O O17 0.107499 0.500000 0.430601
O O18 0.657558 0.000000 0.804878
#
# Coordination Sequence:
#
# PCOD8084724 Si02
#       7
#     8   8   8   8   8   8   8
#     4  11  20  32  48  66  97 134 163 193 236 291
#     4   9  18  31  50  73  97 122 156 200 237 278
#     4   8  13  27  49  68  87 120 164 200 229 274
#     4  10  19  28  44  71  98 123 158 205 246 279
#     4   8  14  28  52  78  97 117 153 199 237 273
#     4   9  16  29  48  69  93 124 162 201 244 287
#     4   8  14  25  46  70  90 122 163 192 223 280
#
# _framework density 17.786477000000001
#
# number of rings (size 3 to 8) (size 9 to 14) (size 15 to 20)
#    0.000    3.000    1.429    2.571    0.000    0.571 
#    0.000    2.143    0.000    4.714    0.000    0.000 
#    0.000    0.000    0.000    0.000    0.000    0.000 
#
# Total GULP energy -346918.690738 kJ/mol
# GULP energy per Si atom -12389.953241 kJ/mol
# Density = 1.774599 g / cm^3
# Si number density = 17.786477 Si / 1000 Ang^3
#
#
#
# Elastic Constant Matrix: (Units=GPa)
#
#
# Indices 1 2 3 4 5 6 
#
# 1 136.0796 27.9259 65.7280 0.0000 8.9008 0.0000
# 2 27.9259 36.9903 23.6022 0.0001 -1.1927 -0.0002
# 3 65.7280 23.6022 113.1415 0.0000 19.2989 0.0000
# 4 0.0000 0.0001 0.0000 15.3202 0.0000 -5.1517
# 5 8.9008 -1.1927 19.2989 0.0000 27.2499 0.0000
# 6 0.0000 -0.0002 0.0000 -5.1517 0.0000 22.8475
#
#
#
# Elastic Compliance Matrix: (Units=1/GPa)
#
#
# Indices 1 2 3 4 5 6 
#
# 1 0.010918 -0.004840 -0.005333 0.000000 -0.000001 0.000000
# 2 -0.004840 0.034477 -0.005582 0.000000 0.007043 0.000000
# 3 -0.005333 -0.005582 0.014610 0.000000 -0.008850 0.000000
# 4 0.000000 0.000000 0.000000 0.070628 0.000000 0.015925
# 5 -0.000001 0.007043 -0.008850 0.000000 0.043274 0.000000
# 6 0.000000 0.000000 0.000000 0.015925 0.000000 0.047359
#
#
# Mechanical properties :
#
#
# Convention : Reuss Voigt Hill
#
# Bulk Modulus (GPa) = 35.09250 57.85820 46.47535
# Shear Modulus (GPa) = 19.06408 24.34721 21.70565
#
# Velocity S-wave (km/s) = 3.27743 3.70383 3.49713
# Velocity P-wave (km/s) = 5.83908 7.13380 6.51866
#
# Compressibility (1/GPa) = 0.02849612
#
# Stress axis : x y z
#
# Youngs Moduli (GPa) = 91.59482 29.00512 68.44450
#
# Poissons Ratio (x) = 0.14038 0.36499
# Poissons Ratio (y) = 0.44330 0.38205
# Poissons Ratio (z) = 0.48844 0.16190
#
# Static dielectric constant tensor:
#      x y z
#    x 3.473820 0.000000 0.372610 
#    y 0.000000 2.904360 0.000000 
#    z 0.372610 0.000000 3.466330 
# 
# 
# High freq. dielectric constant tensor:
#      x y z
#    x 1.682890 0.000000 0.021710 
#    y 0.000000 1.646050 0.000000 
#    z 0.021710 0.000000 1.677710 
# 
# From -- ./inp_files/280414.got.cif
#   From: 2010.06.25/outbox.cif.g09.slc.cpg/sg12_141_cif.got.tgz:280414.got - 2010.06.28 00:19:55.
