data_PCOD8084205
_publ_section_title
;
Structure prediction by ZEFSAII (Michael W. Deem and Ramdas Pophale) SiO2 
 PCOD8084205
Probable space group: C 2/M
;
_chemical_formula_sum "Si O2"
_cell_formula_units_Z 64
_cell_length_a 28.084248
_cell_length_b 8.873945
_cell_length_c 15.311923
_cell_angle_alpha 90.000000
_cell_angle_beta 58.155216
_cell_angle_gamma 90.000000
_cell_volume 3241.624515
_symmetry_space_group_name_H-M "C 2/M"
_symmetry_group_IT_number 12
_symmetry_cell_setting 'monoclinic'
loop_
_space_group_symop_operation_xyz
x,y,z
-x,y,-z
-x,-y,-z
x,-y,z
1/2+x,1/2+y,z
1/2-x,1/2+y,-z
1/2-x,1/2-y,-z
1/2+x,1/2-y,z
loop_
_atom_site_type_symbol
_atom_site_label
_atom_site_fract_x
_atom_site_fract_y
_atom_site_fract_z
Si Si1 0.878469 0.326889 0.960928
Si Si2 0.880789 0.177026 0.458565
Si Si3 0.311404 0.321703 0.175732
Si Si4 0.885571 0.673687 0.755408
Si Si5 0.001386 0.172820 0.395247
Si Si6 0.499765 0.176866 0.099507
Si Si7 0.612173 0.676780 0.741087
Si Si8 0.808983 0.178321 0.687872
O O1 0.872440 0.500000 0.997075
O O2 0.861873 0.306390 0.876221
O O3 0.942265 0.272638 0.912504
O O4 0.837219 0.226337 0.058506
O O5 0.860801 0.216944 0.379560
O O6 0.836137 0.241054 0.571444
O O7 0.943056 0.241221 0.415569
O O8 0.884881 0.000000 0.470535
O O9 0.307531 0.500000 0.183503
O O10 0.349093 0.256837 0.219144
O O11 0.250083 0.256115 0.243564
O O12 0.880878 0.500000 0.730385
O O13 0.950052 0.723467 0.690985
O O14 0.849230 0.779517 0.728609
O O15 0.000000 0.184586 0.500000
O O16 0.011201 0.000000 0.356049
O O17 0.449688 0.255683 0.198911
O O18 0.489815 0.000000 0.114874
O O19 0.500000 0.233924 0.000000
O O20 0.606041 0.500000 0.759075
O O21 0.800725 0.000000 0.694764
#
# Coordination Sequence:
#
# PCOD8084205 Si02
#       8
#     8   8   8   8   8   8   8   8
#     4  10  22  40  60  85 118 157 192 230 286 349
#     4   9  19  37  60  86 116 153 193 232 277 342
#     4  11  24  40  59  86 116 147 193 247 291 334
#     4  11  23  38  59  89 121 149 189 242 291 336
#     4  10  18  34  60  88 119 156 195 228 276 347
#     4  10  19  34  59  87 119 153 190 231 277 342
#     4  10  21  37  59  87 119 151 188 236 288 338
#     4  11  23  42  64  82 110 155 199 235 286 347
#
# _framework density 19.743186999999999
#
# number of rings (size 3 to 8) (size 9 to 14) (size 15 to 20)
#    0.000    1.750    2.500    1.875    0.000    3.500 
#    0.000    1.250    0.000    0.000    0.000    0.000 
#    0.000    0.000    0.000    0.000    0.000    0.000 
#
# Total GULP energy -396883.071368 kJ/mol
# GULP energy per Si atom -12402.595980 kJ/mol
# Density = 1.969825 g / cm^3
# Si number density = 19.743187 Si / 1000 Ang^3
#
#
#
# Elastic Constant Matrix: (Units=GPa)
#
#
# Indices 1 2 3 4 5 6 
#
# 1 56.3369 17.7354 58.3560 0.0000 -12.7731 0.0000
# 2 17.7354 49.2406 40.8097 0.0000 -4.4926 0.0002
# 3 58.3560 40.8097 132.8055 0.0000 -2.6996 0.0000
# 4 0.0000 0.0000 0.0000 25.0730 0.0000 -5.2561
# 5 -12.7731 -4.4926 -2.6996 0.0000 33.9169 -0.0001
# 6 0.0000 0.0002 0.0000 -5.2561 -0.0001 29.9914
#
#
#
# Elastic Compliance Matrix: (Units=1/GPa)
#
#
# Indices 1 2 3 4 5 6 
#
# 1 0.037493 0.001498 -0.016671 0.000000 0.012991 0.000000
# 2 0.001498 0.027605 -0.009070 0.000000 0.003499 0.000000
# 3 -0.016671 -0.009070 0.017518 0.000000 -0.006085 0.000000
# 4 0.000000 0.000000 0.000000 0.041405 0.000000 0.007256
# 5 0.012991 0.003499 -0.006085 0.000000 0.034355 0.000000
# 6 0.000000 0.000000 0.000000 0.007256 0.000000 0.034615
#
#
# Mechanical properties :
#
#
# Convention : Reuss Voigt Hill
#
# Bulk Modulus (GPa) = 29.29931 52.46501 40.88216
# Shear Modulus (GPa) = 19.77434 25.89507 22.83471
#
# Velocity S-wave (km/s) = 3.16821 3.62552 3.40455
# Velocity P-wave (km/s) = 5.31562 6.64510 6.01719
#
# Compressibility (1/GPa) = 0.03413049
#
# Stress axis : x y z
#
# Youngs Moduli (GPa) = 26.67197 36.22527 57.08280
#
# Poissons Ratio (x) = -0.05425 0.95161
# Poissons Ratio (y) = -0.03995 0.51772
# Poissons Ratio (z) = 0.44464 0.32855
#
# Static dielectric constant tensor:
#      x y z
#    x 3.679820 0.000000 0.090250 
#    y 0.000000 3.411710 0.000000 
#    z 0.090250 0.000000 3.704970 
# 
# 
# High freq. dielectric constant tensor:
#      x y z
#    x 1.772240 0.000000 0.007310 
#    y 0.000000 1.753140 0.000000 
#    z 0.007310 0.000000 1.779980 
# 
# From -- ./inp_files/249685.got.cif
#   From: 2010.06.25/outbox.cif.g09.slc.cpg/sg12_125_cif.got.tgz:249685.got - 2010.06.28 00:19:55.
