data_PCOD8084177
_publ_section_title
;
Structure prediction by ZEFSAII (Michael W. Deem and Ramdas Pophale) SiO2 
 PCOD8084177
Probable space group: C 2/M
;
_chemical_formula_sum "Si O2"
_cell_formula_units_Z 56
_cell_length_a 15.133832
_cell_length_b 9.115101
_cell_length_c 21.467013
_cell_angle_alpha 90.000000
_cell_angle_beta 88.931474
_cell_angle_gamma 90.000000
_cell_volume 2960.782367
_symmetry_space_group_name_H-M "C 2/M"
_symmetry_group_IT_number 12
_symmetry_cell_setting 'monoclinic'
loop_
_space_group_symop_operation_xyz
x,y,z
-x,y,-z
-x,-y,-z
x,-y,z
1/2+x,1/2+y,z
1/2-x,1/2+y,-z
1/2-x,1/2-y,-z
1/2+x,1/2-y,z
loop_
_atom_site_type_symbol
_atom_site_label
_atom_site_fract_x
_atom_site_fract_y
_atom_site_fract_z
Si Si1 0.647381 0.329472 0.442078
Si Si2 0.994730 0.172942 0.209115
Si Si3 0.992483 0.829008 0.351945
Si Si4 0.150781 0.328172 0.568695
Si Si5 0.149952 0.671813 0.865365
Si Si6 0.152847 0.827994 0.123023
Si Si7 0.103803 0.165179 0.990181
O O1 0.639229 0.500000 0.459514
O O2 0.580384 0.284003 0.388444
O O3 0.746652 0.291152 0.418721
O O4 0.620730 0.238916 0.503370
O O5 0.010729 0.213451 0.280521
O O6 0.905413 0.248057 0.187020
O O7 0.077290 0.238161 0.168879
O O8 0.984590 0.000000 0.199453
O O9 0.907150 0.740646 0.375775
O O10 0.971621 0.000000 0.360284
O O11 0.133347 0.500000 0.566613
O O12 0.130139 0.500000 0.863228
O O13 0.252114 0.707510 0.848896
O O14 0.127894 0.727805 0.934198
O O15 0.135774 0.000000 0.117991
O O16 0.146407 0.766348 0.052589
O O17 0.138852 0.000000 0.975785
O O18 0.000000 0.160503 0.000000
#
# Coordination Sequence:
#
# PCOD8084177 Si02
#       7
#     8   8   8   8   8   8   8
#     4   9  19  36  56  81 111 145 182 217 261 320
#     4  10  21  40  58  74 103 147 190 219 257 321
#     4  10  21  36  57  79 104 144 188 224 258 312
#     4  10  20  34  56  85 114 141 172 221 276 318
#     4  11  22  35  55  84 112 136 172 228 281 316
#     4   9  19  36  57  79 105 142 181 217 264 325
#     4  10  18  34  60  81 104 142 181 216 262 325
#
# _framework density 18.913920000000001
#
# number of rings (size 3 to 8) (size 9 to 14) (size 15 to 20)
#    0.000    2.143    1.429    1.714    0.000    4.857 
#    0.000    5.000    0.000    0.000    0.000    0.000 
#    0.000    0.000    0.000    0.000    0.000    0.000 
#
# Total GULP energy -347258.285328 kJ/mol
# GULP energy per Si atom -12402.081619 kJ/mol
# Density = 1.887087 g / cm^3
# Si number density = 18.913920 Si / 1000 Ang^3
#
#
#
# Elastic Constant Matrix: (Units=GPa)
#
#
# Indices 1 2 3 4 5 6 
#
# 1 101.7991 36.2703 54.8375 0.0000 11.5194 0.0000
# 2 36.2703 51.2480 42.4753 0.0000 1.3893 0.0000
# 3 54.8375 42.4753 111.9536 0.0000 13.0843 0.0000
# 4 0.0000 0.0000 0.0000 16.2193 0.0000 2.7253
# 5 11.5194 1.3893 13.0843 0.0000 21.3168 0.0000
# 6 0.0000 0.0000 0.0000 2.7253 0.0000 28.4617
#
#
#
# Elastic Compliance Matrix: (Units=1/GPa)
#
#
# Indices 1 2 3 4 5 6 
#
# 1 0.015190 -0.007218 -0.004091 0.000000 -0.005227 0.000000
# 2 -0.007218 0.032427 -0.009669 0.000000 0.007723 0.000000
# 3 -0.004091 -0.009669 0.015376 0.000000 -0.006597 0.000000
# 4 0.000000 0.000000 0.000000 0.062663 0.000000 -0.006000
# 5 -0.005227 0.007723 -0.006597 0.000000 0.053282 0.000000
# 6 0.000000 0.000000 0.000000 -0.006000 0.000000 0.035709
#
#
# Mechanical properties :
#
#
# Convention : Reuss Voigt Hill
#
# Bulk Modulus (GPa) = 47.54007 59.12967 53.33487
# Shear Modulus (GPa) = 18.96693 21.96074 20.46384
#
# Velocity S-wave (km/s) = 3.17014 3.41117 3.29286
# Velocity P-wave (km/s) = 6.21203 6.84435 6.53584
#
# Compressibility (1/GPa) = 0.02103488
#
# Stress axis : x y z
#
# Youngs Moduli (GPa) = 65.83092 30.83885 65.03763
#
# Poissons Ratio (x) = 0.22261 0.26607
# Poissons Ratio (y) = 0.47520 0.62888
# Poissons Ratio (z) = 0.26932 0.29819
#
# Static dielectric constant tensor:
#      x y z
#    x 3.756430 0.000000 -0.017180 
#    y 0.000000 3.348720 0.000000 
#    z -0.017180 0.000000 3.513480 
# 
# 
# High freq. dielectric constant tensor:
#      x y z
#    x 1.746900 0.000000 0.003600 
#    y 0.000000 1.717630 0.000000 
#    z 0.003600 0.000000 1.732950 
# 
# From -- ./inp_files/309018.got.cif
#   From: 2010.06.25/outbox.cif.g09.slc.cpg/sg12_155_cif.got.tgz:309018.got - 2010.06.28 00:19:55.
