data_PCOD8084859
_publ_section_title
;
Structure prediction by ZEFSAII (Michael W. Deem and Ramdas Pophale) SiO2 
 PCOD8084859
Probable space group: C 2/M
;
_chemical_formula_sum "Si O2"
_cell_formula_units_Z 56
_cell_length_a 19.214971
_cell_length_b 9.814060
_cell_length_c 20.206414
_cell_angle_alpha 90.000000
_cell_angle_beta 56.846940
_cell_angle_gamma 90.000000
_cell_volume 3190.167301
_symmetry_space_group_name_H-M "C 2/M"
_symmetry_group_IT_number 12
_symmetry_cell_setting 'monoclinic'
loop_
_space_group_symop_operation_xyz
x,y,z
-x,y,-z
-x,-y,-z
x,-y,z
1/2+x,1/2+y,z
1/2-x,1/2+y,-z
1/2-x,1/2-y,-z
1/2+x,1/2-y,z
loop_
_atom_site_type_symbol
_atom_site_label
_atom_site_fract_x
_atom_site_fract_y
_atom_site_fract_z
Si Si1 0.574087 0.842355 0.912727
Si Si2 0.726613 0.342368 0.826673
Si Si3 0.551335 0.841279 0.772537
Si Si4 0.410861 0.161436 0.745283
Si Si5 0.806297 0.652974 0.512173
Si Si6 0.300071 0.652084 0.310680
Si Si7 0.007582 0.339436 0.569372
O O1 0.652982 0.751432 0.893553
O O2 0.542066 0.809600 0.855337
O O3 0.599952 0.000000 0.906261
O O4 0.500000 0.803147 0.000000
O O5 0.708632 0.500000 0.854411
O O6 0.815884 0.292008 0.808653
O O7 0.731968 0.318990 0.745808
O O8 0.468172 0.792758 0.777420
O O9 0.629275 0.757973 0.703250
O O10 0.568842 0.000000 0.750177
O O11 0.444944 0.222024 0.657442
O O12 0.412477 0.000000 0.737714
O O13 0.790955 0.500000 0.495073
O O14 0.750000 0.750000 0.500000
O O15 0.781717 0.667390 0.601969
O O16 0.900946 0.694845 0.451904
O O17 0.338144 0.500000 0.296481
O O18 0.992777 0.500000 0.570307
O O19 0.000000 0.272590 0.500000
#
# Coordination Sequence:
#
# PCOD8084859 Si02
#       7
#     8   8   8   8   8   8   8
#     4   9  18  33  51  70  93 120 148 178 216 267
#     4   9  17  30  49  70  91 116 147 184 225 267
#     4   9  17  30  49  69  89 118 153 185 220 266
#     4   9  16  27  44  66  90 116 150 189 223 259
#     4  10  19  29  43  64  89 118 153 193 232 266
#     4   9  17  29  44  64  90 118 150 189 230 268
#     4   9  16  26  42  64  89 118 152 188 225 264
#
# _framework density 17.553937999999999
#
# number of rings (size 3 to 8) (size 9 to 14) (size 15 to 20)
#    0.000    2.857    0.000    1.714    0.000    5.429 
#    0.000    1.429    0.000    1.286    0.000    0.000 
#    0.000    0.000    0.000    0.000    0.000    0.000 
#
# Total GULP energy -347076.160004 kJ/mol
# GULP energy per Si atom -12395.577143 kJ/mol
# Density = 1.751398 g / cm^3
# Si number density = 17.553938 Si / 1000 Ang^3
#
#
#
# Elastic Constant Matrix: (Units=GPa)
#
#
# Indices 1 2 3 4 5 6 
#
# 1 94.2660 34.2288 32.4351 0.0000 -16.6161 -0.0001
# 2 34.2288 45.5246 26.4933 0.0000 -13.6489 -0.0002
# 3 32.4351 26.4933 87.8930 0.0000 -19.0500 0.0000
# 4 0.0000 0.0000 0.0000 20.5130 0.0000 -4.1416
# 5 -16.6161 -13.6489 -19.0500 0.0000 25.2304 0.0000
# 6 -0.0001 -0.0002 0.0000 -4.1416 0.0000 22.8999
#
#
#
# Elastic Compliance Matrix: (Units=1/GPa)
#
#
# Indices 1 2 3 4 5 6 
#
# 1 0.015301 -0.009231 -0.002107 0.000000 0.003492 0.000000
# 2 -0.009231 0.034491 -0.005098 0.000000 0.008730 0.000000
# 3 -0.002107 -0.005098 0.015296 0.000000 0.007404 0.000000
# 4 0.000000 0.000000 0.000000 0.050597 0.000000 0.009151
# 5 0.003492 0.008730 0.007404 0.000000 0.052248 0.000000
# 6 0.000000 0.000000 0.000000 0.009151 0.000000 0.045323
#
#
# Mechanical properties :
#
#
# Convention : Reuss Voigt Hill
#
# Bulk Modulus (GPa) = 31.04024 45.99979 38.52001
# Shear Modulus (GPa) = 19.46537 22.69708 21.08122
#
# Velocity S-wave (km/s) = 3.33361 3.59972 3.46922
# Velocity P-wave (km/s) = 5.70425 6.59841 6.16755
#
# Compressibility (1/GPa) = 0.03221625
#
# Stress axis : x y z
#
# Youngs Moduli (GPa) = 65.35660 28.99314 65.37492
#
# Poissons Ratio (x) = 0.26764 0.13775
# Poissons Ratio (y) = 0.60331 0.33326
# Poissons Ratio (z) = 0.13771 0.14780
#
# Static dielectric constant tensor:
#      x y z
#    x -5.288560 0.000030 28.888870 
#    y 0.000030 3.038830 -0.000090 
#    z 28.888870 -0.000090 -92.575160 
# 
# 
# High freq. dielectric constant tensor:
#      x y z
#    x 1.678710 0.000000 -0.003980 
#    y 0.000000 1.642070 0.000000 
#    z -0.003980 0.000000 1.675040 
# 
# From -- ./inp_files/223176.got.cif
#   From: 2010.06.25/outbox.cif.g09.slc.cpg/sg12_112_cif.got.tgz:223176.got - 2010.06.28 00:19:55.
