data_PCOD8084555
_publ_section_title
;
Structure prediction by ZEFSAII (Michael W. Deem and Ramdas Pophale) SiO2 
 PCOD8084555
Probable space group: C 2/M
;
_chemical_formula_sum "Si O2"
_cell_formula_units_Z 56
_cell_length_a 20.561977
_cell_length_b 17.810519
_cell_length_c 16.213791
_cell_angle_alpha 90.000000
_cell_angle_beta 27.943124
_cell_angle_gamma 90.000000
_cell_volume 2782.425396
_symmetry_space_group_name_H-M "C 2/M"
_symmetry_group_IT_number 12
_symmetry_cell_setting 'monoclinic'
loop_
_space_group_symop_operation_xyz
x,y,z
-x,y,-z
-x,-y,-z
x,-y,z
1/2+x,1/2+y,z
1/2-x,1/2+y,-z
1/2-x,1/2-y,-z
1/2+x,1/2-y,z
loop_
_atom_site_type_symbol
_atom_site_label
_atom_site_fract_x
_atom_site_fract_y
_atom_site_fract_z
Si Si1 0.022516 0.825788 0.656130
Si Si2 0.973394 0.656066 0.725668
Si Si3 0.771352 0.668688 0.097289
Si Si4 0.023212 0.086534 0.820404
Si Si5 0.851775 0.916543 0.623211
Si Si6 0.790141 0.414698 0.625212
Si Si7 0.757093 0.339356 0.825788
O O1 0.136451 0.859884 0.466385
O O2 0.043250 0.737221 0.636613
O O3 0.863792 0.842136 0.808358
O O4 0.054476 0.861674 0.707700
O O5 0.858601 0.638390 0.785626
O O6 0.097749 0.597187 0.573812
O O7 0.905704 0.648456 0.892165
O O8 0.764350 0.612643 0.182725
O O9 0.783741 0.752456 0.119131
O O10 0.137883 0.102260 0.761062
O O11 0.023655 0.000000 0.791722
O O12 0.876108 0.107273 0.023856
O O13 0.000000 0.918339 0.500000
O O14 0.809417 0.000000 0.641015
O O15 0.800752 0.500000 0.645082
O O16 0.826646 0.357230 0.659149
#
# Coordination Sequence:
#
# PCOD8084555 Si02
#       7
#     8   8   8   8   8   8   8
#     4  10  18  37  59  87 112 148 201 243 286 339
#     4  11  21  38  61  86 117 151 190 242 296 348
#     4  10  19  36  59  88 116 146 194 245 294 340
#     4  11  22  38  61  85 119 158 196 243 286 343
#     4   9  18  30  51  84 116 145 185 239 290 338
#     4  11  26  40  55  88 125 157 194 238 291 350
#     4  11  20  40  61  84 114 153 201 243 286 341
#
# _framework density 20.126327
#
# number of rings (size 3 to 8) (size 9 to 14) (size 15 to 20)
#    0.000    1.571    2.857    3.429    0.000    6.857 
#    0.000    0.000    0.000    0.000    0.000    3.000 
#    0.000    0.000    0.000    0.000    0.000    0.000 
#
# Total GULP energy -347244.772063 kJ/mol
# GULP energy per Si atom -12401.599002 kJ/mol
# Density = 2.008052 g / cm^3
# Si number density = 20.126327 Si / 1000 Ang^3
#
#
#
# Elastic Constant Matrix: (Units=GPa)
#
#
# Indices 1 2 3 4 5 6 
#
# 1 46.0659 46.1824 34.9190 -0.0002 12.2026 0.0003
# 2 46.1824 80.4883 48.5569 0.0006 3.5177 -0.0002
# 3 34.9190 48.5569 120.1604 0.0008 19.2654 -0.0009
# 4 -0.0002 0.0006 0.0008 33.6976 -0.0003 0.1755
# 5 12.2026 3.5177 19.2654 -0.0003 32.6712 0.0001
# 6 0.0003 -0.0002 -0.0009 0.1755 0.0001 14.7514
#
#
#
# Elastic Compliance Matrix: (Units=1/GPa)
#
#
# Indices 1 2 3 4 5 6 
#
# 1 0.061189 -0.033538 -0.001263 0.000001 -0.018498 -0.000001
# 2 -0.033538 0.034980 -0.006399 -0.000001 0.012533 0.000000
# 3 -0.001263 -0.006399 0.012247 0.000000 -0.006061 0.000001
# 4 0.000001 -0.000001 0.000000 0.029678 0.000000 -0.000353
# 5 -0.018498 0.012533 -0.006061 0.000000 0.039741 0.000000
# 6 -0.000001 0.000000 0.000001 -0.000353 0.000000 0.067794
#
#
# Mechanical properties :
#
#
# Convention : Reuss Voigt Hill
#
# Bulk Modulus (GPa) = 38.43852 56.22569 47.33210
# Shear Modulus (GPa) = 14.85002 24.02780 19.43891
#
# Velocity S-wave (km/s) = 2.71927 3.45896 3.11118
# Velocity P-wave (km/s) = 5.38510 6.62945 6.03941
#
# Compressibility (1/GPa) = 0.02601557
#
# Stress axis : x y z
#
# Youngs Moduli (GPa) = 16.34294 28.58772 81.65491
#
# Poissons Ratio (x) = 0.95878 0.10313
# Poissons Ratio (y) = 0.54811 0.52248
# Poissons Ratio (z) = 0.02064 0.18292
#
# Static dielectric constant tensor:
#      x y z
#    x 3.374750 0.000000 0.206120 
#    y 0.000000 3.748280 0.000000 
#    z 0.206120 0.000000 3.765540 
# 
# 
# High freq. dielectric constant tensor:
#      x y z
#    x 1.758080 0.000000 0.020520 
#    y 0.000000 1.788190 0.000000 
#    z 0.020520 0.000000 1.792090 
# 
# From -- ./inp_files/75855.got.cif
#   From: 2010.06.25/outbox.cif.g09.slc.cpg/sg12_38_cif.got.tgz:75855.got - 2010.06.28 00:19:55.
