data_PCOD8084309
_publ_section_title
;
Structure prediction by ZEFSAII (Michael W. Deem and Ramdas Pophale) SiO2 
 PCOD8084309
Probable space group: C 2/M
;
_chemical_formula_sum "Si O2"
_cell_formula_units_Z 64
_cell_length_a 14.689804
_cell_length_b 23.014986
_cell_length_c 14.737642
_cell_angle_alpha 90.000000
_cell_angle_beta 139.997467
_cell_angle_gamma 90.000000
_cell_volume 3202.912660
_symmetry_space_group_name_H-M "C 2/M"
_symmetry_group_IT_number 12
_symmetry_cell_setting 'monoclinic'
loop_
_space_group_symop_operation_xyz
x,y,z
-x,y,-z
-x,-y,-z
x,-y,z
1/2+x,1/2+y,z
1/2-x,1/2+y,-z
1/2-x,1/2-y,-z
1/2+x,1/2-y,z
loop_
_atom_site_type_symbol
_atom_site_label
_atom_site_fract_x
_atom_site_fract_y
_atom_site_fract_z
Si Si1 0.360168 0.636064 0.949554
Si Si2 0.803462 0.164318 0.197537
Si Si3 0.954998 0.433861 0.725934
Si Si4 0.755393 0.934570 0.033106
Si Si5 0.550208 0.739084 0.435228
Si Si6 0.068035 0.259652 0.953432
Si Si7 0.946908 0.361497 0.358319
Si Si8 0.814768 0.324530 0.691160
O O1 0.224608 0.647316 0.779071
O O2 0.500000 0.618721 0.000000
O O3 0.328665 0.585128 0.995765
O O4 0.390922 0.693065 0.034446
O O5 0.809396 0.099443 0.162980
O O6 0.743132 0.164718 0.252572
O O7 0.958231 0.192116 0.311022
O O8 0.707693 0.201433 0.055585
O O9 0.895965 0.500000 0.678981
O O10 0.833801 0.388835 0.664092
O O11 0.008268 0.417094 0.666255
O O12 0.085482 0.428841 0.895714
O O13 0.802912 0.000000 0.086264
O O14 0.500000 0.743842 0.500000
O O15 0.527115 0.804275 0.378345
O O16 0.709801 0.715412 0.551581
O O17 0.958587 0.286690 0.798018
O O18 0.000000 0.262230 0.000000
O O19 0.000000 0.374272 0.500000
#
# Coordination Sequence:
#
# PCOD8084309 Si02
#       8
#     8   8   8   8   8   8   8   8
#     4  10  21  37  59  85 113 145 184 237 289 331
#     4  10  18  35  57  84 115 147 180 224 285 336
#     4  10  22  39  57  81 112 150 198 236 269 325
#     4  10  22  38  57  82 112 150 196 236 272 328
#     4   9  19  34  56  84 117 147 177 226 286 343
#     4   9  17  30  55  87 109 140 180 222 277 340
#     4  10  21  38  59  83 113 148 184 232 291 339
#     4  10  20  35  58  86 118 149 180 226 279 337
#
# _framework density 19.981812999999999
#
# number of rings (size 3 to 8) (size 9 to 14) (size 15 to 20)
#    0.000    2.250    2.500    0.000    5.250    3.000 
#    2.250    1.875    0.000    2.250    0.000    0.000 
#    0.000    0.000    0.000    0.000    0.000    0.000 
#
# Total GULP energy -396758.518931 kJ/mol
# GULP energy per Si atom -12398.703717 kJ/mol
# Density = 1.993633 g / cm^3
# Si number density = 19.981813 Si / 1000 Ang^3
#
#
#
# Elastic Constant Matrix: (Units=GPa)
#
#
# Indices 1 2 3 4 5 6 
#
# 1 31.0778 7.6770 18.1473 0.0000 9.1518 0.0000
# 2 7.6770 106.4000 31.8255 0.0000 1.8089 0.0000
# 3 18.1473 31.8255 111.8093 0.0000 14.2189 0.0000
# 4 0.0000 0.0000 0.0000 25.5372 0.0000 -3.3470
# 5 9.1518 1.8089 14.2189 0.0000 25.2510 0.0000
# 6 0.0000 0.0000 0.0000 -3.3470 0.0000 28.7100
#
#
#
# Elastic Compliance Matrix: (Units=1/GPa)
#
#
# Indices 1 2 3 4 5 6 
#
# 1 0.038415 -0.001252 -0.004437 0.000000 -0.011335 0.000000
# 2 -0.001252 0.010337 -0.002911 0.000000 0.001352 0.000000
# 3 -0.004437 -0.002911 0.011053 0.000000 -0.004407 0.000000
# 4 0.000000 0.000000 0.000000 0.039766 0.000000 0.004636
# 5 -0.011335 0.001352 -0.004407 0.000000 0.046095 0.000000
# 6 0.000000 0.000000 0.000000 0.004636 0.000000 0.035371
#
#
# Mechanical properties :
#
#
# Convention : Reuss Voigt Hill
#
# Bulk Modulus (GPa) = 23.47154 40.50964 31.99059
# Shear Modulus (GPa) = 23.53608 28.67546 26.10577
#
# Velocity S-wave (km/s) = 3.43574 3.79235 3.61844
# Velocity P-wave (km/s) = 5.24510 6.28436 5.78810
#
# Compressibility (1/GPa) = 0.04260479
#
# Stress axis : x y z
#
# Youngs Moduli (GPa) = 26.03121 96.74408 90.47257
#
# Poissons Ratio (x) = 0.12110 0.40145
# Poissons Ratio (y) = 0.03259 0.26337
# Poissons Ratio (z) = 0.11551 0.28162
#
# Static dielectric constant tensor:
#      x y z
#    x 3.373230 0.000000 0.130480 
#    y 0.000000 3.649210 0.000000 
#    z 0.130480 0.000000 3.738740 
# 
# 
# High freq. dielectric constant tensor:
#      x y z
#    x 1.771560 0.000000 -0.000830 
#    y 0.000000 1.773300 0.000000 
#    z -0.000830 0.000000 1.774850 
# 
# From -- ./inp_files/218516.got.cif
#   From: 2010.06.25/outbox.cif.g09.slc.cpg/sg12_110_cif.got.tgz:218516.got - 2010.06.28 00:19:55.
