data_PCOD8084362
_publ_section_title
;
Structure prediction by ZEFSAII (Michael W. Deem and Ramdas Pophale) SiO2 
 PCOD8084362
Probable space group: C 2/M
;
_chemical_formula_sum "Si O2"
_cell_formula_units_Z 44
_cell_length_a 9.541002
_cell_length_b 28.085559
_cell_length_c 9.696425
_cell_angle_alpha 90.000000
_cell_angle_beta 111.826839
_cell_angle_gamma 90.000000
_cell_volume 2412.029175
_symmetry_space_group_name_H-M "C 2/M"
_symmetry_group_IT_number 12
_symmetry_cell_setting 'monoclinic'
loop_
_space_group_symop_operation_xyz
x,y,z
-x,y,-z
-x,-y,-z
x,-y,z
1/2+x,1/2+y,z
1/2-x,1/2+y,-z
1/2-x,1/2-y,-z
1/2+x,1/2-y,z
loop_
_atom_site_type_symbol
_atom_site_label
_atom_site_fract_x
_atom_site_fract_y
_atom_site_fract_z
Si Si1 0.000000 0.880543 0.500000
Si Si2 0.221117 0.446004 0.473095
Si Si3 0.409182 0.770080 0.101410
Si Si4 0.391212 0.946061 0.261116
Si Si5 0.517156 0.329808 0.790973
Si Si6 0.243784 0.856527 0.107625
O O1 0.146810 0.912180 0.529680
O O2 0.034279 0.847043 0.641950
O O3 0.276009 0.500000 0.471983
O O4 0.182301 0.436830 0.617489
O O5 0.070322 0.436620 0.329170
O O6 0.495482 0.728000 0.215436
O O7 0.379890 0.818092 0.178911
O O8 0.500000 0.785088 0.000000
O O9 0.250000 0.750000 0.000000
O O10 0.313542 0.909420 0.127175
O O11 0.357941 0.000000 0.199412
O O12 0.367596 0.351583 0.803873
O O13 0.660382 0.347411 0.932272
#
# Coordination Sequence:
#
# PCOD8084362 Si02
#       6
#     4   8   8   8   8   8
#     4  12  21  36  58  84 122 146 187 240 292 326
#     4   9  19  35  56  81 115 156 190 225 286 349
#     4  10  18  35  60  80 108 148 190 225 277 340
#     4   9  18  36  59  85 112 148 194 237 278 338
#     4  10  21  36  56  88 116 148 190 241 278 342
#     4  10  19  38  62  81 116 152 192 232 288 335
#
# _framework density 18.241902
#
# number of rings (size 3 to 8) (size 9 to 14) (size 15 to 20)
#    0.000    2.182    5.455    1.364    0.000    2.909 
#    0.000    6.364    0.000    2.727    0.000    0.000 
#    0.000    0.000    0.000    0.000    0.000    0.000 
#
# Total GULP energy -272699.433910 kJ/mol
# GULP energy per Si atom -12395.428814 kJ/mol
# Density = 1.820038 g / cm^3
# Si number density = 18.241902 Si / 1000 Ang^3
#
#
#
# Elastic Constant Matrix: (Units=GPa)
#
#
# Indices 1 2 3 4 5 6 
#
# 1 93.5922 52.3381 24.9630 0.0000 -5.0262 0.0000
# 2 52.3381 150.4052 49.7733 0.0000 8.0165 0.0000
# 3 24.9630 49.7733 79.4118 0.0000 -6.0310 0.0000
# 4 0.0000 0.0000 0.0000 21.0752 0.0000 1.5845
# 5 -5.0262 8.0165 -6.0310 0.0000 16.9222 0.0000
# 6 0.0000 0.0000 0.0000 1.5845 0.0000 36.1839
#
#
#
# Elastic Compliance Matrix: (Units=1/GPa)
#
#
# Indices 1 2 3 4 5 6 
#
# 1 0.013993 -0.004919 -0.000846 0.000000 0.006185 0.000000
# 2 -0.004919 0.010758 -0.005853 0.000000 -0.008643 0.000000
# 3 -0.000846 -0.005853 0.017184 0.000000 0.008646 0.000000
# 4 0.000000 0.000000 0.000000 0.047606 0.000000 -0.002085
# 5 0.006185 -0.008643 0.008646 0.000000 0.068107 0.000000
# 6 0.000000 0.000000 0.000000 -0.002085 0.000000 0.027728
#
#
# Mechanical properties :
#
#
# Convention : Reuss Voigt Hill
#
# Bulk Modulus (GPa) = 53.47887 64.17311 58.82599
# Shear Modulus (GPa) = 23.27264 27.92525 25.59895
#
# Velocity S-wave (km/s) = 3.57568 3.91683 3.75013
# Velocity P-wave (km/s) = 6.81377 7.46396 7.14626
#
# Compressibility (1/GPa) = 0.01869898
#
# Stress axis : x y z
#
# Youngs Moduli (GPa) = 71.46294 92.95345 58.19510
#
# Poissons Ratio (x) = 0.45725 0.04922
# Poissons Ratio (y) = 0.35154 0.34062
# Poissons Ratio (z) = 0.06045 0.54406
#
# Static dielectric constant tensor:
#      x y z
#    x 3.531540 0.000000 -0.011860 
#    y 0.000000 3.927290 0.000000 
#    z -0.011860 0.000000 2.989630 
# 
# 
# High freq. dielectric constant tensor:
#      x y z
#    x 1.717150 0.000000 -0.005560 
#    y 0.000000 1.718770 0.000000 
#    z -0.005560 0.000000 1.667110 
# 
# From -- ./inp_files/41745.got.cif
#   From: 2010.06.25/outbox.cif.g09.slc.cpg/sg12_21_cif.got.tgz:41745.got - 2010.06.28 00:19:55.
