data_PCOD8084747
_publ_section_title
;
Structure prediction by ZEFSAII (Michael W. Deem and Ramdas Pophale) SiO2 
 PCOD8084747
Probable space group: C 2/M
;
_chemical_formula_sum "Si O2"
_cell_formula_units_Z 56
_cell_length_a 14.273947
_cell_length_b 28.776799
_cell_length_c 11.539769
_cell_angle_alpha 90.000000
_cell_angle_beta 142.907745
_cell_angle_gamma 90.000000
_cell_volume 2858.729927
_symmetry_space_group_name_H-M "C 2/M"
_symmetry_group_IT_number 12
_symmetry_cell_setting 'monoclinic'
loop_
_space_group_symop_operation_xyz
x,y,z
-x,y,-z
-x,-y,-z
x,-y,z
1/2+x,1/2+y,z
1/2-x,1/2+y,-z
1/2-x,1/2-y,-z
1/2+x,1/2-y,z
loop_
_atom_site_type_symbol
_atom_site_label
_atom_site_fract_x
_atom_site_fract_y
_atom_site_fract_z
Si Si1 0.932866 0.152255 0.308477
Si Si2 0.779398 0.000000 0.198577
Si Si3 0.160749 0.246181 0.226302
Si Si4 0.875897 0.746433 0.223160
Si Si5 0.113443 0.000000 0.431505
Si Si6 0.329014 0.903497 0.867189
Si Si7 0.303758 0.402562 0.512224
Si Si8 0.156194 0.687269 0.424488
O O1 0.965699 0.205071 0.304655
O O2 0.750938 0.136063 0.129364
O O3 0.000000 0.142743 0.500000
O O4 0.028375 0.122012 0.309432
O O5 0.674996 0.046244 0.071643
O O6 0.828243 0.000000 0.380021
O O7 0.925685 0.000000 0.254690
O O8 0.301719 0.242988 0.276177
O O9 0.160297 0.295726 0.293416
O O10 0.196144 0.207520 0.358911
O O11 0.000000 0.236970 0.000000
O O12 0.992926 0.703453 0.319157
O O13 0.750000 0.750000 0.000000
O O14 0.179254 0.955313 0.423525
O O15 0.227814 0.908643 0.653632
O O16 0.500000 0.887351 0.000000
O O17 0.172511 0.369232 0.442193
#
# Coordination Sequence:
#
# PCOD8084747 Si02
#       8
#     8   4   8   8   4   8   8   8
#     4  10  19  33  49  73 107 152 192 230 279 349
#     4   9  15  30  46  74 108 148 185 231 288 350
#     4  11  22  40  59  85 120 157 200 241 293 348
#     4  12  24  37  57  84 122 157 197 247 295 350
#     4   9  16  32  52  76 104 144 194 237 285 358
#     4  10  19  28  49  77 112 146 190 234 284 350
#     4  10  20  33  54  75 105 148 193 237 288 344
#     4  11  23  39  59  85 119 158 201 245 290 357
#
# _framework density 19.589117999999999
#
# number of rings (size 3 to 8) (size 9 to 14) (size 15 to 20)
#    0.000    1.571    2.857    4.929    2.000    1.143 
#    0.000    0.000    0.000    0.000    0.000    2.500 
#    0.000    0.000    0.000    0.000    0.000    0.000 
#
# Total GULP energy -346871.835448 kJ/mol
# GULP energy per Si atom -12388.279837 kJ/mol
# Density = 1.954453 g / cm^3
# Si number density = 19.589118 Si / 1000 Ang^3
#
#
#
# Elastic Constant Matrix: (Units=GPa)
#
#
# Indices 1 2 3 4 5 6 
#
# 1 106.3936 53.6000 25.9240 0.0000 21.0268 0.0000
# 2 53.6000 149.6113 20.2606 0.0000 19.0225 0.0000
# 3 25.9240 20.2606 71.2845 0.0000 10.5794 0.0000
# 4 0.0000 0.0000 0.0000 15.2330 0.0000 6.9606
# 5 21.0268 19.0225 10.5794 0.0000 32.7806 0.0000
# 6 0.0000 0.0000 0.0000 6.9606 0.0000 29.4948
#
#
#
# Elastic Compliance Matrix: (Units=1/GPa)
#
#
# Indices 1 2 3 4 5 6 
#
# 1 0.012955 -0.003574 -0.002910 0.000000 -0.005297 0.000000
# 2 -0.003574 0.008359 -0.000731 0.000000 -0.002322 0.000000
# 3 -0.002910 -0.000731 0.015707 0.000000 -0.002778 0.000000
# 4 0.000000 0.000000 0.000000 0.073582 0.000000 -0.017365
# 5 -0.005297 -0.002322 -0.002778 0.000000 0.036148 0.000000
# 6 0.000000 0.000000 0.000000 -0.017365 0.000000 0.038002
#
#
# Mechanical properties :
#
#
# Convention : Reuss Voigt Hill
#
# Bulk Modulus (GPa) = 44.26535 58.53985 51.40260
# Shear Modulus (GPa) = 24.18818 30.66866 27.42842
#
# Velocity S-wave (km/s) = 3.51775 3.96105 3.74597
# Velocity P-wave (km/s) = 6.25663 7.13223 6.70873
#
# Compressibility (1/GPa) = 0.02259103
#
# Stress axis : x y z
#
# Youngs Moduli (GPa) = 77.18798 119.63647 63.66742
#
# Poissons Ratio (x) = 0.42757 0.18524
# Poissons Ratio (y) = 0.27586 0.04656
# Poissons Ratio (z) = 0.22458 0.08750
#
# Static dielectric constant tensor:
#      x y z
#    x 3.477120 0.000000 0.249260 
#    y 0.000000 3.847700 0.000000 
#    z 0.249260 0.000000 3.415960 
# 
# 
# High freq. dielectric constant tensor:
#      x y z
#    x 1.737330 0.000000 0.037780 
#    y 0.000000 1.763620 0.000000 
#    z 0.037780 0.000000 1.734080 
# 
# From -- ./inp_files/149539.got.cif
#   From: 2010.06.25/outbox.cif.g09.slc.cpg/sg12_75_cif.got.tgz:149539.got - 2010.06.28 00:19:55.
