data_PCOD8084840
_publ_section_title
;
Structure prediction by ZEFSAII (Michael W. Deem and Ramdas Pophale) SiO2 
 PCOD8084840
Probable space group: C 2/M
;
_chemical_formula_sum "Si O2"
_cell_formula_units_Z 48
_cell_length_a 23.844441
_cell_length_b 8.780801
_cell_length_c 13.879234
_cell_angle_alpha 90.000000
_cell_angle_beta 72.910127
_cell_angle_gamma 90.000000
_cell_volume 2777.629000
_symmetry_space_group_name_H-M "C 2/M"
_symmetry_group_IT_number 12
_symmetry_cell_setting 'monoclinic'
loop_
_space_group_symop_operation_xyz
x,y,z
-x,y,-z
-x,-y,-z
x,-y,z
1/2+x,1/2+y,z
1/2-x,1/2+y,-z
1/2-x,1/2-y,-z
1/2+x,1/2-y,z
loop_
_atom_site_type_symbol
_atom_site_label
_atom_site_fract_x
_atom_site_fract_y
_atom_site_fract_z
Si Si1 0.000323 0.317388 0.389793
Si Si2 0.122546 0.330121 0.269953
Si Si3 0.195931 0.671750 0.418447
Si Si4 0.235842 0.319061 0.109468
Si Si5 0.620794 0.179385 0.629891
Si Si6 0.205002 0.323326 0.746627
O O1 0.003172 0.500000 0.388540
O O2 0.943717 0.253372 0.360202
O O3 0.000000 0.257340 0.500000
O O4 0.058015 0.251985 0.303894
O O5 0.115880 0.500000 0.232369
O O6 0.142777 0.332648 0.369974
O O7 0.172787 0.251301 0.177754
O O8 0.221416 0.500000 0.417381
O O9 0.169477 0.741635 0.530163
O O10 0.246015 0.785361 0.357464
O O11 0.234642 0.500000 0.104779
O O12 0.286392 0.272778 0.160209
O O13 0.250000 0.250000 0.000000
O O14 0.642077 0.216644 0.728321
O O15 0.618000 0.000000 0.613469
O O16 0.208669 0.500000 0.772010
#
# Coordination Sequence:
#
# PCOD8084840 Si02
#       6
#     8   8   8   8   8   8
#     4   9  13  21  40  66  97 129 156 186 227 266
#     4   8  14  24  42  69  95 117 150 193 231 269
#     4   9  15  26  42  64  94 128 162 193 223 264
#     4  10  20  35  54  73  90 113 150 197 244 285
#     4   9  16  24  39  65  98 130 159 190 226 269
#     4  10  19  29  42  67  98 125 154 190 232 279
#
# _framework density 17.280926000000001
#
# number of rings (size 3 to 8) (size 9 to 14) (size 15 to 20)
#    0.000    2.833    1.667    2.500    0.000    0.000 
#    0.000    0.833    0.000    1.000    0.000   29.167 
#    0.000    0.000    0.000    0.000    0.000    0.000 
#
# Total GULP energy -297334.585491 kJ/mol
# GULP energy per Si atom -12388.941062 kJ/mol
# Density = 1.724159 g / cm^3
# Si number density = 17.280926 Si / 1000 Ang^3
#
#
#
# Elastic Constant Matrix: (Units=GPa)
#
#
# Indices 1 2 3 4 5 6 
#
# 1 123.4501 21.8677 61.0942 0.0000 10.8335 0.0000
# 2 21.8677 32.6508 21.4646 0.0000 3.4594 0.0000
# 3 61.0942 21.4646 114.4450 0.0000 7.3498 0.0000
# 4 0.0000 0.0000 0.0000 19.5697 0.0000 3.6480
# 5 10.8335 3.4594 7.3498 0.0000 15.5852 0.0000
# 6 0.0000 0.0000 0.0000 3.6480 0.0000 14.3588
#
#
#
# Elastic Compliance Matrix: (Units=1/GPa)
#
#
# Indices 1 2 3 4 5 6 
#
# 1 0.011831 -0.003949 -0.005263 0.000000 -0.004866 0.000000
# 2 -0.003949 0.036605 -0.004550 0.000000 -0.003235 0.000000
# 3 -0.005263 -0.004550 0.012479 0.000000 -0.001217 0.000000
# 4 0.000000 0.000000 0.000000 0.053640 0.000000 -0.013628
# 5 -0.004866 -0.003235 -0.001217 0.000000 0.068837 0.000000
# 6 0.000000 0.000000 0.000000 -0.013628 0.000000 0.073106
#
#
# Mechanical properties :
#
#
# Convention : Reuss Voigt Hill
#
# Bulk Modulus (GPa) = 29.94652 53.26655 41.60654
# Shear Modulus (GPa) = 16.94040 20.97738 18.95889
#
# Velocity S-wave (km/s) = 3.13436 3.48789 3.31584
# Velocity P-wave (km/s) = 5.51959 6.86377 6.22805
#
# Compressibility (1/GPa) = 0.03339286
#
# Stress axis : x y z
#
# Youngs Moduli (GPa) = 84.52025 27.31833 80.13596
#
# Poissons Ratio (x) = 0.10787 0.42175
# Poissons Ratio (y) = 0.33375 0.36460
# Poissons Ratio (z) = 0.44482 0.12429
#
# Static dielectric constant tensor:
#      x y z
#    x 3.556820 0.000000 -0.069550 
#    y 0.000000 2.799490 0.000000 
#    z -0.069550 0.000000 3.105390 
# 
# 
# High freq. dielectric constant tensor:
#      x y z
#    x 1.671640 0.000000 0.003230 
#    y 0.000000 1.621880 0.000000 
#    z 0.003230 0.000000 1.640780 
# 
# From -- ./inp_files/179205.got.cif
#   From: 2010.06.25/outbox.cif.g09.slc.cpg/sg12_90_cif.got.tgz:179205.got - 2010.06.28 00:19:55.
