data_PCOD8084873
_publ_section_title
;
Structure prediction by ZEFSAII (Michael W. Deem and Ramdas Pophale) SiO2 
 PCOD8084873
Probable space group: C 2/M
;
_chemical_formula_sum "Si O2"
_cell_formula_units_Z 64
_cell_length_a 18.952938
_cell_length_b 9.305937
_cell_length_c 23.465647
_cell_angle_alpha 90.000000
_cell_angle_beta 119.978607
_cell_angle_gamma 90.000000
_cell_volume 3585.034962
_symmetry_space_group_name_H-M "C 2/M"
_symmetry_group_IT_number 12
_symmetry_cell_setting 'monoclinic'
loop_
_space_group_symop_operation_xyz
x,y,z
-x,y,-z
-x,-y,-z
x,-y,z
1/2+x,1/2+y,z
1/2-x,1/2+y,-z
1/2-x,1/2-y,-z
1/2+x,1/2-y,z
loop_
_atom_site_type_symbol
_atom_site_label
_atom_site_fract_x
_atom_site_fract_y
_atom_site_fract_z
Si Si1 0.631324 0.330137 0.062458
Si Si2 0.721153 0.666882 0.831426
Si Si3 0.014176 0.169195 0.916779
Si Si4 0.120912 0.838454 0.586159
Si Si5 0.959962 0.833459 0.198756
Si Si6 0.937811 0.838735 0.556636
Si Si7 0.986722 0.661151 0.676421
Si Si8 0.170186 0.338172 0.706179
O O1 0.650352 0.500000 0.068860
O O2 0.713810 0.240385 0.100763
O O3 0.573253 0.290221 0.092334
O O4 0.587212 0.276337 0.986901
O O5 0.741613 0.500000 0.830581
O O6 0.634689 0.688684 0.826377
O O7 0.724087 0.745099 0.771406
O O8 0.022596 0.232900 0.856704
O O9 0.023494 0.000000 0.917533
O O10 0.118299 0.786520 0.519089
O O11 0.177051 0.731967 0.646020
O O12 0.030798 0.838291 0.574872
O O13 0.156432 0.000000 0.604338
O O14 0.016441 0.748039 0.265862
O O15 0.984530 0.000000 0.213063
O O16 0.926206 0.734395 0.606019
O O17 0.912992 0.000000 0.564701
O O18 0.955610 0.500000 0.674774
O O19 0.077570 0.661403 0.689071
O O20 0.205079 0.500000 0.717707
#
# Coordination Sequence:
#
# PCOD8084873 Si02
#       8
#     8   8   8   8   8   8   8   8
#     4   9  17  32  52  69  87 112 145 183 220 261
#     4  10  19  29  43  65  92 119 146 179 220 264
#     4   8  16  32  52  69  85 113 149 181 216 261
#     4   8  13  21  33  50  74 106 144 181 216 257
#     4   9  17  30  46  63  87 119 151 179 214 265
#     4   8  13  21  33  49  73 109 146 176 213 262
#     4   9  16  24  35  55  82 110 143 183 222 255
#     4   9  16  25  37  54  79 112 147 181 218 258
#
# _framework density 17.851987000000001
#
# number of rings (size 3 to 8) (size 9 to 14) (size 15 to 20)
#    0.000    3.250    0.000    2.625    0.000    4.500 
#    0.000    5.000    0.000    0.000    0.000    0.000 
#    0.000    1.000    0.000    3.000    0.000    5.750 
#
# Total GULP energy -396638.105476 kJ/mol
# GULP energy per Si atom -12394.940796 kJ/mol
# Density = 1.781136 g / cm^3
# Si number density = 17.851987 Si / 1000 Ang^3
#
#
#
# Elastic Constant Matrix: (Units=GPa)
#
#
# Indices 1 2 3 4 5 6 
#
# 1 21.7329 20.6156 29.5510 0.0000 -14.2816 0.0000
# 2 20.6156 95.9900 56.6966 0.0000 -18.4449 0.0000
# 3 29.5510 56.6966 124.4585 0.0000 -39.7603 0.0000
# 4 0.0000 0.0000 0.0000 32.9608 0.0000 2.7178
# 5 -14.2816 -18.4449 -39.7603 0.0000 17.6943 0.0000
# 6 0.0000 0.0000 0.0000 2.7178 0.0000 9.0004
#
#
#
# Elastic Compliance Matrix: (Units=1/GPa)
#
#
# Indices 1 2 3 4 5 6 
#
# 1 0.106876 -0.010410 0.012254 0.000000 0.102947 0.000000
# 2 -0.010410 0.015271 -0.007385 0.000000 -0.009078 0.000000
# 3 0.012254 -0.007385 0.032572 0.000000 0.075384 0.000000
# 4 0.000000 0.000000 0.000000 0.031114 0.000000 -0.009395
# 5 0.102947 -0.009078 0.075384 0.000000 0.299538 0.000000
# 6 0.000000 0.000000 0.000000 -0.009395 0.000000 0.113943
#
#
# Mechanical properties :
#
#
# Convention : Reuss Voigt Hill
#
# Bulk Modulus (GPa) = 6.96197 50.65643 28.80920
# Shear Modulus (GPa) = 7.59561 20.95231 14.27396
#
# Velocity S-wave (km/s) = 2.06495 3.42960 2.83074
# Velocity P-wave (km/s) = 3.09736 6.64231 5.18237
#
# Compressibility (1/GPa) = 0.14363749
#
# Stress axis : x y z
#
# Youngs Moduli (GPa) = 9.35664 65.48318 30.70083
#
# Poissons Ratio (x) = 0.68165 -0.37620
# Poissons Ratio (y) = 0.09740 0.22673
# Poissons Ratio (z) = -0.11465 0.48361
#
# Static dielectric constant tensor:
#      x y z
#    x 2.809410 0.000000 -0.281540 
#    y 0.000000 3.308090 0.000000 
#    z -0.281540 0.000000 3.692320 
# 
# 
# High freq. dielectric constant tensor:
#      x y z
#    x 1.626140 0.000000 -0.012470 
#    y 0.000000 1.680900 0.000000 
#    z -0.012470 0.000000 1.706120 
# 
# From -- ./inp_files/345600.got.cif
#   From: 2010.06.25/outbox.cif.g09.slc.cpg/sg12_173_cif.got.tgz:345600.got - 2010.06.28 00:19:55.
