data_PCOD8084419
_publ_section_title
;
Structure prediction by ZEFSAII (Michael W. Deem and Ramdas Pophale) SiO2 
 PCOD8084419
Probable space group: C 2/M
;
_chemical_formula_sum "Si O2"
_cell_formula_units_Z 40
_cell_length_a 9.983880
_cell_length_b 23.640089
_cell_length_c 10.939099
_cell_angle_alpha 90.000000
_cell_angle_beta 39.236694
_cell_angle_gamma 90.000000
_cell_volume 1633.082149
_symmetry_space_group_name_H-M "C 2/M"
_symmetry_group_IT_number 12
_symmetry_cell_setting 'monoclinic'
loop_
_space_group_symop_operation_xyz
x,y,z
-x,y,-z
-x,-y,-z
x,-y,z
1/2+x,1/2+y,z
1/2-x,1/2+y,-z
1/2-x,1/2-y,-z
1/2+x,1/2-y,z
loop_
_atom_site_type_symbol
_atom_site_label
_atom_site_fract_x
_atom_site_fract_y
_atom_site_fract_z
Si Si1 0.551798 0.683060 0.241540
Si Si2 0.421126 0.194633 0.803369
Si Si3 0.761766 0.620302 0.714153
Si Si4 0.687391 0.119641 0.767256
Si Si5 0.836606 0.500000 0.727819
Si Si6 0.097053 0.500000 0.795525
O O1 0.468158 0.747078 0.322715
O O2 0.401727 0.642336 0.270190
O O3 0.599313 0.648042 0.330942
O O4 0.781864 0.699315 0.023511
O O5 0.258004 0.166603 0.823599
O O6 0.620818 0.154451 0.693016
O O7 0.697131 0.557573 0.809334
O O8 0.000000 0.618407 0.500000
O O9 0.739626 0.056271 0.683547
O O10 0.500000 0.116641 0.000000
O O11 0.000000 0.500000 0.500000
O O12 0.931623 0.500000 0.798294
O O13 0.000000 0.500000 0.000000
#
# Coordination Sequence:
#
# PCOD8084419 Si02
#       6
#     8   8   8   8   4   4
#     4  10  21  36  60  92 117 155 205 261 313 370
#     4  10  19  38  61  85 121 156 198 259 317 372
#     4  11  23  39  60  85 125 167 210 253 312 377
#     4   9  18  32  56  83 115 148 195 252 311 360
#     4  10  22  41  63  84 127 176 210 256 320 377
#     4  10  18  35  62  89 118 157 205 265 319 364
#
# _framework density 24.493562000000001
#
# number of rings (size 3 to 8) (size 9 to 14) (size 15 to 20)
#    0.000    2.000    2.000    1.800    0.000    4.800 
#    0.000    4.000    0.000    2.400    0.000    0.000 
#    0.000    0.000    0.000    0.000    0.000    0.000 
#
# Total GULP energy -247779.577169 kJ/mol
# GULP energy per Si atom -12388.978858 kJ/mol
# Density = 2.443781 g / cm^3
# Si number density = 24.493562 Si / 1000 Ang^3
#
#
#
# Elastic Constant Matrix: (Units=GPa)
#
#
# Indices 1 2 3 4 5 6 
#
# 1 180.7963 104.6516 8.4379 0.0000 -5.5056 0.0001
# 2 104.6516 285.3575 0.1099 0.0000 -2.7910 0.0000
# 3 8.4379 0.1099 27.8509 -0.0001 2.8809 0.0001
# 4 0.0000 0.0000 -0.0001********** 0.000018399.6317
# 5 -5.5056 -2.7910 2.8809 0.0000 29.5509 -0.0001
# 6 0.0001 0.0000 0.000118399.6317 -0.0001**********
#
#
#
# Elastic Compliance Matrix: (Units=1/GPa)
#
#
# Indices 1 2 3 4 5 6 
#
# 1 0.007199 -0.002626 -0.002307 0.000000 0.001318 0.000000
# 2 -0.002626 0.004466 0.000793 0.000000 -0.000145 0.000000
# 3 -0.002307 0.000793 0.037011 0.000000 -0.003963 0.000000
# 4 0.000000 0.000000 0.000000 0.031992 0.000000 0.017945
# 5 0.001318 -0.000145 -0.003963 0.000000 0.034458 0.000000
# 6 0.000000 0.000000 0.000000 0.017945 0.000000 0.010035
#
#
# Mechanical properties :
#
#
# Convention : Reuss Voigt Hill
#
# Bulk Modulus (GPa) = 24.75526 80.04484 52.40005
# Shear Modulus (GPa) = 34.03496 -8587.20925 -4276.58714
#
# Velocity S-wave (km/s) = 3.73171 -59.27492 -41.83055
# Velocity P-wave (km/s) = 5.35689 68.20511 48.07931
#
# Compressibility (1/GPa) = 0.04039545
#
# Stress axis : x y z
#
# Youngs Moduli (GPa) = 138.90475 223.92054 27.01878
#
# Poissons Ratio (x) = 0.58811 0.06233
# Poissons Ratio (y) = 0.36482 -0.02143
# Poissons Ratio (z) = 0.32047 -0.17759
#
# Static dielectric constant tensor:
#      x y z
#    x 4.550680 0.000000 0.270570 
#    y 0.000000 5.344410 0.000000 
#    z 0.270570 0.000000 3.960240 
# 
# 
# High freq. dielectric constant tensor:
#      x y z
#    x 1.973320 0.000000 0.011550 
#    y 0.000000 2.001220 0.000000 
#    z 0.011550 0.000000 1.946000 
# 
# From -- ./inp_files/79778.got.cif
#   From: 2010.06.25/outbox.cif.g09.slc.cpg/sg12_40_cif.got.tgz:79778.got - 2010.06.28 00:19:55.
