data_PCOD8084334
_publ_section_title
;
Structure prediction by ZEFSAII (Michael W. Deem and Ramdas Pophale) SiO2 
 PCOD8084334
Probable space group: C 2/M
;
_chemical_formula_sum "Si O2"
_cell_formula_units_Z 64
_cell_length_a 14.530063
_cell_length_b 8.874399
_cell_length_c 25.892279
_cell_angle_alpha 90.000000
_cell_angle_beta 90.207238
_cell_angle_gamma 90.000000
_cell_volume 3338.673005
_symmetry_space_group_name_H-M "C 2/M"
_symmetry_group_IT_number 12
_symmetry_cell_setting 'monoclinic'
loop_
_space_group_symop_operation_xyz
x,y,z
-x,y,-z
-x,-y,-z
x,-y,z
1/2+x,1/2+y,z
1/2-x,1/2+y,-z
1/2-x,1/2-y,-z
1/2+x,1/2-y,z
loop_
_atom_site_type_symbol
_atom_site_label
_atom_site_fract_x
_atom_site_fract_y
_atom_site_fract_z
Si Si1 0.991139 0.676994 0.287183
Si Si2 0.015930 0.177361 0.557847
Si Si3 0.133189 0.177652 0.358922
Si Si4 0.158607 0.828382 0.111252
Si Si5 0.157713 0.677612 0.629566
Si Si6 0.108636 0.170655 0.000889
Si Si7 0.501819 0.323490 0.821037
Si Si8 0.863371 0.327998 0.103071
O O1 0.004942 0.500000 0.288129
O O2 0.901956 0.724991 0.320514
O O3 0.084954 0.750511 0.308761
O O4 0.971868 0.731598 0.229573
O O5 0.109364 0.251556 0.579294
O O6 0.000000 0.237104 0.500000
O O7 0.926168 0.224017 0.590902
O O8 0.031254 0.000000 0.559036
O O9 0.237702 0.239208 0.364754
O O10 0.134358 0.000000 0.350430
O O11 0.141424 0.753636 0.055055
O O12 0.096241 0.762690 0.157486
O O13 0.263465 0.816075 0.129209
O O14 0.125455 0.000000 0.103706
O O15 0.159349 0.500000 0.621719
O O16 0.146849 0.000000 0.993574
O O17 0.146799 0.278391 0.956242
O O18 0.000000 0.170405 0.000000
O O19 0.502427 0.500000 0.807816
O O20 0.573917 0.288539 0.866254
O O21 0.900159 0.500000 0.106270
#
# Coordination Sequence:
#
# PCOD8084334 Si02
#       8
#     8   8   8   8   8   8   8   8
#     4  10  21  37  55  79 106 132 172 228 272 302
#     4   9  18  32  51  79 114 145 179 225 267 305
#     4   9  18  35  56  77 104 145 185 213 260 325
#     4   9  20  37  56  77 105 140 172 207 256 316
#     4   9  19  35  55  77 106 144 183 219 262 319
#     4  10  18  35  59  78 104 142 177 205 249 316
#     4  11  22  40  59  76 103 142 177 208 262 327
#     4  11  22  36  55  82 109 133 170 218 262 302
#
# _framework density 19.169293
#
# number of rings (size 3 to 8) (size 9 to 14) (size 15 to 20)
#    0.000    2.250    1.250    1.500    0.000    3.000 
#    0.000    8.125    0.000    0.000    0.000    0.000 
#    0.000    0.000    0.000    0.000    0.000    0.000 
#
# Total GULP energy -396794.982451 kJ/mol
# GULP energy per Si atom -12399.843202 kJ/mol
# Density = 1.912566 g / cm^3
# Si number density = 19.169293 Si / 1000 Ang^3
#
#
#
# Elastic Constant Matrix: (Units=GPa)
#
#
# Indices 1 2 3 4 5 6 
#
# 1 110.4612 23.9039 19.2854 0.0000 -6.4664 0.0000
# 2 23.9039 32.0285 15.8961 0.0000 -2.5602 0.0000
# 3 19.2854 15.8961 86.5515 0.0000 -10.1473 0.0000
# 4 0.0000 0.0000 0.0000 30.3442 0.0000 6.0252
# 5 -6.4664 -2.5602 -10.1473 0.0000 15.5073 0.0000
# 6 0.0000 0.0000 0.0000 6.0252 0.0000 25.7043
#
#
#
# Elastic Compliance Matrix: (Units=1/GPa)
#
#
# Indices 1 2 3 4 5 6 
#
# 1 0.010995 -0.007622 -0.000715 0.000000 0.002859 0.000000
# 2 -0.007622 0.039678 -0.005625 0.000000 -0.000309 0.000000
# 3 -0.000715 -0.005625 0.013650 0.000000 0.007705 0.000000
# 4 0.000000 0.000000 0.000000 0.034564 0.000000 -0.008102
# 5 0.002859 -0.000309 0.007705 0.000000 0.070669 0.000000
# 6 0.000000 0.000000 0.000000 -0.008102 0.000000 0.040803
#
#
# Mechanical properties :
#
#
# Convention : Reuss Voigt Hill
#
# Bulk Modulus (GPa) = 27.47413 38.57910 33.02661
# Shear Modulus (GPa) = 19.96684 25.64154 22.80419
#
# Velocity S-wave (km/s) = 3.23089 3.66134 3.45283
# Velocity P-wave (km/s) = 5.31805 6.16790 5.75868
#
# Compressibility (1/GPa) = 0.03639788
#
# Stress axis : x y z
#
# Youngs Moduli (GPa) = 90.95403 25.20276 73.26268
#
# Poissons Ratio (x) = 0.19211 0.05236
# Poissons Ratio (y) = 0.69329 0.41211
# Poissons Ratio (z) = 0.06501 0.14177
#
# Static dielectric constant tensor:
#      x y z
#    x 3.592840 0.000000 -0.112660 
#    y 0.000000 3.340910 0.000000 
#    z -0.112660 0.000000 3.550740 
# 
# 
# High freq. dielectric constant tensor:
#      x y z
#    x 1.751230 0.000000 -0.001730 
#    y 0.000000 1.729740 0.000000 
#    z -0.001730 0.000000 1.743380 
# 
# From -- ./inp_files/338810.got.cif
#   From: 2010.06.25/outbox.cif.g09.slc.cpg/sg12_170_cif.got.tgz:338810.got - 2010.06.28 00:19:55.
