data_PCOD8084938
_publ_section_title
;
Structure prediction by ZEFSAII (Michael W. Deem and Ramdas Pophale) SiO2 
 PCOD8084938
Probable space group: C 2/M
;
_chemical_formula_sum "Si O2"
_cell_formula_units_Z 56
_cell_length_a 33.414070
_cell_length_b 14.246757
_cell_length_c 9.751440
_cell_angle_alpha 90.000000
_cell_angle_beta 135.642213
_cell_angle_gamma 90.000000
_cell_volume 3245.460177
_symmetry_space_group_name_H-M "C 2/M"
_symmetry_group_IT_number 12
_symmetry_cell_setting 'monoclinic'
loop_
_space_group_symop_operation_xyz
x,y,z
-x,y,-z
-x,-y,-z
x,-y,z
1/2+x,1/2+y,z
1/2-x,1/2+y,-z
1/2-x,1/2-y,-z
1/2+x,1/2-y,z
loop_
_atom_site_type_symbol
_atom_site_label
_atom_site_fract_x
_atom_site_fract_y
_atom_site_fract_z
Si Si1 0.633923 0.209123 0.180396
Si Si2 0.799621 0.390459 0.430922
Si Si3 0.675944 0.889908 0.810349
Si Si4 0.478182 0.893621 0.093882
Si Si5 0.049704 0.392773 0.528217
Si Si6 0.808267 0.106445 0.645286
Si Si7 0.279656 0.892429 0.795844
O O1 0.650080 0.161955 0.364731
O O2 0.639081 0.322243 0.206247
O O3 0.674728 0.175417 0.159758
O O4 0.570400 0.180061 0.981279
O O5 0.813810 0.500000 0.472302
O O6 0.798864 0.351478 0.272336
O O7 0.739149 0.369706 0.355406
O O8 0.613127 0.846116 0.694446
O O9 0.666682 0.000000 0.768068
O O10 0.721453 0.868914 0.043923
O O11 0.531634 0.884800 0.326086
O O12 0.453556 0.000000 0.034615
O O13 0.500000 0.863526 0.000000
O O14 0.054572 0.500000 0.591304
O O15 0.000000 0.343634 0.500000
O O16 0.781652 0.122879 0.427552
O O17 0.830844 0.000000 0.716649
O O18 0.299282 0.000000 0.819600
#
# Coordination Sequence:
#
# PCOD8084938 Si02
#       7
#     8   8   8   8   8   8   8
#     4  11  18  29  46  64  88 120 153 184 221 262
#     4   9  16  27  44  66  91 117 145 178 220 269
#     4   9  16  26  42  66  97 126 145 170 214 267
#     4  10  19  29  44  68  94 116 140 172 214 266
#     4   9  16  25  37  58  91 124 147 167 199 252
#     4   9  19  33  46  61  84 117 156 194 226 258
#     4   9  16  27  45  69  94 120 148 175 214 269
#
# _framework density 17.254871999999999
#
# number of rings (size 3 to 8) (size 9 to 14) (size 15 to 20)
#    0.000    2.571    0.000    5.571    0.000    4.571 
#    0.000    2.857    0.000    0.429    0.000    0.000 
#    0.000    5.143    0.000    0.000    0.000    0.000 
#
# Total GULP energy -347025.974086 kJ/mol
# GULP energy per Si atom -12393.784789 kJ/mol
# Density = 1.721560 g / cm^3
# Si number density = 17.254872 Si / 1000 Ang^3
#
#
#
# Elastic Constant Matrix: (Units=GPa)
#
#
# Indices 1 2 3 4 5 6 
#
# 1 43.6238 11.2666 20.4091 0.0000 -16.5636 0.0000
# 2 11.2666 51.7679 17.9841 0.0000 10.1315 0.0000
# 3 20.4091 17.9841 52.2828 0.0000 -13.2127 0.0000
# 4 0.0000 0.0000 0.0000 14.4746 0.0000 1.4218
# 5 -16.5636 10.1315 -13.2127 0.0000 34.3934 0.0000
# 6 0.0000 0.0000 0.0000 1.4218 0.0000 2.2397
#
#
#
# Elastic Compliance Matrix: (Units=1/GPa)
#
#
# Indices 1 2 3 4 5 6 
#
# 1 0.034406 -0.008580 -0.006261 0.000000 0.016692 0.000000
# 2 -0.008580 0.028016 -0.010430 0.000000 -0.016391 0.000000
# 3 -0.006261 -0.010430 0.027880 0.000000 0.010767 0.000000
# 4 0.000000 0.000000 0.000000 0.073681 0.000000 -0.046775
# 5 0.016692 -0.016391 0.010767 0.000000 0.046079 0.000000
# 6 0.000000 0.000000 0.000000 -0.046775 0.000000 0.476192
#
#
# Mechanical properties :
#
#
# Convention : Reuss Voigt Hill
#
# Bulk Modulus (GPa) = 25.15116 27.44379 26.29748
# Shear Modulus (GPa) = 6.66624 16.75585 11.71104
#
# Velocity S-wave (km/s) = 1.96768 3.11960 2.60803
# Velocity P-wave (km/s) = 4.44638 5.37730 4.93384
#
# Compressibility (1/GPa) = 0.03975959
#
# Stress axis : x y z
#
# Youngs Moduli (GPa) = 29.06458 35.69445 35.86841
#
# Poissons Ratio (x) = 0.30625 0.22458
# Poissons Ratio (y) = 0.24936 0.37411
# Poissons Ratio (z) = 0.18198 0.37229
#
# Static dielectric constant tensor:
#      x y z
#    x 3.231980 0.000000 -0.244690 
#    y 0.000000 2.895850 0.000000 
#    z -0.244690 0.000000 3.239310 
# 
# 
# High freq. dielectric constant tensor:
#      x y z
#    x 1.651030 0.000000 -0.024410 
#    y 0.000000 1.618440 0.000000 
#    z -0.024410 0.000000 1.662140 
# 
# From -- ./inp_files/96245.got.cif
#   From: 2010.06.25/outbox.cif.g09.slc.cpg/sg12_49_cif.got.tgz:96245.got - 2010.06.28 00:19:55.
