data_PCOD8084640
_publ_section_title
;
Structure prediction by ZEFSAII (Michael W. Deem and Ramdas Pophale) SiO2 
 PCOD8084640
Probable space group: C 2/M
;
_chemical_formula_sum "Si O2"
_cell_formula_units_Z 32
_cell_length_a 19.362823
_cell_length_b 12.565450
_cell_length_c 10.579457
_cell_angle_alpha 90.000000
_cell_angle_beta 139.465939
_cell_angle_gamma 90.000000
_cell_volume 1672.848538
_symmetry_space_group_name_H-M "C 2/M"
_symmetry_group_IT_number 12
_symmetry_cell_setting 'monoclinic'
loop_
_space_group_symop_operation_xyz
x,y,z
-x,y,-z
-x,-y,-z
x,-y,z
1/2+x,1/2+y,z
1/2-x,1/2+y,-z
1/2-x,1/2-y,-z
1/2+x,1/2-y,z
loop_
_atom_site_type_symbol
_atom_site_label
_atom_site_fract_x
_atom_site_fract_y
_atom_site_fract_z
Si Si1 0.457435 0.500000 0.799128
Si Si2 0.020978 0.377496 0.881974
Si Si3 0.352637 0.713397 0.570354
Si Si4 0.759581 0.881906 0.204126
Si Si5 0.590315 0.500000 0.735023
O O1 0.389099 0.605398 0.687568
O O2 0.549639 0.500000 0.820808
O O3 0.500000 0.500000 0.000000
O O4 0.999255 0.500000 0.815155
O O5 0.942734 0.303241 0.693917
O O6 0.140479 0.341475 0.010513
O O7 0.000000 0.356961 0.000000
O O8 0.250000 0.750000 0.500000
O O9 0.321878 0.696970 0.382357
O O10 0.833161 0.896006 0.180649
O O11 0.749039 0.000000 0.254943
O O12 0.500000 0.500000 0.500000
#
# Coordination Sequence:
#
# PCOD8084640 Si02
#       5
#     4   8   8   8   4
#     4  12  26  42  63  96 128 153 212 272 316 361
#     4  10  20  34  56  89 129 165 214 251 305 377
#     4  12  22  35  62  94 129 163 205 264 312 362
#     4   9  19  38  64  87 117 170 213 247 304 379
#     4  10  18  42  70  85 121 172 216 255 304 390
#
# _framework density 19.129048000000001
#
# number of rings (size 3 to 8) (size 9 to 14) (size 15 to 20)
#    0.750    0.750    6.250    0.750    1.750    0.000 
#    0.000    1.250    5.500    0.000    0.000    5.250 
#    0.000    0.000    0.000    0.000    0.000    0.000 
#
# Total GULP energy -198275.187055 kJ/mol
# GULP energy per Si atom -12392.199191 kJ/mol
# Density = 1.908551 g / cm^3
# Si number density = 19.129048 Si / 1000 Ang^3
#
#
#
# Elastic Constant Matrix: (Units=GPa)
#
#
# Indices 1 2 3 4 5 6 
#
# 1 156.1021 38.7380 67.1454 0.0000 15.3963 0.0000
# 2 38.7380 107.1411 67.7231 0.0000 11.8398 0.0000
# 3 67.1454 67.7231 124.5263 0.0000 24.5902 0.0000
# 4 0.0000 0.0000 0.0000 34.0479 0.0000 12.9437
# 5 15.3963 11.8398 24.5902 0.0000 35.2083 0.0000
# 6 0.0000 0.0000 0.0000 12.9437 0.0000 21.2822
#
#
#
# Elastic Compliance Matrix: (Units=1/GPa)
#
#
# Indices 1 2 3 4 5 6 
#
# 1 0.008356 -0.000277 -0.004236 0.000000 -0.000602 0.000000
# 2 -0.000277 0.014248 -0.007745 0.000000 0.000739 0.000000
# 3 -0.004236 -0.007745 0.015830 0.000000 -0.006599 0.000000
# 4 0.000000 0.000000 0.000000 0.038203 0.000000 -0.023235
# 5 -0.000602 0.000739 -0.006599 0.000000 0.033026 0.000000
# 6 0.000000 0.000000 0.000000 -0.023235 0.000000 0.061119
#
#
# Mechanical properties :
#
#
# Convention : Reuss Voigt Hill
#
# Bulk Modulus (GPa) = 71.85408 81.66470 76.75939
# Shear Modulus (GPa) = 25.00776 32.38521 28.69648
#
# Velocity S-wave (km/s) = 3.61961 4.11905 3.87738
# Velocity P-wave (km/s) = 7.42382 8.08742 7.76271
#
# Compressibility (1/GPa) = 0.01391709
#
# Stress axis : x y z
#
# Youngs Moduli (GPa) = 119.66912 70.18741 63.17202
#
# Poissons Ratio (x) = 0.01945 0.26761
# Poissons Ratio (y) = 0.03316 0.48927
# Poissons Ratio (z) = 0.50694 0.54360
#
# Static dielectric constant tensor:
#      x y z
#    x 3.512310 0.000000 0.385680 
#    y 0.000000 3.502800 0.000000 
#    z 0.385680 0.000000 3.478820 
# 
# 
# High freq. dielectric constant tensor:
#      x y z
#    x 1.737410 0.000000 0.031840 
#    y 0.000000 1.736440 0.000000 
#    z 0.031840 0.000000 1.736970 
# 
# From -- ./inp_files/164493.got.cif
#   From: 2010.06.25/outbox.cif.g09.slc.cpg/sg12_83_cif.got.tgz:164493.got - 2010.06.28 00:19:55.
