data_PCOD8084933
_publ_section_title
;
Structure prediction by ZEFSAII (Michael W. Deem and Ramdas Pophale) SiO2 
 PCOD8084933
Probable space group: C 2/M
;
_chemical_formula_sum "Si O2"
_cell_formula_units_Z 64
_cell_length_a 22.230131
_cell_length_b 8.962205
_cell_length_c 22.791563
_cell_angle_alpha 90.000000
_cell_angle_beta 125.027354
_cell_angle_gamma 90.000000
_cell_volume 3718.350027
_symmetry_space_group_name_H-M "C 2/M"
_symmetry_group_IT_number 12
_symmetry_cell_setting 'monoclinic'
loop_
_space_group_symop_operation_xyz
x,y,z
-x,y,-z
-x,-y,-z
x,-y,z
1/2+x,1/2+y,z
1/2-x,1/2+y,-z
1/2-x,1/2-y,-z
1/2+x,1/2-y,z
loop_
_atom_site_type_symbol
_atom_site_label
_atom_site_fract_x
_atom_site_fract_y
_atom_site_fract_z
Si Si1 0.903135 0.828962 0.889754
Si Si2 0.429371 0.671627 0.037573
Si Si3 0.835756 0.332568 0.377396
Si Si4 0.852588 0.174276 0.204310
Si Si5 0.938650 0.831697 0.515676
Si Si6 0.676764 0.823633 0.934936
Si Si7 0.542150 0.831603 0.654135
Si Si8 0.233683 0.672634 0.236437
O O1 0.848348 0.724754 0.823274
O O2 0.983680 0.804235 0.908338
O O3 0.878446 0.000000 0.868727
O O4 0.901911 0.784687 0.957417
O O5 0.409016 0.500000 0.039885
O O6 0.391412 0.780464 0.062337
O O7 0.816392 0.500000 0.386048
O O8 0.863953 0.243084 0.450082
O O9 0.898714 0.331735 0.364161
O O10 0.762909 0.257144 0.310371
O O11 0.838012 0.267272 0.138280
O O12 0.928023 0.232868 0.275348
O O13 0.784539 0.206333 0.209005
O O14 0.861034 0.000000 0.194508
O O15 0.000000 0.829992 0.500000
O O16 0.966967 0.741010 0.588205
O O17 0.920895 0.000000 0.525132
O O18 0.686774 0.000000 0.940007
O O19 0.750000 0.750000 0.000000
O O20 0.526244 0.000000 0.666643
O O21 0.233462 0.500000 0.252052
#
# Coordination Sequence:
#
# PCOD8084933 Si02
#       8
#     8   8   8   8   8   8   8   8
#     4   9  18  33  53  72  92 120 152 188 232 279
#     4   9  19  36  54  72  93 119 153 191 231 277
#     4   9  16  25  38  57  84 118 154 190 228 273
#     4  10  20  33  47  66  93 125 159 195 234 276
#     4   9  15  23  36  55  82 116 152 189 228 271
#     4  12  24  36  51  71  95 124 156 192 233 276
#     4   9  16  26  40  59  84 117 155 191 228 273
#     4  10  19  29  44  67  94 123 156 193 233 276
#
# _framework density 17.211936000000001
#
# number of rings (size 3 to 8) (size 9 to 14) (size 15 to 20)
#    0.000    2.375    0.000    4.500    0.000    9.000 
#    0.000    1.250    0.000    0.000    0.000    0.000 
#    0.000    1.000    0.000    3.750    0.000    6.125 
#
# Total GULP energy -396837.682357 kJ/mol
# GULP energy per Si atom -12401.177574 kJ/mol
# Density = 1.717276 g / cm^3
# Si number density = 17.211936 Si / 1000 Ang^3
#
#
#
# Elastic Constant Matrix: (Units=GPa)
#
#
# Indices 1 2 3 4 5 6 
#
# 1 39.7267 35.2507 33.0517 0.0000 8.8250 0.0000
# 2 35.2507 131.5572 63.6379 0.0000 10.5297 0.0000
# 3 33.0517 63.6379 128.2330 0.0000 24.8931 0.0000
# 4 0.0000 0.0000 0.0000 37.6322 0.0000 4.7611
# 5 8.8250 10.5297 24.8931 0.0000 18.9944 0.0000
# 6 0.0000 0.0000 0.0000 4.7611 0.0000 20.9341
#
#
#
# Elastic Compliance Matrix: (Units=1/GPa)
#
#
# Indices 1 2 3 4 5 6 
#
# 1 0.036876 -0.007083 -0.004595 0.000000 -0.007185 0.000000
# 2 -0.007083 0.011387 -0.004344 0.000000 0.002671 0.000000
# 3 -0.004595 -0.004344 0.013756 0.000000 -0.013485 0.000000
# 4 0.000000 0.000000 0.000000 0.027360 0.000000 -0.006223
# 5 -0.007185 0.002671 -0.013485 0.000000 0.072177 0.000000
# 6 0.000000 0.000000 0.000000 -0.006223 0.000000 0.049184
#
#
# Mechanical properties :
#
#
# Convention : Reuss Voigt Hill
#
# Bulk Modulus (GPa) = 33.36090 62.59970 47.98030
# Shear Modulus (GPa) = 19.78043 26.68393 23.23218
#
# Velocity S-wave (km/s) = 3.39370 3.94168 3.67791
# Velocity P-wave (km/s) = 5.89752 7.56073 6.78032
#
# Compressibility (1/GPa) = 0.02997521
#
# Stress axis : x y z
#
# Youngs Moduli (GPa) = 27.11795 87.82297 72.69554
#
# Poissons Ratio (x) = 0.62207 0.33402
# Poissons Ratio (y) = 0.19208 0.31576
# Poissons Ratio (z) = 0.12460 0.38147
#
# Static dielectric constant tensor:
#      x y z
#    x 2.762630 0.000000 0.159040 
#    y 0.000000 3.365160 0.000000 
#    z 0.159040 0.000000 3.422400 
# 
# 
# High freq. dielectric constant tensor:
#      x y z
#    x 1.604850 0.000000 0.020810 
#    y 0.000000 1.679560 0.000000 
#    z 0.020810 0.000000 1.674200 
# 
# From -- ./inp_files/320132.got.cif
#   From: 2010.06.25/outbox.cif.g09.slc.cpg/sg12_161_cif.got.tgz:320132.got - 2010.06.28 00:19:55.
