data_PCOD8084196
_publ_section_title
;
Structure prediction by ZEFSAII (Michael W. Deem and Ramdas Pophale) SiO2 
 PCOD8084196
Probable space group: C 2/M
;
_chemical_formula_sum "Si O2"
_cell_formula_units_Z 44
_cell_length_a 26.225532
_cell_length_b 14.626747
_cell_length_c 11.464278
_cell_angle_alpha 90.000000
_cell_angle_beta 153.171499
_cell_angle_gamma 90.000000
_cell_volume 1984.745280
_symmetry_space_group_name_H-M "C 2/M"
_symmetry_group_IT_number 12
_symmetry_cell_setting 'monoclinic'
loop_
_space_group_symop_operation_xyz
x,y,z
-x,y,-z
-x,-y,-z
x,-y,z
1/2+x,1/2+y,z
1/2-x,1/2+y,-z
1/2-x,1/2-y,-z
1/2+x,1/2-y,z
loop_
_atom_site_type_symbol
_atom_site_label
_atom_site_fract_x
_atom_site_fract_y
_atom_site_fract_z
Si Si1 0.663989 0.150890 0.785505
Si Si2 0.150327 0.394238 0.211767
Si Si3 0.457345 0.099452 0.244095
Si Si4 0.902581 0.897722 0.638859
Si Si5 0.386306 0.351281 0.341472
Si Si6 0.000000 0.751186 0.000000
O O1 0.591245 0.090969 0.546021
O O2 0.601379 0.165347 0.782689
O O3 0.664858 0.251914 0.732770
O O4 0.786697 0.104411 0.057413
O O5 0.132247 0.500000 0.217835
O O6 0.278339 0.377829 0.435842
O O7 0.064885 0.368869 0.931936
O O8 0.110114 0.316518 0.221178
O O9 0.400696 0.000000 0.144864
O O10 0.903075 0.899508 0.499469
O O11 0.941334 0.000000 0.756551
O O12 0.986064 0.819804 0.860356
O O13 0.500000 0.355706 0.500000
#
# Coordination Sequence:
#
# PCOD8084196 Si02
#       6
#     8   8   8   8   8   4
#     4  10  19  32  55  90 122 157 207 247 303 369
#     4  10  22  42  66  96 126 159 207 268 331 380
#     4  10  18  34  60  85 120 156 197 249 311 376
#     4  11  25  44  63  89 130 174 213 259 323 382
#     4  11  22  36  60  87 128 167 207 253 304 376
#     4  12  24  40  72  92 120 162 224 272 312 374
#
# _framework density 22.169091000000002
#
# number of rings (size 3 to 8) (size 9 to 14) (size 15 to 20)
#    0.000    1.455    3.636    3.273    0.000    1.091 
#    0.000    1.818    0.000    4.364    0.000    0.000 
#    0.000    0.000    0.000    0.000    0.000    0.000 
#
# Total GULP energy -272542.976550 kJ/mol
# GULP energy per Si atom -12388.317116 kJ/mol
# Density = 2.211863 g / cm^3
# Si number density = 22.169091 Si / 1000 Ang^3
#
#
#
# Elastic Constant Matrix: (Units=GPa)
#
#
# Indices 1 2 3 4 5 6 
#
# 1 55.1739 29.9625 14.2498 0.0000 14.6813 0.0000
# 2 29.9625 120.5343 18.7247 0.0000 1.5549 0.0000
# 3 14.2498 18.7247 97.3788 0.0000 11.5810 0.0000
# 4 0.0000 0.0000 0.0000 22.7319 0.0000 -3.3755
# 5 14.6813 1.5549 11.5810 0.0000 33.5369 0.0000
# 6 0.0000 0.0000 0.0000 -3.3755 0.0000 27.9866
#
#
#
# Elastic Compliance Matrix: (Units=1/GPa)
#
#
# Indices 1 2 3 4 5 6 
#
# 1 0.024167 -0.005683 -0.001269 0.000000 -0.009878 0.000000
# 2 -0.005683 0.009889 -0.001367 0.000000 0.002501 0.000000
# 3 -0.001269 -0.001367 0.011100 0.000000 -0.003214 0.000000
# 4 0.000000 0.000000 0.000000 0.044793 0.000000 0.005403
# 5 -0.009878 0.002501 -0.003214 0.000000 0.035136 0.000000
# 6 0.000000 0.000000 0.000000 0.005403 0.000000 0.036383
#
#
# Mechanical properties :
#
#
# Convention : Reuss Voigt Hill
#
# Bulk Modulus (GPa) = 35.06620 44.32900 39.69760
# Shear Modulus (GPa) = 26.65068 30.86108 28.75588
#
# Velocity S-wave (km/s) = 3.47097 3.73510 3.60546
# Velocity P-wave (km/s) = 5.64938 6.21616 5.93953
#
# Compressibility (1/GPa) = 0.02851749
#
# Stress axis : x y z
#
# Youngs Moduli (GPa) = 41.37925 101.12043 90.08960
#
# Poissons Ratio (x) = 0.57465 0.11432
# Poissons Ratio (y) = 0.23515 0.12320
# Poissons Ratio (z) = 0.05251 0.13828
#
# Static dielectric constant tensor:
#      x y z
#    x 3.598980 0.000000 -0.052310 
#    y 0.000000 4.086400 0.000000 
#    z -0.052310 0.000000 4.312790 
# 
# 
# High freq. dielectric constant tensor:
#      x y z
#    x 1.837660 0.000000 -0.000780 
#    y 0.000000 1.879490 0.000000 
#    z -0.000780 0.000000 1.877120 
# 
# From -- ./inp_files/183591.got.cif
#   From: 2010.06.25/outbox.cif.g09.slc.cpg/sg12_92_cif.got.tgz:183591.got - 2010.06.28 00:19:55.
