data_PCOD8084052
_publ_section_title
;
Structure prediction by ZEFSAII (Michael W. Deem and Ramdas Pophale) SiO2 
 PCOD8084052
Probable space group: C 2/M
;
_chemical_formula_sum "Si O2"
_cell_formula_units_Z 56
_cell_length_a 14.241126
_cell_length_b 24.820506
_cell_length_c 11.587261
_cell_angle_alpha 90.000000
_cell_angle_beta 38.105599
_cell_angle_gamma 90.000000
_cell_volume 2527.553077
_symmetry_space_group_name_H-M "C 2/M"
_symmetry_group_IT_number 12
_symmetry_cell_setting 'monoclinic'
loop_
_space_group_symop_operation_xyz
x,y,z
-x,y,-z
-x,-y,-z
x,-y,z
1/2+x,1/2+y,z
1/2-x,1/2+y,-z
1/2-x,1/2-y,-z
1/2+x,1/2-y,z
loop_
_atom_site_type_symbol
_atom_site_label
_atom_site_fract_x
_atom_site_fract_y
_atom_site_fract_z
Si Si1 0.178625 0.165002 0.331100
Si Si2 0.829205 0.439953 0.655584
Si Si3 0.333494 0.804283 0.945973
Si Si4 0.082377 0.132770 0.797919
Si Si5 0.215684 0.907826 0.000482
Si Si6 0.602127 0.754198 0.786523
Si Si7 0.822837 0.560845 0.148689
O O1 0.258278 0.169548 0.131125
O O2 0.239491 0.213990 0.351413
O O3 0.227440 0.103816 0.319805
O O4 0.000000 0.171500 0.500000
O O5 0.832254 0.500000 0.599268
O O6 0.734857 0.402499 0.658828
O O7 0.750627 0.445176 0.857378
O O8 0.000000 0.416941 0.500000
O O9 0.250000 0.750000 0.000000
O O10 0.303972 0.851359 0.881923
O O11 0.511068 0.790549 0.782523
O O12 0.129304 0.193581 0.714307
O O13 0.000000 0.134784 0.000000
O O14 0.966106 0.106250 0.817110
O O15 0.276818 0.935514 0.057675
O O16 0.500000 0.752630 0.000000
O O17 0.785221 0.500000 0.226595
O O18 0.000000 0.573755 0.000000
#
# Coordination Sequence:
#
# PCOD8084052 Si02
#       7
#     8   8   8   8   8   8   8
#     4  10  21  35  54  81 115 147 183 236 292 332
#     4  10  22  38  55  81 117 151 184 231 287 337
#     4  10  18  34  57  77 108 148 185 227 273 337
#     4   9  18  32  55  82 108 146 189 229 274 336
#     4  10  19  35  60  86 110 144 194 234 276 341
#     4   9  17  33  55  79 110 146 187 224 275 341
#     4  10  21  39  63  85 108 151 203 242 284 341
#
# _framework density 22.155816000000002
#
# number of rings (size 3 to 8) (size 9 to 14) (size 15 to 20)
#    0.000    2.286    1.429    2.571    2.000    4.000 
#    0.000    6.429    0.000    0.000    0.000    0.000 
#    0.000    0.000    0.000    0.000    0.000    0.000 
#
# Total GULP energy -346971.640466 kJ/mol
# GULP energy per Si atom -12391.844302 kJ/mol
# Density = 2.210539 g / cm^3
# Si number density = 22.155816 Si / 1000 Ang^3
#
#
#
# Elastic Constant Matrix: (Units=GPa)
#
#
# Indices 1 2 3 4 5 6 
#
# 1 91.4459 31.9738 38.2389 0.0001 -47.2188 0.0000
# 2 31.9738 139.8209 53.8179 0.0000 -41.1789 0.0000
# 3 38.2389 53.8179 91.9753 0.0003 -52.8653 0.0001
# 4 0.0001 0.0000 0.0003 21.8352 -0.0001 -21.9488
# 5 -47.2188 -41.1789 -52.8653 -0.0001 50.5992 0.0001
# 6 0.0000 0.0000 0.0001 -21.9488 0.0001 12.8070
#
#
#
# Elastic Compliance Matrix: (Units=1/GPa)
#
#
# Indices 1 2 3 4 5 6 
#
# 1 0.022762 0.000705 0.006666 0.000000 0.028780 0.000000
# 2 0.000705 0.009718 -0.002642 0.000000 0.005806 0.000000
# 3 0.006666 -0.002642 0.030006 0.000001 0.035420 0.000001
# 4 0.000000 0.000000 0.000001 -0.063368 0.000001 -0.108600
# 5 0.028780 0.005806 0.035420 0.000001 0.088352 0.000001
# 6 0.000000 0.000000 0.000001 -0.108600 0.000001 -0.108038
#
#
# Mechanical properties :
#
#
# Convention : Reuss Voigt Hill
#
# Bulk Modulus (GPa) = 13.89977 63.47814 38.68895
# Shear Modulus (GPa) = -827.08590 30.32905 -398.37842
#
# Velocity S-wave (km/s) = -19.34204 3.70388 -13.42378
# Velocity P-wave (km/s) = 22.19307 6.85599 14.92527
#
# Compressibility (1/GPa) = 0.07194366
#
# Stress axis : x y z
#
# Youngs Moduli (GPa) = 43.93246 102.90528 33.32698
#
# Poissons Ratio (x) = -0.07255 -0.22216
# Poissons Ratio (y) = -0.03097 0.08805
# Poissons Ratio (z) = -0.29286 0.27189
#
# Static dielectric constant tensor:
#      x y z
#    x 2.574820 0.000000 -0.311920 
#    y 0.000000 4.090820 0.000000 
#    z -0.311920 0.000000 3.541550 
# 
# 
# High freq. dielectric constant tensor:
#      x y z
#    x 1.864730 0.000000 -0.036940 
#    y 0.000000 1.892510 0.000000 
#    z -0.036940 0.000000 1.834510 
# 
# From -- ./inp_files/219082.got.cif
#   From: 2010.06.25/outbox.cif.g09.slc.cpg/sg12_110_cif.got.tgz:219082.got - 2010.06.28 00:19:55.
