data_PCOD8084077
_publ_section_title
;
Structure prediction by ZEFSAII (Michael W. Deem and Ramdas Pophale) SiO2 
 PCOD8084077
Probable space group: C 2/M
;
_chemical_formula_sum "Si O2"
_cell_formula_units_Z 48
_cell_length_a 22.090538
_cell_length_b 15.725218
_cell_length_c 19.515861
_cell_angle_alpha 90.000000
_cell_angle_beta 19.269221
_cell_angle_gamma 90.000000
_cell_volume 2237.248799
_symmetry_space_group_name_H-M "C 2/M"
_symmetry_group_IT_number 12
_symmetry_cell_setting 'monoclinic'
loop_
_space_group_symop_operation_xyz
x,y,z
-x,y,-z
-x,-y,-z
x,-y,z
1/2+x,1/2+y,z
1/2-x,1/2+y,-z
1/2-x,1/2-y,-z
1/2+x,1/2-y,z
loop_
_atom_site_type_symbol
_atom_site_label
_atom_site_fract_x
_atom_site_fract_y
_atom_site_fract_z
Si Si1 0.310372 0.091281 0.437630
Si Si2 0.699502 0.095399 0.958248
Si Si3 0.299590 0.596233 0.181073
Si Si4 0.007770 0.807991 0.277346
Si Si5 0.915552 0.765330 0.958439
Si Si6 0.194727 0.320609 0.423569
O O1 0.200025 0.162601 0.514780
O O2 0.276661 0.101547 0.554578
O O3 0.231684 0.000000 0.500107
O O4 0.523752 0.098877 0.194722
O O5 0.875640 0.114437 0.817084
O O6 0.720784 0.000000 0.902814
O O7 0.674099 0.171743 0.929307
O O8 0.236216 0.500000 0.229408
O O9 0.160663 0.638924 0.384999
O O10 0.500000 0.592940 0.000000
O O11 0.298711 0.656800 0.115264
O O12 0.981771 0.734397 0.362682
O O13 0.095594 0.773407 0.112821
O O14 0.118367 0.764740 0.774359
#
# Coordination Sequence:
#
# PCOD8084077 Si02
#       6
#     8   8   8   8   8   8
#     4  10  19  33  55  85 117 145 189 241 284 342
#     4  11  22  35  56  85 114 151 193 242 291 331
#     4   9  19  34  59  90 120 154 190 230 290 356
#     4  11  20  35  57  84 114 154 192 240 287 338
#     4  10  19  36  57  84 119 155 191 236 288 341
#     4  10  18  34  57  85 116 152 192 232 294 341
#
# _framework density 21.454923000000001
#
# number of rings (size 3 to 8) (size 9 to 14) (size 15 to 20)
#    0.000    1.833    3.333    2.500    0.000    4.667 
#    0.000    0.833    0.000    8.500    0.000    0.000 
#    0.000    0.000    0.000    0.000    0.000    0.000 
#
# Total GULP energy -297404.472177 kJ/mol
# GULP energy per Si atom -12391.853007 kJ/mol
# Density = 2.140609 g / cm^3
# Si number density = 21.454923 Si / 1000 Ang^3
#
#
#
# Elastic Constant Matrix: (Units=GPa)
#
#
# Indices 1 2 3 4 5 6 
#
# 1 57.7231 56.2100 26.9557 -0.0204 18.5973 0.0110
# 2 56.2100 200.0216 43.9066 -0.0442 18.9292 0.0232
# 3 26.9557 43.9066 65.0547 -0.0666 18.1918 0.0314
# 4 -0.0204 -0.0442 -0.0666 31.9547 0.0142 3.0667
# 5 18.5973 18.9292 18.1918 0.0142 29.6150 -0.0022
# 6 0.0110 0.0232 0.0314 3.0667 -0.0022 34.0496
#
#
#
# Elastic Compliance Matrix: (Units=1/GPa)
#
#
# Indices 1 2 3 4 5 6 
#
# 1 0.029160 -0.006057 -0.004777 0.000006 -0.011506 -0.000002
# 2 -0.006057 0.007190 -0.002561 0.000000 0.000781 -0.000001
# 3 -0.004777 -0.002561 0.021471 0.000044 -0.008552 -0.000021
# 4 0.000006 0.000000 0.000044 0.031567 -0.000046 -0.002843
# 5 -0.011506 0.000781 -0.008552 -0.000046 0.045746 0.000018
# 6 -0.000002 -0.000001 -0.000021 -0.002843 0.000018 0.029625
#
#
# Mechanical properties :
#
#
# Convention : Reuss Voigt Hill
#
# Bulk Modulus (GPa) = 32.22656 64.10491 48.16574
# Shear Modulus (GPa) = 24.76541 32.17232 28.46887
#
# Velocity S-wave (km/s) = 3.40118 3.87658 3.64664
# Velocity P-wave (km/s) = 5.52062 7.06972 6.34264
#
# Compressibility (1/GPa) = 0.03103030
#
# Stress axis : x y z
#
# Youngs Moduli (GPa) = 34.29332 139.08375 46.57348
#
# Poissons Ratio (x) = 0.84245 0.22249
# Poissons Ratio (y) = 0.20772 0.11929
# Poissons Ratio (z) = 0.16383 0.35624
#
# Static dielectric constant tensor:
#      x y z
#    x 3.451330 -0.000080 0.062420 
#    y -0.000080 4.427110 0.000170 
#    z 0.062420 0.000170 3.743250 
# 
# 
# High freq. dielectric constant tensor:
#      x y z
#    x 1.797960 0.000000 -0.011230 
#    y 0.000000 1.855290 0.000010 
#    z -0.011230 0.000010 1.836490 
# 
# From -- ./inp_files/325613.got.cif
#   From: 2010.06.25/outbox.cif.g09.slc.cpg/sg12_163_cif.got.tgz:325613.got - 2010.06.28 00:19:55.
