data_PCOD8084808
_publ_section_title
;
Structure prediction by ZEFSAII (Michael W. Deem and Ramdas Pophale) SiO2 
 PCOD8084808
Probable space group: C 2/M
;
_chemical_formula_sum "Si O2"
_cell_formula_units_Z 64
_cell_length_a 27.033040
_cell_length_b 8.949153
_cell_length_c 18.197578
_cell_angle_alpha 90.000000
_cell_angle_beta 110.761314
_cell_angle_gamma 90.000000
_cell_volume 4116.539797
_symmetry_space_group_name_H-M "C 2/M"
_symmetry_group_IT_number 12
_symmetry_cell_setting 'monoclinic'
loop_
_space_group_symop_operation_xyz
x,y,z
-x,y,-z
-x,-y,-z
x,-y,z
1/2+x,1/2+y,z
1/2-x,1/2+y,-z
1/2-x,1/2-y,-z
1/2+x,1/2-y,z
loop_
_atom_site_type_symbol
_atom_site_label
_atom_site_fract_x
_atom_site_fract_y
_atom_site_fract_z
Si Si1 0.634282 0.823436 0.259948
Si Si2 0.285887 0.334492 0.418385
Si Si3 0.739169 0.676850 0.259945
Si Si4 0.049190 0.171618 0.123425
Si Si5 0.327806 0.835006 0.567524
Si Si6 0.829857 0.673028 0.039739
Si Si7 0.070302 0.172033 0.967772
Si Si8 0.761569 0.173624 0.121176
O O1 0.680916 0.744438 0.239505
O O2 0.578110 0.776641 0.197348
O O3 0.635213 0.774870 0.346515
O O4 0.643441 0.000000 0.257938
O O5 0.303495 0.500000 0.402714
O O6 0.279928 0.230158 0.344164
O O7 0.330625 0.270213 0.497352
O O8 0.231208 0.342080 0.432608
O O9 0.734898 0.500000 0.260005
O O10 0.762220 0.729637 0.194884
O O11 0.986725 0.197817 0.099059
O O12 0.063585 0.000000 0.147104
O O13 0.068060 0.216135 0.052048
O O14 0.346091 0.000000 0.552633
O O15 0.828347 0.500000 0.061746
O O16 0.889193 0.720284 0.051846
O O17 0.810441 0.772105 0.097551
O O18 0.793314 0.703472 0.949838
O O19 0.087959 0.000000 0.968642
O O20 0.769028 0.000000 0.144207
#
# Coordination Sequence:
#
# PCOD8084808 Si02
#       8
#     8   8   8   8   8   8   8   8
#     4  10  19  29  42  62  88 116 147 182 218 255
#     4   9  16  26  40  58  81 110 144 177 210 251
#     4  11  20  29  43  62  87 117 147 179 215 256
#     4   9  18  31  46  64  86 114 149 182 215 257
#     4   8  15  26  38  55  81 112 143 174 210 253
#     4  10  20  32  47  66  86 112 145 180 219 260
#     4   9  18  32  47  63  86 116 146 180 220 258
#     4  10  20  33  47  64  87 113 144 181 217 256
#
# _framework density 15.547037
#
# number of rings (size 3 to 8) (size 9 to 14) (size 15 to 20)
#    0.000    2.500    0.000    4.875    0.000    8.000 
#    0.000    1.250    0.000    0.000    0.000    0.000 
#    0.000    1.000    0.000   10.500    0.000    6.000 
#
# Total GULP energy -396787.462735 kJ/mol
# GULP energy per Si atom -12399.608210 kJ/mol
# Density = 1.551165 g / cm^3
# Si number density = 15.547037 Si / 1000 Ang^3
#
#
#
# Elastic Constant Matrix: (Units=GPa)
#
#
# Indices 1 2 3 4 5 6 
#
# 1 58.6761 29.5299 32.4640 0.0000 1.1136 0.0000
# 2 29.5299 92.0075 49.1401 0.0000 1.9405 0.0000
# 3 32.4640 49.1401 102.5690 0.0000 10.7268 0.0000
# 4 0.0000 0.0000 0.0000 29.8423 0.0000 0.2369
# 5 1.1136 1.9405 10.7268 0.0000 16.9899 0.0000
# 6 0.0000 0.0000 0.0000 0.2369 0.0000 23.1711
#
#
#
# Elastic Compliance Matrix: (Units=1/GPa)
#
#
# Indices 1 2 3 4 5 6 
#
# 1 0.022037 -0.004392 -0.005109 0.000000 0.002283 0.000000
# 2 -0.004392 0.015620 -0.006357 0.000000 0.002517 0.000000
# 3 -0.005109 -0.006357 0.015312 0.000000 -0.008607 0.000000
# 4 0.000000 0.000000 0.000000 0.033512 0.000000 -0.000343
# 5 0.002283 0.002517 -0.008607 0.000000 0.063855 0.000000
# 6 0.000000 0.000000 0.000000 -0.000343 0.000000 0.043161
#
#
# Mechanical properties :
#
#
# Convention : Reuss Voigt Hill
#
# Bulk Modulus (GPa) = 47.05220 52.83561 49.94391
# Shear Modulus (GPa) = 21.52410 23.47523 22.49967
#
# Velocity S-wave (km/s) = 3.72486 3.89002 3.80833
# Velocity P-wave (km/s) = 6.98781 7.36441 7.17858
#
# Compressibility (1/GPa) = 0.02125299
#
# Stress axis : x y z
#
# Youngs Moduli (GPa) = 45.37896 64.01962 65.30716
#
# Poissons Ratio (x) = 0.28117 0.33368
# Poissons Ratio (y) = 0.19930 0.41514
# Poissons Ratio (z) = 0.23186 0.40695
#
# Static dielectric constant tensor:
#      x y z
#    x 2.589280 0.000000 0.095030 
#    y 0.000000 3.079470 0.000000 
#    z 0.095030 0.000000 3.083610 
# 
# 
# High freq. dielectric constant tensor:
#      x y z
#    x 1.547230 0.000000 0.006440 
#    y 0.000000 1.609630 0.000000 
#    z 0.006440 0.000000 1.596600 
# 
# From -- ./inp_files/287715.got.cif
#   From: 2010.06.25/outbox.cif.g09.slc.cpg/sg12_144_cif.got.tgz:287715.got - 2010.06.28 00:19:55.
