data_PCOD8084827
_publ_section_title
;
Structure prediction by ZEFSAII (Michael W. Deem and Ramdas Pophale) SiO2 
 PCOD8084827
Probable space group: C 2/M
;
_chemical_formula_sum "Si O2"
_cell_formula_units_Z 56
_cell_length_a 24.757353
_cell_length_b 9.220979
_cell_length_c 20.315544
_cell_angle_alpha 90.000000
_cell_angle_beta 132.368334
_cell_angle_gamma 90.000000
_cell_volume 3426.517739
_symmetry_space_group_name_H-M "C 2/M"
_symmetry_group_IT_number 12
_symmetry_cell_setting 'monoclinic'
loop_
_space_group_symop_operation_xyz
x,y,z
-x,y,-z
-x,-y,-z
x,-y,z
1/2+x,1/2+y,z
1/2-x,1/2+y,-z
1/2-x,1/2-y,-z
1/2+x,1/2-y,z
loop_
_atom_site_type_symbol
_atom_site_label
_atom_site_fract_x
_atom_site_fract_y
_atom_site_fract_z
Si Si1 0.616712 0.836049 0.613792
Si Si2 0.949606 0.831081 0.252955
Si Si3 0.839042 0.169837 0.910573
Si Si4 0.806835 0.829183 0.216893
Si Si5 0.533930 0.668417 0.882630
Si Si6 0.529054 0.837555 0.420966
Si Si7 0.064140 0.663853 0.105365
O O1 0.675290 0.727514 0.694534
O O2 0.596702 0.784718 0.522793
O O3 0.543629 0.832183 0.595950
O O4 0.648395 0.000000 0.639012
O O5 0.872080 0.787347 0.220868
O O6 0.949562 0.779065 0.177638
O O7 0.018191 0.760406 0.347573
O O8 0.962340 0.000000 0.269229
O O9 0.763587 0.246176 0.868668
O O10 0.868608 0.243409 0.867921
O O11 0.827248 0.000000 0.887897
O O12 0.893658 0.198318 0.015676
O O13 0.792011 0.000000 0.207365
O O14 0.512135 0.500000 0.868283
O O15 0.465314 0.760497 0.852668
O O16 0.544848 0.000000 0.409676
O O17 0.090067 0.500000 0.142274
O O18 0.000000 0.663567 0.000000
#
# Coordination Sequence:
#
# PCOD8084827 Si02
#       7
#     8   8   8   8   8   8   8
#     4   8  14  26  42  60  84 114 147 182 219 259
#     4   9  18  30  43  63  93 123 149 180 218 261
#     4  10  19  31  47  64  86 119 153 184 220 262
#     4  10  19  29  42  64  93 121 150 184 220 259
#     4   9  18  32  47  64  88 119 152 182 217 263
#     4   8  14  25  42  62  84 112 147 184 218 256
#     4   9  17  30  48  68  86 106 141 190 232 260
#
# _framework density 16.343122999999999
#
# number of rings (size 3 to 8) (size 9 to 14) (size 15 to 20)
#    0.000    3.000    0.000    2.143    0.000    4.571 
#    0.000    2.857    0.000    0.000    0.000    1.000 
#    0.000    0.000    0.000    0.000    0.000    0.000 
#
# Total GULP energy -347083.052326 kJ/mol
# GULP energy per Si atom -12395.823297 kJ/mol
# Density = 1.630593 g / cm^3
# Si number density = 16.343123 Si / 1000 Ang^3
#
#
#
# Elastic Constant Matrix: (Units=GPa)
#
#
# Indices 1 2 3 4 5 6 
#
# 1 72.2481 42.8661 44.5402 0.0000 -19.8064 0.0000
# 2 42.8661 81.1263 42.0163 0.0000 -15.1215 0.0000
# 3 44.5402 42.0163 78.8350 0.0000 -23.4065 0.0000
# 4 0.0000 0.0000 0.0000 29.5295 0.0000 1.3522
# 5 -19.8064 -15.1215 -23.4065 0.0000 11.2686 0.0000
# 6 0.0000 0.0000 0.0000 1.3522 0.0000 23.1709
#
#
#
# Elastic Compliance Matrix: (Units=1/GPa)
#
#
# Indices 1 2 3 4 5 6 
#
# 1 0.030245 -0.007994 -0.000597 0.000000 0.041195 0.000000
# 2 -0.007994 0.019622 -0.005989 0.000000 -0.000158 0.000000
# 3 -0.000597 -0.005989 0.035264 0.000000 0.064164 0.000000
# 4 0.000000 0.000000 0.000000 0.033955 0.000000 -0.001982
# 5 0.041195 -0.000158 0.064164 0.000000 0.294215 0.000000
# 6 0.000000 0.000000 0.000000 -0.001982 0.000000 0.043273
#
#
# Mechanical properties :
#
#
# Convention : Reuss Voigt Hill
#
# Bulk Modulus (GPa) = 17.86556 54.56164 36.21360
# Shear Modulus (GPa) = 9.91295 19.64623 14.77959
#
# Velocity S-wave (km/s) = 2.46550 3.47091 3.01047
# Velocity P-wave (km/s) = 4.36580 7.03708 5.85580
#
# Compressibility (1/GPa) = 0.05597361
#
# Stress axis : x y z
#
# Youngs Moduli (GPa) = 33.06319 50.96217 28.35745
#
# Poissons Ratio (x) = 0.40737 0.01692
# Poissons Ratio (y) = 0.26430 0.16982
# Poissons Ratio (z) = 0.01973 0.30520
#
# Static dielectric constant tensor:
#      x y z
#    x 2.898640 0.000000 -0.123220 
#    y 0.000000 3.192960 0.000000 
#    z -0.123220 0.000000 3.236890 
# 
# 
# High freq. dielectric constant tensor:
#      x y z
#    x 1.593200 0.000000 -0.007160 
#    y 0.000000 1.635520 0.000000 
#    z -0.007160 0.000000 1.618110 
# 
# From -- ./inp_files/291843.got.cif
#   From: 2010.06.25/outbox.cif.g09.slc.cpg/sg12_146_cif.got.tgz:291843.got - 2010.06.28 00:19:55.
