data_PCOD8084962
_publ_section_title
;
Structure prediction by ZEFSAII (Michael W. Deem and Ramdas Pophale) SiO2 
 PCOD8084962
Probable space group: C 2/M
;
_chemical_formula_sum "Si O2"
_cell_formula_units_Z 56
_cell_length_a 25.089083
_cell_length_b 10.023949
_cell_length_c 14.222351
_cell_angle_alpha 90.000000
_cell_angle_beta 116.492575
_cell_angle_gamma 90.000000
_cell_volume 3201.210764
_symmetry_space_group_name_H-M "C 2/M"
_symmetry_group_IT_number 12
_symmetry_cell_setting 'monoclinic'
loop_
_space_group_symop_operation_xyz
x,y,z
-x,y,-z
-x,-y,-z
x,-y,z
1/2+x,1/2+y,z
1/2-x,1/2+y,-z
1/2-x,1/2-y,-z
1/2+x,1/2-y,z
loop_
_atom_site_type_symbol
_atom_site_label
_atom_site_fract_x
_atom_site_fract_y
_atom_site_fract_z
Si Si1 0.868321 0.347713 0.686738
Si Si2 0.063967 0.744254 0.525456
Si Si3 0.220019 0.842929 0.899841
Si Si4 0.680300 0.854684 0.549404
Si Si5 0.408968 0.654142 0.253607
Si Si6 0.963598 0.847355 0.693487
Si Si7 0.760861 0.347705 0.725255
O O1 0.892301 0.500000 0.702125
O O2 0.823884 0.320019 0.564326
O O3 0.924094 0.247081 0.729320
O O4 0.829434 0.321285 0.749668
O O5 0.112815 0.634122 0.536803
O O6 0.088648 0.826218 0.632927
O O7 0.057027 0.843983 0.431499
O O8 0.000000 0.676761 0.500000
O O9 0.152371 0.787228 0.836227
O O10 0.255220 0.817560 0.830765
O O11 0.222649 0.000000 0.929723
O O12 0.250000 0.750000 0.000000
O O13 0.717188 0.743221 0.630824
O O14 0.710175 0.000000 0.587652
O O15 0.407123 0.500000 0.232028
O O16 0.468288 0.709231 0.248027
O O17 0.958335 0.000000 0.724664
O O18 0.742588 0.500000 0.688712
#
# Coordination Sequence:
#
# PCOD8084962 Si02
#       7
#     8   8   8   8   8   8   8
#     4   9  19  33  47  71 106 139 168 198 241 298
#     4   9  16  27  44  70 104 138 169 198 239 297
#     4  10  21  37  56  76  98 126 167 217 261 300
#     4  10  19  29  44  72 106 135 168 207 243 287
#     4   9  16  30  50  73 100 130 167 208 251 296
#     4   9  17  28  49  77 102 132 168 204 240 293
#     4  10  20  35  54  70  95 137 173 204 249 302
#
# _framework density 17.493382
#
# number of rings (size 3 to 8) (size 9 to 14) (size 15 to 20)
#    0.000    2.571    1.429    0.857    0.000    5.429 
#    0.000    2.857    0.000    0.857    0.000    6.000 
#    0.000    0.000    0.000    0.000    0.000    0.000 
#
# Total GULP energy -346985.050452 kJ/mol
# GULP energy per Si atom -12392.323230 kJ/mol
# Density = 1.745357 g / cm^3
# Si number density = 17.493382 Si / 1000 Ang^3
#
#
#
# Elastic Constant Matrix: (Units=GPa)
#
#
# Indices 1 2 3 4 5 6 
#
# 1 129.0764 61.3563 62.1559 0.0000 2.8241 0.0000
# 2 61.3563 76.5154 38.9955 0.0000 -0.5532 0.0000
# 3 62.1559 38.9955 72.1969 0.0000 8.8429 0.0000
# 4 0.0000 0.0000 0.0000 24.0324 0.0000 3.0765
# 5 2.8241 -0.5532 8.8429 0.0000 20.4592 0.0000
# 6 0.0000 0.0000 0.0000 3.0765 0.0000 25.3781
#
#
#
# Elastic Compliance Matrix: (Units=1/GPa)
#
#
# Indices 1 2 3 4 5 6 
#
# 1 0.016285 -0.007984 -0.009932 0.000000 0.001829 0.000000
# 2 -0.007984 0.022437 -0.005760 0.000000 0.004198 0.000000
# 3 -0.009932 -0.005760 0.026782 0.000000 -0.010360 0.000000
# 4 0.000000 0.000000 0.000000 0.042266 0.000000 -0.005124
# 5 0.001829 0.004198 -0.010360 0.000000 0.053217 0.000000
# 6 0.000000 0.000000 0.000000 -0.005124 0.000000 0.040025
#
#
# Mechanical properties :
#
#
# Convention : Reuss Voigt Hill
#
# Bulk Modulus (GPa) = 55.08761 66.97824 61.03292
# Shear Modulus (GPa) = 19.65306 21.65935 20.65621
#
# Velocity S-wave (km/s) = 3.35544 3.52255 3.44001
# Velocity P-wave (km/s) = 6.82428 7.41049 7.12342
#
# Compressibility (1/GPa) = 0.01815290
#
# Stress axis : x y z
#
# Youngs Moduli (GPa) = 61.40613 44.56933 37.33916
#
# Poissons Ratio (x) = 0.35583 0.37085
# Poissons Ratio (y) = 0.49025 0.21506
# Poissons Ratio (z) = 0.60988 0.25670
#
# Static dielectric constant tensor:
#      x y z
#    x 3.767610 0.000000 0.103680 
#    y 0.000000 3.054930 0.000000 
#    z 0.103680 0.000000 2.956490 
# 
# 
# High freq. dielectric constant tensor:
#      x y z
#    x 1.693130 0.000000 0.001750 
#    y 0.000000 1.662820 0.000000 
#    z 0.001750 0.000000 1.629800 
# 
# From -- ./inp_files/244314.got.cif
#   From: 2010.06.25/outbox.cif.g09.slc.cpg/sg12_123_cif.got.tgz:244314.got - 2010.06.28 00:19:55.
