data_PCOD8084347
_publ_section_title
;
Structure prediction by ZEFSAII (Michael W. Deem and Ramdas Pophale) SiO2 
 PCOD8084347
Probable space group: C 2/M
;
_chemical_formula_sum "Si O2"
_cell_formula_units_Z 64
_cell_length_a 26.080578
_cell_length_b 22.645450
_cell_length_c 14.872849
_cell_angle_alpha 90.000000
_cell_angle_beta 22.190030
_cell_angle_gamma 90.000000
_cell_volume 3317.538297
_symmetry_space_group_name_H-M "C 2/M"
_symmetry_group_IT_number 12
_symmetry_cell_setting 'monoclinic'
loop_
_space_group_symop_operation_xyz
x,y,z
-x,y,-z
-x,-y,-z
x,-y,z
1/2+x,1/2+y,z
1/2-x,1/2+y,-z
1/2-x,1/2-y,-z
1/2+x,1/2-y,z
loop_
_atom_site_type_symbol
_atom_site_label
_atom_site_fract_x
_atom_site_fract_y
_atom_site_fract_z
Si Si1 0.784726 0.569039 0.507074
Si Si2 0.280749 0.204984 0.847533
Si Si3 0.120421 0.835421 0.865426
Si Si4 0.505258 0.658924 0.249750
Si Si5 0.905972 0.431477 0.946404
Si Si6 0.356921 0.175438 0.908651
Si Si7 0.128803 0.726491 0.493121
Si Si8 0.787904 0.931822 0.575040
O O1 0.757381 0.500000 0.557923
O O2 0.673100 0.599327 0.752982
O O3 0.761559 0.591721 0.442235
O O4 0.935827 0.584152 0.296338
O O5 0.379820 0.177257 0.762987
O O6 0.345234 0.195989 0.645727
O O7 0.264214 0.276730 0.881201
O O8 0.138580 0.168964 0.094607
O O9 0.247609 0.791634 0.643246
O O10 0.000000 0.812137 0.000000
O O11 0.060651 0.830758 0.060804
O O12 0.385918 0.703241 0.476101
O O13 0.430970 0.596063 0.375579
O O14 0.887899 0.500000 0.946516
O O15 0.835037 0.390510 0.984153
O O16 0.832272 0.418785 0.160138
O O17 0.485219 0.199529 0.757075
O O18 0.821290 0.000000 0.514784
#
# Coordination Sequence:
#
# PCOD8084347 Si02
#       8
#     8   8   8   8   8   8   8   8
#     4  10  20  36  58  82 111 152 196 232 273 332
#     4   9  20  34  57  84 105 144 189 234 281 342
#     4  11  21  36  54  83 116 148 186 230 280 336
#     4  10  21  36  55  82 115 145 189 232 282 340
#     4  10  20  35  58  86 114 147 190 237 282 332
#     4  10  18  35  59  81 109 143 188 235 284 329
#     4  10  20  36  55  78 112 148 183 229 281 337
#     4  10  20  36  57  81 113 151 190 232 277 333
#
# _framework density 19.291412000000001
#
# number of rings (size 3 to 8) (size 9 to 14) (size 15 to 20)
#    0.000    2.000    2.500    1.500    0.000    2.750 
#    0.000    2.500    0.000    3.750    0.000    0.000 
#    0.000    0.000    0.000    0.000    0.000    0.000 
#
# Total GULP energy -396486.562991 kJ/mol
# GULP energy per Si atom -12390.205093 kJ/mol
# Density = 1.924750 g / cm^3
# Si number density = 19.291412 Si / 1000 Ang^3
#
#
#
# Elastic Constant Matrix: (Units=GPa)
#
#
# Indices 1 2 3 4 5 6 
#
# 1 81.4104 40.3203 24.3028 -0.0014 -9.8323 0.0014
# 2 40.3203 67.5526 20.3379 0.0003 -13.4990 0.0015
# 3 24.3028 20.3379 66.2762 0.0008 -16.6631 0.0053
# 4 -0.0014 0.0003 0.0008 32.5867 0.0048 0.1612
# 5 -9.8323 -13.4990 -16.6631 0.0048 25.9189 -0.0015
# 6 0.0014 0.0015 0.0053 0.1612 -0.0015 32.1832
#
#
#
# Elastic Compliance Matrix: (Units=1/GPa)
#
#
# Indices 1 2 3 4 5 6 
#
# 1 0.018230 -0.009865 -0.003830 0.000001 -0.000684 0.000000
# 2 -0.009865 0.022557 -0.001541 -0.000002 0.007015 0.000000
# 3 -0.003830 -0.001541 0.019560 -0.000002 0.010320 -0.000002
# 4 0.000001 -0.000002 -0.000002 0.030688 -0.000008 -0.000154
# 5 -0.000684 0.007015 0.010320 -0.000008 0.048611 0.000000
# 6 0.000000 0.000000 -0.000002 -0.000154 0.000000 0.031073
#
#
# Mechanical properties :
#
#
# Convention : Reuss Voigt Hill
#
# Bulk Modulus (GPa) = 33.47105 42.79568 38.13336
# Shear Modulus (GPa) = 23.68016 26.82297 25.25157
#
# Velocity S-wave (km/s) = 3.50737 3.73287 3.62187
# Velocity P-wave (km/s) = 5.81292 6.38835 6.10742
#
# Compressibility (1/GPa) = 0.02987657
#
# Stress axis : x y z
#
# Youngs Moduli (GPa) = 54.85568 44.33226 51.12444
#
# Poissons Ratio (x) = 0.43732 0.19578
# Poissons Ratio (y) = 0.54113 0.07878
# Poissons Ratio (z) = 0.21007 0.06831
#
# Static dielectric constant tensor:
#      x y z
#    x 3.730580 -0.000010 -0.223100 
#    y -0.000010 3.487540 0.000020 
#    z -0.223100 0.000020 3.687550 
# 
# 
# High freq. dielectric constant tensor:
#      x y z
#    x 1.743030 0.000000 -0.003220 
#    y 0.000000 1.733970 0.000000 
#    z -0.003220 0.000000 1.758300 
# 
# From -- ./inp_files/297068.got.cif
#   From: 2010.06.25/outbox.cif.g09.slc.cpg/sg12_149_cif.got.tgz:297068.got - 2010.06.28 00:19:55.
