data_PCOD8084632
_publ_section_title
;
Structure prediction by ZEFSAII (Michael W. Deem and Ramdas Pophale) SiO2 
 PCOD8084632
Probable space group: C 2/M
;
_chemical_formula_sum "Si O2"
_cell_formula_units_Z 64
_cell_length_a 31.176237
_cell_length_b 23.253556
_cell_length_c 9.400746
_cell_angle_alpha 90.000000
_cell_angle_beta 29.371391
_cell_angle_gamma 90.000000
_cell_volume 3342.617370
_symmetry_space_group_name_H-M "C 2/M"
_symmetry_group_IT_number 12
_symmetry_cell_setting 'monoclinic'
loop_
_space_group_symop_operation_xyz
x,y,z
-x,y,-z
-x,-y,-z
x,-y,z
1/2+x,1/2+y,z
1/2-x,1/2+y,-z
1/2-x,1/2-y,-z
1/2+x,1/2-y,z
loop_
_atom_site_type_symbol
_atom_site_label
_atom_site_fract_x
_atom_site_fract_y
_atom_site_fract_z
Si Si1 0.651464 0.565073 0.029100
Si Si2 0.291148 0.621799 0.562214
Si Si3 0.754855 0.250470 0.653635
Si Si4 0.437261 0.250557 0.811149
Si Si5 0.180316 0.566729 0.646067
Si Si6 0.625980 0.433328 0.421385
Si Si7 0.084030 0.325084 0.854541
Si Si8 0.546772 0.369658 0.113191
O O1 0.619270 0.500000 0.105687
O O2 0.663269 0.582409 0.158822
O O3 0.574461 0.602396 0.182823
O O4 0.743737 0.574339 0.688098
O O5 0.271884 0.687001 0.664810
O O6 0.212300 0.592113 0.704377
O O7 0.301267 0.584813 0.675276
O O8 0.378217 0.621139 0.218023
O O9 0.750000 0.250000 0.500000
O O10 0.832842 0.294855 0.466605
O O11 0.657185 0.269169 0.984974
O O12 0.500000 0.232695 0.500000
O O13 0.475006 0.303329 0.793688
O O14 0.429343 0.198496 0.946389
O O15 0.151061 0.500000 0.745730
O O16 0.100475 0.606371 0.822174
O O17 0.604479 0.500000 0.499936
O O18 0.538117 0.398620 0.707584
O O19 0.000000 0.314102 0.000000
#
# Coordination Sequence:
#
# PCOD8084632 Si02
#       8
#     8   8   8   8   8   8   8   8
#     4   9  19  36  55  79 118 161 197 238 293 350
#     4  11  20  35  59  82 114 156 200 237 288 352
#     4  10  18  40  62  82 117 162 191 235 296 354
#     4  11  22  39  62  90 120 152 199 246 298 355
#     4  10  20  39  64  83 106 153 205 244 293 357
#     4  11  23  34  50  88 128 155 192 245 294 347
#     4  11  23  40  63  89 118 156 198 248 298 352
#     4  11  20  33  56  81 117 163 199 234 285 356
#
# _framework density 19.146673
#
# number of rings (size 3 to 8) (size 9 to 14) (size 15 to 20)
#    0.000    1.500    5.000    3.000    1.750    3.250 
#    2.250    0.625    0.000    0.375    0.000    0.000 
#    0.000    0.000    0.000    0.000    0.000    0.000 
#
# Total GULP energy -396762.319163 kJ/mol
# GULP energy per Si atom -12398.822474 kJ/mol
# Density = 1.910309 g / cm^3
# Si number density = 19.146673 Si / 1000 Ang^3
#
#
#
# Elastic Constant Matrix: (Units=GPa)
#
#
# Indices 1 2 3 4 5 6 
#
# 1 86.6148 28.5554 31.7474 0.0000 -10.0830 0.0000
# 2 28.5554 113.1326 18.7892 0.0000 -8.8059 0.0000
# 3 31.7474 18.7892 67.7850 0.0000 -8.7021 0.0000
# 4 0.0000 0.0000 0.0000 19.7506 0.0000 -5.3851
# 5 -10.0830 -8.8059 -8.7021 0.0000 28.8472 0.0000
# 6 0.0000 0.0000 0.0000 -5.3851 0.0000 33.1501
#
#
#
# Elastic Compliance Matrix: (Units=1/GPa)
#
#
# Indices 1 2 3 4 5 6 
#
# 1 0.014865 -0.002565 -0.005913 0.000000 0.002629 0.000000
# 2 -0.002565 0.009837 -0.001305 0.000000 0.001712 0.000000
# 3 -0.005913 -0.001305 0.018275 0.000000 0.003048 0.000000
# 4 0.000000 0.000000 0.000000 0.052978 0.000000 0.008606
# 5 0.002629 0.001712 0.003048 0.000000 0.037026 0.000000
# 6 0.000000 0.000000 0.000000 0.008606 0.000000 0.031564
#
#
# Mechanical properties :
#
#
# Convention : Reuss Voigt Hill
#
# Bulk Modulus (GPa) = 42.71941 47.30184 45.01063
# Shear Modulus (GPa) = 26.05316 28.91227 27.48272
#
# Velocity S-wave (km/s) = 3.69279 3.89014 3.79275
# Velocity P-wave (km/s) = 6.36729 6.70345 6.53753
#
# Compressibility (1/GPa) = 0.02340856
#
# Stress axis : x y z
#
# Youngs Moduli (GPa) = 67.27421 101.65971 54.71913
#
# Poissons Ratio (x) = 0.26078 0.32357
# Poissons Ratio (y) = 0.17257 0.07143
# Poissons Ratio (z) = 0.39782 0.13270
#
# Static dielectric constant tensor:
#      x y z
#    x 3.458510 0.000000 -0.068790 
#    y 0.000000 3.958210 0.000000 
#    z -0.068790 0.000000 3.447670 
# 
# 
# High freq. dielectric constant tensor:
#      x y z
#    x 1.731420 0.000000 -0.001130 
#    y 0.000000 1.753140 0.000000 
#    z -0.001130 0.000000 1.723670 
# 
# From -- ./inp_files/113613.got.cif
#   From: 2010.06.25/outbox.cif.g09.slc.cpg/sg12_57_cif.got.tgz:113613.got - 2010.06.28 00:19:55.
