data_PCOD8084726
_publ_section_title
;
Structure prediction by ZEFSAII (Michael W. Deem and Ramdas Pophale) SiO2 
 PCOD8084726
Probable space group: C 2/M
;
_chemical_formula_sum "Si O2"
_cell_formula_units_Z 56
_cell_length_a 19.490863
_cell_length_b 9.062749
_cell_length_c 21.702444
_cell_angle_alpha 90.000000
_cell_angle_beta 55.347588
_cell_angle_gamma 90.000000
_cell_volume 3153.531148
_symmetry_space_group_name_H-M "C 2/M"
_symmetry_group_IT_number 12
_symmetry_cell_setting 'monoclinic'
loop_
_space_group_symop_operation_xyz
x,y,z
-x,y,-z
-x,-y,-z
x,-y,z
1/2+x,1/2+y,z
1/2-x,1/2+y,-z
1/2-x,1/2-y,-z
1/2+x,1/2-y,z
loop_
_atom_site_type_symbol
_atom_site_label
_atom_site_fract_x
_atom_site_fract_y
_atom_site_fract_z
Si Si1 0.779574 0.171952 0.795468
Si Si2 0.460496 0.327644 0.689408
Si Si3 0.309539 0.328707 0.922228
Si Si4 0.508425 0.324845 0.192031
Si Si5 0.767615 0.328922 0.393137
Si Si6 0.369819 0.330142 0.444296
Si Si7 0.169558 0.824888 0.757519
O O1 0.867718 0.231394 0.721081
O O2 0.779869 0.204095 0.867987
O O3 0.705213 0.265033 0.803475
O O4 0.764651 0.000000 0.788802
O O5 0.446627 0.500000 0.707191
O O6 0.494432 0.261984 0.736749
O O7 0.530597 0.294605 0.601456
O O8 0.304470 0.500000 0.939272
O O9 0.404958 0.271729 0.883618
O O10 0.250000 0.250000 0.000000
O O11 0.506851 0.500000 0.194271
O O12 0.426237 0.267581 0.198451
O O13 0.784542 0.500000 0.370520
O O14 0.673632 0.303985 0.467517
O O15 0.831819 0.275009 0.411948
O O16 0.775522 0.237677 0.326640
O O17 0.357003 0.500000 0.429276
O O18 0.174901 0.000000 0.753242
#
# Coordination Sequence:
#
# PCOD8084726 Si02
#       7
#     8   8   8   8   8   8   8
#     4   9  19  34  53  75 101 130 163 206 251 290
#     4   8  13  28  52  71  90 126 173 212 240 286
#     4   9  18  35  58  80 101 127 160 201 243 291
#     4   8  15  29  52  75  94 127 171 203 233 285
#     4  10  19  28  44  73 104 130 163 214 261 294
#     4   9  16  29  49  71  95 130 175 212 249 297
#     4  11  20  33  52  72 100 136 171 206 246 298
#
# _framework density 17.757871999999999
#
# number of rings (size 3 to 8) (size 9 to 14) (size 15 to 20)
#    0.000    2.857    1.429    2.571    0.000    1.143 
#    0.000    3.571    0.000    8.571    0.000    0.000 
#    0.000    0.000    0.000    0.000    0.000    0.000 
#
# Total GULP energy -346957.764864 kJ/mol
# GULP energy per Si atom -12391.348745 kJ/mol
# Density = 1.771745 g / cm^3
# Si number density = 17.757872 Si / 1000 Ang^3
#
#
#
# Elastic Constant Matrix: (Units=GPa)
#
#
# Indices 1 2 3 4 5 6 
#
# 1 126.3671 39.0530 59.4969 -0.0001 -15.5200 -0.0001
# 2 39.0530 55.2005 39.4152 -0.0002 -1.2117 -0.0005
# 3 59.4969 39.4152 116.5272 0.0000 -23.3428 0.0000
# 4 -0.0001 -0.0002 0.0000 28.8750 0.0000 2.6076
# 5 -15.5200 -1.2117 -23.3428 0.0000 24.1341 0.0000
# 6 -0.0001 -0.0005 0.0000 2.6076 0.0000 25.3004
#
#
#
# Elastic Compliance Matrix: (Units=1/GPa)
#
#
# Indices 1 2 3 4 5 6 
#
# 1 0.011758 -0.005992 -0.003129 0.000000 0.004235 0.000000
# 2 -0.005992 0.028324 -0.008692 0.000000 -0.010838 0.000000
# 3 -0.003129 -0.008692 0.015664 0.000000 0.012702 0.000000
# 4 0.000000 0.000000 0.000000 0.034957 0.000000 -0.003603
# 5 0.004235 -0.010838 0.012702 0.000000 0.055899 0.000000
# 6 0.000000 0.000000 0.000000 -0.003603 0.000000 0.039896
#
#
# Mechanical properties :
#
#
# Convention : Reuss Voigt Hill
#
# Bulk Modulus (GPa) = 49.70134 63.78056 56.74095
# Shear Modulus (GPa) = 21.85022 26.33722 24.09372
#
# Velocity S-wave (km/s) = 3.51159 3.85532 3.68746
# Velocity P-wave (km/s) = 6.67014 7.47079 7.08179
#
# Compressibility (1/GPa) = 0.02012018
#
# Stress axis : x y z
#
# Youngs Moduli (GPa) = 85.04639 35.30632 63.84209
#
# Poissons Ratio (x) = 0.21155 0.19973
# Poissons Ratio (y) = 0.50958 0.55493
# Poissons Ratio (z) = 0.26607 0.30689
#
# Static dielectric constant tensor:
#      x y z
#    x 3.400400 0.000000 -0.311780 
#    y 0.000000 3.038330 0.000000 
#    z -0.311780 0.000000 3.302800 
# 
# 
# High freq. dielectric constant tensor:
#      x y z
#    x 1.677190 0.000000 -0.021720 
#    y 0.000000 1.660000 0.000000 
#    z -0.021720 0.000000 1.679880 
# 
# From -- ./inp_files/313803.got.cif
#   From: 2010.06.25/outbox.cif.g09.slc.cpg/sg12_157_cif.got.tgz:313803.got - 2010.06.28 00:19:55.
