data_PCOD8084189
_publ_section_title
;
Structure prediction by ZEFSAII (Michael W. Deem and Ramdas Pophale) SiO2 
 PCOD8084189
Probable space group: C 2/M
;
_chemical_formula_sum "Si O2"
_cell_formula_units_Z 64
_cell_length_a 25.874513
_cell_length_b 17.557279
_cell_length_c 20.042740
_cell_angle_alpha 90.000000
_cell_angle_beta 158.567614
_cell_angle_gamma 90.000000
_cell_volume 3327.044381
_symmetry_space_group_name_H-M "C 2/M"
_symmetry_group_IT_number 12
_symmetry_cell_setting 'monoclinic'
loop_
_space_group_symop_operation_xyz
x,y,z
-x,y,-z
-x,-y,-z
x,-y,z
1/2+x,1/2+y,z
1/2-x,1/2+y,-z
1/2-x,1/2-y,-z
1/2+x,1/2-y,z
loop_
_atom_site_type_symbol
_atom_site_label
_atom_site_fract_x
_atom_site_fract_y
_atom_site_fract_z
Si Si1 0.720326 0.089324 0.652900
Si Si2 0.844401 0.090156 0.309006
Si Si3 0.155625 0.409792 0.200681
Si Si4 0.650612 0.157198 0.332451
Si Si5 0.902741 0.590294 0.245666
Si Si6 0.833291 0.089575 0.935336
Si Si7 0.866938 0.164094 0.705831
Si Si8 0.373402 0.089672 0.060647
O O1 0.558702 0.118788 0.453970
O O2 0.777899 0.107578 0.795112
O O3 0.818809 0.134216 0.719912
O O4 0.730238 0.000000 0.647956
O O5 0.756550 0.124909 0.265030
O O6 0.000000 0.126767 0.500000
O O7 0.852762 0.000000 0.327361
O O8 0.772890 0.110935 0.152197
O O9 0.154451 0.500000 0.195610
O O10 0.209684 0.383712 0.337612
O O11 0.000000 0.376502 0.000000
O O12 0.759658 0.133508 0.521080
O O13 0.637857 0.245633 0.301574
O O14 0.497427 0.127597 0.168038
O O15 0.899854 0.500000 0.244647
O O16 0.784845 0.621103 0.155151
O O17 0.866712 0.620716 0.128170
O O18 0.861216 0.000000 0.978501
O O19 0.976702 0.134522 0.122647
O O20 0.401740 0.000000 0.093884
#
# Coordination Sequence:
#
# PCOD8084189 Si02
#       8
#     8   8   8   8   8   8   8   8
#     4  10  19  36  62  87 114 148 182 227 283 341
#     4   9  18  32  53  84 115 139 176 232 285 327
#     4  10  19  33  57  84 107 142 188 231 275 328
#     4  11  23  38  56  78 113 152 194 234 274 327
#     4   9  18  33  60  90 113 143 184 225 277 344
#     4  10  21  37  58  89 118 141 181 236 287 334
#     4  11  24  38  55  81 113 150 190 232 283 327
#     4  10  18  34  60  83 111 152 189 227 279 334
#
# _framework density 19.236293
#
# number of rings (size 3 to 8) (size 9 to 14) (size 15 to 20)
#    0.000    2.000    2.500    1.500    0.000    6.000 
#    0.000    3.125    2.750    0.000    0.000    0.000 
#    0.000    0.000    0.000    0.000    0.000    0.000 
#
# Total GULP energy -396834.418901 kJ/mol
# GULP energy per Si atom -12401.075591 kJ/mol
# Density = 1.919251 g / cm^3
# Si number density = 19.236293 Si / 1000 Ang^3
#
#
#
# Elastic Constant Matrix: (Units=GPa)
#
#
# Indices 1 2 3 4 5 6 
#
# 1 121.2391 29.3364 54.3730 0.0042 -4.3155 0.0025
# 2 29.3364 20.7133 24.0004 0.0014 2.1052 0.0001
# 3 54.3730 24.0004 137.9163 0.0053 6.1445 0.0023
# 4 0.0042 0.0014 0.0053 18.3785 0.0032 -4.9645
# 5 -4.3155 2.1052 6.1445 0.0032 35.8443 0.0012
# 6 0.0025 0.0001 0.0023 -4.9645 0.0012 6.3910
#
#
#
# Elastic Compliance Matrix: (Units=1/GPa)
#
#
# Indices 1 2 3 4 5 6 
#
# 1 0.013491 -0.016404 -0.002599 -0.000004 0.003033 -0.000007
# 2 -0.016404 0.080528 -0.007303 0.000004 -0.005452 0.000011
# 3 -0.002599 -0.007303 0.009615 -0.000002 -0.001532 -0.000004
# 4 -0.000004 0.000004 -0.000002 0.068861 -0.000008 0.053491
# 5 0.003033 -0.005452 -0.001532 -0.000008 0.028847 -0.000012
# 6 -0.000007 0.000011 -0.000004 0.053491 -0.000012 0.198021
#
#
# Mechanical properties :
#
#
# Convention : Reuss Voigt Hill
#
# Bulk Modulus (GPa) = 19.60009 55.03204 37.31607
# Shear Modulus (GPa) = 10.66139 23.60002 17.13070
#
# Velocity S-wave (km/s) = 2.35677 3.50644 2.98743
# Velocity P-wave (km/s) = 4.19727 6.71298 5.59826
#
# Compressibility (1/GPa) = 0.05102018
#
# Stress axis : x y z
#
# Youngs Moduli (GPa) = 74.12236 12.41805 104.00671
#
# Poissons Ratio (x) = 0.20371 0.27035
# Poissons Ratio (y) = 1.21591 0.75960
# Poissons Ratio (z) = 0.19267 0.09069
#
# Static dielectric constant tensor:
#      x y z
#    x 3.768050 0.000000 -0.014110 
#    y 0.000000 3.118800 0.000000 
#    z -0.014110 0.000000 3.761990 
# 
# 
# High freq. dielectric constant tensor:
#      x y z
#    x 1.762770 0.000000 -0.004780 
#    y 0.000000 1.708570 0.000000 
#    z -0.004780 0.000000 1.759750 
# 
# From -- ./inp_files/328662.got.cif
#   From: 2010.06.25/outbox.cif.g09.slc.cpg/sg12_165_cif.got.tgz:328662.got - 2010.06.28 00:19:55.
