data_PCOD8084701
_publ_section_title
;
Structure prediction by ZEFSAII (Michael W. Deem and Ramdas Pophale) SiO2 
 PCOD8084701
Probable space group: C 2/M
;
_chemical_formula_sum "Si O2"
_cell_formula_units_Z 64
_cell_length_a 31.687813
_cell_length_b 14.093429
_cell_length_c 9.390537
_cell_angle_alpha 90.000000
_cell_angle_beta 94.590775
_cell_angle_gamma 90.000000
_cell_volume 4180.264998
_symmetry_space_group_name_H-M "C 2/M"
_symmetry_group_IT_number 12
_symmetry_cell_setting 'monoclinic'
loop_
_space_group_symop_operation_xyz
x,y,z
-x,y,-z
-x,-y,-z
x,-y,z
1/2+x,1/2+y,z
1/2-x,1/2+y,-z
1/2-x,1/2-y,-z
1/2+x,1/2-y,z
loop_
_atom_site_type_symbol
_atom_site_label
_atom_site_fract_x
_atom_site_fract_y
_atom_site_fract_z
Si Si1 0.490340 0.111945 0.154917
Si Si2 0.722655 0.842162 0.482721
Si Si3 0.281139 0.396993 0.269939
Si Si4 0.436475 0.888640 0.628223
Si Si5 0.409803 0.887883 0.310547
Si Si6 0.792893 0.392800 0.968425
Si Si7 0.651257 0.891055 0.273115
Si Si8 0.318421 0.197702 0.254293
O O1 0.522497 0.155699 0.282122
O O2 0.442763 0.135335 0.192763
O O3 0.497868 0.000000 0.150503
O O4 0.500000 0.154898 0.000000
O O5 0.750000 0.750000 0.500000
O O6 0.753349 0.914380 0.406888
O O7 0.679904 0.824622 0.380915
O O8 0.706927 0.867751 0.637636
O O9 0.303399 0.500000 0.247859
O O10 0.248800 0.371082 0.134372
O O11 0.314663 0.310702 0.289895
O O12 0.429184 0.850385 0.465846
O O13 0.397241 0.861719 0.719544
O O14 0.443060 0.000000 0.616119
O O15 0.367429 0.830416 0.263870
O O16 0.399549 0.000000 0.315017
O O17 0.791917 0.500000 0.027045
O O18 0.835491 0.377998 0.886863
O O19 0.795622 0.320189 0.098694
O O20 0.658583 0.000000 0.324954
#
# Coordination Sequence:
#
# PCOD8084701 Si02
#       8
#     8   8   8   8   8   8   8   8
#     4   9  18  29  41  59  87 120 147 170 206 259
#     4   9  17  28  43  62  83 109 142 184 218 255
#     4   9  19  34  46  58  86 124 152 182 226 267
#     4   9  16  27  42  57  83 120 147 169 205 257
#     4  10  19  28  41  64  91 116 144 180 217 253
#     4   9  18  28  42  63  89 117 147 182 223 260
#     4   9  16  27  41  59  85 119 148 169 211 264
#     4  11  19  28  45  69  88 110 154 195 215 253
#
# _framework density 15.310034999999999
#
# number of rings (size 3 to 8) (size 9 to 14) (size 15 to 20)
#    0.000    2.625    1.250    2.250    1.750    3.000 
#    0.000    0.000    0.000    0.000    0.000    0.000 
#    0.000    2.500    0.000    0.000    0.000    0.125 
#
# Total GULP energy -396434.964143 kJ/mol
# GULP energy per Si atom -12388.592629 kJ/mol
# Density = 1.527519 g / cm^3
# Si number density = 15.310035 Si / 1000 Ang^3
#
#
#
# Elastic Constant Matrix: (Units=GPa)
#
#
# Indices 1 2 3 4 5 6 
#
# 1 87.8752 32.1054 38.2540 0.0000 -3.0660 0.0000
# 2 32.1054 47.4707 26.6392 0.0000 0.6878 0.0000
# 3 38.2540 26.6392 95.4592 0.0000 -5.3380 0.0000
# 4 0.0000 0.0000 0.0000 13.5470 0.0000 1.0736
# 5 -3.0660 0.6878 -5.3380 0.0000 22.4903 0.0000
# 6 0.0000 0.0000 0.0000 1.0736 0.0000 16.4244
#
#
#
# Elastic Compliance Matrix: (Units=1/GPa)
#
#
# Indices 1 2 3 4 5 6 
#
# 1 0.016427 -0.008877 -0.004018 0.000000 0.001557 0.000000
# 2 -0.008877 0.029909 -0.004974 0.000000 -0.003305 0.000000
# 3 -0.004018 -0.004974 0.013633 0.000000 0.002840 0.000000
# 4 0.000000 0.000000 0.000000 0.074202 0.000000 -0.004850
# 5 0.001557 -0.003305 0.002840 0.000000 0.045451 0.000000
# 6 0.000000 0.000000 0.000000 -0.004850 0.000000 0.061202
#
#
# Mechanical properties :
#
#
# Convention : Reuss Voigt Hill
#
# Bulk Modulus (GPa) = 41.27254 47.20025 44.23639
# Shear Modulus (GPa) = 17.56616 19.41276 18.48946
#
# Velocity S-wave (km/s) = 3.39095 3.56473 3.47892
# Velocity P-wave (km/s) = 6.50751 6.91662 6.71518
#
# Compressibility (1/GPa) = 0.02422919
#
# Stress axis : x y z
#
# Youngs Moduli (GPa) = 60.87632 33.43525 73.35244
#
# Poissons Ratio (x) = 0.29681 0.29476
# Poissons Ratio (y) = 0.54042 0.36484
# Poissons Ratio (z) = 0.24463 0.16630
#
# Static dielectric constant tensor:
#      x y z
#    x 2.985650 0.000000 -0.160120 
#    y 0.000000 2.606430 0.000000 
#    z -0.160120 0.000000 3.379660 
# 
# 
# High freq. dielectric constant tensor:
#      x y z
#    x 1.581610 0.000000 -0.006270 
#    y 0.000000 1.524650 0.000000 
#    z -0.006270 0.000000 1.602630 
# 
# From -- ./inp_files/111212.got.cif
#   From: 2010.06.25/outbox.cif.g09.slc.cpg/sg12_56_cif.got.tgz:111212.got - 2010.06.28 00:19:55.
