data_PCOD8084924
_publ_section_title
;
Structure prediction by ZEFSAII (Michael W. Deem and Ramdas Pophale) SiO2 
 PCOD8084924
Probable space group: C 2/M
;
_chemical_formula_sum "Si O2"
_cell_formula_units_Z 64
_cell_length_a 21.583219
_cell_length_b 9.401639
_cell_length_c 19.359332
_cell_angle_alpha 90.000000
_cell_angle_beta 112.010143
_cell_angle_gamma 90.000000
_cell_volume 3642.041973
_symmetry_space_group_name_H-M "C 2/M"
_symmetry_group_IT_number 12
_symmetry_cell_setting 'monoclinic'
loop_
_space_group_symop_operation_xyz
x,y,z
-x,y,-z
-x,-y,-z
x,-y,z
1/2+x,1/2+y,z
1/2-x,1/2+y,-z
1/2-x,1/2-y,-z
1/2+x,1/2-y,z
loop_
_atom_site_type_symbol
_atom_site_label
_atom_site_fract_x
_atom_site_fract_y
_atom_site_fract_z
Si Si1 0.923161 0.158367 0.482321
Si Si2 0.731656 0.339815 0.386879
Si Si3 0.183123 0.163329 0.674317
Si Si4 0.688263 0.333391 0.834747
Si Si5 0.968871 0.331265 0.917050
Si Si6 0.336664 0.167451 0.921597
Si Si7 0.653039 0.840639 0.451272
Si Si8 0.599861 0.832599 0.904802
O O1 0.884101 0.198003 0.395992
O O2 0.909730 0.267407 0.538384
O O3 0.000000 0.167272 0.500000
O O4 0.901475 0.000000 0.497246
O O5 0.708917 0.500000 0.359378
O O6 0.757906 0.264283 0.328658
O O7 0.669640 0.248387 0.389416
O O8 0.786762 0.340768 0.469522
O O9 0.168497 0.196656 0.747611
O O10 0.206058 0.000000 0.673934
O O11 0.685308 0.500000 0.851800
O O12 0.762703 0.268381 0.878776
O O13 0.633447 0.253290 0.857205
O O14 0.968679 0.500000 0.920862
O O15 0.890818 0.278247 0.885252
O O16 0.020379 0.287027 0.876947
O O17 0.000000 0.269175 0.000000
O O18 0.330210 0.000000 0.910748
O O19 0.362293 0.207914 0.008501
O O20 0.633889 0.000000 0.420909
O O21 0.606424 0.000000 0.892466
#
# Coordination Sequence:
#
# PCOD8084924 Si02
#       8
#     8   8   8   8   8   8   8   8
#     4   9  17  30  48  66  85 115 156 191 221 267
#     4   9  16  27  45  67  89 113 143 178 217 264
#     4   9  18  31  45  63  88 120 151 182 227 276
#     4  10  19  29  44  66  94 125 149 182 234 281
#     4   7  11  22  42  65  85 109 146 187 220 254
#     4   8  14  26  45  68  90 116 154 192 225 266
#     4   9  16  26  44  70  93 111 135 178 227 267
#     4   9  16  27  46  69  90 117 155 194 223 259
#
# _framework density 17.572559999999999
#
# number of rings (size 3 to 8) (size 9 to 14) (size 15 to 20)
#    0.000    3.250    0.000    2.625    0.000    3.750 
#    0.000    0.000    2.750    4.125    0.000    0.000 
#    0.000    0.000    0.000    0.000    0.000    0.000 
#
# Total GULP energy -396433.834469 kJ/mol
# GULP energy per Si atom -12388.557327 kJ/mol
# Density = 1.753256 g / cm^3
# Si number density = 17.572560 Si / 1000 Ang^3
#
#
#
# Elastic Constant Matrix: (Units=GPa)
#
#
# Indices 1 2 3 4 5 6 
#
# 1 125.2146 51.3811 51.3021 0.0000 -31.9790 0.0000
# 2 51.3811 83.2418 37.5494 0.0000 -21.1355 0.0000
# 3 51.3021 37.5494 59.3436 0.0000 -20.4743 0.0000
# 4 0.0000 0.0000 0.0000 15.6226 0.0000 -9.6401
# 5 -31.9790 -21.1355 -20.4743 0.0000 21.8523 0.0000
# 6 0.0000 0.0000 0.0000 -9.6401 0.0000 27.8267
#
#
#
# Elastic Compliance Matrix: (Units=1/GPa)
#
#
# Indices 1 2 3 4 5 6 
#
# 1 0.015416 -0.003092 -0.006825 0.000000 0.013175 0.000000
# 2 -0.003092 0.018816 -0.006672 0.000000 0.007423 0.000000
# 3 -0.006825 -0.006672 0.031475 0.000000 0.013049 0.000000
# 4 0.000000 0.000000 0.000000 0.081413 0.000000 0.028204
# 5 0.013175 0.007423 0.013049 0.000000 0.084448 0.000000
# 6 0.000000 0.000000 0.000000 0.028204 0.000000 0.045708
#
#
# Mechanical properties :
#
#
# Convention : Reuss Voigt Hill
#
# Bulk Modulus (GPa) = 30.74136 60.91836 45.82986
# Shear Modulus (GPa) = 15.56191 21.56483 18.56337
#
# Velocity S-wave (km/s) = 2.97910 3.50692 3.25373
# Velocity P-wave (km/s) = 5.41898 7.15123 6.34450
#
# Compressibility (1/GPa) = 0.03252947
#
# Stress axis : x y z
#
# Youngs Moduli (GPa) = 64.86667 53.14656 31.77109
#
# Poissons Ratio (x) = 0.16431 0.21685
# Poissons Ratio (y) = 0.20054 0.21197
# Poissons Ratio (z) = 0.44274 0.35459
#
# Static dielectric constant tensor:
#      x y z
#    x 3.550120 0.000000 -0.075050 
#    y 0.000000 3.162420 0.000000 
#    z -0.075050 0.000000 2.978910 
# 
# 
# High freq. dielectric constant tensor:
#      x y z
#    x 1.686490 0.000000 -0.019090 
#    y 0.000000 1.654730 0.000000 
#    z -0.019090 0.000000 1.641110 
# 
# From -- ./inp_files/319232.got.cif
#   From: 2010.06.25/outbox.cif.g09.slc.cpg/sg12_160_cif.got.tgz:319232.got - 2010.06.28 00:19:55.
