data_PCOD8084564
_publ_section_title
;
Structure prediction by ZEFSAII (Michael W. Deem and Ramdas Pophale) SiO2 
 PCOD8084564
Probable space group: C 2/M
;
_chemical_formula_sum "Si O2"
_cell_formula_units_Z 48
_cell_length_a 9.246388
_cell_length_b 27.022782
_cell_length_c 14.505326
_cell_angle_alpha 90.000000
_cell_angle_beta 42.003403
_cell_angle_gamma 90.000000
_cell_volume 2425.320881
_symmetry_space_group_name_H-M "C 2/M"
_symmetry_group_IT_number 12
_symmetry_cell_setting 'monoclinic'
loop_
_space_group_symop_operation_xyz
x,y,z
-x,y,-z
-x,-y,-z
x,-y,z
1/2+x,1/2+y,z
1/2-x,1/2+y,-z
1/2-x,1/2-y,-z
1/2+x,1/2-y,z
loop_
_atom_site_type_symbol
_atom_site_label
_atom_site_fract_x
_atom_site_fract_y
_atom_site_fract_z
Si Si1 0.285102 0.946328 0.543085
Si Si2 0.018081 0.598906 0.269077
Si Si3 0.582956 0.386102 0.790896
Si Si4 0.276467 0.686819 0.578302
Si Si5 0.852680 0.557606 0.980765
Si Si6 0.743970 0.796583 0.384351
O O1 0.500000 0.950363 0.500000
O O2 0.335927 0.926641 0.417748
O O3 0.123038 0.910462 0.672310
O O4 0.173973 0.000000 0.587277
O O5 0.253380 0.597074 0.205772
O O6 0.015005 0.569138 0.174762
O O7 0.935980 0.655250 0.295591
O O8 0.609817 0.327216 0.758791
O O9 0.344994 0.403551 0.931615
O O10 0.500000 0.659850 0.500000
O O11 0.248759 0.738784 0.646861
O O12 0.323746 0.697162 0.449543
O O13 0.776225 0.500000 0.017134
O O14 0.000000 0.568636 0.000000
O O15 0.500000 0.818503 0.500000
#
# Coordination Sequence:
#
# PCOD8084564 Si02
#       6
#     8   8   8   8   8   8
#     4   9  17  30  55  87 112 137 188 252 295 339
#     4  11  21  38  61  90 117 157 206 244 293 356
#     4  11  20  38  62  87 118 155 204 248 293 354
#     4  10  21  33  60  94 128 158 191 240 306 358
#     4  11  27  45  59  82 122 163 199 248 309 362
#     4  10  18  37  60  93 126 156 194 244 298 357
#
# _framework density 19.791195999999999
#
# number of rings (size 3 to 8) (size 9 to 14) (size 15 to 20)
#    0.000    1.667    3.333    2.000    2.333    2.667 
#    0.000    0.833    0.000    4.000    0.000    0.000 
#    0.000    0.000    0.000    0.000    0.000    0.000 
#
# Total GULP energy -297487.302858 kJ/mol
# GULP energy per Si atom -12395.304286 kJ/mol
# Density = 1.974615 g / cm^3
# Si number density = 19.791196 Si / 1000 Ang^3
#
#
#
# Elastic Constant Matrix: (Units=GPa)
#
#
# Indices 1 2 3 4 5 6 
#
# 1 99.9699 26.2440 34.6321 0.0000 4.5536 0.0000
# 2 26.2440 104.9841 30.1222 0.0000 -1.1512 0.0000
# 3 34.6321 30.1222 76.2207 0.0000 9.3066 0.0000
# 4 0.0000 0.0000 0.0000 24.7385 0.0000 -2.7231
# 5 4.5536 -1.1512 9.3066 0.0000 35.4815 0.0000
# 6 0.0000 0.0000 0.0000 -2.7231 0.0000 23.7150
#
#
#
# Elastic Compliance Matrix: (Units=1/GPa)
#
#
# Indices 1 2 3 4 5 6 
#
# 1 0.012119 -0.001653 -0.004811 0.000000 -0.000347 0.000000
# 2 -0.001653 0.011048 -0.003807 0.000000 0.001569 0.000000
# 3 -0.004811 -0.003807 0.017304 0.000000 -0.004045 0.000000
# 4 0.000000 0.000000 0.000000 0.040940 0.000000 0.004701
# 5 -0.000347 0.001569 -0.004045 0.000000 0.029340 0.000000
# 6 0.000000 0.000000 0.000000 0.004701 0.000000 0.042707
#
#
# Mechanical properties :
#
#
# Convention : Reuss Voigt Hill
#
# Bulk Modulus (GPa) = 50.17556 51.46350 50.81953
# Shear Modulus (GPa) = 27.67884 29.46544 28.57214
#
# Velocity S-wave (km/s) = 3.74377 3.86270 3.80370
# Velocity P-wave (km/s) = 6.64042 6.77891 6.71003
#
# Compressibility (1/GPa) = 0.01993002
#
# Stress axis : x y z
#
# Youngs Moduli (GPa) = 82.51216 90.51514 57.79016
#
# Poissons Ratio (x) = 0.14963 0.27803
# Poissons Ratio (y) = 0.13640 0.21998
# Poissons Ratio (z) = 0.39697 0.34455
#
# Static dielectric constant tensor:
#      x y z
#    x 3.627070 0.000000 0.093190 
#    y 0.000000 3.874630 0.000000 
#    z 0.093190 0.000000 3.431620 
# 
# 
# High freq. dielectric constant tensor:
#      x y z
#    x 1.772250 0.000000 0.007120 
#    y 0.000000 1.778150 0.000000 
#    z 0.007120 0.000000 1.738630 
# 
# From -- ./inp_files/200767.got.cif
#   From: 2010.06.25/outbox.cif.g09.slc.cpg/sg12_101_cif.got.tgz:200767.got - 2010.06.28 00:19:55.
