data_PCOD8084796
_publ_section_title
;
Structure prediction by ZEFSAII (Michael W. Deem and Ramdas Pophale) SiO2 
 PCOD8084796
Probable space group: C 2/M
;
_chemical_formula_sum "Si O2"
_cell_formula_units_Z 56
_cell_length_a 23.338530
_cell_length_b 9.765582
_cell_length_c 27.597624
_cell_angle_alpha 90.000000
_cell_angle_beta 32.205515
_cell_angle_gamma 90.000000
_cell_volume 3352.247558
_symmetry_space_group_name_H-M "C 2/M"
_symmetry_group_IT_number 12
_symmetry_cell_setting 'monoclinic'
loop_
_space_group_symop_operation_xyz
x,y,z
-x,y,-z
-x,-y,-z
x,-y,z
1/2+x,1/2+y,z
1/2-x,1/2+y,-z
1/2-x,1/2-y,-z
1/2+x,1/2-y,z
loop_
_atom_site_type_symbol
_atom_site_label
_atom_site_fract_x
_atom_site_fract_y
_atom_site_fract_z
Si Si1 0.572412 0.846558 0.315178
Si Si2 0.989096 0.658147 0.846556
Si Si3 0.672054 0.650447 0.863698
Si Si4 0.595655 0.161093 0.194273
Si Si5 0.570310 0.340296 0.403949
Si Si6 0.183786 0.655824 0.771366
Si Si7 0.837427 0.839337 0.020979
O O1 0.700242 0.850190 0.225146
O O2 0.542204 0.786818 0.283167
O O3 0.527470 0.744804 0.388401
O O4 0.526004 0.000000 0.357263
O O5 0.953449 0.500000 0.878768
O O6 0.980002 0.701749 0.796697
O O7 0.912739 0.752928 0.932495
O O8 0.112762 0.679466 0.774046
O O9 0.630217 0.500000 0.878301
O O10 0.632244 0.756892 0.851916
O O11 0.626152 0.688315 0.949526
O O12 0.607679 0.000000 0.192666
O O13 0.716291 0.217158 0.099326
O O14 0.500000 0.295435 0.500000
O O15 0.555834 0.500000 0.402352
O O16 0.693766 0.302608 0.328067
O O17 0.178503 0.500000 0.792815
O O18 0.847134 0.000000 0.001207
#
# Coordination Sequence:
#
# PCOD8084796 Si02
#       7
#     8   8   8   8   8   8   8
#     4   8  14  27  47  67  84 106 139 174 206 244
#     4  10  19  29  42  61  86 115 144 176 212 246
#     4   8  15  28  44  60  82 112 142 175 212 247
#     4   8  15  29  46  62  84 114 146 177 206 240
#     4   9  17  30  48  68  88 108 132 168 213 257
#     4   9  18  30  43  62  86 111 140 171 209 258
#     4   9  17  29  44  62  83 111 149 183 209 240
#
# _framework density 16.705210000000001
#
# number of rings (size 3 to 8) (size 9 to 14) (size 15 to 20)
#    0.000    3.286    0.000    2.143    0.000    2.000 
#    0.000    5.714    0.000    0.857    0.000    0.000 
#    0.000    0.000    0.000    0.000    0.000    0.000 
#
# Total GULP energy -347024.507657 kJ/mol
# GULP energy per Si atom -12393.732416 kJ/mol
# Density = 1.666719 g / cm^3
# Si number density = 16.705210 Si / 1000 Ang^3
#
#
#
# Elastic Constant Matrix: (Units=GPa)
#
#
# Indices 1 2 3 4 5 6 
#
# 1 109.7510 47.3994 57.0456 0.0005 24.9392 -0.0022
# 2 47.3994 61.6712 48.8760 0.0017 18.7548 -0.0067
# 3 57.0456 48.8760 91.5597 -0.0002 31.3612 -0.0012
# 4 0.0005 0.0017 -0.0002 23.8853 0.0004 6.9451
# 5 24.9392 18.7548 31.3612 0.0004 23.8003 0.0011
# 6 -0.0022 -0.0067 -0.0012 6.9451 0.0011 18.7460
#
#
#
# Elastic Compliance Matrix: (Units=1/GPa)
#
#
# Indices 1 2 3 4 5 6 
#
# 1 0.015477 -0.007071 -0.004049 0.000000 -0.005309 -0.000001
# 2 -0.007071 0.031584 -0.011788 -0.000006 -0.001946 0.000012
# 3 -0.004049 -0.011788 0.027525 0.000002 -0.022738 -0.000003
# 4 0.000000 -0.000006 0.000002 0.046921 0.000001 -0.017384
# 5 -0.005309 -0.001946 -0.022738 0.000001 0.079075 -0.000007
# 6 -0.000001 0.000012 -0.000003 -0.017384 -0.000007 0.059785
#
#
# Mechanical properties :
#
#
# Convention : Reuss Voigt Hill
#
# Bulk Modulus (GPa) = 34.75902 63.29153 49.02528
# Shear Modulus (GPa) = 15.83415 20.59703 18.21559
#
# Velocity S-wave (km/s) = 3.08207 3.51518 3.30572
# Velocity P-wave (km/s) = 5.78947 7.37868 6.63185
#
# Compressibility (1/GPa) = 0.02876951
#
# Stress axis : x y z
#
# Youngs Moduli (GPa) = 64.61336 31.66193 36.33012
#
# Poissons Ratio (x) = 0.22389 0.14711
# Poissons Ratio (y) = 0.45690 0.42824
# Poissons Ratio (z) = 0.26164 0.37322
#
# Static dielectric constant tensor:
#      x y z
#    x 3.331100 0.000000 0.262670 
#    y 0.000000 3.140760 0.000000 
#    z 0.262670 0.000000 2.994100 
# 
# 
# High freq. dielectric constant tensor:
#      x y z
#    x 1.639330 0.000000 0.018630 
#    y 0.000000 1.630600 0.000000 
#    z 0.018630 0.000000 1.617270 
# 
# From -- ./inp_files/248895.got.cif
#   From: 2010.06.25/outbox.cif.g09.slc.cpg/sg12_125_cif.got.tgz:248895.got - 2010.06.28 00:19:55.
