data_PCOD8084890
_publ_section_title
;
Structure prediction by ZEFSAII (Michael W. Deem and Ramdas Pophale) SiO2 
 PCOD8084890
Probable space group: C 2/M
;
_chemical_formula_sum "Si O2"
_cell_formula_units_Z 48
_cell_length_a 26.138454
_cell_length_b 8.910654
_cell_length_c 11.500318
_cell_angle_alpha 90.000000
_cell_angle_beta 90.200392
_cell_angle_gamma 90.000000
_cell_volume 2678.530959
_symmetry_space_group_name_H-M "C 2/M"
_symmetry_group_IT_number 12
_symmetry_cell_setting 'monoclinic'
loop_
_space_group_symop_operation_xyz
x,y,z
-x,y,-z
-x,-y,-z
x,-y,z
1/2+x,1/2+y,z
1/2-x,1/2+y,-z
1/2-x,1/2-y,-z
1/2+x,1/2-y,z
loop_
_atom_site_type_symbol
_atom_site_label
_atom_site_fract_x
_atom_site_fract_y
_atom_site_fract_z
Si Si1 0.058590 0.322981 0.994960
Si Si2 0.703666 0.664851 0.052373
Si Si3 0.629844 0.824494 0.205072
Si Si4 0.866644 0.835306 0.163901
Si Si5 0.298817 0.823851 0.356826
Si Si6 0.182822 0.824274 0.402012
O O1 0.065582 0.500000 0.982319
O O2 0.082259 0.252071 0.877156
O O3 0.084290 0.271457 0.118225
O O4 0.000000 0.272403 0.000000
O O5 0.718440 0.500000 0.106257
O O6 0.683490 0.778715 0.148469
O O7 0.750000 0.750000 0.000000
O O8 0.662389 0.636688 0.954809
O O9 0.633858 0.737401 0.328036
O O10 0.627030 0.000000 0.230154
O O11 0.831023 0.741457 0.249970
O O12 0.880285 0.000000 0.217511
O O13 0.238267 0.786404 0.344060
O O14 0.321244 0.752659 0.473424
O O15 0.308312 0.000000 0.361604
O O16 0.175948 0.000000 0.418841
#
# Coordination Sequence:
#
# PCOD8084890 Si02
#       6
#     8   8   8   8   8   8
#     4   9  19  36  56  76  98 127 164 206 253 303
#     4  10  19  29  43  66  97 130 162 197 239 289
#     4  10  19  31  49  72  98 128 163 202 245 294
#     4  10  20  32  48  72 100 129 163 204 249 295
#     4  10  20  33  50  72 101 138 174 204 238 286
#     4  10  20  33  50  73 103 137 171 205 241 286
#
# _framework density 17.920269999999999
#
# number of rings (size 3 to 8) (size 9 to 14) (size 15 to 20)
#    0.000    2.167    0.000    3.500    0.000    7.667 
#    0.000    0.000    0.000    1.000    0.000    7.000 
#    0.000    0.000    0.000    0.000    0.000    0.000 
#
# Total GULP energy -297367.853311 kJ/mol
# GULP energy per Si atom -12390.327221 kJ/mol
# Density = 1.787948 g / cm^3
# Si number density = 17.920270 Si / 1000 Ang^3
#
#
#
# Elastic Constant Matrix: (Units=GPa)
#
#
# Indices 1 2 3 4 5 6 
#
# 1 59.6754 29.1924 20.9995 0.0000 2.2375 0.0000
# 2 29.1924 91.3835 38.4406 0.0000 0.8682 0.0000
# 3 20.9995 38.4406 79.5730 0.0000 7.6781 0.0000
# 4 0.0000 0.0000 0.0000 32.9472 0.0000 -2.4746
# 5 2.2375 0.8682 7.6781 0.0000 25.2367 0.0000
# 6 0.0000 0.0000 0.0000 -2.4746 0.0000 21.8736
#
#
#
# Elastic Compliance Matrix: (Units=1/GPa)
#
#
# Indices 1 2 3 4 5 6 
#
# 1 0.020361 -0.005357 -0.002708 0.000000 -0.000797 0.000000
# 2 -0.005357 0.015206 -0.006107 0.000000 0.001810 0.000000
# 3 -0.002708 -0.006107 0.016678 0.000000 -0.004624 0.000000
# 4 0.000000 0.000000 0.000000 0.030612 0.000000 0.003463
# 5 -0.000797 0.001810 -0.004624 0.000000 0.041040 0.000000
# 6 0.000000 0.000000 0.000000 0.003463 0.000000 0.046109
#
#
# Mechanical properties :
#
#
# Convention : Reuss Voigt Hill
#
# Bulk Modulus (GPa) = 41.84060 45.32188 43.58124
# Shear Modulus (GPa) = 24.23455 25.47813 24.85634
#
# Velocity S-wave (km/s) = 3.68143 3.77470 3.72835
# Velocity P-wave (km/s) = 6.43968 6.65910 6.55030
#
# Compressibility (1/GPa) = 0.02390023
#
# Stress axis : x y z
#
# Youngs Moduli (GPa) = 49.11339 65.76410 59.95946
#
# Poissons Ratio (x) = 0.35233 0.16239
# Poissons Ratio (y) = 0.26312 0.36614
# Poissons Ratio (z) = 0.13301 0.40159
#
# Static dielectric constant tensor:
#      x y z
#    x 2.627770 0.000000 -0.382640 
#    y 0.000000 3.540820 0.000000 
#    z -0.382640 0.000000 2.878870 
# 
# 
# High freq. dielectric constant tensor:
#      x y z
#    x 1.658480 0.000000 0.005330 
#    y 0.000000 1.710040 0.000000 
#    z 0.005330 0.000000 1.691900 
# 
# From -- ./inp_files/172326.got.cif
#   From: 2010.06.25/outbox.cif.g09.slc.cpg/sg12_87_cif.got.tgz:172326.got - 2010.06.28 00:19:55.
