data_PCOD8084285
_publ_section_title
;
Structure prediction by ZEFSAII (Michael W. Deem and Ramdas Pophale) SiO2 
 PCOD8084285
Probable space group: C 2/M
;
_chemical_formula_sum "Si O2"
_cell_formula_units_Z 56
_cell_length_a 21.527902
_cell_length_b 18.290657
_cell_length_c 16.100631
_cell_angle_alpha 90.000000
_cell_angle_beta 153.657149
_cell_angle_gamma 90.000000
_cell_volume 2813.221951
_symmetry_space_group_name_H-M "C 2/M"
_symmetry_group_IT_number 12
_symmetry_cell_setting 'monoclinic'
loop_
_space_group_symop_operation_xyz
x,y,z
-x,y,-z
-x,-y,-z
x,-y,z
1/2+x,1/2+y,z
1/2-x,1/2+y,-z
1/2-x,1/2-y,-z
1/2+x,1/2-y,z
loop_
_atom_site_type_symbol
_atom_site_label
_atom_site_fract_x
_atom_site_fract_y
_atom_site_fract_z
Si Si1 0.071194 0.803718 0.722113
Si Si2 0.709071 0.418329 0.782713
Si Si3 0.451928 0.082429 0.204356
Si Si4 0.905685 0.798068 0.961919
Si Si5 0.231328 0.340362 0.891932
Si Si6 0.884374 0.703250 0.685776
Si Si7 0.241311 0.825498 0.670910
O O1 0.088966 0.866392 0.674616
O O2 0.132944 0.729403 0.758937
O O3 0.906823 0.797273 0.542768
O O4 0.146207 0.823823 0.896820
O O5 0.651231 0.500000 0.719018
O O6 0.736069 0.398467 0.719418
O O7 0.851031 0.408899 0.004764
O O8 0.366190 0.094949 0.188008
O O9 0.567493 0.146705 0.329539
O O10 0.515806 0.000000 0.284773
O O11 0.808816 0.857685 0.895957
O O12 0.803545 0.739881 0.799052
O O13 0.000000 0.833446 0.000000
O O14 0.993807 0.758546 0.140259
O O15 0.750000 0.750000 0.500000
O O16 0.841612 0.654572 0.714284
#
# Coordination Sequence:
#
# PCOD8084285 Si02
#       7
#     8   8   8   8   8   8   8
#     4  10  19  31  53  78 109 152 195 232 270 328
#     4  10  20  33  50  79 121 157 186 224 273 341
#     4  10  21  37  57  82 112 152 192 229 281 344
#     4  10  20  33  52  84 112 136 185 239 279 335
#     4  10  18  35  55  75 107 149 191 239 281 322
#     4  11  21  36  55  81 112 149 193 236 277 332
#     4  11  20  31  50  79 114 148 187 229 280 329
#
# _framework density 19.906001
#
# number of rings (size 3 to 8) (size 9 to 14) (size 15 to 20)
#    0.000    1.714    2.857    3.857    0.000    1.714 
#    0.000    1.429    0.000    3.000    0.000   17.000 
#    0.000    0.000    0.000    0.000    0.000    0.000 
#
# Total GULP energy -347000.009518 kJ/mol
# GULP energy per Si atom -12392.857483 kJ/mol
# Density = 1.986069 g / cm^3
# Si number density = 19.906001 Si / 1000 Ang^3
#
#
#
# Elastic Constant Matrix: (Units=GPa)
#
#
# Indices 1 2 3 4 5 6 
#
# 1 145.4053 48.5861 5.7642 0.0000 9.5719 0.0000
# 2 48.5861 74.4768 26.0019 0.0000 3.3209 0.0000
# 3 5.7642 26.0019 62.5463 0.0000 15.8922 0.0000
# 4 0.0000 0.0000 0.0000 16.2084 0.0000 1.6923
# 5 9.5719 3.3209 15.8922 0.0000 20.7204 0.0000
# 6 0.0000 0.0000 0.0000 1.6923 0.0000 29.0666
#
#
#
# Elastic Compliance Matrix: (Units=1/GPa)
#
#
# Indices 1 2 3 4 5 6 
#
# 1 0.009551 -0.007242 0.003673 0.000000 -0.006068 0.000000
# 2 -0.007242 0.021360 -0.010176 0.000000 0.007727 0.000000
# 3 0.003673 -0.010176 0.024713 0.000000 -0.019020 0.000000
# 4 0.000000 0.000000 0.000000 0.062074 0.000000 -0.003614
# 5 -0.006068 0.007727 -0.019020 0.000000 0.064414 0.000000
# 6 0.000000 0.000000 0.000000 -0.003614 0.000000 0.034614
#
#
# Mechanical properties :
#
#
# Convention : Reuss Voigt Hill
#
# Bulk Modulus (GPa) = 35.54606 49.23698 42.39152
# Shear Modulus (GPa) = 19.71650 26.67083 23.19366
#
# Velocity S-wave (km/s) = 3.15060 3.66435 3.41715
# Velocity P-wave (km/s) = 5.57950 6.53389 6.07546
#
# Compressibility (1/GPa) = 0.02813252
#
# Stress axis : x y z
#
# Youngs Moduli (GPa) = 104.69850 46.81694 40.46516
#
# Poissons Ratio (x) = 0.33907 -0.14861
# Poissons Ratio (y) = 0.75828 0.41176
# Poissons Ratio (z) = -0.38451 0.47639
#
# Static dielectric constant tensor:
#      x y z
#    x 4.130500 0.000000 0.039260 
#    y 0.000000 3.329150 0.000000 
#    z 0.039260 0.000000 3.569680 
# 
# 
# High freq. dielectric constant tensor:
#      x y z
#    x 1.795230 0.000000 0.006700 
#    y 0.000000 1.726340 0.000000 
#    z 0.006700 0.000000 1.771940 
# 
# From -- ./inp_files/234749.got.cif
#   From: 2010.06.25/outbox.cif.g09.slc.cpg/sg12_118_cif.got.tgz:234749.got - 2010.06.28 00:19:55.
