data_PCOD8084506
_publ_section_title
;
Structure prediction by ZEFSAII (Michael W. Deem and Ramdas Pophale) SiO2 
 PCOD8084506
Probable space group: C 2/M
;
_chemical_formula_sum "Si O2"
_cell_formula_units_Z 64
_cell_length_a 25.033771
_cell_length_b 8.872525
_cell_length_c 14.609161
_cell_angle_alpha 90.000000
_cell_angle_beta 88.411668
_cell_angle_gamma 90.000000
_cell_volume 3243.634310
_symmetry_space_group_name_H-M "C 2/M"
_symmetry_group_IT_number 12
_symmetry_cell_setting 'monoclinic'
loop_
_space_group_symop_operation_xyz
x,y,z
-x,y,-z
-x,-y,-z
x,-y,z
1/2+x,1/2+y,z
1/2-x,1/2+y,-z
1/2-x,1/2-y,-z
1/2+x,1/2-y,z
loop_
_atom_site_type_symbol
_atom_site_label
_atom_site_fract_x
_atom_site_fract_y
_atom_site_fract_z
Si Si1 0.557232 0.324297 0.528052
Si Si2 0.513972 0.828644 0.230479
Si Si3 0.689554 0.823644 0.819128
Si Si4 0.337587 0.322785 0.996028
Si Si5 0.590184 0.321080 0.724887
Si Si6 0.899859 0.175572 0.661328
Si Si7 0.808343 0.176374 0.797083
Si Si8 0.056292 0.671405 0.034488
O O1 0.500000 0.252836 0.500000
O O2 0.547693 0.500000 0.545035
O O3 0.579949 0.257742 0.622230
O O4 0.602712 0.295723 0.447922
O O5 0.458793 0.740891 0.211623
O O6 0.544797 0.752713 0.312540
O O7 0.554531 0.818499 0.143889
O O8 0.499411 0.000000 0.254842
O O9 0.694198 0.762375 0.922568
O O10 0.645877 0.740643 0.760117
O O11 0.747390 0.790546 0.770672
O O12 0.676643 0.000000 0.822923
O O13 0.327676 0.500000 0.006421
O O14 0.319928 0.256814 0.897903
O O15 0.399880 0.284589 0.007338
O O16 0.592586 0.500000 0.730439
O O17 0.848096 0.243673 0.716986
O O18 0.905484 0.000000 0.683356
O O19 0.819058 0.000000 0.804143
O O20 0.068223 0.500000 0.000954
O O21 0.000000 0.727859 0.000000
#
# Coordination Sequence:
#
# PCOD8084506 Si02
#       8
#     8   8   8   8   8   8   8   8
#     4   9  17  32  59  89 113 145 186 233 288 337
#     4  11  21  33  53  84 118 151 183 227 288 339
#     4  11  23  40  57  80 116 155 191 234 294 341
#     4  11  21  36  59  87 110 143 198 241 276 329
#     4  11  22  38  59  85 114 149 195 238 281 340
#     4  10  18  36  61  84 112 147 190 234 276 336
#     4   9  20  37  60  85 112 151 196 238 280 333
#     4  10  21  35  50  74 114 156 186 222 282 342
#
# _framework density 19.730954000000001
#
# number of rings (size 3 to 8) (size 9 to 14) (size 15 to 20)
#    0.000    1.750    2.500    2.625    0.000    1.750 
#    0.000    5.625    0.000    0.000    0.000    0.000 
#    0.000    0.000    0.000    0.000    0.000    0.000 
#
# Total GULP energy -396728.717062 kJ/mol
# GULP energy per Si atom -12397.772408 kJ/mol
# Density = 1.968605 g / cm^3
# Si number density = 19.730954 Si / 1000 Ang^3
#
#
#
# Elastic Constant Matrix: (Units=GPa)
#
#
# Indices 1 2 3 4 5 6 
#
# 1 109.3707 29.7823 33.7493 0.0000 -8.2706 0.0000
# 2 29.7823 67.5120 19.0984 0.0000 -4.0499 0.0000
# 3 33.7493 19.0984 81.7420 0.0000 -9.8191 0.0000
# 4 0.0000 0.0000 0.0000 18.5075 0.0000 1.7792
# 5 -8.2706 -4.0499 -9.8191 0.0000 24.1410 0.0000
# 6 0.0000 0.0000 0.0000 1.7792 0.0000 26.7059
#
#
#
# Elastic Compliance Matrix: (Units=1/GPa)
#
#
# Indices 1 2 3 4 5 6 
#
# 1 0.011459 -0.003930 -0.003597 0.000000 0.001804 0.000000
# 2 -0.003930 0.017242 -0.002334 0.000000 0.000597 0.000000
# 3 -0.003597 -0.002334 0.014792 0.000000 0.004393 0.000000
# 4 0.000000 0.000000 0.000000 0.054381 0.000000 -0.003623
# 5 0.001804 0.000597 0.004393 0.000000 0.043928 0.000000
# 6 0.000000 0.000000 0.000000 -0.003623 0.000000 0.037686
#
#
# Mechanical properties :
#
#
# Convention : Reuss Voigt Hill
#
# Bulk Modulus (GPa) = 42.06626 47.09829 44.58228
# Shear Modulus (GPa) = 24.13912 25.60385 24.87148
#
# Velocity S-wave (km/s) = 3.50153 3.60620 3.55425
# Velocity P-wave (km/s) = 6.14116 6.42352 6.28393
#
# Compressibility (1/GPa) = 0.02377202
#
# Stress axis : x y z
#
# Youngs Moduli (GPa) = 87.26393 57.99851 67.60608
#
# Poissons Ratio (x) = 0.22791 0.24315
# Poissons Ratio (y) = 0.34291 0.15781
# Poissons Ratio (z) = 0.31385 0.13539
#
# Static dielectric constant tensor:
#      x y z
#    x 3.556120 0.000000 -0.109770 
#    y 0.000000 3.340460 0.000000 
#    z -0.109770 0.000000 3.773030 
# 
# 
# High freq. dielectric constant tensor:
#      x y z
#    x 1.766710 0.000000 -0.007670 
#    y 0.000000 1.745110 0.000000 
#    z -0.007670 0.000000 1.769840 
# 
# From -- ./inp_files/238679.got.cif
#   From: 2010.06.25/outbox.cif.g09.slc.cpg/sg12_120_cif.got.tgz:238679.got - 2010.06.28 00:19:55.
