data_PCOD8084098
_publ_section_title
;
Structure prediction by ZEFSAII (Michael W. Deem and Ramdas Pophale) SiO2 
 PCOD8084098
Probable space group: C 2/M
;
_chemical_formula_sum "Si O2"
_cell_formula_units_Z 56
_cell_length_a 16.921048
_cell_length_b 12.290102
_cell_length_c 18.915272
_cell_angle_alpha 90.000000
_cell_angle_beta 129.337422
_cell_angle_gamma 90.000000
_cell_volume 3042.385939
_symmetry_space_group_name_H-M "C 2/M"
_symmetry_group_IT_number 12
_symmetry_cell_setting 'monoclinic'
loop_
_space_group_symop_operation_xyz
x,y,z
-x,y,-z
-x,-y,-z
x,-y,z
1/2+x,1/2+y,z
1/2-x,1/2+y,-z
1/2-x,1/2-y,-z
1/2+x,1/2-y,z
loop_
_atom_site_type_symbol
_atom_site_label
_atom_site_fract_x
_atom_site_fract_y
_atom_site_fract_z
Si Si1 0.392143 0.626310 0.413373
Si Si2 0.663414 0.371753 0.245338
Si Si3 0.987085 0.306863 0.881880
Si Si4 0.999701 0.378269 0.735085
Si Si5 0.654054 0.125138 0.079197
Si Si6 0.321370 0.755786 0.240241
Si Si7 0.783149 0.722942 0.597195
O O1 0.500000 0.677412 0.500000
O O2 0.405704 0.500000 0.407935
O O3 0.362842 0.676050 0.322570
O O4 0.304394 0.646580 0.420771
O O5 0.643520 0.500000 0.239094
O O6 0.556986 0.312980 0.162550
O O7 0.748590 0.347332 0.233954
O O8 0.701035 0.328436 0.343371
O O9 0.013817 0.372710 0.827023
O O10 0.900287 0.373648 0.874921
O O11 0.089230 0.302295 0.987022
O O12 0.017195 0.500000 0.718735
O O13 0.887091 0.343010 0.649475
O O14 0.082853 0.306085 0.743949
O O15 0.762864 0.183621 0.148231
O O16 0.665083 0.000000 0.060045
O O17 0.750000 0.750000 0.500000
#
# Coordination Sequence:
#
# PCOD8084098 Si02
#       7
#     8   8   8   8   8   8   8
#     4  10  20  36  57  79 107 141 176 218 268 316
#     4   9  19  36  54  74 107 144 176 216 267 318
#     4   9  19  34  55  81 104 134 182 224 263 319
#     4  11  21  35  54  76 107 140 173 216 267 318
#     4  10  18  34  58  80 106 139 179 225 270 313
#     4  10  21  34  51  78 108 141 181 218 259 320
#     4  10  21  36  56  82 107 134 178 224 262 317
#
# _framework density 18.406607000000001
#
# number of rings (size 3 to 8) (size 9 to 14) (size 15 to 20)
#    0.000    2.143    0.000    4.714    0.000    1.714 
#    0.000   13.571    0.000    4.714    0.000    0.000 
#    0.000    0.000    0.000    0.000    0.000    0.000 
#
# Total GULP energy -347190.908299 kJ/mol
# GULP energy per Si atom -12399.675296 kJ/mol
# Density = 1.836471 g / cm^3
# Si number density = 18.406607 Si / 1000 Ang^3
#
#
#
# Elastic Constant Matrix: (Units=GPa)
#
#
# Indices 1 2 3 4 5 6 
#
# 1 113.2776 35.2454 59.1084 0.0000 13.8573 0.0000
# 2 35.2454 102.6581 45.1820 0.0000 11.2553 0.0000
# 3 59.1084 45.1820 132.5816 0.0000 8.8585 0.0000
# 4 0.0000 0.0000 0.0000 18.8208 0.0000 2.5943
# 5 13.8573 11.2553 8.8585 0.0000 34.7227 0.0000
# 6 0.0000 0.0000 0.0000 2.5943 0.0000 28.2565
#
#
#
# Elastic Compliance Matrix: (Units=1/GPa)
#
#
# Indices 1 2 3 4 5 6 
#
# 1 0.012172 -0.001814 -0.004602 0.000000 -0.003096 0.000000
# 2 -0.001814 0.011997 -0.003121 0.000000 -0.002369 0.000000
# 3 -0.004602 -0.003121 0.010649 0.000000 0.000131 0.000000
# 4 0.000000 0.000000 0.000000 0.053814 0.000000 -0.004941
# 5 -0.003096 -0.002369 0.000131 0.000000 0.030769 0.000000
# 6 0.000000 0.000000 0.000000 -0.004941 0.000000 0.035844
#
#
# Mechanical properties :
#
#
# Convention : Reuss Voigt Hill
#
# Bulk Modulus (GPa) = 63.51654 69.73210 66.62432
# Shear Modulus (GPa) = 27.84462 30.29211 29.06836
#
# Velocity S-wave (km/s) = 3.89363 4.06115 3.97827
# Velocity P-wave (km/s) = 7.40244 7.74320 7.57474
#
# Compressibility (1/GPa) = 0.01574393
#
# Stress axis : x y z
#
# Youngs Moduli (GPa) = 82.15457 83.35077 93.90585
#
# Poissons Ratio (x) = 0.15123 0.43211
# Poissons Ratio (y) = 0.14906 0.29312
# Poissons Ratio (z) = 0.37804 0.26017
#
# Static dielectric constant tensor:
#      x y z
#    x 3.408490 0.000000 0.063230 
#    y 0.000000 3.292770 0.000000 
#    z 0.063230 0.000000 3.570190 
# 
# 
# High freq. dielectric constant tensor:
#      x y z
#    x 1.710330 0.000000 0.005040 
#    y 0.000000 1.703000 0.000000 
#    z 0.005040 0.000000 1.726830 
# 
# From -- ./inp_files/269207.got.cif
#   From: 2010.06.25/outbox.cif.g09.slc.cpg/sg12_135_cif.got.tgz:269207.got - 2010.06.28 00:19:55.
