data_PCOD8084289
_publ_section_title
;
Structure prediction by ZEFSAII (Michael W. Deem and Ramdas Pophale) SiO2 
 PCOD8084289
Probable space group: C 2/M
;
_chemical_formula_sum "Si O2"
_cell_formula_units_Z 48
_cell_length_a 19.017222
_cell_length_b 13.328188
_cell_length_c 18.451014
_cell_angle_alpha 90.000000
_cell_angle_beta 149.245214
_cell_angle_gamma 90.000000
_cell_volume 2391.494110
_symmetry_space_group_name_H-M "C 2/M"
_symmetry_group_IT_number 12
_symmetry_cell_setting 'monoclinic'
loop_
_space_group_symop_operation_xyz
x,y,z
-x,y,-z
-x,-y,-z
x,-y,z
1/2+x,1/2+y,z
1/2-x,1/2+y,-z
1/2-x,1/2-y,-z
1/2+x,1/2-y,z
loop_
_atom_site_type_symbol
_atom_site_label
_atom_site_fract_x
_atom_site_fract_y
_atom_site_fract_z
Si Si1 0.624159 0.738336 0.155823
Si Si2 0.710627 0.305300 0.829546
Si Si3 0.470451 0.115556 0.127502
Si Si4 0.623090 0.182385 0.550444
Si Si5 0.950455 0.388157 0.273446
Si Si6 0.450523 0.606679 0.537434
O O1 0.713906 0.805869 0.181123
O O2 0.564667 0.812898 0.163074
O O3 0.727317 0.654142 0.282824
O O4 0.500000 0.685908 0.000000
O O5 0.667518 0.191223 0.810844
O O6 0.577380 0.374934 0.704693
O O7 0.810460 0.352172 0.978180
O O8 0.510179 0.131824 0.246441
O O9 0.490116 0.000000 0.120733
O O10 0.500000 0.176339 0.500000
O O11 0.580310 0.115769 0.444036
O O12 0.648789 0.297341 0.545822
O O13 0.885933 0.500000 0.220644
O O14 0.500000 0.595836 0.500000
O O15 0.380012 0.500000 0.498071
#
# Coordination Sequence:
#
# PCOD8084289 Si02
#       6
#     8   8   8   8   8   8
#     4  10  20  34  54  82 117 145 183 232 285 345
#     4  10  18  35  55  80 114 150 192 233 279 335
#     4  10  22  35  54  87 123 154 181 228 298 356
#     4  10  18  36  55  82 111 146 197 241 280 331
#     4  10  21  37  59  84 110 151 204 241 277 334
#     4   9  15  24  46  76 105 136 177 227 272 322
#
# _framework density 20.071134000000001
#
# number of rings (size 3 to 8) (size 9 to 14) (size 15 to 20)
#    0.000    2.167    5.000    1.000    0.000    5.333 
#    0.000    0.000    0.000    9.000    0.000    4.667 
#    0.000    0.000    0.000    0.000    0.000    0.000 
#
# Total GULP energy -297323.981665 kJ/mol
# GULP energy per Si atom -12388.499236 kJ/mol
# Density = 2.002545 g / cm^3
# Si number density = 20.071134 Si / 1000 Ang^3
#
#
#
# Elastic Constant Matrix: (Units=GPa)
#
#
# Indices 1 2 3 4 5 6 
#
# 1 71.5550 33.1069 42.9971 0.0001 -11.8411 0.0001
# 2 33.1069 78.2563 14.4649 0.0001 -9.5415 0.0001
# 3 42.9971 14.4649 149.0350 0.0002 -6.5557 0.0002
# 4 0.0001 0.0001 0.0002 20.7368 0.0001 -7.2388
# 5 -11.8411 -9.5415 -6.5557 0.0001 29.9497 0.0001
# 6 0.0001 0.0001 0.0002 -7.2388 0.0001 16.4247
#
#
#
# Elastic Compliance Matrix: (Units=1/GPa)
#
#
# Indices 1 2 3 4 5 6 
#
# 1 0.021396 -0.007484 -0.005230 0.000000 0.004930 0.000000
# 2 -0.007484 0.016099 0.000699 0.000000 0.002323 0.000000
# 3 -0.005230 0.000699 0.008148 0.000000 -0.000061 0.000000
# 4 0.000000 0.000000 0.000000 0.056991 0.000000 0.025118
# 5 0.004930 0.002323 -0.000061 0.000000 0.036065 -0.000001
# 6 0.000000 0.000000 0.000000 0.025118 -0.000001 0.071954
#
#
# Mechanical properties :
#
#
# Convention : Reuss Voigt Hill
#
# Bulk Modulus (GPa) = 46.26755 53.33156 49.79956
# Shear Modulus (GPa) = 20.67074 27.30741 23.98908
#
# Velocity S-wave (km/s) = 3.21265 3.69254 3.46092
# Velocity P-wave (km/s) = 6.07152 6.69393 6.39031
#
# Compressibility (1/GPa) = 0.02161342
#
# Stress axis : x y z
#
# Youngs Moduli (GPa) = 46.73695 62.11659 122.72831
#
# Poissons Ratio (x) = 0.46489 0.64183
# Poissons Ratio (y) = 0.34978 -0.08577
# Poissons Ratio (z) = 0.24442 -0.04341
#
# Static dielectric constant tensor:
#      x y z
#    x 3.280850 0.000000 -0.111240 
#    y 0.000000 3.698520 0.000000 
#    z -0.111240 0.000000 4.193950 
# 
# 
# High freq. dielectric constant tensor:
#      x y z
#    x 1.746340 0.000000 -0.015480 
#    y 0.000000 1.759380 0.000000 
#    z -0.015480 0.000000 1.803490 
# 
# From -- ./inp_files/284095.got.cif
#   From: 2010.06.25/outbox.cif.g09.slc.cpg/sg12_143_cif.got.tgz:284095.got - 2010.06.28 00:19:55.
