data_PCOD8084504
_publ_section_title
;
Structure prediction by ZEFSAII (Michael W. Deem and Ramdas Pophale) SiO2 
 PCOD8084504
Probable space group: C 2/M
;
_chemical_formula_sum "Si O2"
_cell_formula_units_Z 48
_cell_length_a 14.345779
_cell_length_b 30.800775
_cell_length_c 5.102203
_cell_angle_alpha 90.000000
_cell_angle_beta 61.123929
_cell_angle_gamma 90.000000
_cell_volume 1974.159076
_symmetry_space_group_name_H-M "C 2/M"
_symmetry_group_IT_number 12
_symmetry_cell_setting 'monoclinic'
loop_
_space_group_symop_operation_xyz
x,y,z
-x,y,-z
-x,-y,-z
x,-y,z
1/2+x,1/2+y,z
1/2-x,1/2+y,-z
1/2-x,1/2-y,-z
1/2+x,1/2-y,z
loop_
_atom_site_type_symbol
_atom_site_label
_atom_site_fract_x
_atom_site_fract_y
_atom_site_fract_z
Si Si1 0.113380 0.327148 0.005760
Si Si2 0.109384 0.578077 0.234773
Si Si3 0.883716 0.719126 0.502341
Si Si4 0.319569 0.690821 0.457276
Si Si5 0.727318 0.049570 0.575628
Si Si6 0.431836 0.396818 0.331514
O O1 0.087081 0.373979 0.155914
O O2 0.072434 0.289946 0.265219
O O3 0.935189 0.315640 0.219748
O O4 0.241917 0.322888 0.804500
O O5 0.190690 0.577162 0.370157
O O6 0.000000 0.558292 0.500000
O O7 0.147189 0.550563 0.932263
O O8 0.756346 0.707995 0.676267
O O9 0.900131 0.769790 0.417224
O O10 0.389259 0.649480 0.285459
O O11 0.837504 0.069862 0.525100
O O12 0.742293 0.000000 0.466717
O O13 0.500000 0.390703 0.500000
O O14 0.500000 0.416653 0.000000
#
# Coordination Sequence:
#
# PCOD8084504 Si02
#       6
#     8   8   8   8   8   8
#     4  10  18  36  60  93 132 175 212 267 328 394
#     4  12  25  44  74 108 140 178 226 282 357 439
#     4   9  19  31  65  89 127 183 224 265 335 380
#     4   9  20  36  62  90 130 178 223 278 331 382
#     4  12  27  50  74  99 139 179 224 297 363 425
#     4  12  27  43  70 101 136 184 239 288 344 416
#
# _framework density 24.314147999999999
#
# number of rings (size 3 to 8) (size 9 to 14) (size 15 to 20)
#    1.000    0.333    1.667    4.500    2.333    2.667 
#    0.000    2.500    0.000    0.000    0.000    0.000 
#    0.000    0.000    0.000    0.000    0.000    0.000 
#
# Total GULP energy -297576.497197 kJ/mol
# GULP energy per Si atom -12399.020717 kJ/mol
# Density = 2.425881 g / cm^3
# Si number density = 24.314148 Si / 1000 Ang^3
#
#
#
# Elastic Constant Matrix: (Units=GPa)
#
#
# Indices 1 2 3 4 5 6 
#
# 1 120.4456 46.4437 41.0157 0.0000 20.7395 0.0000
# 2 46.4437 127.1486 36.1280 0.0000 -3.8272 0.0000
# 3 41.0157 36.1280 122.9654 0.0000 12.1277 0.0000
# 4 0.0000 0.0000 0.0000 29.9083 0.0000 5.8592
# 5 20.7395 -3.8272 12.1277 0.0000 43.4053 0.0000
# 6 0.0000 0.0000 0.0000 5.8592 0.0000 16.9623
#
#
#
# Elastic Compliance Matrix: (Units=1/GPa)
#
#
# Indices 1 2 3 4 5 6 
#
# 1 0.011354 -0.003676 -0.002201 0.000000 -0.005134 0.000000
# 2 -0.003676 0.009868 -0.001987 0.000000 0.003182 0.000000
# 3 -0.002201 -0.001987 0.009629 0.000000 -0.001814 0.000000
# 4 0.000000 0.000000 0.000000 0.035862 0.000000 -0.012388
# 5 -0.005134 0.003182 -0.001814 0.000000 0.026279 0.000000
# 6 0.000000 0.000000 0.000000 -0.012388 0.000000 0.063233
#
#
# Mechanical properties :
#
#
# Convention : Reuss Voigt Hill
#
# Bulk Modulus (GPa) = 66.12402 68.63717 67.38059
# Shear Modulus (GPa) = 28.24957 34.52000 31.38478
#
# Velocity S-wave (km/s) = 3.41230 3.77204 3.59667
# Velocity P-wave (km/s) = 6.54063 6.87471 6.70975
#
# Compressibility (1/GPa) = 0.01512310
#
# Stress axis : x y z
#
# Youngs Moduli (GPa) = 88.07854 101.33763 103.85265
#
# Poissons Ratio (x) = 0.37256 0.22853
# Poissons Ratio (y) = 0.32381 0.20634
# Poissons Ratio (z) = 0.19382 0.20134
#
# Static dielectric constant tensor:
#      x y z
#    x 4.653490 0.000000 -0.177590 
#    y 0.000000 4.002590 0.000000 
#    z -0.177590 0.000000 4.482280 
# 
# 
# High freq. dielectric constant tensor:
#      x y z
#    x 1.987510 0.000000 -0.008380 
#    y 0.000000 1.947310 0.000000 
#    z -0.008380 0.000000 1.981040 
# 
# From -- ./inp_files/13052.got.cif
#   From: 2010.06.25/outbox.cif.g09.slc.cpg/sg12_7_cif.got.tgz:13052.got - 2010.06.28 00:19:55.
