data_PCOD8084230
_publ_section_title
;
Structure prediction by ZEFSAII (Michael W. Deem and Ramdas Pophale) SiO2 
 PCOD8084230
Probable space group: C 2/M
;
_chemical_formula_sum "Si O2"
_cell_formula_units_Z 40
_cell_length_a 18.173999
_cell_length_b 14.341379
_cell_length_c 20.975430
_cell_angle_alpha 90.000000
_cell_angle_beta 21.051631
_cell_angle_gamma 90.000000
_cell_volume 1963.810575
_symmetry_space_group_name_H-M "C 2/M"
_symmetry_group_IT_number 12
_symmetry_cell_setting 'monoclinic'
loop_
_space_group_symop_operation_xyz
x,y,z
-x,y,-z
-x,-y,-z
x,-y,z
1/2+x,1/2+y,z
1/2-x,1/2+y,-z
1/2-x,1/2-y,-z
1/2+x,1/2-y,z
loop_
_atom_site_type_symbol
_atom_site_label
_atom_site_fract_x
_atom_site_fract_y
_atom_site_fract_z
Si Si1 0.287829 0.896463 0.636407
Si Si2 0.003334 0.396020 0.661350
Si Si3 0.881974 0.709179 0.191750
Si Si4 0.212554 0.891674 0.451477
Si Si5 0.801953 0.788821 0.795931
O O1 0.500000 0.872524 0.500000
O O2 0.318853 0.890419 0.535468
O O3 0.120577 0.819732 0.790835
O O4 0.210955 0.000000 0.718307
O O5 0.905516 0.500000 0.740333
O O6 0.827813 0.321726 0.787188
O O7 0.103910 0.373359 0.647981
O O8 0.776988 0.650208 0.331853
O O9 0.753486 0.690204 0.232057
O O10 0.117551 0.677736 0.991162
O O11 0.009830 0.843123 0.643883
O O12 0.164771 0.000000 0.481326
#
# Coordination Sequence:
#
# PCOD8084230 Si02
#       5
#     8   8   8   8   8
#     4  10  18  34  61  89 122 159 193 232 290 359
#     4  10  21  39  63  90 121 156 193 239 296 359
#     4  11  23  38  62  92 118 156 197 243 297 349
#     4  11  24  43  62  83 119 161 200 246 296 341
#     4  11  23  39  62  91 120 151 201 246 291 352
#
# _framework density 20.368563000000002
#
# number of rings (size 3 to 8) (size 9 to 14) (size 15 to 20)
#    0.000    1.400    4.000    1.200    0.000    4.000 
#    0.000    4.000    0.000    0.000    0.000    0.000 
#    0.000    0.000    0.000    0.000    0.000    0.000 
#
# Total GULP energy -248009.075454 kJ/mol
# GULP energy per Si atom -12400.453773 kJ/mol
# Density = 2.032220 g / cm^3
# Si number density = 20.368563 Si / 1000 Ang^3
#
#
#
# Elastic Constant Matrix: (Units=GPa)
#
#
# Indices 1 2 3 4 5 6 
#
# 1 78.5170 27.7586 24.2674 -0.0286 2.6544 -0.0125
# 2 27.7586 99.7090 38.4100 -0.0770 3.1608 0.0201
# 3 24.2674 38.4100 86.9344 -0.2010 4.0830 0.0018
# 4 -0.0286 -0.0770 -0.2010 13.6902 0.0019 -3.6004
# 5 2.6544 3.1608 4.0830 0.0019 16.7669 0.0100
# 6 -0.0125 0.0201 0.0018 -3.6004 0.0100 33.9754
#
#
#
# Elastic Compliance Matrix: (Units=1/GPa)
#
#
# Indices 1 2 3 4 5 6 
#
# 1 0.014675 -0.003004 -0.002718 -0.000025 -0.001095 0.000005
# 2 -0.003004 0.012717 -0.004744 -0.000007 -0.000767 -0.000009
# 3 -0.002718 -0.004744 0.014461 0.000186 -0.002197 0.000021
# 4 -0.000025 -0.000007 0.000186 0.075142 -0.000053 0.007963
# 5 -0.001095 -0.000767 -0.002197 -0.000053 0.060494 -0.000023
# 6 0.000005 -0.000009 0.000021 0.007963 -0.000023 0.030277
#
#
# Mechanical properties :
#
#
# Convention : Reuss Voigt Hill
#
# Bulk Modulus (GPa) = 47.79745 49.55917 48.67831
# Shear Modulus (GPa) = 21.21580 24.53477 22.87528
#
# Velocity S-wave (km/s) = 3.23088 3.47441 3.35486
# Velocity P-wave (km/s) = 6.11844 6.36235 6.24158
#
# Compressibility (1/GPa) = 0.02092162
#
# Stress axis : x y z
#
# Youngs Moduli (GPa) = 68.14263 78.63264 69.14933
#
# Poissons Ratio (x) = 0.23619 0.18795
# Poissons Ratio (y) = 0.20469 0.32807
# Poissons Ratio (z) = 0.18521 0.37307
#
# Static dielectric constant tensor:
#      x y z
#    x 3.737060 -0.000070 0.111390 
#    y -0.000070 3.830580 0.000430 
#    z 0.111390 0.000430 3.472760 
# 
# 
# High freq. dielectric constant tensor:
#      x y z
#    x 1.802780 0.000000 0.009440 
#    y 0.000000 1.802000 0.000030 
#    z 0.009440 0.000030 1.772630 
# 
# From -- ./inp_files/72845.got.cif
#   From: 2010.06.25/outbox.cif.g09.slc.cpg/sg12_37_cif.got.tgz:72845.got - 2010.06.28 00:19:55.
