data_PCOD8084443
_publ_section_title
;
Structure prediction by ZEFSAII (Michael W. Deem and Ramdas Pophale) SiO2 
 PCOD8084443
Probable space group: C 2/M
;
_chemical_formula_sum "Si O2"
_cell_formula_units_Z 48
_cell_length_a 8.591723
_cell_length_b 19.571015
_cell_length_c 13.882481
_cell_angle_alpha 90.000000
_cell_angle_beta 113.704810
_cell_angle_gamma 90.000000
_cell_volume 2137.372271
_symmetry_space_group_name_H-M "C 2/M"
_symmetry_group_IT_number 12
_symmetry_cell_setting 'monoclinic'
loop_
_space_group_symop_operation_xyz
x,y,z
-x,y,-z
-x,-y,-z
x,-y,z
1/2+x,1/2+y,z
1/2-x,1/2+y,-z
1/2-x,1/2-y,-z
1/2+x,1/2-y,z
loop_
_atom_site_type_symbol
_atom_site_label
_atom_site_fract_x
_atom_site_fract_y
_atom_site_fract_z
Si Si1 0.802782 0.341365 0.368473
Si Si2 0.054265 0.277694 0.314543
Si Si3 0.946745 0.919942 0.590313
Si Si4 0.291568 0.423654 0.050463
Si Si5 0.291162 0.664539 0.224000
Si Si6 0.193705 0.076561 0.159810
O O1 0.001277 0.319704 0.400759
O O2 0.699569 0.275369 0.378956
O O3 0.750208 0.400211 0.432095
O O4 0.755490 0.366216 0.248918
O O5 0.885023 0.237812 0.234395
O O6 0.127056 0.328993 0.252248
O O7 0.071376 0.888862 0.700590
O O8 0.000000 0.890035 0.500000
O O9 0.967550 0.000000 0.597878
O O10 0.229021 0.500000 0.064192
O O11 0.219947 0.366436 0.106321
O O12 0.493012 0.420640 0.103643
O O13 0.228657 0.406746 0.926533
O O14 0.250687 0.000000 0.206548
#
# Coordination Sequence:
#
# PCOD8084443 Si02
#       6
#     8   8   8   8   8   8
#     4  10  18  36  52  73 106 132 167 210 247 290
#     4   9  20  33  53  74 100 140 171 200 246 301
#     4  10  20  35  58  81  99 127 164 202 250 301
#     4   9  16  28  50  75  97 131 174 209 249 297
#     4  10  18  36  52  73 106 132 167 210 247 290
#     4   9  16  28  50  75  97 131 174 209 249 297
#
# _framework density 22.457481000000001
#
# number of rings (size 3 to 8) (size 9 to 14) (size 15 to 20)
#    0.000    2.500    3.333    2.000    0.000    0.000 
#    0.000   23.333    0.000    4.000    0.000    0.000 
#    0.000    0.000    0.000    0.000    0.000    0.000 
#
# Total GULP energy -297349.519658 kJ/mol
# GULP energy per Si atom -12389.563319 kJ/mol
# Density = 2.240637 g / cm^3
# Si number density = 22.457481 Si / 1000 Ang^3
#
#
#
# Elastic Constant Matrix: (Units=GPa)
#
#
# Indices 1 2 3 4 5 6 
#
# 1 129.9382 36.1363 16.7323 0.0000 -35.4052 0.0000
# 2 36.1363 71.1676 6.3220 0.0000 -15.7887 0.0000
# 3 16.7323 6.3220 26.9360 0.0000 -22.6343 0.0000
# 4 0.0000 0.0000 0.0000 21.4968 0.0000 -19.4314
# 5 -35.4052 -15.7887 -22.6343 0.0000 35.2629 0.0000
# 6 0.0000 0.0000 0.0000 -19.4314 0.0000 31.1210
#
#
#
# Elastic Compliance Matrix: (Units=1/GPa)
#
#
# Indices 1 2 3 4 5 6 
#
# 1 0.011616 -0.003404 0.004565 0.000000 0.013068 0.000000
# 2 -0.003404 0.016889 0.003545 0.000000 0.006419 0.000000
# 3 0.004565 0.003545 0.083890 0.000000 0.060017 0.000000
# 4 0.000000 0.000000 0.000000 0.106790 0.000000 0.066677
# 5 0.013068 0.006419 0.060017 0.000000 0.082877 0.000000
# 6 0.000000 0.000000 0.000000 0.066677 0.000000 0.073765
#
#
# Mechanical properties :
#
#
# Convention : Reuss Voigt Hill
#
# Bulk Modulus (GPa) = 8.20983 38.49144 23.35063
# Shear Modulus (GPa) = 12.28451 28.83288 20.55870
#
# Velocity S-wave (km/s) = 2.34137 3.58703 3.02892
# Velocity P-wave (km/s) = 3.31255 5.85940 4.75949
#
# Compressibility (1/GPa) = 0.12180526
#
# Stress axis : x y z
#
# Youngs Moduli (GPa) = 86.09011 59.20957 11.92044
#
# Poissons Ratio (x) = 0.20157 -0.05441
# Poissons Ratio (y) = 0.29308 -0.04226
# Poissons Ratio (z) = -0.39298 -0.20989
#
# Static dielectric constant tensor:
#      x y z
#    x 4.320060 0.000000 -0.617920 
#    y 0.000000 4.237020 0.000000 
#    z -0.617920 0.000000 4.194640 
# 
# 
# High freq. dielectric constant tensor:
#      x y z
#    x 1.881450 0.000000 -0.038180 
#    y 0.000000 1.884230 0.000000 
#    z -0.038180 0.000000 1.857880 
# 
# From -- ./inp_files/197178.got.cif
#   From: 2010.06.25/outbox.cif.g09.slc.cpg/sg12_99_cif.got.tgz:197178.got - 2010.06.28 00:19:55.
