data_PCOD8084078
_publ_section_title
;
Structure prediction by ZEFSAII (Michael W. Deem and Ramdas Pophale) SiO2 
 PCOD8084078
Probable space group: C 2/M
;
_chemical_formula_sum "Si O2"
_cell_formula_units_Z 64
_cell_length_a 19.564516
_cell_length_b 19.366553
_cell_length_c 19.099959
_cell_angle_alpha 90.000000
_cell_angle_beta 28.206276
_cell_angle_gamma 90.000000
_cell_volume 3420.511469
_symmetry_space_group_name_H-M "C 2/M"
_symmetry_group_IT_number 12
_symmetry_cell_setting 'monoclinic'
loop_
_space_group_symop_operation_xyz
x,y,z
-x,y,-z
-x,-y,-z
x,-y,z
1/2+x,1/2+y,z
1/2-x,1/2+y,-z
1/2-x,1/2-y,-z
1/2+x,1/2-y,z
loop_
_atom_site_type_symbol
_atom_site_label
_atom_site_fract_x
_atom_site_fract_y
_atom_site_fract_z
Si Si1 0.395147 0.680550 0.418726
Si Si2 0.527137 0.330928 0.894056
Si Si3 0.765778 0.319018 0.580133
Si Si4 0.477137 0.076905 0.333296
Si Si5 0.210230 0.186202 0.089213
Si Si6 0.485641 0.822750 0.929744
Si Si7 0.192896 0.920610 0.988827
Si Si8 0.317470 0.920194 0.333298
O O1 0.346126 0.673501 0.382709
O O2 0.317079 0.740123 0.534127
O O3 0.564799 0.699413 0.265425
O O4 0.342999 0.610065 0.504558
O O5 0.689984 0.345906 0.720339
O O6 0.507171 0.254398 0.880415
O O7 0.416351 0.387387 0.966966
O O8 0.500000 0.330661 0.000000
O O9 0.903931 0.368232 0.449924
O O10 0.425100 0.089568 0.301305
O O11 0.433934 0.000000 0.396400
O O12 0.647253 0.088578 0.185948
O O13 0.178653 0.117130 0.075111
O O14 0.250000 0.250000 0.000000
O O15 0.327744 0.162381 0.040562
O O16 0.606424 0.877128 0.796652
O O17 0.500000 0.824290 0.000000
O O18 0.151428 0.000000 0.037822
O O19 0.300283 0.000000 0.326620
#
# Coordination Sequence:
#
# PCOD8084078 Si02
#       8
#     8   8   8   8   8   8   8   8
#     4  10  20  32  58  90 115 148 196 251 298 348
#     4  11  23  40  59  84 122 162 200 247 300 359
#     4  10  18  34  57  86 115 148 197 245 296 351
#     4   9  19  33  56  87 117 147 191 245 294 352
#     4  12  21  37  64  91 119 157 201 250 303 346
#     4  11  23  39  62  90 122 158 202 246 295 365
#     4  11  22  37  59  91 122 152 202 253 296 353
#     4  10  20  37  58  86 123 157 190 240 305 358
#
# _framework density 18.710652
#
# number of rings (size 3 to 8) (size 9 to 14) (size 15 to 20)
#    0.000    1.500    5.000    0.750    1.750    1.500 
#    0.000    1.250    0.000    2.250    0.000    0.000 
#    0.000    0.000    0.000    0.000    0.000    0.000 
#
# Total GULP energy -396566.130582 kJ/mol
# GULP energy per Si atom -12392.691581 kJ/mol
# Density = 1.866807 g / cm^3
# Si number density = 18.710652 Si / 1000 Ang^3
#
#
#
# Elastic Constant Matrix: (Units=GPa)
#
#
# Indices 1 2 3 4 5 6 
#
# 1 55.5264 26.7907 34.5341 0.0102 2.0674 -0.0010
# 2 26.7907 121.3053 46.8532 0.0349 5.6757 -0.0078
# 3 34.5341 46.8532 115.4996 0.0465 3.9019 -0.0116
# 4 0.0102 0.0349 0.0465 32.4232 -0.0098 -3.5761
# 5 2.0674 5.6757 3.9019 -0.0098 21.6435 0.0009
# 6 -0.0010 -0.0078 -0.0116 -3.5761 0.0009 15.9801
#
#
#
# Elastic Compliance Matrix: (Units=1/GPa)
#
#
# Indices 1 2 3 4 5 6 
#
# 1 0.022938 -0.002849 -0.005688 0.000004 -0.000418 -0.000003
# 2 -0.002849 0.010204 -0.003226 -0.000006 -0.001822 0.000001
# 3 -0.005688 -0.003226 0.011692 -0.000011 -0.000719 0.000004
# 4 0.000004 -0.000006 -0.000011 0.031623 0.000017 0.007077
# 5 -0.000418 -0.001822 -0.000719 0.000017 0.046851 0.000000
# 6 -0.000003 0.000001 0.000004 0.007077 0.000000 0.064161
#
#
# Mechanical properties :
#
#
# Convention : Reuss Voigt Hill
#
# Bulk Modulus (GPa) = 46.93401 56.52082 51.72741
# Shear Modulus (GPa) = 22.92555 26.28624 24.60590
#
# Velocity S-wave (km/s) = 3.50418 3.75224 3.63033
# Velocity P-wave (km/s) = 6.44290 7.00327 6.72892
#
# Compressibility (1/GPa) = 0.02130651
#
# Stress axis : x y z
#
# Youngs Moduli (GPa) = 43.59672 97.99926 85.53053
#
# Poissons Ratio (x) = 0.27922 0.48653
# Poissons Ratio (y) = 0.12422 0.27592
# Poissons Ratio (z) = 0.24799 0.31614
#
# Static dielectric constant tensor:
#      x y z
#    x 3.268710 -0.000080 -0.298510 
#    y -0.000080 3.712200 0.000110 
#    z -0.298510 0.000110 3.726380 
# 
# 
# High freq. dielectric constant tensor:
#      x y z
#    x 1.686450 0.000000 -0.004130 
#    y 0.000000 1.736490 0.000000 
#    z -0.004130 0.000000 1.737830 
# 
# From -- ./inp_files/89607.got.cif
#   From: 2010.06.25/outbox.cif.g09.slc.cpg/sg12_45_cif.got.tgz:89607.got - 2010.06.28 00:19:55.
