data_PCOD8084901
_publ_section_title
;
Structure prediction by ZEFSAII (Michael W. Deem and Ramdas Pophale) SiO2 
 PCOD8084901
Probable space group: C 2/M
;
_chemical_formula_sum "Si O2"
_cell_formula_units_Z 64
_cell_length_a 28.323572
_cell_length_b 9.347115
_cell_length_c 15.726570
_cell_angle_alpha 90.000000
_cell_angle_beta 116.068124
_cell_angle_gamma 90.000000
_cell_volume 3739.965339
_symmetry_space_group_name_H-M "C 2/M"
_symmetry_group_IT_number 12
_symmetry_cell_setting 'monoclinic'
loop_
_space_group_symop_operation_xyz
x,y,z
-x,y,-z
-x,-y,-z
x,-y,z
1/2+x,1/2+y,z
1/2-x,1/2+y,-z
1/2-x,1/2-y,-z
1/2+x,1/2-y,z
loop_
_atom_site_type_symbol
_atom_site_label
_atom_site_fract_x
_atom_site_fract_y
_atom_site_fract_z
Si Si1 0.674697 0.164965 0.910502
Si Si2 0.923340 0.663614 0.278382
Si Si3 0.807286 0.163008 0.450469
Si Si4 0.644207 0.835164 0.367394
Si Si5 0.583802 0.335836 0.556732
Si Si6 0.719239 0.333103 0.098402
Si Si7 0.040152 0.336038 0.373960
Si Si8 0.790874 0.666099 0.737776
O O1 0.618293 0.205512 0.826905
O O2 0.719794 0.195578 0.876122
O O3 0.677157 0.000000 0.941824
O O4 0.682033 0.265056 0.997487
O O5 0.913871 0.500000 0.300332
O O6 0.915824 0.766942 0.351063
O O7 0.982304 0.683304 0.287424
O O8 0.813475 0.252601 0.541514
O O9 0.858126 0.182196 0.432928
O O10 0.758481 0.218902 0.356871
O O11 0.798152 0.000000 0.470774
O O12 0.584237 0.786282 0.340328
O O13 0.656814 0.808294 0.277992
O O14 0.652364 0.000000 0.396557
O O15 0.566411 0.500000 0.550060
O O16 0.542835 0.257448 0.461835
O O17 0.706478 0.500000 0.094158
O O18 0.704742 0.261445 0.175677
O O19 0.049902 0.500000 0.408389
O O20 0.784677 0.500000 0.759133
#
# Coordination Sequence:
#
# PCOD8084901 Si02
#       8
#     8   8   8   8   8   8   8   8
#     4   9  19  35  52  71  95 120 147 183 229 278
#     4  10  19  31  49  69  90 121 157 190 227 271
#     4   9  18  30  44  66  96 127 156 188 227 270
#     4   9  18  31  47  67  92 124 159 194 228 262
#     4  10  19  29  43  67  98 127 155 188 227 271
#     4  10  20  33  51  74  96 118 146 183 229 279
#     4   9  18  32  47  65  92 124 159 195 226 261
#     4  10  19  31  48  69  94 124 156 189 228 272
#
# _framework density 17.112458
#
# number of rings (size 3 to 8) (size 9 to 14) (size 15 to 20)
#    0.000    2.500    0.000    2.250    0.000    4.500 
#    0.000    0.000    0.000    0.750    0.000    5.250 
#    0.000    0.000    0.000    0.000    0.000    0.000 
#
# Total GULP energy -396809.813277 kJ/mol
# GULP energy per Si atom -12400.306665 kJ/mol
# Density = 1.707351 g / cm^3
# Si number density = 17.112458 Si / 1000 Ang^3
#
#
#
# Elastic Constant Matrix: (Units=GPa)
#
#
# Indices 1 2 3 4 5 6 
#
# 1 67.3684 45.8734 70.2462 0.0000 2.5757 0.0000
# 2 45.8734 83.8470 65.7697 0.0000 -5.7510 0.0000
# 3 70.2462 65.7697 117.6199 0.0000 -0.4199 0.0000
# 4 0.0000 0.0000 0.0000 29.6490 0.0000 -4.8515
# 5 2.5757 -5.7510 -0.4199 0.0000 29.1964 0.0000
# 6 0.0000 0.0000 0.0000 -4.8515 0.0000 20.8148
#
#
#
# Elastic Compliance Matrix: (Units=1/GPa)
#
#
# Indices 1 2 3 4 5 6 
#
# 1 0.041601 -0.006442 -0.021262 0.000000 -0.005245 0.000000
# 2 -0.006442 0.022723 -0.008841 0.000000 0.004917 0.000000
# 3 -0.021262 -0.008841 0.026146 0.000000 0.000510 0.000000
# 4 0.000000 0.000000 0.000000 0.035065 0.000000 0.008173
# 5 -0.005245 0.004917 0.000510 0.000000 0.035689 0.000000
# 6 0.000000 0.000000 0.000000 0.008173 0.000000 0.049948
#
#
# Mechanical properties :
#
#
# Convention : Reuss Voigt Hill
#
# Bulk Modulus (GPa) = 57.53852 70.29044 63.91448
# Shear Modulus (GPa) = 17.23800 21.72842 19.48321
#
# Velocity S-wave (km/s) = 3.17730 3.56721 3.37789
# Velocity P-wave (km/s) = 6.86710 7.62440 7.25564
#
# Compressibility (1/GPa) = 0.01737966
#
# Stress axis : x y z
#
# Youngs Moduli (GPa) = 24.03780 44.00747 38.24698
#
# Poissons Ratio (x) = 0.28350 0.81320
# Poissons Ratio (y) = 0.15486 0.33815
# Poissons Ratio (z) = 0.51109 0.38908
#
# Static dielectric constant tensor:
#      x y z
#    x 3.401310 0.000000 0.096270 
#    y 0.000000 3.265750 0.000000 
#    z 0.096270 0.000000 3.010840 
# 
# 
# High freq. dielectric constant tensor:
#      x y z
#    x 1.663490 0.000000 0.003580 
#    y 0.000000 1.663440 0.000000 
#    z 0.003580 0.000000 1.636490 
# 
# From -- ./inp_files/248966.got.cif
#   From: 2010.06.25/outbox.cif.g09.slc.cpg/sg12_125_cif.got.tgz:248966.got - 2010.06.28 00:19:55.
