data_PCOD8084450
_publ_section_title
;
Structure prediction by ZEFSAII (Michael W. Deem and Ramdas Pophale) SiO2 
 PCOD8084450
Probable space group: C 2/M
;
_chemical_formula_sum "Si O2"
_cell_formula_units_Z 48
_cell_length_a 15.381000
_cell_length_b 21.142885
_cell_length_c 11.698064
_cell_angle_alpha 90.000000
_cell_angle_beta 41.474882
_cell_angle_gamma 90.000000
_cell_volume 2519.486824
_symmetry_space_group_name_H-M "C 2/M"
_symmetry_group_IT_number 12
_symmetry_cell_setting 'monoclinic'
loop_
_space_group_symop_operation_xyz
x,y,z
-x,y,-z
-x,-y,-z
x,-y,z
1/2+x,1/2+y,z
1/2-x,1/2+y,-z
1/2-x,1/2-y,-z
1/2+x,1/2-y,z
loop_
_atom_site_type_symbol
_atom_site_label
_atom_site_fract_x
_atom_site_fract_y
_atom_site_fract_z
Si Si1 0.888843 0.000000 0.702219
Si Si2 0.399308 0.000000 0.998025
Si Si3 0.655494 0.069476 0.343146
Si Si4 0.350711 0.168903 0.465854
Si Si5 0.126616 0.859646 0.241519
Si Si6 0.128781 0.380462 0.130111
Si Si7 0.645403 0.309461 0.477681
O O1 0.901382 0.065873 0.758953
O O2 0.000000 0.000000 0.500000
O O3 0.740740 0.000000 0.799330
O O4 0.419123 0.060965 0.899188
O O5 0.500000 0.000000 0.000000
O O6 0.500000 0.065356 0.500000
O O7 0.703295 0.114752 0.397261
O O8 0.697520 0.095663 0.178575
O O9 0.717685 0.000000 0.300958
O O10 0.502411 0.162481 0.279824
O O11 0.336041 0.234152 0.550438
O O12 0.260760 0.163862 0.442875
O O13 0.152714 0.845256 0.349614
O O14 0.998390 0.821951 0.325011
O O15 0.258569 0.839205 0.044415
#
# Coordination Sequence:
#
# PCOD8084450 Si02
#       7
#     4   4   8   8   8   8   8
#     4  10  18  36  54  83 110 151 180 224 289 343
#     4  10  22  32  55  91 124 137 189 248 291 330
#     4   9  18  37  57  84 112 146 188 230 282 337
#     4  10  23  38  60  82 115 150 193 239 274 335
#     4  10  22  37  61  83 116 148 186 236 291 342
#     4  10  21  36  59  87 113 150 186 239 287 336
#     4  10  22  41  55  84 116 150 192 232 283 343
#
# _framework density 19.051497999999999
#
# number of rings (size 3 to 8) (size 9 to 14) (size 15 to 20)
#    0.000    2.167    2.500    0.000   12.833    0.667 
#    3.000    0.833    0.000    1.000    0.000    0.000 
#    0.000    0.000    0.000    0.000    0.000    0.000 
#
# Total GULP energy -297464.777159 kJ/mol
# GULP energy per Si atom -12394.365715 kJ/mol
# Density = 1.900814 g / cm^3
# Si number density = 19.051498 Si / 1000 Ang^3
#
#
#
# Elastic Constant Matrix: (Units=GPa)
#
#
# Indices 1 2 3 4 5 6 
#
# 1 68.4241 55.9413 46.5077 0.0031 -2.4476 -0.0022
# 2 55.9413 99.9558 24.5258 0.0014 5.6476 -0.0013
# 3 46.5077 24.5258 102.7730 0.0017 7.1462 -0.0026
# 4 0.0031 0.0014 0.0017 19.1590 -0.0016 -5.0406
# 5 -2.4476 5.6476 7.1462 -0.0016 21.3704 0.0016
# 6 -0.0022 -0.0013 -0.0026 -5.0406 0.0016 26.3060
#
#
#
# Elastic Compliance Matrix: (Units=1/GPa)
#
#
# Indices 1 2 3 4 5 6 
#
# 1 0.043012 -0.021154 -0.015508 -0.000003 0.015703 0.000000
# 2 -0.021154 0.021116 0.005212 0.000001 -0.009746 0.000000
# 3 -0.015508 0.005212 0.016098 0.000000 -0.008537 0.000001
# 4 -0.000003 0.000001 0.000000 0.054966 0.000003 0.010532
# 5 0.015703 -0.009746 -0.008537 0.000003 0.054022 -0.000003
# 6 0.000000 0.000000 0.000001 0.010532 -0.000003 0.040032
#
#
# Mechanical properties :
#
#
# Convention : Reuss Voigt Hill
#
# Bulk Modulus (GPa) = 57.72209 58.34474 58.03342
# Shear Modulus (GPa) = 16.78292 22.97895 19.88094
#
# Velocity S-wave (km/s) = 2.97126 3.47673 3.23389
# Velocity P-wave (km/s) = 6.49114 6.84165 6.66870
#
# Compressibility (1/GPa) = 0.01732439
#
# Stress axis : x y z
#
# Youngs Moduli (GPa) = 23.24920 47.35841 62.12027
#
# Poissons Ratio (x) = 1.00184 0.96335
# Poissons Ratio (y) = 0.49182 -0.32375
# Poissons Ratio (z) = 0.36055 -0.24681
#
# Static dielectric constant tensor:
#      x y z
#    x 3.303100 0.000000 0.001100 
#    y 0.000000 3.726190 0.000000 
#    z 0.001100 0.000000 3.662730 
# 
# 
# High freq. dielectric constant tensor:
#      x y z
#    x 1.718790 0.000000 0.000400 
#    y 0.000000 1.748640 0.000000 
#    z 0.000400 0.000000 1.738590 
# 
# From -- ./inp_files/147969.got.cif
#   From: 2010.06.25/outbox.cif.g09.slc.cpg/sg12_74_cif.got.tgz:147969.got - 2010.06.28 00:19:55.
