data_PCOD8084514
_publ_section_title
;
Structure prediction by ZEFSAII (Michael W. Deem and Ramdas Pophale) SiO2 
 PCOD8084514
Probable space group: C 2/M
;
_chemical_formula_sum "Si O2"
_cell_formula_units_Z 64
_cell_length_a 30.245360
_cell_length_b 18.132984
_cell_length_c 9.333962
_cell_angle_alpha 90.000000
_cell_angle_beta 144.526339
_cell_angle_gamma 90.000000
_cell_volume 2970.763448
_symmetry_space_group_name_H-M "C 2/M"
_symmetry_group_IT_number 12
_symmetry_cell_setting 'monoclinic'
loop_
_space_group_symop_operation_xyz
x,y,z
-x,y,-z
-x,-y,-z
x,-y,z
1/2+x,1/2+y,z
1/2-x,1/2+y,-z
1/2-x,1/2-y,-z
1/2+x,1/2-y,z
loop_
_atom_site_type_symbol
_atom_site_label
_atom_site_fract_x
_atom_site_fract_y
_atom_site_fract_z
Si Si1 0.243097 0.086988 0.617572
Si Si2 0.159119 0.817574 0.170913
Si Si3 0.586405 0.082010 0.276202
Si Si4 0.616730 0.839221 0.078437
Si Si5 0.051546 0.701335 0.399362
Si Si6 0.321359 0.718808 0.101868
Si Si7 0.001649 0.145804 0.167126
Si Si8 0.852721 0.081974 0.358623
O O1 0.218659 0.130495 0.408770
O O2 0.325132 0.121994 0.881412
O O3 0.184319 0.105702 0.587970
O O4 0.248072 0.000000 0.600442
O O5 0.144708 0.739938 0.212698
O O6 0.189180 0.790270 0.095326
O O7 0.077863 0.859826 0.956792
O O8 0.629099 0.107518 0.246923
O O9 0.599395 0.138799 0.441459
O O10 0.613358 0.000000 0.394235
O O11 0.500000 0.082481 0.000000
O O12 0.532249 0.832939 0.782639
O O13 0.102807 0.730605 0.668122
O O14 0.037411 0.771873 0.261139
O O15 0.327265 0.634784 0.165791
O O16 0.250000 0.750000 0.000000
O O17 0.056275 0.087680 0.389346
O O18 0.000000 0.119405 0.000000
O O19 0.827564 0.000000 0.249291
#
# Coordination Sequence:
#
# PCOD8084514 Si02
#       8
#     8   8   8   8   8   8   8   8
#     4  11  23  38  61  97 131 169 214 272 336 389
#     4  11  23  38  63  94 127 170 216 268 320 397
#     4   9  17  31  55  89 122 157 204 263 321 373
#     4  10  20  35  60  89 123 159 209 273 323 370
#     4   9  20  35  58  88 123 162 215 262 314 380
#     4  11  25  43  63  92 129 177 222 264 325 397
#     4  10  18  36  62  92 123 158 207 268 328 381
#     4  10  23  41  63  89 129 170 213 269 336 392
#
# _framework density 21.543284
#
# number of rings (size 3 to 8) (size 9 to 14) (size 15 to 20)
#    0.000    1.875    1.250    3.375    3.500    6.250 
#    0.000    1.250    0.000    1.500    0.000   10.500 
#    0.000    0.000    0.000    0.000    0.000    0.000 
#
# Total GULP energy -396518.121897 kJ/mol
# GULP energy per Si atom -12391.191309 kJ/mol
# Density = 2.149425 g / cm^3
# Si number density = 21.543284 Si / 1000 Ang^3
#
#
#
# Elastic Constant Matrix: (Units=GPa)
#
#
# Indices 1 2 3 4 5 6 
#
# 1 90.8767 17.9656 22.7499 0.0000 15.8696 0.0000
# 2 17.9656 90.7980 24.6092 0.0000 3.0286 0.0000
# 3 22.7499 24.6092 58.0744 0.0000 7.9446 0.0000
# 4 0.0000 0.0000 0.0000 22.6269 0.0000 1.6430
# 5 15.8696 3.0286 7.9446 0.0000 35.1217 0.0000
# 6 0.0000 0.0000 0.0000 1.6430 0.0000 31.4692
#
#
#
# Elastic Compliance Matrix: (Units=1/GPa)
#
#
# Indices 1 2 3 4 5 6 
#
# 1 0.013107 -0.001378 -0.003876 0.000000 -0.004927 0.000000
# 2 -0.001378 0.012588 -0.004882 0.000000 0.000642 0.000000
# 3 -0.003876 -0.004882 0.021164 0.000000 -0.002615 0.000000
# 4 0.000000 0.000000 0.000000 0.044363 0.000000 -0.002316
# 5 -0.004927 0.000642 -0.002615 0.000000 0.031235 0.000000
# 6 0.000000 0.000000 0.000000 -0.002316 0.000000 0.031898
#
#
# Mechanical properties :
#
#
# Convention : Reuss Voigt Hill
#
# Bulk Modulus (GPa) = 37.61426 41.15539 39.38482
# Shear Modulus (GPa) = 27.24924 29.47184 28.36054
#
# Velocity S-wave (km/s) = 3.56035 3.70270 3.63222
# Velocity P-wave (km/s) = 5.86508 6.11760 5.99267
#
# Compressibility (1/GPa) = 0.02658566
#
# Stress axis : x y z
#
# Youngs Moduli (GPa) = 76.29391 79.44087 47.24933
#
# Poissons Ratio (x) = 0.10951 0.18316
# Poissons Ratio (y) = 0.10517 0.23067
# Poissons Ratio (z) = 0.29575 0.38783
#
# Static dielectric constant tensor:
#      x y z
#    x 3.970160 0.000000 0.349250 
#    y 0.000000 4.063130 0.000000 
#    z 0.349250 0.000000 3.704930 
# 
# 
# High freq. dielectric constant tensor:
#      x y z
#    x 1.845190 0.000000 0.023620 
#    y 0.000000 1.848980 0.000000 
#    z 0.023620 0.000000 1.821250 
# 
# From -- ./inp_files/112906.got.cif
#   From: 2010.06.25/outbox.cif.g09.slc.cpg/sg12_57_cif.got.tgz:112906.got - 2010.06.28 00:19:55.
