data_PCOD8084035
_publ_section_title
;
Structure prediction by ZEFSAII (Michael W. Deem and Ramdas Pophale) SiO2 
 PCOD8084035
Probable space group: C 2/M
;
_chemical_formula_sum "Si O2"
_cell_formula_units_Z 56
_cell_length_a 24.599123
_cell_length_b 17.737215
_cell_length_c 12.389712
_cell_angle_alpha 90.000000
_cell_angle_beta 34.766890
_cell_angle_gamma 90.000000
_cell_volume 3082.642363
_symmetry_space_group_name_H-M "C 2/M"
_symmetry_group_IT_number 12
_symmetry_cell_setting 'monoclinic'
loop_
_space_group_symop_operation_xyz
x,y,z
-x,y,-z
-x,-y,-z
x,-y,z
1/2+x,1/2+y,z
1/2-x,1/2+y,-z
1/2-x,1/2-y,-z
1/2+x,1/2-y,z
loop_
_atom_site_type_symbol
_atom_site_label
_atom_site_fract_x
_atom_site_fract_y
_atom_site_fract_z
Si Si1 0.307182 0.087853 0.454989
Si Si2 0.516228 0.081102 0.098571
Si Si3 0.211508 0.302076 0.334736
Si Si4 0.789800 0.359832 0.241631
Si Si5 0.185986 0.187239 0.048332
Si Si6 0.978909 0.774325 0.417735
Si Si7 0.357579 0.586475 0.682034
O O1 0.416121 0.109659 0.307635
O O2 0.254999 0.138858 0.628568
O O3 0.277127 0.108452 0.382982
O O4 0.285538 0.000000 0.509352
O O5 0.543738 0.000000 0.105437
O O6 0.500000 0.067578 0.000000
O O7 0.601622 0.138891 0.978668
O O8 0.263572 0.226304 0.282137
O O9 0.098327 0.281143 0.512099
O O10 0.255688 0.336551 0.153125
O O11 0.729443 0.411517 0.259741
O O12 0.175586 0.116741 0.146599
O O13 0.080102 0.219414 0.189641
O O14 0.250000 0.250000 0.000000
O O15 0.939686 0.859791 0.499094
O O16 0.000000 0.737996 0.500000
O O17 0.393419 0.500000 0.634330
#
# Coordination Sequence:
#
# PCOD8084035 Si02
#       7
#     8   8   8   8   8   8   8
#     4  10  21  35  52  79 116 144 175 223 274 327
#     4   8  15  29  50  75 104 138 174 221 268 302
#     4  11  22  34  57  81 110 147 181 213 279 334
#     4  10  18  34  56  82 106 140 187 229 263 315
#     4  11  20  37  54  80 110 143 178 224 276 319
#     4   9  19  35  55  78 108 140 180 231 265 311
#     4  10  20  34  58  84 106 142 186 229 269 311
#
# _framework density 18.166232000000001
#
# number of rings (size 3 to 8) (size 9 to 14) (size 15 to 20)
#    0.000    2.143    4.286    2.571    2.000    3.143 
#    0.000    0.000    0.000    0.429    0.000    5.000 
#    0.000    0.000    0.000    0.000    0.000    0.000 
#
# Total GULP energy -346871.171941 kJ/mol
# GULP energy per Si atom -12388.256141 kJ/mol
# Density = 1.812488 g / cm^3
# Si number density = 18.166232 Si / 1000 Ang^3
#
#
#
# Elastic Constant Matrix: (Units=GPa)
#
#
# Indices 1 2 3 4 5 6 
#
# 1 85.8933 33.8014 33.5685 0.0000 -5.1544 0.0000
# 2 33.8014 89.4646 22.7137 0.0000 8.0437 0.0000
# 3 33.5685 22.7137 72.5789 0.0000 -2.6090 0.0000
# 4 0.0000 0.0000 0.0000 27.2453 0.0000 9.6545
# 5 -5.1544 8.0437 -2.6090 0.0000 31.0926 0.0000
# 6 0.0000 0.0000 0.0000 9.6545 0.0000 20.3524
#
#
#
# Elastic Compliance Matrix: (Units=1/GPa)
#
#
# Indices 1 2 3 4 5 6 
#
# 1 0.016028 -0.004904 -0.005755 0.000000 0.003443 0.000000
# 2 -0.004904 0.014028 -0.002288 0.000000 -0.004634 0.000000
# 3 -0.005755 -0.002288 0.017195 0.000000 0.001081 0.000000
# 4 0.000000 0.000000 0.000000 0.044120 0.000000 -0.020929
# 5 0.003443 -0.004634 0.001081 0.000000 0.034022 0.000000
# 6 0.000000 0.000000 0.000000 -0.020929 0.000000 0.059062
#
#
# Mechanical properties :
#
#
# Convention : Reuss Voigt Hill
#
# Bulk Modulus (GPa) = 46.82454 47.56710 47.19582
# Shear Modulus (GPa) = 22.99184 26.26160 24.62672
#
# Velocity S-wave (km/s) = 3.56144 3.80627 3.68588
# Velocity P-wave (km/s) = 6.53784 6.74967 6.64460
#
# Compressibility (1/GPa) = 0.02135632
#
# Stress axis : x y z
#
# Youngs Moduli (GPa) = 62.39142 71.28521 58.15753
#
# Poissons Ratio (x) = 0.34960 0.33467
# Poissons Ratio (y) = 0.30598 0.13309
# Poissons Ratio (z) = 0.35903 0.16314
#
# Static dielectric constant tensor:
#      x y z
#    x 3.794460 0.000000 -0.255080 
#    y 0.000000 3.174250 0.000000 
#    z -0.255080 0.000000 3.943320 
# 
# 
# High freq. dielectric constant tensor:
#      x y z
#    x 1.705560 0.000000 -0.010500 
#    y 0.000000 1.692240 0.000000 
#    z -0.010500 0.000000 1.693760 
# 
# From -- ./inp_files/177060.got.cif
#   From: 2010.06.25/outbox.cif.g09.slc.cpg/sg12_89_cif.got.tgz:177060.got - 2010.06.28 00:19:55.
