data_PCOD8084910
_publ_section_title
;
Structure prediction by ZEFSAII (Michael W. Deem and Ramdas Pophale) SiO2 
 PCOD8084910
Probable space group: C 2/M
;
_chemical_formula_sum "Si O2"
_cell_formula_units_Z 56
_cell_length_a 23.933510
_cell_length_b 10.679062
_cell_length_c 20.261044
_cell_angle_alpha 90.000000
_cell_angle_beta 140.452653
_cell_angle_gamma 90.000000
_cell_volume 3297.211783
_symmetry_space_group_name_H-M "C 2/M"
_symmetry_group_IT_number 12
_symmetry_cell_setting 'monoclinic'
loop_
_space_group_symop_operation_xyz
x,y,z
-x,y,-z
-x,-y,-z
x,-y,z
1/2+x,1/2+y,z
1/2-x,1/2+y,-z
1/2-x,1/2-y,-z
1/2+x,1/2-y,z
loop_
_atom_site_type_symbol
_atom_site_label
_atom_site_fract_x
_atom_site_fract_y
_atom_site_fract_z
Si Si1 0.485690 0.857925 0.830030
Si Si2 0.041735 0.147900 0.638589
Si Si3 0.605521 0.743263 0.836056
Si Si4 0.154339 0.356647 0.069099
Si Si5 0.176515 0.648395 0.239097
Si Si6 0.774081 0.863568 0.952149
Si Si7 0.130122 0.851071 0.586497
O O1 0.518448 0.785306 0.795481
O O2 0.395460 0.795853 0.775562
O O3 0.468905 0.000000 0.793250
O O4 0.555916 0.850377 0.952855
O O5 0.074294 0.199528 0.736864
O O6 0.106476 0.194179 0.639225
O O7 0.943027 0.197058 0.531998
O O8 0.040676 0.000000 0.641078
O O9 0.675675 0.856286 0.892383
O O10 0.655219 0.636897 0.923818
O O11 0.191931 0.500000 0.095516
O O12 0.152202 0.313293 0.142639
O O13 0.214190 0.256021 0.085058
O O14 0.173273 0.500000 0.241947
O O15 0.273600 0.700869 0.345411
O O16 0.783871 0.000000 0.925936
O O17 0.131342 0.000000 0.588053
#
# Coordination Sequence:
#
# PCOD8084910 Si02
#       7
#     8   8   8   8   8   8   8
#     4   9  17  28  42  64  93 120 150 187 223 264
#     4   9  16  28  45  66  91 114 141 188 240 274
#     4  10  19  29  44  63  90 123 155 182 221 274
#     4   9  17  29  48  72  94 119 153 191 230 269
#     4   9  15  26  46  69  91 115 147 191 233 263
#     4  10  20  31  45  68  96 123 152 186 227 276
#     4   8  15  26  43  68  90 108 141 191 240 273
#
# _framework density 16.984045999999999
#
# number of rings (size 3 to 8) (size 9 to 14) (size 15 to 20)
#    0.000    2.857    0.000    3.000    0.000    6.857 
#    0.000    0.714    0.000    7.714    0.000   19.000 
#    0.000    0.000    0.000    0.000    0.000    0.000 
#
# Total GULP energy -346932.012338 kJ/mol
# GULP energy per Si atom -12390.429012 kJ/mol
# Density = 1.694539 g / cm^3
# Si number density = 16.984046 Si / 1000 Ang^3
#
#
#
# Elastic Constant Matrix: (Units=GPa)
#
#
# Indices 1 2 3 4 5 6 
#
# 1 134.3288 36.6180 60.5201 0.0000 13.2790 0.0000
# 2 36.6180 59.2268 16.3529 0.0000 1.1768 0.0000
# 3 60.5201 16.3529 84.9441 0.0000 -0.2163 0.0000
# 4 0.0000 0.0000 0.0000 8.8006 0.0000 -5.7993
# 5 13.2790 1.1768 -0.2163 0.0000 25.9542 0.0000
# 6 0.0000 0.0000 0.0000 -5.7993 0.0000 17.6906
#
#
#
# Elastic Compliance Matrix: (Units=1/GPa)
#
#
# Indices 1 2 3 4 5 6 
#
# 1 0.013571 -0.005896 -0.008551 0.000000 -0.006747 0.000000
# 2 -0.005896 0.020411 0.000276 0.000000 0.002093 0.000000
# 3 -0.008551 0.000276 0.017823 0.000000 0.004511 0.000000
# 4 0.000000 0.000000 0.000000 0.144939 0.000000 0.047514
# 5 -0.006747 0.002093 0.004511 0.000000 0.041924 0.000000
# 6 0.000000 0.000000 0.000000 0.047514 0.000000 0.072103
#
#
# Mechanical properties :
#
#
# Convention : Reuss Voigt Hill
#
# Bulk Modulus (GPa) = 42.61714 56.16465 49.39090
# Shear Modulus (GPa) = 14.41192 21.48966 17.95079
#
# Velocity S-wave (km/s) = 2.91616 3.56094 3.25456
# Velocity P-wave (km/s) = 6.04033 7.07446 6.57775
#
# Compressibility (1/GPa) = 0.02346474
#
# Stress axis : x y z
#
# Youngs Moduli (GPa) = 73.68528 48.99229 56.10631
#
# Poissons Ratio (x) = 0.28883 0.47978
# Poissons Ratio (y) = 0.43441 -0.01550
# Poissons Ratio (z) = 0.63011 -0.01353
#
# Static dielectric constant tensor:
#      x y z
#    x 3.403870 0.000000 0.204630 
#    y 0.000000 2.752540 0.000000 
#    z 0.204630 0.000000 3.385530 
# 
# 
# High freq. dielectric constant tensor:
#      x y z
#    x 1.657050 0.000000 0.008620 
#    y 0.000000 1.602980 0.000000 
#    z 0.008620 0.000000 1.651420 
# 
# From -- ./inp_files/282961.got.cif
#   From: 2010.06.25/outbox.cif.g09.slc.cpg/sg12_142_cif.got.tgz:282961.got - 2010.06.28 00:19:55.
