data_PCOD8084208
_publ_section_title
;
Structure prediction by ZEFSAII (Michael W. Deem and Ramdas Pophale) SiO2 
 PCOD8084208
Probable space group: C 2/M
;
_chemical_formula_sum "Si O2"
_cell_formula_units_Z 44
_cell_length_a 24.367402
_cell_length_b 9.659321
_cell_length_c 12.606068
_cell_angle_alpha 90.000000
_cell_angle_beta 129.679025
_cell_angle_gamma 90.000000
_cell_volume 2283.596393
_symmetry_space_group_name_H-M "C 2/M"
_symmetry_group_IT_number 12
_symmetry_cell_setting 'monoclinic'
loop_
_space_group_symop_operation_xyz
x,y,z
-x,y,-z
-x,-y,-z
x,-y,z
1/2+x,1/2+y,z
1/2-x,1/2+y,-z
1/2-x,1/2-y,-z
1/2+x,1/2-y,z
loop_
_atom_site_type_symbol
_atom_site_label
_atom_site_fract_x
_atom_site_fract_y
_atom_site_fract_z
Si Si1 0.849973 0.651655 0.865596
Si Si2 0.500000 0.233633 0.000000
Si Si3 0.540040 0.347762 0.263963
Si Si4 0.968438 0.337408 0.347674
Si Si5 0.695580 0.658604 0.369408
Si Si6 0.820257 0.340223 0.070197
O O1 0.814355 0.500000 0.801789
O O2 0.809876 0.774115 0.754304
O O3 0.930475 0.638083 0.921630
O O4 0.849783 0.687648 0.989242
O O5 0.499969 0.331316 0.897054
O O6 0.521647 0.500000 0.286188
O O7 0.516451 0.234256 0.318694
O O8 0.623733 0.332919 0.347673
O O9 0.977624 0.500000 0.340910
O O10 0.884467 0.297324 0.230387
O O11 0.000000 0.290970 0.500000
O O12 0.721334 0.500000 0.387356
O O13 0.750000 0.750000 0.500000
O O14 0.799263 0.500000 0.061607
O O15 0.750000 0.250000 0.000000
#
# Coordination Sequence:
#
# PCOD8084208 Si02
#       6
#     8   4   8   8   8   8
#     4  10  20  35  59  87 116 151 196 245 298 361
#     4  10  18  34  60  90 118 146 190 244 304 352
#     4  10  21  36  58  87 118 149 192 248 303 360
#     4  10  22  41  62  86 119 158 208 259 306 366
#     4  10  22  38  56  85 122 156 194 241 302 368
#     4  10  22  40  59  87 119 159 208 255 306 365
#
# _framework density 19.267854
#
# number of rings (size 3 to 8) (size 9 to 14) (size 15 to 20)
#    0.000    2.000    1.818    1.091    0.000    7.636 
#    0.000    3.636    0.000    0.000    0.000    0.000 
#    0.000    0.000    0.000    0.000    0.000    0.000 
#
# Total GULP energy -272740.487099 kJ/mol
# GULP energy per Si atom -12397.294868 kJ/mol
# Density = 1.922400 g / cm^3
# Si number density = 19.267854 Si / 1000 Ang^3
#
#
#
# Elastic Constant Matrix: (Units=GPa)
#
#
# Indices 1 2 3 4 5 6 
#
# 1 63.4571 44.6433 47.2763 0.0000 -11.2950 0.0000
# 2 44.6433 110.2649 69.4274 0.0000 3.0505 0.0000
# 3 47.2763 69.4274 151.6099 0.0000 -2.5836 0.0000
# 4 0.0000 0.0000 0.0000 24.6498 0.0000 1.6850
# 5 -11.2950 3.0505 -2.5836 0.0000 24.9144 0.0000
# 6 0.0000 0.0000 0.0000 1.6850 0.0000 32.8022
#
#
#
# Elastic Compliance Matrix: (Units=1/GPa)
#
#
# Indices 1 2 3 4 5 6 
#
# 1 0.027477 -0.008757 -0.004335 0.000000 0.013080 0.000000
# 2 -0.008757 0.015652 -0.004545 0.000000 -0.006358 0.000000
# 3 -0.004335 -0.004545 0.010023 0.000000 -0.000369 0.000000
# 4 0.000000 0.000000 0.000000 0.040711 0.000000 -0.002091
# 5 0.013080 -0.006358 -0.000369 0.000000 0.046807 0.000000
# 6 0.000000 0.000000 0.000000 -0.002091 0.000000 0.030593
#
#
# Mechanical properties :
#
#
# Convention : Reuss Voigt Hill
#
# Bulk Modulus (GPa) = 55.93677 72.00289 63.96983
# Shear Modulus (GPa) = 23.52956 27.40561 25.46758
#
# Velocity S-wave (km/s) = 3.49833 3.77550 3.63955
# Velocity P-wave (km/s) = 6.73884 7.51375 7.13682
#
# Compressibility (1/GPa) = 0.01787733
#
# Stress axis : x y z
#
# Youngs Moduli (GPa) = 36.39372 63.88772 99.77142
#
# Poissons Ratio (x) = 0.55947 0.43252
# Poissons Ratio (y) = 0.31870 0.45350
# Poissons Ratio (z) = 0.15777 0.29040
#
# Static dielectric constant tensor:
#      x y z
#    x 3.403280 0.000000 0.041570 
#    y 0.000000 3.598250 0.000000 
#    z 0.041570 0.000000 3.734010 
# 
# 
# High freq. dielectric constant tensor:
#      x y z
#    x 1.736320 0.000000 0.001500 
#    y 0.000000 1.754850 0.000000 
#    z 0.001500 0.000000 1.754710 
# 
# From -- ./inp_files/181303.got.cif
#   From: 2010.06.25/outbox.cif.g09.slc.cpg/sg12_91_cif.got.tgz:181303.got - 2010.06.28 00:19:55.
