data_PCOD8084978
_publ_section_title
;
Structure prediction by ZEFSAII (Michael W. Deem and Ramdas Pophale) SiO2 
 PCOD8084978
Probable space group: C 2/M
;
_chemical_formula_sum "Si O2"
_cell_formula_units_Z 64
_cell_length_a 28.833932
_cell_length_b 20.749151
_cell_length_c 20.628847
_cell_angle_alpha 90.000000
_cell_angle_beta 162.400598
_cell_angle_gamma 90.000000
_cell_volume 3731.671534
_symmetry_space_group_name_H-M "C 2/M"
_symmetry_group_IT_number 12
_symmetry_cell_setting 'monoclinic'
loop_
_space_group_symop_operation_xyz
x,y,z
-x,y,-z
-x,-y,-z
x,-y,z
1/2+x,1/2+y,z
1/2-x,1/2+y,-z
1/2-x,1/2-y,-z
1/2+x,1/2-y,z
loop_
_atom_site_type_symbol
_atom_site_label
_atom_site_fract_x
_atom_site_fract_y
_atom_site_fract_z
Si Si1 0.931364 0.174496 0.172908
Si Si2 0.653200 0.572782 0.429694
Si Si3 0.246227 0.428346 0.170976
Si Si4 0.146850 0.160632 0.789747
Si Si5 0.584960 0.799471 0.677176
Si Si6 0.591719 0.928243 0.336904
Si Si7 0.162927 0.574691 0.196894
Si Si8 0.506591 0.184834 0.713532
O O1 0.919192 0.141286 0.227885
O O2 0.028551 0.241382 0.310691
O O3 0.019000 0.125164 0.241937
O O4 0.765008 0.183171 0.918473
O O5 0.588854 0.500000 0.336487
O O6 0.785073 0.586277 0.553964
O O7 0.717840 0.584066 0.587285
O O8 0.310988 0.500000 0.263503
O O9 0.366657 0.394511 0.282686
O O10 0.236724 0.394354 0.229616
O O11 0.075060 0.427361 0.915839
O O12 0.062237 0.222822 0.648755
O O13 0.323502 0.176100 0.034805
O O14 0.500000 0.827298 0.500000
O O15 0.498819 0.826512 0.625968
O O16 0.606769 0.869720 0.408426
O O17 0.620581 0.000000 0.406127
O O18 0.129771 0.500000 0.136118
O O19 0.000000 0.607026 0.000000
#
# Coordination Sequence:
#
# PCOD8084978 Si02
#       8
#     8   8   8   8   8   8   8   8
#     4   9  18  32  47  69  97 122 154 191 231 278
#     4  10  19  29  45  68  96 131 159 186 229 272
#     4   9  15  24  42  67  96 127 159 189 213 255
#     4   8  16  29  45  67  93 122 154 185 227 276
#     4   9  17  32  53  68  85 119 153 192 241 285
#     4   9  16  28  47  69  91 122 160 190 225 275
#     4   9  15  26  41  62  95 129 159 185 211 255
#     4   8  16  31  49  70  92 117 154 193 228 272
#
# _framework density 17.150492
#
# number of rings (size 3 to 8) (size 9 to 14) (size 15 to 20)
#    0.000    3.125    1.250    1.500    0.000    3.000 
#    0.000    1.875    0.000    4.875    0.000    1.750 
#    0.000    0.000    0.000    0.000    0.000    0.000 
#
# Total GULP energy -396459.148137 kJ/mol
# GULP energy per Si atom -12389.348379 kJ/mol
# Density = 1.711146 g / cm^3
# Si number density = 17.150492 Si / 1000 Ang^3
#
#
#
# Elastic Constant Matrix: (Units=GPa)
#
#
# Indices 1 2 3 4 5 6 
#
# 1 96.2215 52.4239 12.2185 0.0000 -10.1657 0.0000
# 2 52.4239 82.4811 12.2853 0.0000 5.0415 0.0000
# 3 12.2185 12.2853 24.3311 0.0001 -11.4323 0.0000
# 4 0.0000 0.0000 0.0001 16.4441 0.0001 6.1436
# 5 -10.1657 5.0415 -11.4323 0.0001 22.6652 0.0000
# 6 0.0000 0.0000 0.0000 6.1436 0.0000 32.5401
#
#
#
# Elastic Compliance Matrix: (Units=1/GPa)
#
#
# Indices 1 2 3 4 5 6 
#
# 1 0.018388 -0.012967 0.003334 0.000000 0.012813 0.000000
# 2 -0.012967 0.023529 -0.013841 0.000000 -0.018031 0.000000
# 3 0.003334 -0.013841 0.063648 -0.000001 0.036677 0.000000
# 4 0.000000 0.000000 -0.000001 0.065427 -0.000001 -0.012353
# 5 0.012813 -0.018031 0.036677 -0.000001 0.072378 0.000000
# 6 0.000000 0.000000 0.000000 -0.012353 0.000000 0.033064
#
#
# Mechanical properties :
#
#
# Convention : Reuss Voigt Hill
#
# Bulk Modulus (GPa) = 17.06000 39.65433 28.35717
# Shear Modulus (GPa) = 14.58072 22.73694 18.65883
#
# Velocity S-wave (km/s) = 2.91892 3.64501 3.30198
# Velocity P-wave (km/s) = 4.61833 6.39425 5.57742
#
# Compressibility (1/GPa) = 0.05861664
#
# Stress axis : x y z
#
# Youngs Moduli (GPa) = 54.38468 42.50081 15.71153
#
# Poissons Ratio (x) = 0.55109 -0.05238
# Poissons Ratio (y) = 0.70518 0.21746
# Poissons Ratio (z) = -0.18129 0.58824
#
# Static dielectric constant tensor:
#      x y z
#    x 3.490230 0.000000 0.020100 
#    y 0.000000 3.485190 0.000000 
#    z 0.020100 0.000000 2.811710 
# 
# 
# High freq. dielectric constant tensor:
#      x y z
#    x 1.665200 0.000000 0.007070 
#    y 0.000000 1.643390 0.000000 
#    z 0.007070 0.000000 1.628060 
# 
# From -- ./inp_files/330509.got.cif
#   From: 2010.06.25/outbox.cif.g09.slc.cpg/sg12_166_cif.got.tgz:330509.got - 2010.06.28 00:19:55.
