data_PCOD8084509
_publ_section_title
;
Structure prediction by ZEFSAII (Michael W. Deem and Ramdas Pophale) SiO2 
 PCOD8084509
Probable space group: C 2/M
;
_chemical_formula_sum "Si O2"
_cell_formula_units_Z 44
_cell_length_a 16.492331
_cell_length_b 15.748762
_cell_length_c 13.322123
_cell_angle_alpha 90.000000
_cell_angle_beta 138.386635
_cell_angle_gamma 90.000000
_cell_volume 2297.924696
_symmetry_space_group_name_H-M "C 2/M"
_symmetry_group_IT_number 12
_symmetry_cell_setting 'monoclinic'
loop_
_space_group_symop_operation_xyz
x,y,z
-x,y,-z
-x,-y,-z
x,-y,z
1/2+x,1/2+y,z
1/2-x,1/2+y,-z
1/2-x,1/2-y,-z
1/2+x,1/2-y,z
loop_
_atom_site_type_symbol
_atom_site_label
_atom_site_fract_x
_atom_site_fract_y
_atom_site_fract_z
Si Si1 0.733946 0.097319 0.570585
Si Si2 0.000000 0.339577 0.000000
Si Si3 0.186710 0.773885 0.044533
Si Si4 0.497591 0.594712 0.878734
Si Si5 0.716777 0.094400 0.321541
Si Si6 0.139712 0.258506 0.615394
O O1 0.871170 0.132144 0.718154
O O2 0.697648 0.101932 0.421969
O O3 0.645539 0.163322 0.543518
O O4 0.720106 0.000000 0.598760
O O5 0.083160 0.285762 0.999193
O O6 0.085786 0.398086 0.147288
O O7 0.295085 0.790059 0.223108
O O8 0.250000 0.750000 0.000000
O O9 0.115855 0.858508 0.946051
O O10 0.509882 0.500000 0.850158
O O11 0.500000 0.602348 0.000000
O O12 0.804943 0.169417 0.369243
O O13 0.770116 0.000000 0.345352
O O14 0.000000 0.236930 0.500000
#
# Coordination Sequence:
#
# PCOD8084509 Si02
#       6
#     8   4   8   8   8   8
#     4  10  21  38  64  90 114 154 202 247 304 362
#     4  10  21  42  63  84 120 160 199 254 298 352
#     4  11  23  38  60  91 119 159 204 241 297 366
#     4  10  18  36  62  85 116 152 193 249 301 348
#     4  10  22  40  63  87 113 159 207 243 297 359
#     4  11  24  38  57  88 124 158 191 249 303 353
#
# _framework density 19.147711999999999
#
# number of rings (size 3 to 8) (size 9 to 14) (size 15 to 20)
#    0.000    1.636    2.727    1.909    5.091    0.727 
#    0.000    4.545    0.000    0.000    0.000    0.000 
#    0.000    0.000    0.000    0.000    0.000    0.000 
#
# Total GULP energy -272680.870268 kJ/mol
# GULP energy per Si atom -12394.585012 kJ/mol
# Density = 1.910413 g / cm^3
# Si number density = 19.147712 Si / 1000 Ang^3
#
#
#
# Elastic Constant Matrix: (Units=GPa)
#
#
# Indices 1 2 3 4 5 6 
#
# 1 113.3550 56.8689 41.3253 0.0000 1.9018 0.0000
# 2 56.8689 108.1662 45.6517 0.0000 5.8118 0.0000
# 3 41.3253 45.6517 115.5436 0.0000 0.4146 0.0000
# 4 0.0000 0.0000 0.0000 23.9014 0.0000 -10.0298
# 5 1.9018 5.8118 0.4146 0.0000 28.2925 0.0000
# 6 0.0000 0.0000 0.0000 -10.0298 0.0000 -5.5493
#
#
#
# Elastic Compliance Matrix: (Units=1/GPa)
#
#
# Indices 1 2 3 4 5 6 
#
# 1 0.012451 -0.005622 -0.002233 0.000000 0.000351 0.000000
# 2 -0.005622 0.013775 -0.003423 0.000000 -0.002401 0.000000
# 3 -0.002233 -0.003423 0.010803 0.000000 0.000695 0.000000
# 4 0.000000 0.000000 0.000000 0.023793 0.000000 -0.043003
# 5 0.000351 -0.002401 0.000695 0.000000 0.035805 0.000000
# 6 0.000000 0.000000 0.000000 -0.043003 0.000000 -0.102478
#
#
# Mechanical properties :
#
#
# Convention : Reuss Voigt Hill
#
# Bulk Modulus (GPa) = 69.09823 69.41742 69.25782
# Shear Modulus (GPa) = 232.24741 22.21018 127.22880
#
# Velocity S-wave (km/s) = 11.02524 3.40948 8.16028
# Velocity P-wave (km/s) = 14.07976 7.19943 11.18194
#
# Compressibility (1/GPa) = 0.01447215
#
# Stress axis : x y z
#
# Youngs Moduli (GPa) = 80.31649 72.59662 92.56449
#
# Poissons Ratio (x) = 0.40817 0.20669
# Poissons Ratio (y) = 0.45158 0.31684
# Poissons Ratio (z) = 0.17934 0.24849
#
# Static dielectric constant tensor:
#      x y z
#    x 2.331200 0.000000 -1.515450 
#    y 0.000000 3.798140 0.000000 
#    z -1.515450 0.000000 1.171270 
# 
# 
# High freq. dielectric constant tensor:
#      x y z
#    x 1.720020 0.000000 0.001410 
#    y 0.000000 1.753260 0.000000 
#    z 0.001410 0.000000 1.767250 
# 
# From -- ./inp_files/145788.got.cif
#   From: 2010.06.25/outbox.cif.g09.slc.cpg/sg12_73_cif.got.tgz:145788.got - 2010.06.28 00:19:55.
