data_PCOD8084916
_publ_section_title
;
Structure prediction by ZEFSAII (Michael W. Deem and Ramdas Pophale) SiO2 
 PCOD8084916
Probable space group: C 2/M
;
_chemical_formula_sum "Si O2"
_cell_formula_units_Z 56
_cell_length_a 27.510242
_cell_length_b 9.070911
_cell_length_c 15.990360
_cell_angle_alpha 90.000000
_cell_angle_beta 64.476371
_cell_angle_gamma 90.000000
_cell_volume 3600.860797
_symmetry_space_group_name_H-M "C 2/M"
_symmetry_group_IT_number 12
_symmetry_cell_setting 'monoclinic'
loop_
_space_group_symop_operation_xyz
x,y,z
-x,y,-z
-x,-y,-z
x,-y,z
1/2+x,1/2+y,z
1/2-x,1/2+y,-z
1/2-x,1/2-y,-z
1/2+x,1/2-y,z
loop_
_atom_site_type_symbol
_atom_site_label
_atom_site_fract_x
_atom_site_fract_y
_atom_site_fract_z
Si Si1 0.742475 0.825750 0.309342
Si Si2 0.055214 0.674278 0.856999
Si Si3 0.767503 0.169991 0.858244
Si Si4 0.564431 0.174734 0.036659
Si Si5 0.797607 0.829184 0.512211
Si Si6 0.668642 0.170571 0.052881
Si Si7 0.644703 0.668267 0.692197
O O1 0.734741 0.766621 0.222652
O O2 0.696394 0.751052 0.402470
O O3 0.801370 0.778836 0.299583
O O4 0.734277 0.000000 0.317576
O O5 0.060012 0.500000 0.850353
O O6 0.093594 0.738119 0.757700
O O7 0.993606 0.724016 0.884232
O O8 0.072185 0.734292 0.936191
O O9 0.815966 0.230729 0.879223
O O10 0.778697 0.000000 0.827973
O O11 0.711245 0.190205 0.947083
O O12 0.611763 0.233755 0.061381
O O13 0.567843 0.000000 0.029651
O O14 0.750000 0.750000 0.500000
O O15 0.849499 0.812834 0.412930
O O16 0.783413 0.000000 0.536778
O O17 0.665181 0.000000 0.083241
O O18 0.633495 0.500000 0.724234
#
# Coordination Sequence:
#
# PCOD8084916 Si02
#       7
#     8   8   8   8   8   8   8
#     4  10  19  30  44  63  88 117 146 177 214 258
#     4   9  16  27  45  65  85 113 149 180 207 248
#     4  10  19  29  44  66  87 112 147 181 216 257
#     4   8  15  28  44  63  86 114 148 181 210 243
#     4   9  17  29  43  61  87 116 144 176 213 256
#     4   9  17  30  45  61  87 119 147 178 214 252
#     4   9  18  29  41  62  91 116 139 172 214 255
#
# _framework density 15.551837000000001
#
# number of rings (size 3 to 8) (size 9 to 14) (size 15 to 20)
#    0.000    2.857    0.000    3.857    0.000    5.143 
#    0.000    2.857    0.000    0.000    0.000    1.000 
#    0.000    8.000    0.000    0.000    0.000    0.000 
#
# Total GULP energy -347059.478945 kJ/mol
# GULP energy per Si atom -12394.981391 kJ/mol
# Density = 1.551644 g / cm^3
# Si number density = 15.551837 Si / 1000 Ang^3
#
#
#
# Elastic Constant Matrix: (Units=GPa)
#
#
# Indices 1 2 3 4 5 6 
#
# 1 96.3527 32.8134 42.4529 0.0000 -0.1420 0.0000
# 2 32.8134 68.1690 45.6805 0.0000 -1.0221 0.0000
# 3 42.4529 45.6805 95.2079 0.0000 -2.0453 0.0000
# 4 0.0000 0.0000 0.0000 29.8078 0.0000 0.1946
# 5 -0.1420 -1.0221 -2.0453 0.0000 19.9193 0.0000
# 6 0.0000 0.0000 0.0000 0.1946 0.0000 19.5320
#
#
#
# Elastic Compliance Matrix: (Units=1/GPa)
#
#
# Indices 1 2 3 4 5 6 
#
# 1 0.013505 -0.003634 -0.004290 0.000000 -0.000531 0.000000
# 2 -0.003634 0.022599 -0.009218 0.000000 0.000187 0.000000
# 3 -0.004290 -0.009218 0.016865 0.000000 0.001228 0.000000
# 4 0.000000 0.000000 0.000000 0.033550 0.000000 -0.000334
# 5 -0.000531 0.000187 0.001228 0.000000 0.050334 0.000000
# 6 0.000000 0.000000 0.000000 -0.000334 0.000000 0.051201
#
#
# Mechanical properties :
#
#
# Convention : Reuss Voigt Hill
#
# Bulk Modulus (GPa) = 53.51868 55.73591 54.62729
# Shear Modulus (GPa) = 21.87523 23.10402 22.48962
#
# Velocity S-wave (km/s) = 3.75454 3.85855 3.80690
# Velocity P-wave (km/s) = 7.29953 7.46778 7.38414
#
# Compressibility (1/GPa) = 0.01868506
#
# Stress axis : x y z
#
# Youngs Moduli (GPa) = 74.04403 44.24994 59.29286
#
# Poissons Ratio (x) = 0.16082 0.25435
# Poissons Ratio (y) = 0.26910 0.54658
# Poissons Ratio (z) = 0.31763 0.40791
#
# Static dielectric constant tensor:
#      x y z
#    x 2.934860 0.000000 -0.011240 
#    y 0.000000 2.953210 0.000000 
#    z -0.011240 0.000000 3.052040 
# 
# 
# High freq. dielectric constant tensor:
#      x y z
#    x 1.566370 0.000000 0.000490 
#    y 0.000000 1.594330 0.000000 
#    z 0.000490 0.000000 1.594650 
# 
# From -- ./inp_files/243031.got.cif
#   From: 2010.06.25/outbox.cif.g09.slc.cpg/sg12_122_cif.got.tgz:243031.got - 2010.06.28 00:19:55.
