data_PCOD8084257
_publ_section_title
;
Structure prediction by ZEFSAII (Michael W. Deem and Ramdas Pophale) SiO2 
 PCOD8084257
Probable space group: C 2/M
;
_chemical_formula_sum "Si O2"
_cell_formula_units_Z 40
_cell_length_a 7.321431
_cell_length_b 23.166943
_cell_length_c 13.781675
_cell_angle_alpha 90.000000
_cell_angle_beta 49.036588
_cell_angle_gamma 90.000000
_cell_volume 1765.173898
_symmetry_space_group_name_H-M "C 2/M"
_symmetry_group_IT_number 12
_symmetry_cell_setting 'monoclinic'
loop_
_space_group_symop_operation_xyz
x,y,z
-x,y,-z
-x,-y,-z
x,-y,z
1/2+x,1/2+y,z
1/2-x,1/2+y,-z
1/2-x,1/2-y,-z
1/2+x,1/2-y,z
loop_
_atom_site_type_symbol
_atom_site_label
_atom_site_fract_x
_atom_site_fract_y
_atom_site_fract_z
Si Si1 0.494258 0.189695 0.282435
Si Si2 0.980737 0.874092 0.121248
Si Si3 0.405848 0.000000 0.422954
Si Si4 0.156332 0.180428 0.233784
Si Si5 0.765070 0.620871 0.514916
Si Si6 0.401909 0.500000 0.143376
O O1 0.716572 0.150078 0.238015
O O2 0.414396 0.178364 0.198329
O O3 0.548103 0.256137 0.281812
O O4 0.275086 0.170238 0.428355
O O5 0.181515 0.836852 0.110657
O O6 0.005739 0.940248 0.150366
O O7 0.000000 0.866003 0.000000
O O8 0.500000 0.000000 0.500000
O O9 0.246328 0.058175 0.468511
O O10 0.613698 0.000000 0.266191
O O11 0.974299 0.132519 0.339720
O O12 0.000000 0.624560 0.500000
O O13 0.500000 0.500000 0.000000
#
# Coordination Sequence:
#
# PCOD8084257 Si02
#       6
#     8   8   4   8   8   4
#     4  12  23  42  64  95 133 169 216 266 330 391
#     4  11  24  44  68  94 128 174 220 267 321 386
#     4  10  18  34  65  94 128 168 218 272 322 381
#     4  12  24  41  63  96 130 172 212 268 327 391
#     4  11  20  38  64  92 130 167 211 263 328 386
#     4  10  20  42  70  93 129 178 216 263 332 395
#
# _framework density 22.660657
#
# number of rings (size 3 to 8) (size 9 to 14) (size 15 to 20)
#    0.000    0.800    6.000    2.400    0.000    1.600 
#    0.000    5.000    0.000    3.600    0.000    0.000 
#    0.000    0.000    0.000    0.000    0.000    0.000 
#
# Total GULP energy -247828.080442 kJ/mol
# GULP energy per Si atom -12391.404022 kJ/mol
# Density = 2.260908 g / cm^3
# Si number density = 22.660657 Si / 1000 Ang^3
#
#
#
# Elastic Constant Matrix: (Units=GPa)
#
#
# Indices 1 2 3 4 5 6 
#
# 1 99.9000 18.9754 -6.2719 0.0000 24.0324 0.0000
# 2 18.9754 169.7916 27.1592 0.0000 17.0787 0.0000
# 3 -6.2719 27.1592 76.6434 0.0000 12.4638 0.0000
# 4 0.0000 0.0000 0.0000 28.9034 0.0000 10.7118
# 5 24.0324 17.0787 12.4638 0.0000 28.2070 0.0000
# 6 0.0000 0.0000 0.0000 10.7118 0.0000 8.8571
#
#
#
# Elastic Compliance Matrix: (Units=1/GPa)
#
#
# Indices 1 2 3 4 5 6 
#
# 1 0.013355 -0.000787 0.003388 0.000000 -0.012399 0.000000
# 2 -0.000787 0.006538 -0.001990 0.000000 -0.002409 0.000000
# 3 0.003388 -0.001990 0.015411 0.000000 -0.008492 0.000000
# 4 0.000000 0.000000 0.000000 0.062702 0.000000 -0.075832
# 5 -0.012399 -0.002409 -0.008492 0.000000 0.051227 0.000000
# 6 0.000000 0.000000 0.000000 -0.075832 0.000000 0.204615
#
#
# Mechanical properties :
#
#
# Convention : Reuss Voigt Hill
#
# Bulk Modulus (GPa) = 27.37749 47.34002 37.35876
# Shear Modulus (GPa) = 13.70615 33.62500 23.66558
#
# Velocity S-wave (km/s) = 2.46202 3.85626 3.23514
# Velocity P-wave (km/s) = 4.49331 6.38465 5.52058
#
# Compressibility (1/GPa) = 0.03652636
#
# Stress axis : x y z
#
# Youngs Moduli (GPa) = 74.87830 152.94992 64.89036
#
# Poissons Ratio (x) = 0.12042 -0.21986
# Poissons Ratio (y) = 0.05895 0.12910
# Poissons Ratio (z) = -0.25370 0.30430
#
# Static dielectric constant tensor:
#      x y z
#    x 3.966620 0.000000 0.263670 
#    y 0.000000 4.596810 0.000000 
#    z 0.263670 0.000000 4.173140 
# 
# 
# High freq. dielectric constant tensor:
#      x y z
#    x 1.866590 0.000000 0.021110 
#    y 0.000000 1.913310 0.000000 
#    z 0.021110 0.000000 1.890050 
# 
# From -- ./inp_files/196801.got.cif
#   From: 2010.06.25/outbox.cif.g09.slc.cpg/sg12_99_cif.got.tgz:196801.got - 2010.06.28 00:19:55.
