data_PCOD8084244
_publ_section_title
;
Structure prediction by ZEFSAII (Michael W. Deem and Ramdas Pophale) SiO2 
 PCOD8084244
Probable space group: C 2/M
;
_chemical_formula_sum "Si O2"
_cell_formula_units_Z 56
_cell_length_a 14.455226
_cell_length_b 16.973058
_cell_length_c 12.598194
_cell_angle_alpha 90.000000
_cell_angle_beta 119.868340
_cell_angle_gamma 90.000000
_cell_volume 2680.393481
_symmetry_space_group_name_H-M "C 2/M"
_symmetry_group_IT_number 12
_symmetry_cell_setting 'monoclinic'
loop_
_space_group_symop_operation_xyz
x,y,z
-x,y,-z
-x,-y,-z
x,-y,z
1/2+x,1/2+y,z
1/2-x,1/2+y,-z
1/2-x,1/2-y,-z
1/2+x,1/2-y,z
loop_
_atom_site_type_symbol
_atom_site_label
_atom_site_fract_x
_atom_site_fract_y
_atom_site_fract_z
Si Si1 0.969059 0.409271 0.760043
Si Si2 0.114762 0.906632 0.093493
Si Si3 0.358230 0.795883 0.529057
Si Si4 0.795392 0.593584 0.038287
Si Si5 0.726484 0.089628 0.210242
Si Si6 0.608544 0.635969 0.523807
Si Si7 0.788601 0.088611 0.635570
O O1 0.968129 0.500000 0.714122
O O2 0.921128 0.344550 0.653388
O O3 0.896427 0.406690 0.823542
O O4 0.087555 0.380234 0.856512
O O5 0.206713 0.872511 0.068718
O O6 0.135039 0.881532 0.226693
O O7 0.111498 0.000000 0.077711
O O8 0.000000 0.869451 0.000000
O O9 0.250000 0.750000 0.500000
O O10 0.429368 0.726084 0.522270
O O11 0.319861 0.860570 0.421498
O O12 0.793042 0.500000 0.031369
O O13 0.768634 0.626496 0.905231
O O14 0.802130 0.137441 0.333631
O O15 0.768418 0.000000 0.234966
O O16 0.500000 0.592557 0.500000
O O17 0.652861 0.592725 0.444630
O O18 0.752765 0.000000 0.638096
#
# Coordination Sequence:
#
# PCOD8084244 Si02
#       7
#     8   8   8   8   8   8   8
#     4  10  18  34  62  93 119 151 200 252 305 357
#     4   9  19  35  55  81 116 155 193 242 298 350
#     4  10  20  37  57  79 119 160 189 240 301 360
#     4   9  19  33  55  90 123 153 193 246 307 362
#     4  10  19  34  59  90 124 154 193 251 304 355
#     4  11  24  37  57  88 123 161 201 242 306 369
#     4  10  20  37  63  87 112 151 203 253 299 350
#
# _framework density 20.892455999999999
#
# number of rings (size 3 to 8) (size 9 to 14) (size 15 to 20)
#    0.000    2.143    2.857    1.286    2.000    4.000 
#    0.000    0.000    6.286    6.000    0.000    0.000 
#    0.000    0.000    0.000    0.000    0.000    0.000 
#
# Total GULP energy -346951.970772 kJ/mol
# GULP energy per Si atom -12391.141813 kJ/mol
# Density = 2.084490 g / cm^3
# Si number density = 20.892456 Si / 1000 Ang^3
#
#
#
# Elastic Constant Matrix: (Units=GPa)
#
#
# Indices 1 2 3 4 5 6 
#
# 1 113.7392 5.1189 58.9471 0.0000 10.8954 0.0000
# 2 5.1189 61.2109 36.4572 0.0000 -3.5507 0.0000
# 3 58.9471 36.4572 179.5162 0.0000 2.5830 0.0000
# 4 0.0000 0.0000 0.0000 12.9214 0.0000 5.6849
# 5 10.8954 -3.5507 2.5830 0.0000 22.0226 0.0000
# 6 0.0000 0.0000 0.0000 5.6849 0.0000 9.2860
#
#
#
# Elastic Compliance Matrix: (Units=1/GPa)
#
#
# Indices 1 2 3 4 5 6 
#
# 1 0.011195 0.001053 -0.003819 0.000000 -0.004921 0.000000
# 2 0.001053 0.018949 -0.004238 0.000000 0.003031 0.000000
# 3 -0.003819 -0.004238 0.007681 0.000000 0.000305 0.000000
# 4 0.000000 0.000000 0.000000 0.105919 0.000000 -0.064843
# 5 -0.004921 0.003031 0.000305 0.000000 0.048295 0.000000
# 6 0.000000 0.000000 0.000000 -0.064843 0.000000 0.147385
#
#
# Mechanical properties :
#
#
# Convention : Reuss Voigt Hill
#
# Bulk Modulus (GPa) = 41.98629 61.72363 51.85496
# Shear Modulus (GPa) = 13.83621 25.77556 19.80589
#
# Velocity S-wave (km/s) = 2.57623 3.51625 3.08229
# Velocity P-wave (km/s) = 5.38417 6.78918 6.12708
#
# Compressibility (1/GPa) = 0.02381730
#
# Stress axis : x y z
#
# Youngs Moduli (GPa) = 89.32207 52.77425 130.19397
#
# Poissons Ratio (x) = -0.05557 0.49724
# Poissons Ratio (y) = -0.09406 0.55171
# Poissons Ratio (z) = 0.34114 0.22364
#
# Static dielectric constant tensor:
#      x y z
#    x 3.925460 0.000000 0.031400 
#    y 0.000000 3.843170 0.000000 
#    z 0.031400 0.000000 3.859750 
# 
# 
# High freq. dielectric constant tensor:
#      x y z
#    x 1.814360 0.000000 0.004870 
#    y 0.000000 1.790380 0.000000 
#    z 0.004870 0.000000 1.823240 
# 
# From -- ./inp_files/146225.got.cif
#   From: 2010.06.25/outbox.cif.g09.slc.cpg/sg12_74_cif.got.tgz:146225.got - 2010.06.28 00:19:55.
