data_PCOD8084569
_publ_section_title
;
Structure prediction by ZEFSAII (Michael W. Deem and Ramdas Pophale) SiO2 
 PCOD8084569
Probable space group: C 2/M
;
_chemical_formula_sum "Si O2"
_cell_formula_units_Z 40
_cell_length_a 11.416944
_cell_length_b 25.461007
_cell_length_c 8.213507
_cell_angle_alpha 90.000000
_cell_angle_beta 56.483986
_cell_angle_gamma 90.000000
_cell_volume 1990.583051
_symmetry_space_group_name_H-M "C 2/M"
_symmetry_group_IT_number 12
_symmetry_cell_setting 'monoclinic'
loop_
_space_group_symop_operation_xyz
x,y,z
-x,y,-z
-x,-y,-z
x,-y,z
1/2+x,1/2+y,z
1/2-x,1/2+y,-z
1/2-x,1/2-y,-z
1/2+x,1/2-y,z
loop_
_atom_site_type_symbol
_atom_site_label
_atom_site_fract_x
_atom_site_fract_y
_atom_site_fract_z
Si Si1 0.565509 0.386131 0.772336
Si Si2 0.568240 0.500000 0.771262
Si Si3 0.145724 0.500000 0.301291
Si Si4 0.573276 0.711417 0.281658
Si Si5 0.855534 0.386394 0.706511
Si Si6 0.881092 0.693816 0.974002
O O1 0.526681 0.443821 0.722007
O O2 0.504325 0.342933 0.698886
O O3 0.732855 0.378461 0.667000
O O4 0.500000 0.380247 0.000000
O O5 0.736225 0.500000 0.650920
O O6 0.500000 0.500000 0.000000
O O7 0.157966 0.444433 0.195823
O O8 0.000000 0.500000 0.500000
O O9 0.500000 0.734502 0.500000
O O10 0.555443 0.752297 0.147523
O O11 0.739491 0.703565 0.186030
O O12 0.840134 0.344952 0.860997
O O13 0.000000 0.378992 0.500000
O O14 0.000000 0.669412 0.000000
#
# Coordination Sequence:
#
# PCOD8084569 Si02
#       6
#     8   4   4   8   8   8
#     4  10  18  37  61  86 117 148 195 236 277 334
#     4   8  16  28  57  88 108 148 189 232 276 324
#     4   8  16  32  55  86 118 146 191 230 272 335
#     4  11  25  41  60  83 114 153 188 240 290 337
#     4  10  20  36  62  90 116 154 191 235 282 333
#     4  11  25  41  58  84 117 149 192 235 289 346
#
# _framework density 20.094614
#
# number of rings (size 3 to 8) (size 9 to 14) (size 15 to 20)
#    0.000    2.000    2.000    1.200    5.600    0.800 
#    0.000    1.000    0.000    0.000    0.000    0.000 
#    0.000    0.000    0.000    0.000    0.000    0.000 
#
# Total GULP energy -247793.960144 kJ/mol
# GULP energy per Si atom -12389.698007 kJ/mol
# Density = 2.004888 g / cm^3
# Si number density = 20.094614 Si / 1000 Ang^3
#
#
#
# Elastic Constant Matrix: (Units=GPa)
#
#
# Indices 1 2 3 4 5 6 
#
# 1 88.8639 30.2060 31.7754 0.0000 -17.1980 0.0000
# 2 30.2060 130.4592 14.6269 0.0000 0.3876 0.0000
# 3 31.7754 14.6269 89.2298 0.0000 -24.2225 0.0000
# 4 0.0000 0.0000 0.0000 19.4151 0.0000 -2.7840
# 5 -17.1980 0.3876 -24.2225 0.0000 29.1462 0.0000
# 6 0.0000 0.0000 0.0000 -2.7840 0.0000 27.6889
#
#
#
# Elastic Compliance Matrix: (Units=1/GPa)
#
#
# Indices 1 2 3 4 5 6 
#
# 1 0.014554 -0.003049 -0.003023 0.000000 0.006116 0.000000
# 2 -0.003049 0.008499 -0.001067 0.000000 -0.002799 0.000000
# 3 -0.003023 -0.001067 0.015468 0.000000 0.011085 0.000000
# 4 0.000000 0.000000 0.000000 0.052260 0.000000 0.005255
# 5 0.006116 -0.002799 0.011085 0.000000 0.047169 0.000000
# 6 0.000000 0.000000 0.000000 0.005255 0.000000 0.036644
#
#
# Mechanical properties :
#
#
# Convention : Reuss Voigt Hill
#
# Bulk Modulus (GPa) = 41.24930 51.30774 46.27852
# Shear Modulus (GPa) = 25.38685 30.71301 28.04993
#
# Velocity S-wave (km/s) = 3.55824 3.91374 3.74022
# Velocity P-wave (km/s) = 6.11993 6.78319 6.46008
#
# Compressibility (1/GPa) = 0.02424284
#
# Stress axis : x y z
#
# Youngs Moduli (GPa) = 68.70914 117.65843 64.65127
#
# Poissons Ratio (x) = 0.35875 0.19542
# Poissons Ratio (y) = 0.20950 0.06900
# Poissons Ratio (z) = 0.20768 0.12558
#
# Static dielectric constant tensor:
#      x y z
#    x 3.686960 0.000000 -0.455780 
#    y 0.000000 4.323070 0.000000 
#    z -0.455780 0.000000 3.423740 
# 
# 
# High freq. dielectric constant tensor:
#      x y z
#    x 1.768960 0.000000 -0.046380 
#    y 0.000000 1.809500 0.000000 
#    z -0.046380 0.000000 1.757610 
# 
# From -- ./inp_files/50455.got.cif
#   From: 2010.06.25/outbox.cif.g09.slc.cpg/sg12_26_cif.got.tgz:50455.got - 2010.06.28 00:19:55.
