data_PCOD8084893
_publ_section_title
;
Structure prediction by ZEFSAII (Michael W. Deem and Ramdas Pophale) SiO2 
 PCOD8084893
Probable space group: C 2/M
;
_chemical_formula_sum "Si O2"
_cell_formula_units_Z 64
_cell_length_a 25.114544
_cell_length_b 8.944106
_cell_length_c 17.448933
_cell_angle_alpha 90.000000
_cell_angle_beta 101.728175
_cell_angle_gamma 90.000000
_cell_volume 3837.676387
_symmetry_space_group_name_H-M "C 2/M"
_symmetry_group_IT_number 12
_symmetry_cell_setting 'monoclinic'
loop_
_space_group_symop_operation_xyz
x,y,z
-x,y,-z
-x,-y,-z
x,-y,z
1/2+x,1/2+y,z
1/2-x,1/2+y,-z
1/2-x,1/2-y,-z
1/2+x,1/2-y,z
loop_
_atom_site_type_symbol
_atom_site_label
_atom_site_fract_x
_atom_site_fract_y
_atom_site_fract_z
Si Si1 0.736278 0.677738 0.576682
Si Si2 0.655969 0.176407 0.313658
Si Si3 0.955895 0.826934 0.330909
Si Si4 0.587851 0.822841 0.155352
Si Si5 0.438965 0.166323 0.013278
Si Si6 0.566833 0.825868 0.406617
Si Si7 0.624494 0.826431 0.582945
Si Si8 0.022752 0.828574 0.836456
O O1 0.735043 0.500000 0.566761
O O2 0.750000 0.750000 0.500000
O O3 0.783327 0.731299 0.649653
O O4 0.679848 0.734758 0.592916
O O5 0.638943 0.227884 0.222746
O O6 0.612832 0.238806 0.362941
O O7 0.653800 0.000000 0.320206
O O8 0.906916 0.732643 0.352177
O O9 0.950607 0.804241 0.238336
O O10 0.012912 0.769037 0.379448
O O11 0.950147 0.000000 0.352038
O O12 0.596771 0.770780 0.069333
O O13 0.533748 0.758437 0.177740
O O14 0.579940 0.000000 0.153533
O O15 0.419903 0.000000 0.031113
O O16 0.500000 0.163478 0.000000
O O17 0.434589 0.270318 0.086740
O O18 0.586929 0.799558 0.498460
O O19 0.553967 0.000000 0.387428
O O20 0.638845 0.000000 0.596991
O O21 0.010131 0.000000 0.850067
#
# Coordination Sequence:
#
# PCOD8084893 Si02
#       8
#     8   8   8   8   8   8   8   8
#     4  11  21  36  55  75  99 130 167 209 251 293
#     4   9  17  31  52  74  98 130 165 200 244 290
#     4  11  23  35  48  73 102 132 169 206 247 294
#     4   9  16  29  48  69  95 127 164 198 232 286
#     4   8  15  26  43  67  93 125 162 194 230 284
#     4  10  19  34  53  72  97 132 169 202 243 297
#     4  11  23  38  53  72  96 131 173 210 251 294
#     4  10  19  29  43  67 100 131 159 193 241 293
#
# _framework density 16.676756999999998
#
# number of rings (size 3 to 8) (size 9 to 14) (size 15 to 20)
#    0.000    2.125    2.500    2.625    0.000    6.250 
#    0.000    1.250    0.000    0.000    0.000    0.875 
#    0.000    0.000    0.000    0.000    0.000    0.000 
#
# Total GULP energy -396712.440696 kJ/mol
# GULP energy per Si atom -12397.263772 kJ/mol
# Density = 1.663880 g / cm^3
# Si number density = 16.676757 Si / 1000 Ang^3
#
#
#
# Elastic Constant Matrix: (Units=GPa)
#
#
# Indices 1 2 3 4 5 6 
#
# 1 79.5674 27.4420 47.1587 0.0000 2.7414 0.0000
# 2 27.4420 58.4846 46.7594 0.0000 3.5679 0.0000
# 3 47.1587 46.7594 129.1103 0.0000 14.2040 0.0000
# 4 0.0000 0.0000 0.0000 25.1726 0.0000 -2.3701
# 5 2.7414 3.5679 14.2040 0.0000 17.8133 0.0000
# 6 0.0000 0.0000 0.0000 -2.3701 0.0000 23.2218
#
#
#
# Elastic Compliance Matrix: (Units=1/GPa)
#
#
# Indices 1 2 3 4 5 6 
#
# 1 0.016807 -0.004111 -0.004885 0.000000 0.002132 0.000000
# 2 -0.004111 0.025162 -0.007812 0.000000 0.001822 0.000000
# 3 -0.004885 -0.007812 0.013268 0.000000 -0.008263 0.000000
# 4 0.000000 0.000000 0.000000 0.040111 0.000000 0.004094
# 5 0.002132 0.001822 -0.008263 0.000000 0.062033 0.000000
# 6 0.000000 0.000000 0.000000 0.004094 0.000000 0.043481
#
#
# Mechanical properties :
#
#
# Convention : Reuss Voigt Hill
#
# Bulk Modulus (GPa) = 46.24853 56.65361 51.45107
# Shear Modulus (GPa) = 20.68812 22.96170 21.82491
#
# Velocity S-wave (km/s) = 3.52595 3.71464 3.62152
# Velocity P-wave (km/s) = 6.66100 7.24178 6.95746
#
# Compressibility (1/GPa) = 0.02162231
#
# Stress axis : x y z
#
# Youngs Moduli (GPa) = 59.49728 39.74272 75.37124
#
# Poissons Ratio (x) = 0.16338 0.36817
# Poissons Ratio (y) = 0.24459 0.58877
# Poissons Ratio (z) = 0.29063 0.31045
#
# Static dielectric constant tensor:
#      x y z
#    x 3.051110 0.000000 0.171260 
#    y 0.000000 3.109590 0.000000 
#    z 0.171260 0.000000 3.700170 
# 
# 
# High freq. dielectric constant tensor:
#      x y z
#    x 1.604970 0.000000 0.007750 
#    y 0.000000 1.639570 0.000000 
#    z 0.007750 0.000000 1.653950 
# 
# From -- ./inp_files/287756.got.cif
#   From: 2010.06.25/outbox.cif.g09.slc.cpg/sg12_144_cif.got.tgz:287756.got - 2010.06.28 00:19:55.
