data_PCOD8084702
_publ_section_title
;
Structure prediction by ZEFSAII (Michael W. Deem and Ramdas Pophale) SiO2 
 PCOD8084702
Probable space group: C 2/M
;
_chemical_formula_sum "Si O2"
_cell_formula_units_Z 64
_cell_length_a 23.363509
_cell_length_b 9.362018
_cell_length_c 23.202388
_cell_angle_alpha 90.000000
_cell_angle_beta 46.791927
_cell_angle_gamma 90.000000
_cell_volume 3699.061858
_symmetry_space_group_name_H-M "C 2/M"
_symmetry_group_IT_number 12
_symmetry_cell_setting 'monoclinic'
loop_
_space_group_symop_operation_xyz
x,y,z
-x,y,-z
-x,-y,-z
x,-y,z
1/2+x,1/2+y,z
1/2-x,1/2+y,-z
1/2-x,1/2-y,-z
1/2+x,1/2-y,z
loop_
_atom_site_type_symbol
_atom_site_label
_atom_site_fract_x
_atom_site_fract_y
_atom_site_fract_z
Si Si1 0.221848 0.332201 0.251511
Si Si2 0.973084 0.663493 0.807081
Si Si3 0.406855 0.830604 0.434192
Si Si4 0.033069 0.669253 0.063677
Si Si5 0.212527 0.332786 0.389781
Si Si6 0.876922 0.668765 0.108890
Si Si7 0.926549 0.329123 0.717405
Si Si8 0.149429 0.336939 0.648845
O O1 0.235765 0.500000 0.233115
O O2 0.197583 0.296547 0.333570
O O3 0.299746 0.250684 0.180561
O O4 0.151464 0.273505 0.260021
O O5 0.947040 0.500000 0.826856
O O6 0.948686 0.735309 0.885295
O O7 0.066241 0.677397 0.737344
O O8 0.929687 0.731997 0.781144
O O9 0.362734 0.776171 0.522025
O O10 0.496300 0.771770 0.370087
O O11 0.357877 0.779975 0.411775
O O12 0.411517 0.000000 0.429066
O O13 0.025887 0.500000 0.072654
O O14 0.948635 0.723676 0.099110
O O15 0.102361 0.710176 0.971631
O O16 0.224000 0.500000 0.392030
O O17 0.290968 0.258608 0.356971
O O18 0.863007 0.500000 0.125046
O O19 0.928817 0.500000 0.716746
O O20 0.179070 0.500000 0.629767
#
# Coordination Sequence:
#
# PCOD8084702 Si02
#       8
#     8   8   8   8   8   8   8   8
#     4  10  20  31  43  63  90 118 147 177 213 254
#     4   8  13  24  45  68  85 107 145 185 213 245
#     4   8  15  28  45  65  86 111 147 184 213 246
#     4   8  14  26  46  70  89 108 140 177 214 257
#     4  10  19  28  41  64  92 117 141 175 218 260
#     4   9  17  30  48  68  90 113 138 175 218 258
#     4   8  15  28  44  61  84 115 149 183 212 243
#     4   9  16  27  46  69  89 110 140 178 218 259
#
# _framework density 17.301684999999999
#
# number of rings (size 3 to 8) (size 9 to 14) (size 15 to 20)
#    0.000    3.250    0.000    3.375    0.000    2.000 
#    0.000    4.375    0.000    4.500    0.000    1.750 
#    0.000    0.000    0.000    0.000    0.000    0.000 
#
# Total GULP energy -396529.502032 kJ/mol
# GULP energy per Si atom -12391.546939 kJ/mol
# Density = 1.726231 g / cm^3
# Si number density = 17.301685 Si / 1000 Ang^3
#
#
#
# Elastic Constant Matrix: (Units=GPa)
#
#
# Indices 1 2 3 4 5 6 
#
# 1 100.3673 26.4040 50.6095 -0.0006 18.4234 0.0010
# 2 26.4040 18.7075 27.4650 -0.0010 1.8074 0.0015
# 3 50.6095 27.4650 91.9803 -0.0006 31.2521 0.0009
# 4 -0.0006 -0.0010 -0.0006 20.3345 0.0003 -3.2157
# 5 18.4234 1.8074 31.2521 0.0003 24.8710 -0.0005
# 6 0.0010 0.0015 0.0009 -3.2157 -0.0005 17.5541
#
#
#
# Elastic Compliance Matrix: (Units=1/GPa)
#
#
# Indices 1 2 3 4 5 6 
#
# 1 0.019764 -0.036117 0.006966 -0.000001 -0.020770 0.000001
# 2 -0.036117 0.219037 -0.085878 0.000004 0.118748 -0.000009
# 3 0.006966 -0.085878 0.056390 -0.000001 -0.069777 0.000002
# 4 -0.000001 0.000004 -0.000001 0.050645 0.000001 0.009278
# 5 -0.020770 0.118748 -0.069777 0.000001 0.134643 -0.000002
# 6 0.000001 -0.000009 0.000002 0.009278 -0.000002 0.058666
#
#
# Mechanical properties :
#
#
# Convention : Reuss Voigt Hill
#
# Bulk Modulus (GPa) = 15.35290 46.66801 31.01045
# Shear Modulus (GPa) = 6.32180 19.65704 12.98942
#
# Velocity S-wave (km/s) = 1.91358 3.37432 2.74297
# Velocity P-wave (km/s) = 3.71151 6.49715 5.29095
#
# Compressibility (1/GPa) = 0.06513429
#
# Stress axis : x y z
#
# Youngs Moduli (GPa) = 50.59582 4.56543 17.73364
#
# Poissons Ratio (x) = 0.16489 -0.12354
# Poissons Ratio (y) = 1.82735 1.52294
# Poissons Ratio (z) = -0.35247 0.39207
#
# Static dielectric constant tensor:
#      x y z
#    x 3.455570 0.000000 0.304300 
#    y 0.000000 2.702640 0.000000 
#    z 0.304300 0.000000 3.509050 
# 
# 
# High freq. dielectric constant tensor:
#      x y z
#    x 1.667800 0.000000 0.014490 
#    y 0.000000 1.608370 0.000000 
#    z 0.014490 0.000000 1.676860 
# 
# From -- ./inp_files/349034.got.cif
#   From: 2010.06.25/outbox.cif.g09.slc.cpg/sg12_175_cif.got.tgz:349034.got - 2010.06.28 00:19:55.
