data_PCOD8084820
_publ_section_title
;
Structure prediction by ZEFSAII (Michael W. Deem and Ramdas Pophale) SiO2 
 PCOD8084820
Probable space group: C 2/M
;
_chemical_formula_sum "Si O2"
_cell_formula_units_Z 56
_cell_length_a 25.103419
_cell_length_b 9.258328
_cell_length_c 29.885142
_cell_angle_alpha 90.000000
_cell_angle_beta 149.808426
_cell_angle_gamma 90.000000
_cell_volume 3492.980921
_symmetry_space_group_name_H-M "C 2/M"
_symmetry_group_IT_number 12
_symmetry_cell_setting 'monoclinic'
loop_
_space_group_symop_operation_xyz
x,y,z
-x,y,-z
-x,-y,-z
x,-y,z
1/2+x,1/2+y,z
1/2-x,1/2+y,-z
1/2-x,1/2-y,-z
1/2+x,1/2-y,z
loop_
_atom_site_type_symbol
_atom_site_label
_atom_site_fract_x
_atom_site_fract_y
_atom_site_fract_z
Si Si1 0.508540 0.668301 0.607049
Si Si2 0.253950 0.659419 0.069701
Si Si3 0.543505 0.669946 0.733883
Si Si4 0.596144 0.661198 0.906910
Si Si5 0.110119 0.663029 0.605815
Si Si6 0.564097 0.831235 0.265036
Si Si7 0.702863 0.665651 0.597224
O O1 0.533654 0.500000 0.619590
O O2 0.516626 0.716783 0.664222
O O3 0.597093 0.754498 0.643351
O O4 0.390765 0.707598 0.504952
O O5 0.207701 0.500000 0.045924
O O6 0.333038 0.708620 0.166890
O O7 0.322717 0.654994 0.074817
O O8 0.155548 0.768774 0.992955
O O9 0.523746 0.500000 0.728381
O O10 0.466879 0.759507 0.710546
O O11 0.558299 0.500000 0.892431
O O12 0.495945 0.758084 0.820353
O O13 0.146719 0.500000 0.641944
O O14 0.198167 0.739856 0.638984
O O15 0.000000 0.669505 0.500000
O O16 0.688391 0.804428 0.349349
O O17 0.534598 0.000000 0.244554
O O18 0.692240 0.500000 0.604534
#
# Coordination Sequence:
#
# PCOD8084820 Si02
#       7
#     8   8   8   8   8   8   8
#     4   9  17  31  48  64  87 118 149 180 214 257
#     4   8  14  25  40  59  83 110 142 178 213 252
#     4   9  18  30  44  64  90 120 149 176 213 260
#     4   9  16  26  41  60  82 111 145 179 217 257
#     4   9  17  29  46  67  86 107 143 189 227 254
#     4  10  19  29  42  63  91 120 149 180 214 256
#     4   9  18  31  46  64  87 118 151 180 215 257
#
# _framework density 16.032152
#
# number of rings (size 3 to 8) (size 9 to 14) (size 15 to 20)
#    0.000    3.000    0.000    2.143    0.000    7.429 
#    0.000    0.000    0.000    0.000    0.000    1.000 
#    0.000    8.000    0.000    0.000    0.000    0.000 
#
# Total GULP energy -347131.895957 kJ/mol
# GULP energy per Si atom -12397.567713 kJ/mol
# Density = 1.599566 g / cm^3
# Si number density = 16.032152 Si / 1000 Ang^3
#
#
#
# Elastic Constant Matrix: (Units=GPa)
#
#
# Indices 1 2 3 4 5 6 
#
# 1 84.9403 58.6854 53.7421 0.0000 -6.3776 0.0000
# 2 58.6854 100.8451 48.8596 0.0000 -7.2427 0.0000
# 3 53.7421 48.8596 79.4298 -0.0001 -16.6090 0.0000
# 4 0.0000 0.0000 -0.0001 22.5712 0.0000 0.1241
# 5 -6.3776 -7.2427 -16.6090 0.0000 5.9035 0.0000
# 6 0.0000 0.0000 0.0000 0.1241 0.0000 23.3004
#
#
#
# Elastic Compliance Matrix: (Units=1/GPa)
#
#
# Indices 1 2 3 4 5 6 
#
# 1 0.030218 -0.008856 -0.025367 0.000000 -0.049589 0.000000
# 2 -0.008856 0.017487 -0.005536 0.000000 -0.003688 0.000000
# 3 -0.025367 -0.005536 0.063171 0.000001 0.143531 0.000000
# 4 0.000000 0.000000 0.000001 0.044305 0.000002 -0.000236
# 5 -0.049589 -0.003688 0.143531 0.000002 0.515109 0.000000
# 6 0.000000 0.000000 0.000000 -0.000236 0.000000 0.042919
#
#
# Mechanical properties :
#
#
# Convention : Reuss Voigt Hill
#
# Bulk Modulus (GPa) = 31.88965 65.30992 48.59978
# Shear Modulus (GPa) = 6.22524 17.28357 11.75441
#
# Velocity S-wave (km/s) = 1.97266 3.28694 2.71066
# Velocity P-wave (km/s) = 5.01226 7.43173 6.33851
#
# Compressibility (1/GPa) = 0.03135814
#
# Stress axis : x y z
#
# Youngs Moduli (GPa) = 33.09248 57.18437 15.82996
#
# Poissons Ratio (x) = 0.50644 0.40156
# Poissons Ratio (y) = 0.29307 0.08764
# Poissons Ratio (z) = 0.83946 0.31658
#
# Static dielectric constant tensor:
#      x y z
#    x 2.791620 0.000000 -0.149010 
#    y 0.000000 3.221570 0.000000 
#    z -0.149010 0.000000 3.055860 
# 
# 
# High freq. dielectric constant tensor:
#      x y z
#    x 1.579670 0.000000 -0.010040 
#    y 0.000000 1.625910 0.000000 
#    z -0.010040 0.000000 1.602420 
# 
# From -- ./inp_files/287054.got.cif
#   From: 2010.06.25/outbox.cif.g09.slc.cpg/sg12_144_cif.got.tgz:287054.got - 2010.06.28 00:19:55.
