data_PCOD8084979
_publ_section_title
;
Structure prediction by ZEFSAII (Michael W. Deem and Ramdas Pophale) SiO2 
 PCOD8084979
Probable space group: C 2/M
;
_chemical_formula_sum "Si O2"
_cell_formula_units_Z 64
_cell_length_a 33.181527
_cell_length_b 9.189264
_cell_length_c 16.371593
_cell_angle_alpha 90.000000
_cell_angle_beta 51.654455
_cell_angle_gamma 90.000000
_cell_volume 3915.084042
_symmetry_space_group_name_H-M "C 2/M"
_symmetry_group_IT_number 12
_symmetry_cell_setting 'monoclinic'
loop_
_space_group_symop_operation_xyz
x,y,z
-x,y,-z
-x,-y,-z
x,-y,z
1/2+x,1/2+y,z
1/2-x,1/2+y,-z
1/2-x,1/2-y,-z
1/2+x,1/2-y,z
loop_
_atom_site_type_symbol
_atom_site_label
_atom_site_fract_x
_atom_site_fract_y
_atom_site_fract_z
Si Si1 0.327432 0.670039 0.433244
Si Si2 0.904291 0.664260 0.440562
Si Si3 0.995227 0.168152 0.411484
Si Si4 0.728990 0.329805 0.807281
Si Si5 0.108986 0.832968 0.244475
Si Si6 0.702004 0.329517 0.019431
Si Si7 0.778260 0.330254 0.346973
Si Si8 0.343773 0.838905 0.677434
O O1 0.336087 0.500000 0.406326
O O2 0.380884 0.739226 0.397109
O O3 0.281496 0.696150 0.555855
O O4 0.314361 0.747681 0.365118
O O5 0.916398 0.500000 0.395078
O O6 0.955782 0.733663 0.411588
O O7 0.860255 0.660220 0.563426
O O8 0.000000 0.218234 0.500000
O O9 0.049490 0.191488 0.296201
O O10 0.977541 0.000000 0.430551
O O11 0.727929 0.500000 0.783967
O O12 0.708020 0.234588 0.758912
O O13 0.786462 0.277061 0.755659
O O14 0.696355 0.296824 0.929915
O O15 0.148477 0.772846 0.126453
O O16 0.117550 0.759797 0.320918
O O17 0.120789 0.000000 0.244251
O O18 0.710936 0.500000 0.022348
O O19 0.750000 0.250000 0.000000
O O20 0.792032 0.500000 0.331250
O O21 0.345660 0.000000 0.713181
#
# Coordination Sequence:
#
# PCOD8084979 Si02
#       8
#     8   8   8   8   8   8   8   8
#     4  10  20  33  50  71  99 131 160 196 242 289
#     4  11  21  32  48  71  98 129 166 202 239 288
#     4  10  20  33  48  68  95 129 168 206 244 287
#     4  10  19  32  47  68  99 133 165 197 241 291
#     4  10  20  33  48  67  95 129 168 209 243 282
#     4  10  20  32  48  70  96 129 166 204 243 286
#     4  10  20  32  49  73  99 128 163 199 237 286
#     4  10  19  29  45  68  97 130 163 201 240 281
#
# _framework density 16.347031000000001
#
# number of rings (size 3 to 8) (size 9 to 14) (size 15 to 20)
#    0.000    1.875    3.750    1.125    0.000    3.250 
#    0.000    0.000    0.000    0.000    0.000    0.875 
#    0.000    7.000    0.000    0.000    0.000    0.000 
#
# Total GULP energy -396772.328604 kJ/mol
# GULP energy per Si atom -12399.135269 kJ/mol
# Density = 1.630982 g / cm^3
# Si number density = 16.347031 Si / 1000 Ang^3
#
#
#
# Elastic Constant Matrix: (Units=GPa)
#
#
# Indices 1 2 3 4 5 6 
#
# 1 107.0179 65.0079 35.5059 0.0000 7.0317 0.0000
# 2 65.0079 90.4846 34.8427 0.0000 9.2382 0.0001
# 3 35.5059 34.8427 72.6741 0.0000 2.0865 0.0000
# 4 0.0000 0.0000 0.0000 19.8922 0.0000 3.6735
# 5 7.0317 9.2382 2.0865 0.0000 25.1928 0.0000
# 6 0.0000 0.0001 0.0000 3.6735 0.0000 32.3007
#
#
#
# Elastic Compliance Matrix: (Units=1/GPa)
#
#
# Indices 1 2 3 4 5 6 
#
# 1 0.017110 -0.011077 -0.003036 0.000000 -0.000463 0.000000
# 2 -0.011077 0.021239 -0.004648 0.000000 -0.004312 0.000000
# 3 -0.003036 -0.004648 0.017440 0.000000 0.001107 0.000000
# 4 0.000000 0.000000 0.000000 0.051349 0.000000 -0.005840
# 5 -0.000463 -0.004312 0.001107 0.000000 0.041313 0.000000
# 6 0.000000 0.000000 0.000000 -0.005840 0.000000 0.031623
#
#
# Mechanical properties :
#
#
# Convention : Reuss Voigt Hill
#
# Bulk Modulus (GPa) = 54.73553 60.09887 57.41720
# Shear Modulus (GPa) = 22.35300 24.46513 23.40906
#
# Velocity S-wave (km/s) = 3.70185 3.87280 3.78829
# Velocity P-wave (km/s) = 7.19915 7.53938 7.37123
#
# Compressibility (1/GPa) = 0.01826967
#
# Stress axis : x y z
#
# Youngs Moduli (GPa) = 58.44469 47.08251 57.34082
#
# Poissons Ratio (x) = 0.52151 0.17407
# Poissons Ratio (y) = 0.64736 0.26649
# Poissons Ratio (z) = 0.17742 0.21882
#
# Static dielectric constant tensor:
#      x y z
#    x 2.920370 0.000000 -0.016040 
#    y 0.000000 3.160270 0.000000 
#    z -0.016040 0.000000 3.118560 
# 
# 
# High freq. dielectric constant tensor:
#      x y z
#    x 1.614310 0.000000 0.003570 
#    y 0.000000 1.636520 0.000000 
#    z 0.003570 0.000000 1.606150 
# 
# From -- ./inp_files/248989.got.cif
#   From: 2010.06.25/outbox.cif.g09.slc.cpg/sg12_125_cif.got.tgz:248989.got - 2010.06.28 00:19:55.
