data_PCOD8084469
_publ_section_title
;
Structure prediction by ZEFSAII (Michael W. Deem and Ramdas Pophale) SiO2 
 PCOD8084469
Probable space group: C 2/M
;
_chemical_formula_sum "Si O2"
_cell_formula_units_Z 64
_cell_length_a 29.115242
_cell_length_b 15.527056
_cell_length_c 19.992836
_cell_angle_alpha 90.000000
_cell_angle_beta 22.424653
_cell_angle_gamma 90.000000
_cell_volume 3447.801160
_symmetry_space_group_name_H-M "C 2/M"
_symmetry_group_IT_number 12
_symmetry_cell_setting 'monoclinic'
loop_
_space_group_symop_operation_xyz
x,y,z
-x,y,-z
-x,-y,-z
x,-y,z
1/2+x,1/2+y,z
1/2-x,1/2+y,-z
1/2-x,1/2-y,-z
1/2+x,1/2-y,z
loop_
_atom_site_type_symbol
_atom_site_label
_atom_site_fract_x
_atom_site_fract_y
_atom_site_fract_z
Si Si1 0.939409 0.178362 0.513835
Si Si2 0.751661 0.314229 0.816691
Si Si3 0.737250 0.403517 0.703064
Si Si4 0.144368 0.293138 0.182639
Si Si5 0.379600 0.763082 0.199775
Si Si6 0.540886 0.809510 0.094368
Si Si7 0.279130 0.901870 0.247772
Si Si8 0.005727 0.597033 0.707872
O O1 0.839845 0.250597 0.659640
O O2 0.861447 0.101154 0.586467
O O3 0.000000 0.143374 0.500000
O O4 0.043330 0.219066 0.327764
O O5 0.733808 0.392782 0.788662
O O6 0.811879 0.336951 0.806692
O O7 0.621827 0.272420 0.004657
O O8 0.689189 0.500000 0.751869
O O9 0.658147 0.333634 0.769443
O O10 0.871396 0.391914 0.496956
O O11 0.098962 0.371944 0.199997
O O12 0.250000 0.250000 0.000000
O O13 0.417006 0.775005 0.226662
O O14 0.285290 0.836225 0.302791
O O15 0.500000 0.787483 0.000000
O O16 0.490977 0.850922 0.228362
O O17 0.623782 0.875474 0.940052
O O18 0.306964 0.000000 0.232172
O O19 0.976946 0.500000 0.766093
#
# Coordination Sequence:
#
# PCOD8084469 Si02
#       8
#     8   8   8   8   8   8   8   8
#     4   9  18  33  53  77 113 145 186 231 280 349
#     4  10  18  36  57  83 110 148 193 231 286 342
#     4  11  22  38  60  86 117 152 194 241 286 348
#     4  11  20  34  60  81 109 155 190 235 293 345
#     4  10  19  36  59  85 113 147 197 240 291 340
#     4  10  20  36  56  82 116 150 187 239 289 343
#     4  10  19  33  56  83 112 148 194 240 285 341
#     4  11  23  37  55  86 120 150 191 240 291 351
#
# _framework density 18.562555
#
# number of rings (size 3 to 8) (size 9 to 14) (size 15 to 20)
#    0.000    1.750    6.250    0.375    0.000    4.250 
#    0.000    1.875    0.000    0.000    0.000    0.000 
#    0.000    0.000    0.000    0.000    0.000    0.000 
#
# Total GULP energy -396562.294072 kJ/mol
# GULP energy per Si atom -12392.571690 kJ/mol
# Density = 1.852031 g / cm^3
# Si number density = 18.562555 Si / 1000 Ang^3
#
#
#
# Elastic Constant Matrix: (Units=GPa)
#
#
# Indices 1 2 3 4 5 6 
#
# 1 135.4243 64.4018 28.8575 -0.0001 -10.5011 0.0000
# 2 64.4018 106.2235 28.7417 -0.0001 -7.0453 0.0000
# 3 28.8575 28.7417 56.6070 -0.0003 -4.7163 0.0000
# 4 -0.0001 -0.0001 -0.0003 20.4927 0.0001 -0.6230
# 5 -10.5011 -7.0453 -4.7163 0.0001 32.2313 0.0000
# 6 0.0000 0.0000 0.0000 -0.6230 0.0000 14.8747
#
#
#
# Elastic Compliance Matrix: (Units=1/GPa)
#
#
# Indices 1 2 3 4 5 6 
#
# 1 0.010785 -0.005759 -0.002416 0.000000 0.001902 0.000000
# 2 -0.005759 0.014070 -0.004159 0.000000 0.000591 0.000000
# 3 -0.002416 -0.004159 0.021125 0.000000 0.001395 0.000000
# 4 0.000000 0.000000 0.000000 0.048860 0.000000 0.002046
# 5 0.001902 0.000591 0.001395 0.000000 0.031979 0.000000
# 6 0.000000 0.000000 0.000000 0.002046 0.000000 0.067314
#
#
# Mechanical properties :
#
#
# Convention : Reuss Voigt Hill
#
# Bulk Modulus (GPa) = 46.91934 60.25076 53.58505
# Shear Modulus (GPa) = 22.13322 25.26998 23.70160
#
# Velocity S-wave (km/s) = 3.45680 3.69364 3.57718
# Velocity P-wave (km/s) = 6.42369 7.12175 6.78171
#
# Compressibility (1/GPa) = 0.02131317
#
# Stress axis : x y z
#
# Youngs Moduli (GPa) = 92.71967 71.07157 47.33739
#
# Poissons Ratio (x) = 0.40932 0.11435
# Poissons Ratio (y) = 0.53399 0.19687
# Poissons Ratio (z) = 0.22397 0.29558
#
# Static dielectric constant tensor:
#      x y z
#    x 3.865120 0.000000 -0.222250 
#    y 0.000000 3.294920 0.000000 
#    z -0.222250 0.000000 3.369800 
# 
# 
# High freq. dielectric constant tensor:
#      x y z
#    x 1.728280 0.000000 -0.014080 
#    y 0.000000 1.699600 0.000000 
#    z -0.014080 0.000000 1.712640 
# 
# From -- ./inp_files/330351.got.cif
#   From: 2010.06.25/outbox.cif.g09.slc.cpg/sg12_166_cif.got.tgz:330351.got - 2010.06.28 00:19:55.
