data_PCOD8084390
_publ_section_title
;
Structure prediction by ZEFSAII (Michael W. Deem and Ramdas Pophale) SiO2 
 PCOD8084390
Probable space group: C 2/M
;
_chemical_formula_sum "Si O2"
_cell_formula_units_Z 56
_cell_length_a 15.102843
_cell_length_b 8.850579
_cell_length_c 21.395382
_cell_angle_alpha 90.000000
_cell_angle_beta 89.417794
_cell_angle_gamma 90.000000
_cell_volume 2859.749639
_symmetry_space_group_name_H-M "C 2/M"
_symmetry_group_IT_number 12
_symmetry_cell_setting 'monoclinic'
loop_
_space_group_symop_operation_xyz
x,y,z
-x,y,-z
-x,-y,-z
x,-y,z
1/2+x,1/2+y,z
1/2-x,1/2+y,-z
1/2-x,1/2-y,-z
1/2+x,1/2-y,z
loop_
_atom_site_type_symbol
_atom_site_label
_atom_site_fract_x
_atom_site_fract_y
_atom_site_fract_z
Si Si1 0.603985 0.329457 0.490352
Si Si2 0.153816 0.824194 0.073040
Si Si3 0.351653 0.824527 0.636920
Si Si4 0.346364 0.676602 0.376457
Si Si5 0.000409 0.820972 0.713672
Si Si6 0.006364 0.322353 0.152940
Si Si7 0.644438 0.824452 0.943239
O O1 0.500000 0.332215 0.500000
O O2 0.638043 0.500000 0.475782
O O3 0.628837 0.219286 0.434230
O O4 0.647534 0.258834 0.552949
O O5 0.099756 0.735563 0.126017
O O6 0.257445 0.787907 0.083003
O O7 0.133213 0.000000 0.080118
O O8 0.123119 0.771239 0.004924
O O9 0.249051 0.789671 0.652544
O O10 0.406626 0.726894 0.685683
O O11 0.374077 0.000000 0.646058
O O12 0.365714 0.500000 0.382851
O O13 0.421552 0.745763 0.330890
O O14 0.014425 0.752967 0.781346
O O15 0.004162 0.000000 0.718642
O O16 0.012592 0.500000 0.161964
O O17 0.926221 0.275813 0.108027
O O18 0.635659 0.000000 0.961350
#
# Coordination Sequence:
#
# PCOD8084390 Si02
#       7
#     8   8   8   8   8   8   8
#     4  10  18  35  61  84 113 150 186 226 281 340
#     4  10  20  36  60  90 119 150 190 231 277 336
#     4  11  22  37  58  87 116 143 185 237 287 334
#     4   9  20  38  59  82 112 149 187 230 282 340
#     4  11  23  42  60  78 109 153 195 231 279 340
#     4  11  23  39  58  83 116 152 190 235 286 331
#     4   9  20  38  59  85 120 154 187 232 283 331
#
# _framework density 19.582134
#
# number of rings (size 3 to 8) (size 9 to 14) (size 15 to 20)
#    0.000    1.857    1.429    2.571    0.000    4.857 
#    0.000    6.429    0.000    0.000    0.000    0.000 
#    0.000    0.000    0.000    0.000    0.000    0.000 
#
# Total GULP energy -347297.468710 kJ/mol
# GULP energy per Si atom -12403.481025 kJ/mol
# Density = 1.953756 g / cm^3
# Si number density = 19.582134 Si / 1000 Ang^3
#
#
#
# Elastic Constant Matrix: (Units=GPa)
#
#
# Indices 1 2 3 4 5 6 
#
# 1 83.5976 26.1083 34.6685 0.0000 3.9485 0.0000
# 2 26.1083 61.7741 30.8583 0.0000 -0.2692 0.0000
# 3 34.6685 30.8583 92.3396 0.0000 5.7078 0.0000
# 4 0.0000 0.0000 0.0000 32.9646 0.0000 6.5793
# 5 3.9485 -0.2692 5.7078 0.0000 15.4044 0.0000
# 6 0.0000 0.0000 0.0000 6.5793 0.0000 20.9614
#
#
#
# Elastic Compliance Matrix: (Units=1/GPa)
#
#
# Indices 1 2 3 4 5 6 
#
# 1 0.015130 -0.004373 -0.004068 0.000000 -0.002447 0.000000
# 2 -0.004373 0.020816 -0.005533 0.000000 0.003535 0.000000
# 3 -0.004068 -0.005533 0.014479 0.000000 -0.004419 0.000000
# 4 0.000000 0.000000 0.000000 0.032363 0.000000 -0.010158
# 5 -0.002447 0.003535 -0.004419 0.000000 0.067243 0.000000
# 6 0.000000 0.000000 0.000000 -0.010158 0.000000 0.050895
#
#
# Mechanical properties :
#
#
# Convention : Reuss Voigt Hill
#
# Bulk Modulus (GPa) = 44.48993 46.77575 45.63284
# Shear Modulus (GPa) = 21.15359 23.60450 22.37905
#
# Velocity S-wave (km/s) = 3.29028 3.47567 3.38424
# Velocity P-wave (km/s) = 6.09947 6.32818 6.21488
#
# Compressibility (1/GPa) = 0.02247700
#
# Stress axis : x y z
#
# Youngs Moduli (GPa) = 66.09170 48.04095 69.06581
#
# Poissons Ratio (x) = 0.21010 0.28095
# Poissons Ratio (y) = 0.28905 0.38212
# Poissons Ratio (z) = 0.26885 0.26580
#
# Static dielectric constant tensor:
#      x y z
#    x 3.768350 0.000000 -0.011790 
#    y 0.000000 3.496250 0.000000 
#    z -0.011790 0.000000 3.571740 
# 
# 
# High freq. dielectric constant tensor:
#      x y z
#    x 1.775170 0.000000 0.001840 
#    y 0.000000 1.754400 0.000000 
#    z 0.001840 0.000000 1.761080 
# 
# From -- ./inp_files/309043.got.cif
#   From: 2010.06.25/outbox.cif.g09.slc.cpg/sg12_155_cif.got.tgz:309043.got - 2010.06.28 00:19:55.
