data_PCOD8084186
_publ_section_title
;
Structure prediction by ZEFSAII (Michael W. Deem and Ramdas Pophale) SiO2 
 PCOD8084186
Probable space group: C 2/M
;
_chemical_formula_sum "Si O2"
_cell_formula_units_Z 64
_cell_length_a 20.107960
_cell_length_b 15.920847
_cell_length_c 16.906946
_cell_angle_alpha 90.000000
_cell_angle_beta 142.768111
_cell_angle_gamma 90.000000
_cell_volume 3274.802529
_symmetry_space_group_name_H-M "C 2/M"
_symmetry_group_IT_number 12
_symmetry_cell_setting 'monoclinic'
loop_
_space_group_symop_operation_xyz
x,y,z
-x,y,-z
-x,-y,-z
x,-y,z
1/2+x,1/2+y,z
1/2-x,1/2+y,-z
1/2-x,1/2-y,-z
1/2+x,1/2-y,z
loop_
_atom_site_type_symbol
_atom_site_label
_atom_site_fract_x
_atom_site_fract_y
_atom_site_fract_z
Si Si1 0.756172 0.778402 0.133222
Si Si2 0.111627 0.905589 0.331307
Si Si3 0.376415 0.248500 0.397492
Si Si4 0.336491 0.904817 0.473311
Si Si5 0.417597 0.293827 0.145112
Si Si6 0.919309 0.592829 0.990971
Si Si7 0.212485 0.901570 0.590881
Si Si8 0.441371 0.132018 0.731663
O O1 0.814041 0.725098 0.257024
O O2 0.848706 0.809460 0.159437
O O3 0.666124 0.719860 0.005965
O O4 0.694462 0.857482 0.113068
O O5 0.218247 0.866848 0.388368
O O6 0.123864 0.895677 0.436926
O O7 0.992702 0.872386 0.192736
O O8 0.113306 0.000000 0.304942
O O9 0.500000 0.274648 0.500000
O O10 0.378151 0.164216 0.451366
O O11 0.323812 0.335202 0.378173
O O12 0.418692 0.913272 0.626592
O O13 0.330747 0.000000 0.431849
O O14 0.508758 0.222001 0.242905
O O15 0.888168 0.500000 0.932393
O O16 0.971705 0.586700 0.128395
O O17 0.000000 0.633064 0.000000
O O18 0.328812 0.865461 0.673108
O O19 0.221868 0.000000 0.628244
#
# Coordination Sequence:
#
# PCOD8084186 Si02
#       8
#     8   8   8   8   8   8   8   8
#     4  10  23  37  53  79 108 142 186 227 270 331
#     4   9  18  34  57  83 108 139 180 224 272 324
#     4  12  24  38  56  80 112 150 185 223 279 331
#     4  10  21  37  58  84 111 142 189 238 271 315
#     4  10  20  38  57  76 107 144 182 227 275 326
#     4  10  20  34  54  81 113 146 179 223 279 333
#     4  10  20  34  56  87 117 142 178 224 269 329
#     4  10  18  34  60  83 108 143 183 227 276 327
#
# _framework density 19.543163
#
# number of rings (size 3 to 8) (size 9 to 14) (size 15 to 20)
#    0.000    1.875    0.000    5.625    0.000    5.500 
#    0.000    0.625    0.000    2.250    0.000    0.000 
#    0.000    0.000    0.000    0.000    0.000    0.000 
#
# Total GULP energy -396523.814673 kJ/mol
# GULP energy per Si atom -12391.369209 kJ/mol
# Density = 1.949868 g / cm^3
# Si number density = 19.543163 Si / 1000 Ang^3
#
#
#
# Elastic Constant Matrix: (Units=GPa)
#
#
# Indices 1 2 3 4 5 6 
#
# 1 91.5123 46.8868 38.8304 0.0000 4.7479 0.0000
# 2 46.8868 63.0886 36.2530 0.0000 -0.7996 0.0000
# 3 38.8304 36.2530 100.8883 0.0000 6.7145 0.0000
# 4 0.0000 0.0000 0.0000 14.7926 0.0000 -0.6017
# 5 4.7479 -0.7996 6.7145 0.0000 27.8152 0.0000
# 6 0.0000 0.0000 0.0000 -0.6017 0.0000 2.3398
#
#
#
# Elastic Compliance Matrix: (Units=1/GPa)
#
#
# Indices 1 2 3 4 5 6 
#
# 1 0.018441 -0.012318 -0.002478 0.000000 -0.002904 0.000000
# 2 -0.012318 0.028355 -0.005734 0.000000 0.004302 0.000000
# 3 -0.002478 -0.005734 0.013120 0.000000 -0.002909 0.000000
# 4 0.000000 0.000000 0.000000 0.068316 0.000000 0.017567
# 5 -0.002904 0.004302 -0.002909 0.000000 0.037273 0.000000
# 6 0.000000 0.000000 0.000000 0.017567 0.000000 0.431900
#
#
# Mechanical properties :
#
#
# Convention : Reuss Voigt Hill
#
# Bulk Modulus (GPa) = 53.03610 55.49216 54.26413
# Shear Modulus (GPa) = 7.75495 17.89080 12.82288
#
# Velocity S-wave (km/s) = 1.99417 3.02892 2.56428
# Velocity P-wave (km/s) = 5.70080 6.37878 6.04930
#
# Compressibility (1/GPa) = 0.01885508
#
# Stress axis : x y z
#
# Youngs Moduli (GPa) = 54.22791 35.26738 76.22007
#
# Poissons Ratio (x) = 0.43441 0.18888
# Poissons Ratio (y) = 0.66796 0.43707
# Poissons Ratio (z) = 0.13438 0.20224
#
# Static dielectric constant tensor:
#      x y z
#    x 3.571200 0.000000 0.038060 
#    y 0.000000 3.485770 0.000000 
#    z 0.038060 0.000000 3.692550 
# 
# 
# High freq. dielectric constant tensor:
#      x y z
#    x 1.757400 0.000000 0.007080 
#    y 0.000000 1.748950 0.000000 
#    z 0.007080 0.000000 1.768200 
# 
# From -- ./inp_files/226876.got.cif
#   From: 2010.06.25/outbox.cif.g09.slc.cpg/sg12_114_cif.got.tgz:226876.got - 2010.06.28 00:19:55.
