data_PCOD8084598
_publ_section_title
;
Structure prediction by ZEFSAII (Michael W. Deem and Ramdas Pophale) SiO2 
 PCOD8084598
Probable space group: C 2/M
;
_chemical_formula_sum "Si O2"
_cell_formula_units_Z 56
_cell_length_a 19.663316
_cell_length_b 17.957409
_cell_length_c 9.043935
_cell_angle_alpha 90.000000
_cell_angle_beta 119.254348
_cell_angle_gamma 90.000000
_cell_volume 2786.139483
_symmetry_space_group_name_H-M "C 2/M"
_symmetry_group_IT_number 12
_symmetry_cell_setting 'monoclinic'
loop_
_space_group_symop_operation_xyz
x,y,z
-x,y,-z
-x,-y,-z
x,-y,z
1/2+x,1/2+y,z
1/2-x,1/2+y,-z
1/2-x,1/2-y,-z
1/2+x,1/2-y,z
loop_
_atom_site_type_symbol
_atom_site_label
_atom_site_fract_x
_atom_site_fract_y
_atom_site_fract_z
Si Si1 0.685826 0.680391 0.831206
Si Si2 0.825568 0.914697 0.442602
Si Si3 0.489326 0.914436 0.815103
Si Si4 0.820440 0.358477 0.553028
Si Si5 0.722916 0.687972 0.186945
Si Si6 0.893091 0.791559 0.702253
Si Si7 0.465213 0.221566 0.297427
O O1 0.661605 0.607405 0.714852
O O2 0.748964 0.726618 0.803528
O O3 0.615616 0.736920 0.787827
O O4 0.719405 0.650503 0.021761
O O5 0.736698 0.898249 0.392673
O O6 0.886167 0.866441 0.600466
O O7 0.847428 0.000000 0.488474
O O8 0.402336 0.900085 0.660011
O O9 0.546355 0.862639 0.776347
O O10 0.512169 0.000000 0.811774
O O11 0.500000 0.894463 0.000000
O O12 0.781665 0.362839 0.347941
O O13 0.829612 0.269925 0.584778
O O14 0.634294 0.689690 0.159684
O O15 0.979411 0.760632 0.767566
O O16 0.500000 0.221579 0.500000
#
# Coordination Sequence:
#
# PCOD8084598 Si02
#       7
#     8   8   8   8   8   8   8
#     4  11  21  35  55  94 118 154 201 248 294 348
#     4  11  20  35  59  88 118 151 194 250 305 350
#     4  10  23  39  59  91 126 157 195 242 300 369
#     4  10  18  38  62  86 115 157 200 244 292 361
#     4  10  20  35  62  83 117 151 205 249 287 341
#     4  10  19  38  59  84 114 154 204 241 288 364
#     4  11  22  37  61  85 123 159 204 242 296 356
#
# _framework density 20.099495000000001
#
# number of rings (size 3 to 8) (size 9 to 14) (size 15 to 20)
#    0.000    1.571    4.286    2.143    4.000    0.286 
#    0.000    5.000    0.000    0.857    0.000    5.000 
#    0.000    0.000    0.000    0.000    0.000    0.000 
#
# Total GULP energy -346986.282251 kJ/mol
# GULP energy per Si atom -12392.367223 kJ/mol
# Density = 2.005375 g / cm^3
# Si number density = 20.099495 Si / 1000 Ang^3
#
#
#
# Elastic Constant Matrix: (Units=GPa)
#
#
# Indices 1 2 3 4 5 6 
#
# 1 68.4011 27.6146 31.7087 0.0000 -15.4555 0.0000
# 2 27.6146 122.2136 32.7552 0.0000 -5.0411 0.0000
# 3 31.7087 32.7552 103.9521 0.0000 -15.6218 0.0000
# 4 0.0000 0.0000 0.0000 21.8577 0.0000 -5.3265
# 5 -15.4555 -5.0411 -15.6218 0.0000 19.7353 0.0000
# 6 0.0000 0.0000 0.0000 -5.3265 0.0000 20.1643
#
#
#
# Elastic Compliance Matrix: (Units=1/GPa)
#
#
# Indices 1 2 3 4 5 6 
#
# 1 0.020241 -0.003175 -0.003307 0.000000 0.012423 0.000000
# 2 -0.003175 0.009435 -0.002288 0.000000 -0.001888 0.000000
# 3 -0.003307 -0.002288 0.012341 0.000000 0.006594 0.000000
# 4 0.000000 0.000000 0.000000 0.048898 0.000000 0.012917
# 5 0.012423 -0.001888 0.006594 0.000000 0.065137 0.000000
# 6 0.000000 0.000000 0.000000 0.012917 0.000000 0.053005
#
#
# Mechanical properties :
#
#
# Convention : Reuss Voigt Hill
#
# Bulk Modulus (GPa) = 40.85460 53.19153 47.02307
# Shear Modulus (GPa) = 21.29865 25.85066 23.57465
#
# Velocity S-wave (km/s) = 3.25877 3.59016 3.42848
# Velocity P-wave (km/s) = 5.87621 6.61115 6.25448
#
# Compressibility (1/GPa) = 0.02447705
#
# Stress axis : x y z
#
# Youngs Moduli (GPa) = 49.40356 105.98616 81.03382
#
# Poissons Ratio (x) = 0.33649 0.26797
# Poissons Ratio (y) = 0.15685 0.18543
# Poissons Ratio (z) = 0.16337 0.24252
#
# Static dielectric constant tensor:
#      x y z
#    x 3.688590 0.000000 -0.228160 
#    y 0.000000 3.428770 0.000000 
#    z -0.228160 0.000000 3.716770 
# 
# 
# High freq. dielectric constant tensor:
#      x y z
#    x 1.782100 0.000000 -0.013840 
#    y 0.000000 1.754400 0.000000 
#    z -0.013840 0.000000 1.785760 
# 
# From -- ./inp_files/88074.got.cif
#   From: 2010.06.25/outbox.cif.g09.slc.cpg/sg12_45_cif.got.tgz:88074.got - 2010.06.28 00:19:55.
