data_PCOD8084660
_publ_section_title
;
Structure prediction by ZEFSAII (Michael W. Deem and Ramdas Pophale) SiO2 
 PCOD8084660
Probable space group: C 2/M
;
_chemical_formula_sum "Si O2"
_cell_formula_units_Z 48
_cell_length_a 24.515666
_cell_length_b 7.793123
_cell_length_c 15.617702
_cell_angle_alpha 90.000000
_cell_angle_beta 72.827351
_cell_angle_gamma 90.000000
_cell_volume 2850.797836
_symmetry_space_group_name_H-M "C 2/M"
_symmetry_group_IT_number 12
_symmetry_cell_setting 'monoclinic'
loop_
_space_group_symop_operation_xyz
x,y,z
-x,y,-z
-x,-y,-z
x,-y,z
1/2+x,1/2+y,z
1/2-x,1/2+y,-z
1/2-x,1/2-y,-z
1/2+x,1/2-y,z
loop_
_atom_site_type_symbol
_atom_site_label
_atom_site_fract_x
_atom_site_fract_y
_atom_site_fract_z
Si Si1 0.408430 0.000000 0.566647
Si Si2 0.781982 0.799917 0.868918
Si Si3 0.663245 0.193363 0.987264
Si Si4 0.521768 0.000000 0.625821
Si Si5 0.459797 0.694509 0.947315
Si Si6 0.633990 0.306722 0.313843
Si Si7 0.977256 0.802056 0.748565
O O1 0.372745 0.828531 0.606037
O O2 0.466542 0.000000 0.592087
O O3 0.421560 0.000000 0.459281
O O4 0.715920 0.738062 0.904312
O O5 0.806872 0.765089 0.762923
O O6 0.785887 0.000000 0.891409
O O7 0.819329 0.699963 0.921283
O O8 0.647958 0.000000 0.969741
O O9 0.606425 0.300601 0.994458
O O10 0.522146 0.174550 0.681767
O O11 0.479829 0.500000 0.931156
O O12 0.469602 0.772167 0.848231
O O13 0.500000 0.787172 0.000000
O O14 0.634820 0.500000 0.351807
O O15 0.583969 0.288819 0.267831
O O16 0.999327 0.000000 0.734276
#
# Coordination Sequence:
#
# PCOD8084660 Si02
#       7
#     4   8   8   4   8   8   8
#     4   9  18  28  42  66  88 116 151 182 232 277
#     4   9  17  29  42  63  92 123 154 184 224 274
#     4  10  19  27  43  66  89 120 158 192 223 264
#     4   9  18  30  43  62  90 116 149 194 222 274
#     4  10  20  33  46  62  90 127 161 193 227 268
#     4   9  16  27  44  62  90 121 148 182 223 277
#     4   9  17  29  45  62  85 122 156 184 224 272
#
# _framework density 16.837391
#
# number of rings (size 3 to 8) (size 9 to 14) (size 15 to 20)
#    0.000    2.667    1.667    0.500    2.333    1.667 
#    0.000    3.333    0.000    0.000    0.000    0.000 
#    0.000    1.333    0.667    0.000    0.000    0.000 
#
# Total GULP energy -297452.106784 kJ/mol
# GULP energy per Si atom -12393.837783 kJ/mol
# Density = 1.679907 g / cm^3
# Si number density = 16.837391 Si / 1000 Ang^3
#
#
#
# Elastic Constant Matrix: (Units=GPa)
#
#
# Indices 1 2 3 4 5 6 
#
# 1 65.9040 20.5219 46.7810 0.0000 -11.3937 0.0000
# 2 20.5219 79.7025 53.1700 0.0000 -14.3730 0.0000
# 3 46.7810 53.1700 113.0984 0.0000 -29.2459 0.0000
# 4 0.0000 0.0000 0.0000 24.5038 0.0000 -6.8586
# 5 -11.3937 -14.3730 -29.2459 0.0000 22.0174 0.0000
# 6 0.0000 0.0000 0.0000 -6.8586 0.0000 12.1616
#
#
#
# Elastic Compliance Matrix: (Units=1/GPa)
#
#
# Indices 1 2 3 4 5 6 
#
# 1 0.021514 0.000567 -0.009430 0.000000 -0.001022 0.000000
# 2 0.000567 0.018303 -0.008642 0.000000 0.000762 0.000000
# 3 -0.009430 -0.008642 0.021453 0.000000 0.017975 0.000000
# 4 0.000000 0.000000 0.000000 0.048459 0.000000 0.027329
# 5 -0.001022 0.000762 0.017975 0.000000 0.069264 0.000000
# 6 0.000000 0.000000 0.000000 0.027329 0.000000 0.097639
#
#
# Mechanical properties :
#
#
# Convention : Reuss Voigt Hill
#
# Bulk Modulus (GPa) = 38.07980 55.51677 46.79829
# Shear Modulus (GPa) = 15.60569 20.95202 18.27886
#
# Velocity S-wave (km/s) = 3.04772 3.53140 3.29844
# Velocity P-wave (km/s) = 5.92031 7.04781 6.50852
#
# Compressibility (1/GPa) = 0.02626064
#
# Stress axis : x y z
#
# Youngs Moduli (GPa) = 46.48169 54.63458 46.61293
#
# Poissons Ratio (x) = -0.03097 0.43954
# Poissons Ratio (y) = -0.02634 0.40283
# Poissons Ratio (z) = 0.43830 0.47216
#
# Static dielectric constant tensor:
#      x y z
#    x 2.906410 0.000000 -0.220580 
#    y 0.000000 3.234430 0.000000 
#    z -0.220580 0.000000 3.212430 
# 
# 
# High freq. dielectric constant tensor:
#      x y z
#    x 1.599700 0.000000 -0.029920 
#    y 0.000000 1.656170 0.000000 
#    z -0.029920 0.000000 1.628970 
# 
# From -- ./inp_files/173006.got.cif
#   From: 2010.06.25/outbox.cif.g09.slc.cpg/sg12_87_cif.got.tgz:173006.got - 2010.06.28 00:19:55.
