data_PCOD8084183
_publ_section_title
;
Structure prediction by ZEFSAII (Michael W. Deem and Ramdas Pophale) SiO2 
 PCOD8084183
Probable space group: C 2/M
;
_chemical_formula_sum "Si O2"
_cell_formula_units_Z 64
_cell_length_a 15.333281
_cell_length_b 8.831569
_cell_length_c 32.770471
_cell_angle_alpha 90.000000
_cell_angle_beta 133.012401
_cell_angle_gamma 90.000000
_cell_volume 3244.856047
_symmetry_space_group_name_H-M "C 2/M"
_symmetry_group_IT_number 12
_symmetry_cell_setting 'monoclinic'
loop_
_space_group_symop_operation_xyz
x,y,z
-x,y,-z
-x,-y,-z
x,-y,z
1/2+x,1/2+y,z
1/2-x,1/2+y,-z
1/2-x,1/2-y,-z
1/2+x,1/2-y,z
loop_
_atom_site_type_symbol
_atom_site_label
_atom_site_fract_x
_atom_site_fract_y
_atom_site_fract_z
Si Si1 0.264817 0.674235 0.615145
Si Si2 0.091861 0.171612 0.992611
Si Si3 0.721959 0.179673 0.811229
Si Si4 0.943612 0.326330 0.393783
Si Si5 0.660031 0.678590 0.503162
Si Si6 0.971842 0.676665 0.879060
Si Si7 0.515202 0.179036 0.685607
Si Si8 0.319737 0.821573 0.111784
O O1 0.277506 0.500000 0.605968
O O2 0.192774 0.690688 0.634687
O O3 0.189788 0.761660 0.557278
O O4 0.394564 0.744453 0.662685
O O5 0.045898 0.279782 0.942581
O O6 0.105437 0.000000 0.980159
O O7 0.217056 0.240423 0.048730
O O8 0.000000 0.173680 0.000000
O O9 0.849269 0.233926 0.835848
O O10 0.620937 0.238838 0.748186
O O11 0.694413 0.247663 0.847382
O O12 0.723629 0.000000 0.812794
O O13 0.986670 0.500000 0.411372
O O14 0.026043 0.223409 0.448719
O O15 0.953713 0.270509 0.350461
O O16 0.674928 0.500000 0.507465
O O17 0.750000 0.750000 0.500000
O O18 0.943559 0.500000 0.871746
O O19 0.050560 0.719423 0.864496
O O20 0.499410 0.000000 0.683783
O O21 0.300059 0.000000 0.108393
#
# Coordination Sequence:
#
# PCOD8084183 Si02
#       8
#     8   8   8   8   8   8   8   8
#     4  11  23  39  61  88 122 158 190 237 297 347
#     4  10  18  34  60  82 109 152 190 222 276 351
#     4  10  21  41  62  80 109 155 202 234 279 343
#     4  10  22  40  60  88 123 156 191 238 295 344
#     4  12  23  37  61  91 121 155 195 238 290 349
#     4  11  22  35  55  86 118 145 182 240 296 333
#     4  10  22  40  63  85 111 153 201 245 282 337
#     4   9  19  36  57  82 114 150 188 232 284 343
#
# _framework density 19.723524999999999
#
# number of rings (size 3 to 8) (size 9 to 14) (size 15 to 20)
#    0.000    1.625    2.500    2.625    0.000    4.250 
#    0.000    1.875    0.000    0.000    0.000    0.000 
#    0.000    0.000    0.000    0.000    0.000    0.000 
#
# Total GULP energy -396892.334661 kJ/mol
# GULP energy per Si atom -12402.885458 kJ/mol
# Density = 1.967863 g / cm^3
# Si number density = 19.723525 Si / 1000 Ang^3
#
#
#
# Elastic Constant Matrix: (Units=GPa)
#
#
# Indices 1 2 3 4 5 6 
#
# 1 123.9943 22.7257 55.8722 0.0000 18.5772 0.0000
# 2 22.7257 46.2349 29.9319 0.0000 4.3015 0.0000
# 3 55.8722 29.9319 139.5107 0.0000 26.1420 0.0000
# 4 0.0000 0.0000 0.0000 19.9807 0.0000 8.7750
# 5 18.5772 4.3015 26.1420 0.0000 19.8555 0.0000
# 6 0.0000 0.0000 0.0000 8.7750 0.0000 29.4484
#
#
#
# Elastic Compliance Matrix: (Units=1/GPa)
#
#
# Indices 1 2 3 4 5 6 
#
# 1 0.010647 -0.003070 -0.002474 0.000000 -0.006040 0.000000
# 2 -0.003070 0.026075 -0.005104 0.000000 0.003943 0.000000
# 3 -0.002474 -0.005104 0.011433 0.000000 -0.011633 0.000000
# 4 0.000000 0.000000 0.000000 0.057584 0.000000 -0.017159
# 5 -0.006040 0.003943 -0.011633 0.000000 0.070478 0.000000
# 6 0.000000 0.000000 0.000000 -0.017159 0.000000 0.039071
#
#
# Mechanical properties :
#
#
# Convention : Reuss Voigt Hill
#
# Bulk Modulus (GPa) = 37.22901 58.53327 47.88114
# Shear Modulus (GPa) = 20.36361 27.27092 23.81726
#
# Velocity S-wave (km/s) = 3.21667 3.72245 3.47876
# Velocity P-wave (km/s) = 5.71947 6.94383 6.36118
#
# Compressibility (1/GPa) = 0.02686077
#
# Stress axis : x y z
#
# Youngs Moduli (GPa) = 93.92259 38.35099 87.46250
#
# Poissons Ratio (x) = 0.11774 0.21635
# Poissons Ratio (y) = 0.28835 0.44639
# Poissons Ratio (z) = 0.23232 0.19573
#
# Static dielectric constant tensor:
#      x y z
#    x 3.778930 0.000000 -0.055220 
#    y 0.000000 3.471800 0.000000 
#    z -0.055220 0.000000 3.723520 
# 
# 
# High freq. dielectric constant tensor:
#      x y z
#    x 1.784640 0.000000 0.002970 
#    y 0.000000 1.752390 0.000000 
#    z 0.002970 0.000000 1.765420 
# 
# From -- ./inp_files/375579.got.cif
#   From: 2010.06.25/outbox.cif.g09.slc.cpg/sg12_188_cif.got.tgz:375579.got - 2010.06.28 00:19:55.
