data_PCOD8084698
_publ_section_title
;
Structure prediction by ZEFSAII (Michael W. Deem and Ramdas Pophale) SiO2 
 PCOD8084698
Probable space group: C 2/M
;
_chemical_formula_sum "Si O2"
_cell_formula_units_Z 56
_cell_length_a 27.478244
_cell_length_b 9.204780
_cell_length_c 16.242224
_cell_angle_alpha 90.000000
_cell_angle_beta 64.706590
_cell_angle_gamma 90.000000
_cell_volume 3714.322246
_symmetry_space_group_name_H-M "C 2/M"
_symmetry_group_IT_number 12
_symmetry_cell_setting 'monoclinic'
loop_
_space_group_symop_operation_xyz
x,y,z
-x,y,-z
-x,-y,-z
x,-y,z
1/2+x,1/2+y,z
1/2-x,1/2+y,-z
1/2-x,1/2-y,-z
1/2+x,1/2-y,z
loop_
_atom_site_type_symbol
_atom_site_label
_atom_site_fract_x
_atom_site_fract_y
_atom_site_fract_z
Si Si1 0.896304 0.828116 0.201426
Si Si2 0.194787 0.330880 0.448698
Si Si3 0.487725 0.671553 0.807865
Si Si4 0.801492 0.668802 0.362093
Si Si5 0.417576 0.828445 0.535002
Si Si6 0.983490 0.328350 0.642292
Si Si7 0.442635 0.669121 0.004217
O O1 0.951453 0.790064 0.209197
O O2 0.848327 0.740931 0.276302
O O3 0.885062 0.000000 0.214346
O O4 0.899480 0.773040 0.102834
O O5 0.204775 0.500000 0.422664
O O6 0.186258 0.303409 0.551336
O O7 0.245078 0.241397 0.377661
O O8 0.141891 0.268228 0.441048
O O9 0.482014 0.500000 0.799501
O O10 0.471702 0.750884 0.736202
O O11 0.444662 0.729422 0.908768
O O12 0.798506 0.500000 0.342712
O O13 0.435412 0.785484 0.614284
O O14 0.460506 0.769662 0.436963
O O15 0.417453 0.000000 0.525353
O O16 0.985526 0.500000 0.655354
O O17 0.433043 0.500000 0.004239
O O18 0.500000 0.704032 0.000000
#
# Coordination Sequence:
#
# PCOD8084698 Si02
#       7
#     8   8   8   8   8   8   8
#     4   9  16  27  43  60  81 112 142 163 191 240
#     4   9  17  30  44  57  79 112 143 165 192 238
#     4   9  16  26  41  62  86 109 135 167 200 235
#     4  10  19  28  41  63  85 104 132 172 211 238
#     4   8  15  28  44  59  79 111 144 167 189 233
#     4   9  16  27  43  62  83 108 138 167 199 237
#     4   7  12  24  40  57  79 108 138 163 190 234
#
# _framework density 15.076776000000001
#
# number of rings (size 3 to 8) (size 9 to 14) (size 15 to 20)
#    0.000    3.286    0.000    3.857    0.000    2.286 
#    0.000    3.571    0.000    2.571    0.000    1.000 
#    0.000    0.000    0.000    0.000    0.000    0.000 
#
# Total GULP energy -346873.157863 kJ/mol
# GULP energy per Si atom -12388.327067 kJ/mol
# Density = 1.504246 g / cm^3
# Si number density = 15.076776 Si / 1000 Ang^3
#
#
#
# Elastic Constant Matrix: (Units=GPa)
#
#
# Indices 1 2 3 4 5 6 
#
# 1 98.5464 35.7570 51.8093 0.0000 -1.7483 0.0000
# 2 35.7570 44.1701 45.7837 0.0000 -4.5539 0.0000
# 3 51.8093 45.7837 125.4769 0.0000 -0.4757 0.0000
# 4 0.0000 0.0000 0.0000 23.7705 0.0000 0.1073
# 5 -1.7483 -4.5539 -0.4757 0.0000 23.5856 0.0000
# 6 0.0000 0.0000 0.0000 0.1073 0.0000 16.5444
#
#
#
# Elastic Compliance Matrix: (Units=1/GPa)
#
#
# Indices 1 2 3 4 5 6 
#
# 1 0.014980 -0.009311 -0.002791 0.000000 -0.000744 0.000000
# 2 -0.009311 0.043309 -0.011930 0.000000 0.007431 0.000000
# 3 -0.002791 -0.011930 0.013466 0.000000 -0.002239 0.000000
# 4 0.000000 0.000000 0.000000 0.042070 0.000000 -0.000273
# 5 -0.000744 0.007431 -0.002239 0.000000 0.043733 0.000000
# 6 0.000000 0.000000 0.000000 -0.000273 0.000000 0.060445
#
#
# Mechanical properties :
#
#
# Convention : Reuss Voigt Hill
#
# Bulk Modulus (GPa) = 42.20740 59.43259 50.81999
# Shear Modulus (GPa) = 18.25062 21.76968 20.01015
#
# Velocity S-wave (km/s) = 3.48302 3.80402 3.64705
# Velocity P-wave (km/s) = 6.65064 7.66809 7.17741
#
# Compressibility (1/GPa) = 0.02369253
#
# Stress axis : x y z
#
# Youngs Moduli (GPa) = 66.75662 23.08998 74.25912
#
# Poissons Ratio (x) = 0.21498 0.20724
# Poissons Ratio (y) = 0.62154 0.88590
# Poissons Ratio (z) = 0.18630 0.27546
#
# Static dielectric constant tensor:
#      x y z
#    x 2.920960 0.000000 -0.009260 
#    y 0.000000 2.657210 0.000000 
#    z -0.009260 0.000000 3.134890 
# 
# 
# High freq. dielectric constant tensor:
#      x y z
#    x 1.551790 0.000000 -0.001630 
#    y 0.000000 1.554220 0.000000 
#    z -0.001630 0.000000 1.581720 
# 
# From -- ./inp_files/243021.got.cif
#   From: 2010.06.25/outbox.cif.g09.slc.cpg/sg12_122_cif.got.tgz:243021.got - 2010.06.28 00:19:55.
