data_PCOD8084836
_publ_section_title
;
Structure prediction by ZEFSAII (Michael W. Deem and Ramdas Pophale) SiO2 
 PCOD8084836
Probable space group: C 2/M
;
_chemical_formula_sum "Si O2"
_cell_formula_units_Z 64
_cell_length_a 24.590808
_cell_length_b 9.414884
_cell_length_c 21.191000
_cell_angle_alpha 90.000000
_cell_angle_beta 128.130709
_cell_angle_gamma 90.000000
_cell_volume 3859.183966
_symmetry_space_group_name_H-M "C 2/M"
_symmetry_group_IT_number 12
_symmetry_cell_setting 'monoclinic'
loop_
_space_group_symop_operation_xyz
x,y,z
-x,y,-z
-x,-y,-z
x,-y,z
1/2+x,1/2+y,z
1/2-x,1/2+y,-z
1/2-x,1/2-y,-z
1/2+x,1/2-y,z
loop_
_atom_site_type_symbol
_atom_site_label
_atom_site_fract_x
_atom_site_fract_y
_atom_site_fract_z
Si Si1 0.267730 0.330555 0.364323
Si Si2 0.755548 0.836053 0.099956
Si Si3 0.024255 0.169535 0.663160
Si Si4 0.649772 0.663850 0.952523
Si Si5 0.126843 0.831969 0.455647
Si Si6 0.513557 0.667271 0.795472
Si Si7 0.640904 0.666901 0.321822
Si Si8 0.331365 0.668736 0.278680
O O1 0.259497 0.500000 0.360848
O O2 0.317950 0.270624 0.455267
O O3 0.193518 0.258436 0.318448
O O4 0.298784 0.277227 0.320367
O O5 0.812268 0.811369 0.086747
O O6 0.785985 0.775541 0.187340
O O7 0.735447 0.000000 0.091823
O O8 0.685345 0.752304 0.033712
O O9 0.029628 0.231525 0.737961
O O10 0.089586 0.226604 0.669826
O O11 0.950661 0.221364 0.581458
O O12 0.024921 0.000000 0.665722
O O13 0.652220 0.500000 0.974492
O O14 0.570759 0.720495 0.886991
O O15 0.146307 0.784493 0.398749
O O16 0.128028 0.000000 0.460345
O O17 0.522431 0.500000 0.795399
O O18 0.435343 0.704389 0.760050
O O19 0.656908 0.500000 0.326356
O O20 0.333155 0.500000 0.277766
#
# Coordination Sequence:
#
# PCOD8084836 Si02
#       8
#     8   8   8   8   8   8   8   8
#     4  10  19  29  42  65  91 115 144 178 213 251
#     4   9  16  26  41  64  91 115 136 165 209 262
#     4   8  12  22  40  63  88 113 139 172 215 255
#     4   9  15  25  44  67  87 108 137 175 214 250
#     4   8  15  26  43  66  88 108 141 187 220 244
#     4   8  13  24  44  66  85 107 142 181 213 249
#     4   9  17  30  47  64  83 113 149 182 214 249
#     4   9  16  26  41  61  91 122 142 166 209 263
#
# _framework density 16.583815999999999
#
# number of rings (size 3 to 8) (size 9 to 14) (size 15 to 20)
#    0.000    3.250    1.250    1.875    0.000    0.500 
#    0.000    3.750    0.000    0.750    0.000    8.750 
#    0.000    0.000    0.000    0.000    0.000    0.000 
#
# Total GULP energy -396544.522155 kJ/mol
# GULP energy per Si atom -12392.016317 kJ/mol
# Density = 1.654607 g / cm^3
# Si number density = 16.583816 Si / 1000 Ang^3
#
#
#
# Elastic Constant Matrix: (Units=GPa)
#
#
# Indices 1 2 3 4 5 6 
#
# 1 117.1321 25.5287 51.7212 0.0000 18.4649 0.0000
# 2 25.5287 22.4452 21.2024 0.0000 6.7679 0.0000
# 3 51.7212 21.2024 85.1517 0.0000 25.6143 0.0000
# 4 0.0000 0.0000 0.0000 18.6643 0.0000 3.9960
# 5 18.4649 6.7679 25.6143 0.0000 25.7842 0.0000
# 6 0.0000 0.0000 0.0000 3.9960 0.0000 19.6913
#
#
#
# Elastic Compliance Matrix: (Units=1/GPa)
#
#
# Indices 1 2 3 4 5 6 
#
# 1 0.013155 -0.009651 -0.005014 0.000000 -0.001907 0.000000
# 2 -0.009651 0.065364 -0.010456 0.000000 0.000142 0.000000
# 3 -0.005014 -0.010456 0.022087 0.000000 -0.015607 0.000000
# 4 0.000000 0.000000 0.000000 0.056012 0.000000 -0.011367
# 5 -0.001907 0.000142 -0.015607 0.000000 0.055616 0.000000
# 6 0.000000 0.000000 0.000000 -0.011367 0.000000 0.053090
#
#
# Mechanical properties :
#
#
# Convention : Reuss Voigt Hill
#
# Bulk Modulus (GPa) = 19.85507 46.84819 33.35163
# Shear Modulus (GPa) = 15.04413 21.24640 18.14527
#
# Velocity S-wave (km/s) = 3.01517 3.58320 3.31139
# Velocity P-wave (km/s) = 4.91124 6.74016 5.89703
#
# Compressibility (1/GPa) = 0.05036497
#
# Stress axis : x y z
#
# Youngs Moduli (GPa) = 76.01434 15.29883 45.27518
#
# Poissons Ratio (x) = 0.14766 0.22700
# Poissons Ratio (y) = 0.73365 0.47339
# Poissons Ratio (z) = 0.38112 0.15996
#
# Static dielectric constant tensor:
#      x y z
#    x 3.110770 0.000000 0.223930 
#    y 0.000000 2.610350 0.000000 
#    z 0.223930 0.000000 3.464380 
# 
# 
# High freq. dielectric constant tensor:
#      x y z
#    x 1.624810 0.000000 0.020540 
#    y 0.000000 1.581740 0.000000 
#    z 0.020540 0.000000 1.643740 
# 
# From -- ./inp_files/288844.got.cif
#   From: 2010.06.25/outbox.cif.g09.slc.cpg/sg12_145_cif.got.tgz:288844.got - 2010.06.28 00:19:55.
