data_PCOD8084549
_publ_section_title
;
Structure prediction by ZEFSAII (Michael W. Deem and Ramdas Pophale) SiO2 
 PCOD8084549
Probable space group: C 2/M
;
_chemical_formula_sum "Si O2"
_cell_formula_units_Z 56
_cell_length_a 22.600111
_cell_length_b 15.872628
_cell_length_c 9.540898
_cell_angle_alpha 90.000000
_cell_angle_beta 65.441158
_cell_angle_gamma 90.000000
_cell_volume 3112.920535
_symmetry_space_group_name_H-M "C 2/M"
_symmetry_group_IT_number 12
_symmetry_cell_setting 'monoclinic'
loop_
_space_group_symop_operation_xyz
x,y,z
-x,y,-z
-x,-y,-z
x,-y,z
1/2+x,1/2+y,z
1/2-x,1/2+y,-z
1/2-x,1/2-y,-z
1/2+x,1/2-y,z
loop_
_atom_site_type_symbol
_atom_site_label
_atom_site_fract_x
_atom_site_fract_y
_atom_site_fract_z
Si Si1 0.312692 0.734409 0.625612
Si Si2 0.336234 0.731043 0.185475
Si Si3 0.513092 0.658104 0.644583
Si Si4 0.890245 0.751192 0.830440
Si Si5 0.906008 0.316021 0.353651
Si Si6 0.863159 0.094660 0.367916
Si Si7 0.978760 0.594628 0.678625
O O1 0.235874 0.740243 0.707200
O O2 0.341686 0.730485 0.751779
O O3 0.340451 0.817215 0.514020
O O4 0.329883 0.649150 0.523874
O O5 0.387906 0.791788 0.213014
O O6 0.347710 0.636150 0.231683
O O7 0.347176 0.740879 0.010967
O O8 0.500000 0.626309 0.500000
O O9 0.444198 0.674919 0.787785
O O10 0.551571 0.746197 0.604437
O O11 0.558281 0.591754 0.683773
O O12 0.922975 0.658727 0.784758
O O13 0.952647 0.397451 0.302268
O O14 0.835517 0.000000 0.396568
O O15 0.951747 0.500000 0.725589
O O16 0.000000 0.613423 0.500000
#
# Coordination Sequence:
#
# PCOD8084549 Si02
#       7
#     8   8   8   8   8   8   8
#     4  10  18  37  58  76 103 151 191 211 254 331
#     4  10  22  34  55  81 110 147 183 214 268 329
#     4   9  15  31  54  77 100 139 178 217 261 319
#     4  11  18  35  57  82 110 144 181 220 264 336
#     4   9  16  32  53  75 105 138 182 217 258 318
#     4  10  21  37  57  82 107 137 184 236 271 308
#     4  10  19  33  57  86 110 135 179 237 274 307
#
# _framework density 17.989536999999999
#
# number of rings (size 3 to 8) (size 9 to 14) (size 15 to 20)
#    0.000    2.429    4.286    3.000    0.000    5.429 
#    0.000    7.857    0.000    0.000    0.000    0.000 
#    0.000    0.000    0.000    0.000    0.000    0.000 
#
# Total GULP energy -346904.195487 kJ/mol
# GULP energy per Si atom -12389.435553 kJ/mol
# Density = 1.794859 g / cm^3
# Si number density = 17.989537 Si / 1000 Ang^3
#
#
#
# Elastic Constant Matrix: (Units=GPa)
#
#
# Indices 1 2 3 4 5 6 
#
# 1 73.3971 31.9877 9.0391 0.0000 7.2067 0.0000
# 2 31.9877 83.5580 30.8559 0.0000 4.0078 0.0000
# 3 9.0391 30.8559 84.0915 0.0000 13.9594 0.0000
# 4 0.0000 0.0000 0.0000 13.2523 0.0000 0.3757
# 5 7.2067 4.0078 13.9594 0.0000 23.5278 0.0000
# 6 0.0000 0.0000 0.0000 0.3757 0.0000 11.1034
#
#
#
# Elastic Compliance Matrix: (Units=1/GPa)
#
#
# Indices 1 2 3 4 5 6 
#
# 1 0.016874 -0.006773 0.001484 0.000000 -0.004895 0.000000
# 2 -0.006773 0.016573 -0.005800 0.000000 0.002693 0.000000
# 3 0.001484 -0.005800 0.015277 0.000000 -0.008530 0.000000
# 4 0.000000 0.000000 0.000000 0.075531 0.000000 -0.002556
# 5 -0.004895 0.002693 -0.008530 0.000000 0.048605 0.000000
# 6 0.000000 0.000000 0.000000 -0.002556 0.000000 0.090149
#
#
# Mechanical properties :
#
#
# Convention : Reuss Voigt Hill
#
# Bulk Modulus (GPa) = 37.67082 42.75691 40.21387
# Shear Modulus (GPa) = 17.00468 20.85428 18.92948
#
# Velocity S-wave (km/s) = 3.07783 3.40846 3.24736
# Velocity P-wave (km/s) = 5.79798 6.26972 6.03846
#
# Compressibility (1/GPa) = 0.02654574
#
# Stress axis : x y z
#
# Youngs Moduli (GPa) = 59.26203 60.33794 65.45931
#
# Poissons Ratio (x) = 0.40867 -0.09715
# Poissons Ratio (y) = 0.40138 0.37968
# Poissons Ratio (z) = -0.08795 0.34998
#
# Static dielectric constant tensor:
#      x y z
#    x 3.694750 0.000000 0.046400 
#    y 0.000000 3.112870 0.000000 
#    z 0.046400 0.000000 3.144610 
# 
# 
# High freq. dielectric constant tensor:
#      x y z
#    x 1.711770 0.000000 0.009250 
#    y 0.000000 1.657100 0.000000 
#    z 0.009250 0.000000 1.683730 
# 
# From -- ./inp_files/87227.got.cif
#   From: 2010.06.25/outbox.cif.g09.slc.cpg/sg12_44_cif.got.tgz:87227.got - 2010.06.28 00:19:55.
