data_PCOD8084436
_publ_section_title
;
Structure prediction by ZEFSAII (Michael W. Deem and Ramdas Pophale) SiO2 
 PCOD8084436
Probable space group: C 2/M
;
_chemical_formula_sum "Si O2"
_cell_formula_units_Z 32
_cell_length_a 14.228665
_cell_length_b 20.612446
_cell_length_c 5.182639
_cell_angle_alpha 90.000000
_cell_angle_beta 114.264330
_cell_angle_gamma 90.000000
_cell_volume 1385.725494
_symmetry_space_group_name_H-M "C 2/M"
_symmetry_group_IT_number 12
_symmetry_cell_setting 'monoclinic'
loop_
_space_group_symop_operation_xyz
x,y,z
-x,y,-z
-x,-y,-z
x,-y,z
1/2+x,1/2+y,z
1/2-x,1/2+y,-z
1/2-x,1/2-y,-z
1/2+x,1/2-y,z
loop_
_atom_site_type_symbol
_atom_site_label
_atom_site_fract_x
_atom_site_fract_y
_atom_site_fract_z
Si Si1 0.110006 0.307187 0.925134
Si Si2 0.664719 0.500000 0.794735
Si Si3 0.000000 0.188179 0.000000
Si Si4 0.882601 0.361918 0.569163
Si Si5 0.500000 0.606556 0.500000
Si Si6 0.799351 0.500000 0.446035
O O1 0.092821 0.232921 0.992634
O O2 0.167945 0.316889 0.716730
O O3 0.001539 0.343795 0.750240
O O4 0.173859 0.343780 0.224143
O O5 0.596734 0.564142 0.693611
O O6 0.752596 0.500000 0.678706
O O7 0.709996 0.500000 0.132962
O O8 0.963408 0.147048 0.710862
O O9 0.871095 0.437308 0.488920
#
# Coordination Sequence:
#
# PCOD8084436 Si02
#       6
#     8   4   4   8   4   4
#     4   9  18  33  55  88 115 144 188 218 248 327
#     4  11  26  40  57  84 107 136 193 242 277 334
#     4  10  18  35  68  85 102 140 186 236 282 314
#     4   9  18  31  53  81 120 151 181 216 257 318
#     4  11  22  42  64  80 100 137 190 246 290 329
#     4  12  22  37  57  80 119 158 175 220 287 323
#
# _framework density 23.092597000000001
#
# number of rings (size 3 to 8) (size 9 to 14) (size 15 to 20)
#    0.000    2.250    0.000    6.000    0.000    6.000 
#    0.000    0.000    0.000   69.000    0.000    0.000 
#    0.000    0.000    0.000    0.000    0.000    0.000 
#
# Total GULP energy -198213.860468 kJ/mol
# GULP energy per Si atom -12388.366279 kJ/mol
# Density = 2.304004 g / cm^3
# Si number density = 23.092597 Si / 1000 Ang^3
#
#
#
# Elastic Constant Matrix: (Units=GPa)
#
#
# Indices 1 2 3 4 5 6 
#
# 1 35.9608 21.9246 20.5601 0.0000 -9.5838 0.0000
# 2 21.9246 156.9166 69.3153 0.0000 -6.8440 0.0000
# 3 20.5601 69.3153 190.4412 0.0000 -47.5988 0.0000
# 4 0.0000 0.0000 0.0000 50.7863 0.0000 22.5927
# 5 -9.5838 -6.8440 -47.5988 0.0000 40.7946 0.0000
# 6 0.0000 0.0000 0.0000 22.5927 0.0000 5.1386
#
#
#
# Elastic Compliance Matrix: (Units=1/GPa)
#
#
# Indices 1 2 3 4 5 6 
#
# 1 0.032214 -0.004044 -0.000401 0.000000 0.006422 0.000000
# 2 -0.004044 0.008327 -0.003505 0.000000 -0.003642 0.000000
# 3 -0.000401 -0.003505 0.009034 0.000000 0.009858 0.000000
# 4 0.000000 0.000000 0.000000 -0.020599 0.000000 0.090566
# 5 0.006422 -0.003642 0.009858 0.000000 0.036913 0.000000
# 6 0.000000 0.000000 0.000000 0.090566 0.000000 -0.203585
#
#
# Mechanical properties :
#
#
# Convention : Reuss Voigt Hill
#
# Bulk Modulus (GPa) = 29.69435 67.43539 48.56487
# Shear Modulus (GPa) = -45.21974 37.44513 -3.88731
#
# Velocity S-wave (km/s) = -4.42995 4.03118 -1.29885
# Velocity P-wave (km/s) = 3.64406 7.13672 4.33899
#
# Compressibility (1/GPa) = 0.03367644
#
# Stress axis : x y z
#
# Youngs Moduli (GPa) = 31.04226 120.09074 110.69506
#
# Poissons Ratio (x) = 0.48562 0.04438
# Poissons Ratio (y) = 0.12553 0.38794
# Poissons Ratio (z) = 0.01245 0.42086
#
# Static dielectric constant tensor:
#      x y z
#    x 5.155230 0.000000 -2.781540 
#    y 0.000000 4.261100 0.000000 
#    z -2.781540 0.000000 8.090270 
# 
# 
# High freq. dielectric constant tensor:
#      x y z
#    x 1.861870 0.000000 -0.034960 
#    y 0.000000 1.918000 0.000000 
#    z -0.034960 0.000000 1.947860 
# 
# From -- ./inp_files/10902.got.cif
#   From: 2010.06.25/outbox.cif.g09.slc.cpg/sg12_6_cif.got.tgz:10902.got - 2010.06.28 00:19:55.
