data_PCOD8084728
_publ_section_title
;
Structure prediction by ZEFSAII (Michael W. Deem and Ramdas Pophale) SiO2 
 PCOD8084728
Probable space group: C 2/M
;
_chemical_formula_sum "Si O2"
_cell_formula_units_Z 56
_cell_length_a 9.077976
_cell_length_b 31.359391
_cell_length_c 13.915602
_cell_angle_alpha 90.000000
_cell_angle_beta 48.553718
_cell_angle_gamma 90.000000
_cell_volume 2969.440927
_symmetry_space_group_name_H-M "C 2/M"
_symmetry_group_IT_number 12
_symmetry_cell_setting 'monoclinic'
loop_
_space_group_symop_operation_xyz
x,y,z
-x,y,-z
-x,-y,-z
x,-y,z
1/2+x,1/2+y,z
1/2-x,1/2+y,-z
1/2-x,1/2-y,-z
1/2+x,1/2-y,z
loop_
_atom_site_type_symbol
_atom_site_label
_atom_site_fract_x
_atom_site_fract_y
_atom_site_fract_z
Si Si1 0.836715 0.369450 0.337522
Si Si2 0.813803 0.046325 0.353584
Si Si3 0.417222 0.788313 0.840840
Si Si4 0.500000 0.252594 0.500000
Si Si5 0.465436 0.372366 0.364410
Si Si6 0.993905 0.453012 0.341722
Si Si7 0.000000 0.755373 0.000000
Si Si8 0.895798 0.214250 0.345604
O O1 0.666895 0.371622 0.333541
O O2 0.732970 0.365185 0.486318
O O3 0.955284 0.414444 0.283766
O O4 0.984249 0.330675 0.247310
O O5 0.969766 0.083770 0.303073
O O6 0.666976 0.046842 0.505939
O O7 0.704477 0.054535 0.300277
O O8 0.919972 0.000000 0.304538
O O9 0.453099 0.748281 0.757238
O O10 0.179968 0.788719 0.939721
O O11 0.509604 0.777155 0.905060
O O12 0.680691 0.222160 0.392975
O O13 0.587287 0.283202 0.544987
O O14 0.461310 0.333526 0.289511
O O15 0.990041 0.500000 0.292266
#
# Coordination Sequence:
#
# PCOD8084728 Si02
#       8
#     8   8   8   4   8   8   4   8
#     4  10  19  31  48  72 102 132 160 195 238 288
#     4   8  15  27  41  62 100 142 169 189 215 263
#     4  11  22  38  54  70  94 127 168 213 254 291
#     4  10  20  30  46  72 104 134 156 182 238 300
#     4  10  19  28  44  74 105 133 163 188 229 292
#     4   8  15  28  45  67  97 133 168 195 224 273
#     4  10  24  40  54  68  88 124 172 216 256 296
#     4  11  20  32  48  71 102 133 161 199 241 289
#
# _framework density 18.858768000000001
#
# number of rings (size 3 to 8) (size 9 to 14) (size 15 to 20)
#    0.000    2.286    0.000    6.000    0.000    5.143 
#    0.000    2.857    0.000    0.000    0.000    1.000 
#    0.000    4.571    0.000    0.286    0.000    0.000 
#
# Total GULP energy -346870.965680 kJ/mol
# GULP energy per Si atom -12388.248774 kJ/mol
# Density = 1.881584 g / cm^3
# Si number density = 18.858768 Si / 1000 Ang^3
#
#
#
# Elastic Constant Matrix: (Units=GPa)
#
#
# Indices 1 2 3 4 5 6 
#
# 1 79.9124 56.3970 20.0149 0.0000 -16.0111 0.0000
# 2 56.3970 193.4599 31.6477 0.0000 -8.8288 0.0000
# 3 20.0149 31.6477 33.6172 0.0000 -4.1213 0.0000
# 4 0.0000 0.0000 0.0000 12.6923 0.0000 1.1861
# 5 -16.0111 -8.8288 -4.1213 0.0000 17.1499 0.0000
# 6 0.0000 0.0000 0.0000 1.1861 0.0000 29.5831
#
#
#
# Elastic Compliance Matrix: (Units=1/GPa)
#
#
# Indices 1 2 3 4 5 6 
#
# 1 0.019990 -0.004132 -0.006166 0.000000 0.015054 0.000000
# 2 -0.004132 0.007019 -0.004305 0.000000 -0.001278 0.000000
# 3 -0.006166 -0.004305 0.037601 0.000000 0.001063 0.000000
# 4 0.000000 0.000000 0.000000 0.079084 0.000000 -0.003171
# 5 0.015054 -0.001278 0.001063 0.000000 0.071961 0.000000
# 6 0.000000 0.000000 0.000000 -0.003171 0.000000 0.033930
#
#
# Mechanical properties :
#
#
# Convention : Reuss Voigt Hill
#
# Bulk Modulus (GPa) = 28.24505 58.12319 43.18412
# Shear Modulus (GPa) = 17.20613 25.14704 21.17658
#
# Velocity S-wave (km/s) = 3.02382 3.65559 3.35461
# Velocity P-wave (km/s) = 5.21545 6.97889 6.16060
#
# Compressibility (1/GPa) = 0.03540443
#
# Stress axis : x y z
#
# Youngs Moduli (GPa) = 50.02443 142.46216 26.59493
#
# Poissons Ratio (x) = 0.58862 0.16400
# Poissons Ratio (y) = 0.20669 0.11449
# Poissons Ratio (z) = 0.30848 0.61329
#
# Static dielectric constant tensor:
#      x y z
#    x 3.549070 0.000000 -0.021190 
#    y 0.000000 3.993900 0.000000 
#    z -0.021190 0.000000 3.085960 
# 
# 
# High freq. dielectric constant tensor:
#      x y z
#    x 1.742530 0.000000 -0.007830 
#    y 0.000000 1.742420 0.000000 
#    z -0.007830 0.000000 1.663740 
# 
# From -- ./inp_files/200856.got.cif
#   From: 2010.06.25/outbox.cif.g09.slc.cpg/sg12_101_cif.got.tgz:200856.got - 2010.06.28 00:19:55.
