data_PCOD8084090
_publ_section_title
;
Structure prediction by ZEFSAII (Michael W. Deem and Ramdas Pophale) SiO2 
 PCOD8084090
Probable space group: C 2/M
;
_chemical_formula_sum "Si O2"
_cell_formula_units_Z 64
_cell_length_a 14.465791
_cell_length_b 9.272835
_cell_length_c 29.949677
_cell_angle_alpha 90.000000
_cell_angle_beta 60.424220
_cell_angle_gamma 90.000000
_cell_volume 3493.961813
_symmetry_space_group_name_H-M "C 2/M"
_symmetry_group_IT_number 12
_symmetry_cell_setting 'monoclinic'
loop_
_space_group_symop_operation_xyz
x,y,z
-x,y,-z
-x,-y,-z
x,-y,z
1/2+x,1/2+y,z
1/2-x,1/2+y,-z
1/2-x,1/2-y,-z
1/2+x,1/2-y,z
loop_
_atom_site_type_symbol
_atom_site_label
_atom_site_fract_x
_atom_site_fract_y
_atom_site_fract_z
Si Si1 0.506872 0.331447 0.359831
Si Si2 0.881814 0.160683 0.011124
Si Si3 0.946707 0.834680 0.902210
Si Si4 0.216980 0.169178 0.627273
Si Si5 0.256549 0.665676 0.886983
Si Si6 0.924754 0.831824 0.557859
Si Si7 0.713971 0.832371 0.291295
Si Si8 0.177712 0.829459 0.825371
O O1 0.519651 0.500000 0.347173
O O2 0.394729 0.275417 0.366591
O O3 0.513558 0.296118 0.410902
O O4 0.603560 0.252262 0.312091
O O5 0.886794 0.231362 0.959963
O O6 0.828902 0.000000 0.023994
O O7 0.819785 0.268086 0.057705
O O8 0.000000 0.146831 0.000000
O O9 0.877026 0.819293 0.874710
O O10 0.060765 0.765232 0.863846
O O11 0.966971 0.000000 0.910533
O O12 0.313798 0.248102 0.579443
O O13 0.222850 0.207630 0.678488
O O14 0.230012 0.000000 0.615554
O O15 0.223804 0.500000 0.887360
O O16 0.256514 0.751566 0.840735
O O17 0.000000 0.779295 0.500000
O O18 0.898182 0.000000 0.560486
O O19 0.790650 0.788183 0.232442
O O20 0.684779 0.000000 0.297338
O O21 0.184190 0.000000 0.831315
#
# Coordination Sequence:
#
# PCOD8084090 Si02
#       8
#     8   8   8   8   8   8   8   8
#     4   9  18  33  53  75 103 136 169 210 257 303
#     4  10  18  34  58  75  96 136 171 194 238 305
#     4   9  19  35  54  75 100 133 166 197 244 303
#     4   9  18  33  52  76 101 133 176 215 254 297
#     4  11  22  34  52  80 106 127 161 210 253 290
#     4   9  18  32  49  74 109 144 173 206 253 303
#     4   9  19  34  54  75  96 127 170 216 252 295
#     4  10  20  38  56  71  98 135 169 200 247 311
#
# _framework density 18.317314
#
# number of rings (size 3 to 8) (size 9 to 14) (size 15 to 20)
#    0.000    2.500    1.250    0.750    0.000    3.000 
#    0.000    4.375    0.000    0.000    0.000    0.000 
#    0.000    0.000    0.000    0.000    0.000    0.000 
#
# Total GULP energy -396760.747118 kJ/mol
# GULP energy per Si atom -12398.773347 kJ/mol
# Density = 1.827562 g / cm^3
# Si number density = 18.317314 Si / 1000 Ang^3
#
#
#
# Elastic Constant Matrix: (Units=GPa)
#
#
# Indices 1 2 3 4 5 6 
#
# 1 109.6260 32.0125 39.5136 0.0000 1.5272 0.0000
# 2 32.0125 44.7605 38.0428 0.0000 -1.4901 0.0000
# 3 39.5136 38.0428 115.5541 0.0000 3.4181 0.0000
# 4 0.0000 0.0000 0.0000 12.4918 0.0000 9.6724
# 5 1.5272 -1.4901 3.4181 0.0000 18.2714 0.0000
# 6 0.0000 0.0000 0.0000 9.6724 0.0000 19.1284
#
#
#
# Elastic Compliance Matrix: (Units=1/GPa)
#
#
# Indices 1 2 3 4 5 6 
#
# 1 0.011805 -0.007061 -0.001675 0.000000 -0.001249 0.000000
# 2 -0.007061 0.035611 -0.009465 0.000000 0.005265 0.000000
# 3 -0.001675 -0.009465 0.012430 0.000000 -0.002957 0.000000
# 4 0.000000 0.000000 0.000000 0.131564 0.000000 -0.066526
# 5 -0.001249 0.005265 -0.002957 0.000000 0.055818 0.000000
# 6 0.000000 0.000000 0.000000 -0.066526 0.000000 0.085917
#
#
# Mechanical properties :
#
#
# Convention : Reuss Voigt Hill
#
# Bulk Modulus (GPa) = 42.65472 54.34204 48.49838
# Shear Modulus (GPa) = 13.24990 20.66976 16.95983
#
# Velocity S-wave (km/s) = 2.69244 3.36285 3.04615
# Velocity P-wave (km/s) = 5.74480 6.69401 6.23749
#
# Compressibility (1/GPa) = 0.02344406
#
# Stress axis : x y z
#
# Youngs Moduli (GPa) = 84.71021 28.08147 80.44787
#
# Poissons Ratio (x) = 0.19827 0.13477
# Poissons Ratio (y) = 0.59810 0.76145
# Poissons Ratio (z) = 0.14191 0.26580
#
# Static dielectric constant tensor:
#      x y z
#    x 3.499730 0.000000 0.060700 
#    y 0.000000 3.261870 0.000000 
#    z 0.060700 0.000000 3.455640 
# 
# 
# High freq. dielectric constant tensor:
#      x y z
#    x 1.713790 0.000000 0.005910 
#    y 0.000000 1.692640 0.000000 
#    z 0.005910 0.000000 1.709830 
# 
# From -- ./inp_files/359721.got.cif
#   From: 2010.06.25/outbox.cif.g09.slc.cpg/sg12_180_cif.got.tgz:359721.got - 2010.06.28 00:19:55.
