data_PCOD8084307
_publ_section_title
;
Structure prediction by ZEFSAII (Michael W. Deem and Ramdas Pophale) SiO2 
 PCOD8084307
Probable space group: C 2/M
;
_chemical_formula_sum "Si O2"
_cell_formula_units_Z 40
_cell_length_a 8.806439
_cell_length_b 16.240345
_cell_length_c 24.434726
_cell_angle_alpha 90.000000
_cell_angle_beta 39.283571
_cell_angle_gamma 90.000000
_cell_volume 2212.665730
_symmetry_space_group_name_H-M "C 2/M"
_symmetry_group_IT_number 12
_symmetry_cell_setting 'monoclinic'
loop_
_space_group_symop_operation_xyz
x,y,z
-x,y,-z
-x,-y,-z
x,-y,z
1/2+x,1/2+y,z
1/2-x,1/2+y,-z
1/2-x,1/2-y,-z
1/2+x,1/2-y,z
loop_
_atom_site_type_symbol
_atom_site_label
_atom_site_fract_x
_atom_site_fract_y
_atom_site_fract_z
Si Si1 0.681253 0.000000 0.245496
Si Si2 0.984979 0.753460 0.724238
Si Si3 0.130489 0.500000 0.521885
Si Si4 0.172787 0.000000 0.339794
Si Si5 0.885629 0.637865 0.658955
Si Si6 0.747903 0.500000 0.899845
Si Si7 0.098229 0.362051 0.788929
O O1 0.761925 0.080584 0.256853
O O2 0.796618 0.000000 0.153184
O O3 0.388604 0.000000 0.323925
O O4 0.201486 0.817220 0.670128
O O5 0.963423 0.690147 0.780013
O O6 0.029244 0.706085 0.654326
O O7 0.731042 0.802053 0.794293
O O8 0.416296 0.500000 0.439310
O O9 0.000000 0.500000 0.500000
O O10 0.061508 0.582563 0.573630
O O11 0.197438 0.918887 0.295580
O O12 0.899139 0.418690 0.874383
O O13 0.500000 0.500000 0.000000
#
# Coordination Sequence:
#
# PCOD8084307 Si02
#       7
#     4   8   4   4   8   4   8
#     4   9  18  37  56  79  96 153 177 214 264 328
#     4  10  18  35  57  82 104 144 180 226 267 324
#     4  11  23  36  52  78 109 149 188 231 266 313
#     4  10  18  36  53  71 107 142 192 211 267 322
#     4  10  20  35  58  76 109 142 188 222 269 312
#     4  10  19  36  60  85 111 138 178 214 262 332
#     4   9  19  35  58  78 107 142 182 214 274 319
#
# _framework density 18.077743000000002
#
# number of rings (size 3 to 8) (size 9 to 14) (size 15 to 20)
#    0.000    2.400    4.000    1.200    0.000    4.000 
#    0.000   12.000    0.000    1.200    0.000    0.000 
#    0.000    0.000    0.000    0.000    0.000    0.000 
#
# Total GULP energy -247919.039594 kJ/mol
# GULP energy per Si atom -12395.951980 kJ/mol
# Density = 1.803660 g / cm^3
# Si number density = 18.077743 Si / 1000 Ang^3
#
#
#
# Elastic Constant Matrix: (Units=GPa)
#
#
# Indices 1 2 3 4 5 6 
#
# 1 113.0356 63.3371 46.3508 -0.0018 -2.4551 0.0039
# 2 63.3371 130.5025 58.4761 0.0008 -9.0536 0.0007
# 3 46.3508 58.4761 126.7003 -0.0072 -14.9810 -0.0006
# 4 -0.0018 0.0008 -0.0072 14.6914 0.0020 -2.2225
# 5 -2.4551 -9.0536 -14.9810 0.0020 18.5865 -0.0008
# 6 0.0039 0.0007 -0.0006 -2.2225 -0.0008 30.2873
#
#
#
# Elastic Compliance Matrix: (Units=1/GPa)
#
#
# Indices 1 2 3 4 5 6 
#
# 1 0.012791 -0.005244 -0.002610 0.000001 -0.002969 -0.000002
# 2 -0.005244 0.011836 -0.003255 -0.000003 0.002450 0.000000
# 3 -0.002610 -0.003255 0.011188 0.000005 0.007087 0.000001
# 4 0.000001 -0.000003 0.000005 0.068831 -0.000005 0.005051
# 5 -0.002969 0.002450 0.007087 -0.000005 0.060316 0.000002
# 6 -0.000002 0.000000 0.000001 0.005051 0.000002 0.033388
#
#
# Mechanical properties :
#
#
# Convention : Reuss Voigt Hill
#
# Bulk Modulus (GPa) = 73.54566 78.50735 76.02651
# Shear Modulus (GPa) = 22.21236 26.18467 24.19851
#
# Velocity S-wave (km/s) = 3.50910 3.80998 3.66263
# Velocity P-wave (km/s) = 7.56239 7.92947 7.74810
#
# Compressibility (1/GPa) = 0.01359700
#
# Stress axis : x y z
#
# Youngs Moduli (GPa) = 78.17931 84.48629 89.38532
#
# Poissons Ratio (x) = 0.44308 0.23329
# Poissons Ratio (y) = 0.41001 0.29091
# Poissons Ratio (z) = 0.20404 0.27497
#
# Static dielectric constant tensor:
#      x y z
#    x 3.423950 0.000000 0.085690 
#    y 0.000000 3.762480 0.000010 
#    z 0.085690 0.000010 2.789650 
# 
# 
# High freq. dielectric constant tensor:
#      x y z
#    x 1.707850 0.000000 0.006290 
#    y 0.000000 1.729760 0.000000 
#    z 0.006290 0.000000 1.640010 
# 
# From -- ./inp_files/333133.got.cif
#   From: 2010.06.25/outbox.cif.g09.slc.cpg/sg12_167_cif.got.tgz:333133.got - 2010.06.28 00:19:55.
