data_PCOD8084346
_publ_section_title
;
Structure prediction by ZEFSAII (Michael W. Deem and Ramdas Pophale) SiO2 
 PCOD8084346
Probable space group: C 2/M
;
_chemical_formula_sum "Si O2"
_cell_formula_units_Z 40
_cell_length_a 21.374674
_cell_length_b 18.096224
_cell_length_c 8.747431
_cell_angle_alpha 90.000000
_cell_angle_beta 38.543583
_cell_angle_gamma 90.000000
_cell_volume 2108.300651
_symmetry_space_group_name_H-M "C 2/M"
_symmetry_group_IT_number 12
_symmetry_cell_setting 'monoclinic'
loop_
_space_group_symop_operation_xyz
x,y,z
-x,y,-z
-x,-y,-z
x,-y,z
1/2+x,1/2+y,z
1/2-x,1/2+y,-z
1/2-x,1/2-y,-z
1/2+x,1/2-y,z
loop_
_atom_site_type_symbol
_atom_site_label
_atom_site_fract_x
_atom_site_fract_y
_atom_site_fract_z
Si Si1 0.382631 0.714386 0.185332
Si Si2 0.737376 0.582707 0.469846
Si Si3 0.906791 0.646511 0.293624
Si Si4 0.781903 0.305760 0.131338
Si Si5 0.399120 0.213942 0.618263
O O1 0.349724 0.631749 0.287782
O O2 0.338328 0.780108 0.379291
O O3 0.351413 0.740158 0.073569
O O4 0.500000 0.718338 0.000000
O O5 0.697023 0.500000 0.517077
O O6 0.831539 0.578342 0.408146
O O7 0.777571 0.619052 0.236452
O O8 0.934120 0.654833 0.420128
O O9 0.000000 0.638112 0.000000
O O10 0.666953 0.279895 0.326148
O O11 0.831898 0.327366 0.874152
O O12 0.500000 0.247243 0.500000
#
# Coordination Sequence:
#
# PCOD8084346 Si02
#       5
#     8   8   8   8   8
#     4  10  18  35  59  81 108 143 190 239 267 317
#     4  11  21  36  55  80 118 150 181 227 279 334
#     4  10  19  36  59  84 109 138 188 236 274 322
#     4  10  21  35  56  87 111 143 190 231 275 326
#     4  11  19  33  60  87 108 139 183 241 280 313
#
# _framework density 18.972626999999999
#
# number of rings (size 3 to 8) (size 9 to 14) (size 15 to 20)
#    0.000    1.600    4.000    4.800    0.000    0.800 
#    0.000    1.000    0.000    3.000    0.000    0.000 
#    0.000    0.000    0.000    0.000    0.000    0.000 
#
# Total GULP energy -247761.004266 kJ/mol
# GULP energy per Si atom -12388.050213 kJ/mol
# Density = 1.892944 g / cm^3
# Si number density = 18.972627 Si / 1000 Ang^3
#
#
#
# Elastic Constant Matrix: (Units=GPa)
#
#
# Indices 1 2 3 4 5 6 
#
# 1 113.4039 16.9766 28.5302 0.0000 -6.0226 0.0000
# 2 16.9766 96.7038 13.1305 0.0000 3.2485 0.0000
# 3 28.5302 13.1305 68.3050 0.0000 17.4569 0.0000
# 4 0.0000 0.0000 0.0000 13.0411 0.0000 -2.1955
# 5 -6.0226 3.2485 17.4569 0.0000 40.3313 0.0000
# 6 0.0000 0.0000 0.0000 -2.1955 0.0000 12.2822
#
#
#
# Elastic Compliance Matrix: (Units=1/GPa)
#
#
# Indices 1 2 3 4 5 6 
#
# 1 0.010509 -0.001278 -0.005140 0.000000 0.003897 0.000000
# 2 -0.001278 0.010773 -0.001424 0.000000 -0.000442 0.000000
# 3 -0.005140 -0.001424 0.019371 0.000000 -0.009037 0.000000
# 4 0.000000 0.000000 0.000000 0.079060 0.000000 0.014132
# 5 0.003897 -0.000442 -0.009037 0.000000 0.029324 0.000000
# 6 0.000000 0.000000 0.000000 0.014132 0.000000 0.083945
#
#
# Mechanical properties :
#
#
# Convention : Reuss Voigt Hill
#
# Bulk Modulus (GPa) = 40.04953 43.96526 42.00739
# Shear Modulus (GPa) = 19.45606 27.78261 23.61933
#
# Velocity S-wave (km/s) = 3.20579 3.83084 3.53216
# Velocity P-wave (km/s) = 5.90404 6.54144 6.23089
#
# Compressibility (1/GPa) = 0.02496908
#
# Stress axis : x y z
#
# Youngs Moduli (GPa) = 95.15261 92.82089 51.62476
#
# Poissons Ratio (x) = 0.11862 0.26535
# Poissons Ratio (y) = 0.12160 0.07353
# Poissons Ratio (z) = 0.48908 0.13220
#
# Static dielectric constant tensor:
#      x y z
#    x 3.831730 0.000000 0.009450 
#    y 0.000000 3.040220 0.000000 
#    z 0.009450 0.000000 3.511590 
# 
# 
# High freq. dielectric constant tensor:
#      x y z
#    x 1.755560 0.000000 -0.005240 
#    y 0.000000 1.675710 0.000000 
#    z -0.005240 0.000000 1.746630 
# 
# From -- ./inp_files/60378.got.cif
#   From: 2010.06.25/outbox.cif.g09.slc.cpg/sg12_31_cif.got.tgz:60378.got - 2010.06.28 00:19:55.
