data_PCOD8084199
_publ_section_title
;
Structure prediction by ZEFSAII (Michael W. Deem and Ramdas Pophale) SiO2 
 PCOD8084199
Probable space group: C 2/M
;
_chemical_formula_sum "Si O2"
_cell_formula_units_Z 64
_cell_length_a 14.664684
_cell_length_b 20.543150
_cell_length_c 11.667064
_cell_angle_alpha 90.000000
_cell_angle_beta 109.722193
_cell_angle_gamma 90.000000
_cell_volume 3308.626892
_symmetry_space_group_name_H-M "C 2/M"
_symmetry_group_IT_number 12
_symmetry_cell_setting 'monoclinic'
loop_
_space_group_symop_operation_xyz
x,y,z
-x,y,-z
-x,-y,-z
x,-y,z
1/2+x,1/2+y,z
1/2-x,1/2+y,-z
1/2-x,1/2-y,-z
1/2+x,1/2-y,z
loop_
_atom_site_type_symbol
_atom_site_label
_atom_site_fract_x
_atom_site_fract_y
_atom_site_fract_z
Si Si1 0.103041 0.782820 0.862115
Si Si2 0.605805 0.610282 0.042894
Si Si3 0.615099 0.076452 0.549849
Si Si4 0.741244 0.328329 0.508592
Si Si5 0.738028 0.810713 0.239458
Si Si6 0.105709 0.802436 0.263544
Si Si7 0.814479 0.571173 0.171527
Si Si8 0.896590 0.653564 0.003416
O O1 0.184595 0.769706 0.801258
O O2 0.104474 0.729532 0.963486
O O3 0.003288 0.782985 0.748874
O O4 0.121481 0.852533 0.929311
O O5 0.602785 0.661701 0.142617
O O6 0.698570 0.564832 0.101717
O O7 0.500000 0.573579 0.000000
O O8 0.500000 0.088335 0.500000
O O9 0.664680 0.127540 0.483130
O O10 0.660371 0.096706 0.691488
O O11 0.637927 0.000000 0.530250
O O12 0.750000 0.250000 0.500000
O O13 0.714250 0.347000 0.629728
O O14 0.653196 0.346557 0.384604
O O15 0.661785 0.764155 0.268165
O O16 0.681242 0.859672 0.130468
O O17 0.859507 0.500000 0.175687
O O18 0.869205 0.615632 0.105189
O O19 0.000000 0.630949 0.000000
#
# Coordination Sequence:
#
# PCOD8084199 Si02
#       8
#     8   8   8   8   8   8   8   8
#     4  11  20  33  62  85 118 155 187 233 311 374
#     4  10  18  34  60  86 114 148 190 244 294 359
#     4  10  23  44  66  86 120 172 215 248 304 379
#     4  10  23  38  57  90 127 148 203 262 308 352
#     4  11  21  35  52  87 119 156 190 238 307 358
#     4  10  19  36  53  88 119 148 195 240 295 367
#     4  11  24  39  60  87 114 157 207 249 290 346
#     4  12  22  36  59  83 121 156 190 240 301 369
#
# _framework density 19.343371999999999
#
# number of rings (size 3 to 8) (size 9 to 14) (size 15 to 20)
#    0.000    1.375    5.000    1.500    3.500    1.000 
#    0.000    0.625    0.000    0.000    0.000    0.875 
#    0.000    0.000    0.000    0.000    0.000    0.000 
#
# Total GULP energy -396528.609506 kJ/mol
# GULP energy per Si atom -12391.519047 kJ/mol
# Density = 1.929935 g / cm^3
# Si number density = 19.343372 Si / 1000 Ang^3
#
#
#
# Elastic Constant Matrix: (Units=GPa)
#
#
# Indices 1 2 3 4 5 6 
#
# 1 107.6826 21.4593 47.1134 0.0000 10.8781 0.0000
# 2 21.4593 54.7601 15.0819 0.0000 -5.7053 0.0000
# 3 47.1134 15.0819 117.8236 0.0000 1.5502 0.0000
# 4 0.0000 0.0000 0.0000 20.6137 0.0000 -0.1741
# 5 10.8781 -5.7053 1.5502 0.0000 28.3022 0.0000
# 6 0.0000 0.0000 0.0000 -0.1741 0.0000 17.5587
#
#
#
# Elastic Compliance Matrix: (Units=1/GPa)
#
#
# Indices 1 2 3 4 5 6 
#
# 1 0.012636 -0.004303 -0.004430 0.000000 -0.005481 0.000000
# 2 -0.004303 0.020846 -0.001026 0.000000 0.005912 0.000000
# 3 -0.004430 -0.001026 0.010378 0.000000 0.000927 0.000000
# 4 0.000000 0.000000 0.000000 0.048515 0.000000 0.000481
# 5 -0.005481 0.005912 0.000927 0.000000 0.038581 0.000000
# 6 0.000000 0.000000 0.000000 0.000481 0.000000 0.056956
#
#
# Mechanical properties :
#
#
# Convention : Reuss Voigt Hill
#
# Bulk Modulus (GPa) = 41.07910 49.73060 45.40485
# Shear Modulus (GPa) = 23.19723 26.40238 24.79981
#
# Velocity S-wave (km/s) = 3.46675 3.69851 3.58450
# Velocity P-wave (km/s) = 6.10798 6.63353 6.37617
#
# Compressibility (1/GPa) = 0.02434328
#
# Stress axis : x y z
#
# Youngs Moduli (GPa) = 79.13983 47.97064 96.36102
#
# Poissons Ratio (x) = 0.20641 0.42685
# Poissons Ratio (y) = 0.34052 0.09883
# Poissons Ratio (z) = 0.35057 0.04920
#
# Static dielectric constant tensor:
#      x y z
#    x 3.770500 0.000000 0.371570 
#    y 0.000000 3.166560 0.000000 
#    z 0.371570 0.000000 4.357420 
# 
# 
# High freq. dielectric constant tensor:
#      x y z
#    x 1.753990 0.000000 0.011350 
#    y 0.000000 1.709690 0.000000 
#    z 0.011350 0.000000 1.771830 
# 
# From -- ./inp_files/147624.got.cif
#   From: 2010.06.25/outbox.cif.g09.slc.cpg/sg12_74_cif.got.tgz:147624.got - 2010.06.28 00:19:55.
