data_PCOD8084448
_publ_section_title
;
Structure prediction by ZEFSAII (Michael W. Deem and Ramdas Pophale) SiO2 
 PCOD8084448
Probable space group: C 2/M
;
_chemical_formula_sum "Si O2"
_cell_formula_units_Z 56
_cell_length_a 17.170083
_cell_length_b 15.226884
_cell_length_c 14.101482
_cell_angle_alpha 90.000000
_cell_angle_beta 49.871666
_cell_angle_gamma 90.000000
_cell_volume 2818.928501
_symmetry_space_group_name_H-M "C 2/M"
_symmetry_group_IT_number 12
_symmetry_cell_setting 'monoclinic'
loop_
_space_group_symop_operation_xyz
x,y,z
-x,y,-z
-x,-y,-z
x,-y,z
1/2+x,1/2+y,z
1/2-x,1/2+y,-z
1/2-x,1/2-y,-z
1/2+x,1/2-y,z
loop_
_atom_site_type_symbol
_atom_site_label
_atom_site_fract_x
_atom_site_fract_y
_atom_site_fract_z
Si Si1 0.439965 0.728243 0.381007
Si Si2 0.116947 0.092471 0.430068
Si Si3 0.945146 0.101511 0.205498
Si Si4 0.769136 0.858334 0.212517
Si Si5 0.593988 0.099365 0.493429
Si Si6 0.324304 0.310134 0.783904
Si Si7 0.320957 0.596113 0.972377
O O1 0.371775 0.676369 0.511494
O O2 0.411695 0.677103 0.306664
O O3 0.403162 0.830280 0.421166
O O4 0.560965 0.728035 0.303071
O O5 0.176114 0.105965 0.284592
O O6 0.000000 0.079785 0.500000
O O7 0.157377 0.000000 0.443160
O O8 0.882589 0.120460 0.159196
O O9 0.063000 0.115763 0.089424
O O10 0.926901 0.000000 0.255648
O O11 0.693887 0.897553 0.349854
O O12 0.753280 0.755860 0.205602
O O13 0.752738 0.900585 0.120898
O O14 0.500000 0.124748 0.500000
O O15 0.583500 0.000000 0.542696
O O16 0.284587 0.335642 0.919964
O O17 0.310853 0.500000 0.934863
#
# Coordination Sequence:
#
# PCOD8084448 Si02
#       7
#     8   8   8   8   8   8   8
#     4  10  18  36  54  78 111 146 184 226 273 324
#     4   9  15  27  51  77 106 141 176 218 273 324
#     4  10  22  37  58  85 113 144 183 231 285 338
#     4  12  21  36  55  81 113 150 182 227 277 329
#     4  11  21  35  55  79 112 152 190 226 266 323
#     4  10  19  33  54  81 110 142 183 229 278 328
#     4  10  21  37  57  82 111 142 186 236 283 332
#
# _framework density 19.865703
#
# number of rings (size 3 to 8) (size 9 to 14) (size 15 to 20)
#    0.000    1.714    2.857    3.429    0.000    5.143 
#    0.000    0.000    0.000    0.857    0.000    0.000 
#    0.000    9.143    0.000    0.000    0.000    0.000 
#
# Total GULP energy -346865.692970 kJ/mol
# GULP energy per Si atom -12388.060463 kJ/mol
# Density = 1.982049 g / cm^3
# Si number density = 19.865703 Si / 1000 Ang^3
#
#
#
# Elastic Constant Matrix: (Units=GPa)
#
#
# Indices 1 2 3 4 5 6 
#
# 1 29.1464 23.4540 -1.5656 0.0000 5.6607 0.0000
# 2 23.4540 147.6667 33.9880 0.0000 15.5956 0.0000
# 3 -1.5656 33.9880 70.6468 0.0000 17.0178 0.0000
# 4 0.0000 0.0000 0.0000 44.7731 0.0000 -17.4080
# 5 5.6607 15.5956 17.0178 0.0000 24.0010 0.0000
# 6 0.0000 0.0000 0.0000 -17.4080 0.0000 27.8164
#
#
#
# Elastic Compliance Matrix: (Units=1/GPa)
#
#
# Indices 1 2 3 4 5 6 
#
# 1 0.042501 -0.007260 0.006890 0.000000 -0.010192 0.000000
# 2 -0.007260 0.009019 -0.004222 0.000000 -0.001155 0.000000
# 3 0.006890 -0.004222 0.019379 0.000000 -0.012622 0.000000
# 4 0.000000 0.000000 0.000000 0.029517 0.000000 0.018472
# 5 -0.010192 -0.001155 -0.012622 0.000000 0.053769 0.000000
# 6 0.000000 0.000000 0.000000 0.018472 0.000000 0.047510
#
#
# Mechanical properties :
#
#
# Convention : Reuss Voigt Hill
#
# Bulk Modulus (GPa) = 16.20350 39.91251 28.05801
# Shear Modulus (GPa) = 21.60293 32.09036 26.84665
#
# Velocity S-wave (km/s) = 3.30123 4.02352 3.68014
# Velocity P-wave (km/s) = 4.76498 6.45908 5.67560
#
# Compressibility (1/GPa) = 0.06171504
#
# Stress axis : x y z
#
# Youngs Moduli (GPa) = 23.52890 110.88046 51.60174
#
# Poissons Ratio (x) = 0.80497 -0.35551
# Poissons Ratio (y) = 0.17082 0.21784
# Poissons Ratio (z) = -0.16210 0.46810
#
# Static dielectric constant tensor:
#      x y z
#    x 3.276390 0.000000 0.089760 
#    y 0.000000 3.910200 0.000000 
#    z 0.089760 0.000000 3.712410 
# 
# 
# High freq. dielectric constant tensor:
#      x y z
#    x 1.730070 0.000000 0.012140 
#    y 0.000000 1.786400 0.000000 
#    z 0.012140 0.000000 1.768640 
# 
# From -- ./inp_files/225208.got.cif
#   From: 2010.06.25/outbox.cif.g09.slc.cpg/sg12_113_cif.got.tgz:225208.got - 2010.06.28 00:19:55.
