data_PCOD8084776
_publ_section_title
;
Structure prediction by ZEFSAII (Michael W. Deem and Ramdas Pophale) SiO2 
 PCOD8084776
Probable space group: C 2/M
;
_chemical_formula_sum "Si O2"
_cell_formula_units_Z 64
_cell_length_a 24.526244
_cell_length_b 9.056852
_cell_length_c 16.401362
_cell_angle_alpha 90.000000
_cell_angle_beta 73.859100
_cell_angle_gamma 90.000000
_cell_volume 3499.630555
_symmetry_space_group_name_H-M "C 2/M"
_symmetry_group_IT_number 12
_symmetry_cell_setting 'monoclinic'
loop_
_space_group_symop_operation_xyz
x,y,z
-x,y,-z
-x,-y,-z
x,-y,z
1/2+x,1/2+y,z
1/2-x,1/2+y,-z
1/2-x,1/2-y,-z
1/2+x,1/2-y,z
loop_
_atom_site_type_symbol
_atom_site_label
_atom_site_fract_x
_atom_site_fract_y
_atom_site_fract_z
Si Si1 0.522631 0.829231 0.400630
Si Si2 0.371144 0.672337 0.199938
Si Si3 0.242828 0.673987 0.241222
Si Si4 0.079615 0.830822 0.143499
Si Si5 0.240559 0.662806 0.923366
Si Si6 0.966291 0.830149 0.283520
Si Si7 0.108935 0.338462 0.966804
Si Si8 0.631951 0.674064 0.292817
O O1 0.500000 0.802762 0.500000
O O2 0.474110 0.773044 0.358689
O O3 0.580041 0.737124 0.366535
O O4 0.535316 0.000000 0.377456
O O5 0.370356 0.500000 0.179515
O O6 0.305903 0.725072 0.243900
O O7 0.406033 0.708173 0.267182
O O8 0.403979 0.746123 0.109795
O O9 0.234972 0.500000 0.252660
O O10 0.233236 0.728765 0.153727
O O11 0.189709 0.754802 0.307275
O O12 0.121563 0.787442 0.200986
O O13 0.015333 0.800002 0.197278
O O14 0.088871 0.000000 0.115388
O O15 0.090428 0.737896 0.057978
O O16 0.270651 0.500000 0.909983
O O17 0.175224 0.637623 0.937392
O O18 0.250000 0.750000 0.000000
O O19 0.968731 0.000000 0.311297
O O20 0.079303 0.500000 0.974091
O O21 0.634352 0.500000 0.305196
#
# Coordination Sequence:
#
# PCOD8084776 Si02
#       8
#     8   8   8   8   8   8   8   8
#     4  10  21  37  59  87 113 133 156 196 252 307
#     4   9  19  35  52  70  98 139 181 216 255 302
#     4  10  19  31  49  72  99 133 171 214 260 305
#     4   9  18  31  47  68  96 131 171 216 263 306
#     4  10  19  29  41  60  89 128 174 221 266 310
#     4   9  19  36  56  77 101 134 174 211 252 306
#     4  10  20  30  42  64  95 132 175 220 261 301
#     4  10  20  34  54  79 106 137 171 209 255 307
#
# _framework density 18.287645000000001
#
# number of rings (size 3 to 8) (size 9 to 14) (size 15 to 20)
#    0.000    2.375    0.000    3.375    0.000    8.500 
#    0.000    2.500    0.000    0.750    0.000    0.000 
#    0.000    0.000    0.000    0.000    0.000    0.000 
#
# Total GULP energy -396566.531283 kJ/mol
# GULP energy per Si atom -12392.704103 kJ/mol
# Density = 1.824602 g / cm^3
# Si number density = 18.287645 Si / 1000 Ang^3
#
#
#
# Elastic Constant Matrix: (Units=GPa)
#
#
# Indices 1 2 3 4 5 6 
#
# 1 106.6530 49.5412 39.1391 0.0000 -4.0568 0.0000
# 2 49.5412 102.4355 51.6459 0.0000 -0.1373 0.0000
# 3 39.1391 51.6459 79.8056 0.0000 0.2408 0.0000
# 4 0.0000 0.0000 0.0000 27.9543 0.0000 -1.3503
# 5 -4.0568 -0.1373 0.2408 0.0000 13.1855 0.0000
# 6 0.0000 0.0000 0.0000 -1.3503 0.0000 25.2822
#
#
#
# Elastic Compliance Matrix: (Units=1/GPa)
#
#
# Indices 1 2 3 4 5 6 
#
# 1 0.012869 -0.004498 -0.003412 0.000000 0.003975 0.000000
# 2 -0.004498 0.016064 -0.008186 0.000000 -0.001067 0.000000
# 3 -0.003412 -0.008186 0.019506 0.000000 -0.001491 0.000000
# 4 0.000000 0.000000 0.000000 0.035865 0.000000 0.001915
# 5 0.003975 -0.001067 -0.001491 0.000000 0.077080 0.000000
# 6 0.000000 0.000000 0.000000 0.001915 0.000000 0.039656
#
#
# Mechanical properties :
#
#
# Convention : Reuss Voigt Hill
#
# Bulk Modulus (GPa) = 61.55641 63.28294 62.41967
# Shear Modulus (GPa) = 20.95127 23.18891 22.07009
#
# Velocity S-wave (km/s) = 3.38842 3.56478 3.47772
# Velocity P-wave (km/s) = 7.00298 7.18490 7.09452
#
# Compressibility (1/GPa) = 0.01624526
#
# Stress axis : x y z
#
# Youngs Moduli (GPa) = 77.70555 62.25255 51.26555
#
# Poissons Ratio (x) = 0.28002 0.17494
# Poissons Ratio (y) = 0.34953 0.41967
# Poissons Ratio (z) = 0.26517 0.50962
#
# Static dielectric constant tensor:
#      x y z
#    x 3.532630 0.000000 -0.080690 
#    y 0.000000 3.589910 0.000000 
#    z -0.080690 0.000000 3.037760 
# 
# 
# High freq. dielectric constant tensor:
#      x y z
#    x 1.711530 0.000000 -0.009110 
#    y 0.000000 1.718790 0.000000 
#    z -0.009110 0.000000 1.673640 
# 
# From -- ./inp_files/243845.got.cif
#   From: 2010.06.25/outbox.cif.g09.slc.cpg/sg12_122_cif.got.tgz:243845.got - 2010.06.28 00:19:55.
