data_PCOD8084522
_publ_section_title
;
Structure prediction by ZEFSAII (Michael W. Deem and Ramdas Pophale) SiO2 
 PCOD8084522
Probable space group: C 2/M
;
_chemical_formula_sum "Si O2"
_cell_formula_units_Z 48
_cell_length_a 26.937331
_cell_length_b 14.849672
_cell_length_c 8.774299
_cell_angle_alpha 90.000000
_cell_angle_beta 137.537480
_cell_angle_gamma 90.000000
_cell_volume 2369.501360
_symmetry_space_group_name_H-M "C 2/M"
_symmetry_group_IT_number 12
_symmetry_cell_setting 'monoclinic'
loop_
_space_group_symop_operation_xyz
x,y,z
-x,y,-z
-x,-y,-z
x,-y,z
1/2+x,1/2+y,z
1/2-x,1/2+y,-z
1/2-x,1/2-y,-z
1/2+x,1/2-y,z
loop_
_atom_site_type_symbol
_atom_site_label
_atom_site_fract_x
_atom_site_fract_y
_atom_site_fract_z
Si Si1 0.284070 0.334386 0.992815
Si Si2 0.833962 0.712163 0.867614
Si Si3 0.687395 0.395837 0.621810
Si Si4 0.359947 0.900510 0.436097
Si Si5 0.084424 0.759258 0.245328
Si Si6 0.072189 0.600429 0.725837
O O1 0.343784 0.295421 0.008943
O O2 0.226707 0.381514 0.745838
O O3 0.250000 0.250000 0.000000
O O4 0.314718 0.397817 0.196932
O O5 0.755301 0.661348 0.703753
O O6 0.853890 0.745603 0.745236
O O7 0.898177 0.642592 0.052964
O O8 0.691373 0.500000 0.575695
O O9 0.611317 0.349024 0.394786
O O10 0.411460 0.828156 0.636247
O O11 0.367451 0.896473 0.269920
O O12 0.379731 0.000000 0.544366
O O13 0.000000 0.772232 0.000000
O O14 0.049047 0.500000 0.720648
O O15 0.000000 0.651758 0.500000
#
# Coordination Sequence:
#
# PCOD8084522 Si02
#       6
#     8   8   8   8   8   8
#     4  10  18  36  64  87 113 147 206 264 304 346
#     4  11  21  38  62  89 122 159 209 249 305 363
#     4  11  22  41  68  92 121 162 210 259 301 359
#     4  11  21  37  59  87 122 157 198 253 308 361
#     4  12  26  42  59  89 133 171 202 247 308 372
#     4  10  19  32  54  85 119 157 200 246 302 364
#
# _framework density 20.257427
#
# number of rings (size 3 to 8) (size 9 to 14) (size 15 to 20)
#    0.000    1.167    6.667    2.500    0.000    2.000 
#    0.000    0.833    0.000    1.000    0.000    0.000 
#    0.000    0.000    0.000    0.000    0.000    0.000 
#
# Total GULP energy -297365.432009 kJ/mol
# GULP energy per Si atom -12390.226334 kJ/mol
# Density = 2.021132 g / cm^3
# Si number density = 20.257427 Si / 1000 Ang^3
#
#
#
# Elastic Constant Matrix: (Units=GPa)
#
#
# Indices 1 2 3 4 5 6 
#
# 1 48.2470 27.7568 9.8826 0.0000 -4.3744 0.0000
# 2 27.7568 101.1517 46.3495 0.0000 4.2663 0.0000
# 3 9.8826 46.3495 133.7620 0.0000 14.4783 0.0000
# 4 0.0000 0.0000 0.0000 20.3636 0.0000 1.5811
# 5 -4.3744 4.2663 14.4783 0.0000 26.5579 0.0000
# 6 0.0000 0.0000 0.0000 1.5811 0.0000 12.9093
#
#
#
# Elastic Compliance Matrix: (Units=1/GPa)
#
#
# Indices 1 2 3 4 5 6 
#
# 1 0.025339 -0.007199 0.000048 0.000000 0.005304 0.000000
# 2 -0.007199 0.013801 -0.004125 0.000000 -0.001154 0.000000
# 3 0.000048 -0.004125 0.009383 0.000000 -0.004445 0.000000
# 4 0.000000 0.000000 0.000000 0.049579 0.000000 -0.006072
# 5 0.005304 -0.001154 -0.004445 0.000000 0.041135 0.000000
# 6 0.000000 0.000000 0.000000 -0.006072 0.000000 0.078207
#
#
# Mechanical properties :
#
#
# Convention : Reuss Voigt Hill
#
# Bulk Modulus (GPa) = 38.50486 50.12651 44.31568
# Shear Modulus (GPa) = 20.10834 25.24428 22.67631
#
# Velocity S-wave (km/s) = 3.15404 3.53395 3.34938
# Velocity P-wave (km/s) = 5.68445 6.43818 6.07302
#
# Compressibility (1/GPa) = 0.02597075
#
# Stress axis : x y z
#
# Youngs Moduli (GPa) = 39.46430 72.46076 106.57707
#
# Poissons Ratio (x) = 0.52166 -0.00515
# Poissons Ratio (y) = 0.28411 0.43965
# Poissons Ratio (z) = -0.00191 0.29892
#
# Static dielectric constant tensor:
#      x y z
#    x 3.624190 0.000000 -0.171730 
#    y 0.000000 3.775840 0.000000 
#    z -0.171730 0.000000 3.779170 
# 
# 
# High freq. dielectric constant tensor:
#      x y z
#    x 1.767670 0.000000 -0.007840 
#    y 0.000000 1.780380 0.000000 
#    z -0.007840 0.000000 1.793910 
# 
# From -- ./inp_files/85658.got.cif
#   From: 2010.06.25/outbox.cif.g09.slc.cpg/sg12_43_cif.got.tgz:85658.got - 2010.06.28 00:19:55.
