data_PCOD8084835
_publ_section_title
;
Structure prediction by ZEFSAII (Michael W. Deem and Ramdas Pophale) SiO2 
 PCOD8084835
Probable space group: C 2/M
;
_chemical_formula_sum "Si O2"
_cell_formula_units_Z 56
_cell_length_a 25.029428
_cell_length_b 27.412137
_cell_length_c 13.647907
_cell_angle_alpha 90.000000
_cell_angle_beta 20.839929
_cell_angle_gamma 90.000000
_cell_volume 3331.309429
_symmetry_space_group_name_H-M "C 2/M"
_symmetry_group_IT_number 12
_symmetry_cell_setting 'monoclinic'
loop_
_space_group_symop_operation_xyz
x,y,z
-x,y,-z
-x,-y,-z
x,-y,z
1/2+x,1/2+y,z
1/2-x,1/2+y,-z
1/2-x,1/2-y,-z
1/2+x,1/2-y,z
loop_
_atom_site_type_symbol
_atom_site_label
_atom_site_fract_x
_atom_site_fract_y
_atom_site_fract_z
Si Si1 0.279398 0.943965 0.505650
Si Si2 0.658123 0.391120 0.890916
Si Si3 0.564430 0.056795 0.493769
Si Si4 0.685806 0.606250 0.478135
Si Si5 0.100544 0.556683 0.028760
Si Si6 0.286149 0.716034 0.532136
Si Si7 0.588913 0.710835 0.950878
O O1 0.162377 0.918682 0.779909
O O2 0.234880 0.934608 0.470861
O O3 0.451047 0.927100 0.226727
O O4 0.267833 0.000000 0.551805
O O5 0.786187 0.411445 0.743264
O O6 0.690795 0.334863 0.806916
O O7 0.494743 0.395119 0.222241
O O8 0.500000 0.072920 0.500000
O O9 0.433694 0.066502 0.797795
O O10 0.611949 0.000000 0.414116
O O11 0.750047 0.658165 0.409236
O O12 0.762098 0.590917 0.243987
O O13 0.141677 0.500000 0.940407
O O14 0.250000 0.750000 0.500000
O O15 0.190117 0.740704 0.782229
O O16 0.463316 0.720175 0.249153
O O17 0.500000 0.700701 0.000000
#
# Coordination Sequence:
#
# PCOD8084835 Si02
#       7
#     8   8   8   8   8   8   8
#     4  10  19  29  42  64  99 139 166 184 219 282
#     4  10  19  31  47  69  94 125 163 199 239 285
#     4   9  19  37  56  71  91 123 164 205 244 295
#     4  11  20  29  45  73 104 129 159 201 238 276
#     4   9  19  32  46  69  98 128 163 198 237 288
#     4   9  18  29  42  63  94 132 164 190 223 269
#     4   9  17  29  43  65  96 124 157 195 228 274
#
# _framework density 16.810206000000001
#
# number of rings (size 3 to 8) (size 9 to 14) (size 15 to 20)
#    0.000    2.429    0.000    5.143    0.000    9.714 
#    0.000    0.714    0.000    2.571    0.000    9.000 
#    0.000    0.000    0.000    0.000    0.000    0.000 
#
# Total GULP energy -346917.148324 kJ/mol
# GULP energy per Si atom -12389.898154 kJ/mol
# Density = 1.677195 g / cm^3
# Si number density = 16.810206 Si / 1000 Ang^3
#
#
#
# Elastic Constant Matrix: (Units=GPa)
#
#
# Indices 1 2 3 4 5 6 
#
# 1 77.8238 22.0390 33.9477 -0.0419 0.5063 0.0003
# 2 22.0390 78.0289 58.3898 -0.0655 -2.5898 0.0263
# 3 33.9477 58.3898 112.5061 -0.0345 9.6103 0.0176
# 4 -0.0419 -0.0655 -0.0345 34.7134 0.0173 -0.0594
# 5 0.5063 -2.5898 9.6103 0.0173 15.7283 0.0121
# 6 0.0003 0.0263 0.0176 -0.0594 0.0121 14.6815
#
#
#
# Elastic Compliance Matrix: (Units=1/GPa)
#
#
# Indices 1 2 3 4 5 6 
#
# 1 0.014934 -0.001091 -0.004098 0.000011 0.001843 0.000005
# 2 -0.001091 0.022872 -0.012520 0.000024 0.011451 -0.000035
# 3 -0.004098 -0.012520 0.017712 -0.000005 -0.012752 0.000012
# 4 0.000011 0.000024 -0.000005 0.028808 -0.000025 0.000117
# 5 0.001843 0.011451 -0.012752 -0.000025 0.073198 -0.000066
# 6 0.000005 -0.000035 0.000012 0.000117 -0.000066 0.068114
#
#
# Mechanical properties :
#
#
# Convention : Reuss Voigt Hill
#
# Bulk Modulus (GPa) = 49.74561 55.23465 52.49013
# Shear Modulus (GPa) = 18.67390 23.29011 20.98201
#
# Velocity S-wave (km/s) = 3.33658 3.72623 3.53678
# Velocity P-wave (km/s) = 6.67087 7.17232 6.92614
#
# Compressibility (1/GPa) = 0.02010227
#
# Stress axis : x y z
#
# Youngs Moduli (GPa) = 66.96213 43.72067 56.45983
#
# Poissons Ratio (x) = 0.04768 0.23135
# Poissons Ratio (y) = 0.07302 0.70686
# Poissons Ratio (z) = 0.27439 0.54737
#
# Static dielectric constant tensor:
#      x y z
#    x 2.792280 -0.000190 0.174920 
#    y -0.000190 3.272070 0.000330 
#    z 0.174920 0.000330 3.740220 
# 
# 
# High freq. dielectric constant tensor:
#      x y z
#    x 1.587730 -0.000010 0.012290 
#    y -0.000010 1.652720 0.000020 
#    z 0.012290 0.000020 1.662470 
# 
# From -- ./inp_files/247366.got.cif
#   From: 2010.06.25/outbox.cif.g09.slc.cpg/sg12_124_cif.got.tgz:247366.got - 2010.06.28 00:19:55.
