data_PCOD8084223
_publ_section_title
;
Structure prediction by ZEFSAII (Michael W. Deem and Ramdas Pophale) SiO2 
 PCOD8084223
Probable space group: C 2/M
;
_chemical_formula_sum "Si O2"
_cell_formula_units_Z 56
_cell_length_a 31.367860
_cell_length_b 8.933547
_cell_length_c 11.834470
_cell_angle_alpha 90.000000
_cell_angle_beta 123.261922
_cell_angle_gamma 90.000000
_cell_volume 2773.021758
_symmetry_space_group_name_H-M "C 2/M"
_symmetry_group_IT_number 12
_symmetry_cell_setting 'monoclinic'
loop_
_space_group_symop_operation_xyz
x,y,z
-x,y,-z
-x,-y,-z
x,-y,z
1/2+x,1/2+y,z
1/2-x,1/2+y,-z
1/2-x,1/2-y,-z
1/2+x,1/2-y,z
loop_
_atom_site_type_symbol
_atom_site_label
_atom_site_fract_x
_atom_site_fract_y
_atom_site_fract_z
Si Si1 0.740734 0.676191 0.866512
Si Si2 0.443445 0.828159 0.388429
Si Si3 0.868670 0.322806 0.668590
Si Si4 0.426719 0.323727 0.137687
Si Si5 0.517508 0.171074 0.153227
Si Si6 0.837969 0.676691 0.865963
Si Si7 0.347369 0.172138 0.392438
O O1 0.740076 0.500000 0.883057
O O2 0.785062 0.726778 0.844951
O O3 0.687155 0.727657 0.738359
O O4 0.750000 0.750000 0.000000
O O5 0.500000 0.768174 0.500000
O O6 0.418052 0.731090 0.252575
O O7 0.406640 0.811334 0.443267
O O8 0.446584 0.000000 0.352611
O O9 0.872995 0.500000 0.672947
O O10 0.925997 0.259588 0.757656
O O11 0.837027 0.270670 0.733090
O O12 0.841723 0.268947 0.513503
O O13 0.421494 0.500000 0.124482
O O14 0.482628 0.273036 0.181212
O O15 0.384597 0.253691 0.995792
O O16 0.514818 0.000000 0.193577
O O17 0.500000 0.180555 0.000000
O O18 0.846829 0.500000 0.888217
O O19 0.329702 0.000000 0.355255
#
# Coordination Sequence:
#
# PCOD8084223 Si02
#       7
#     8   8   8   8   8   8   8
#     4  11  24  41  63  87 115 151 195 244 293 349
#     4  10  21  39  62  85 112 152 204 245 280 345
#     4   9  18  36  62  89 114 149 199 243 284 341
#     4  12  24  35  54  87 125 155 188 243 303 352
#     4  10  18  34  61  85 113 159 205 240 277 336
#     4  10  21  40  62  84 111 152 203 243 280 344
#     4  10  21  38  62  89 118 150 188 244 299 346
#
# _framework density 20.194575
#
# number of rings (size 3 to 8) (size 9 to 14) (size 15 to 20)
#    0.000    1.714    1.429    3.429    0.000    8.571 
#    0.000    2.857    0.000    0.000    0.000    0.000 
#    0.000    0.000    0.000    0.000    0.000    0.000 
#
# Total GULP energy -347267.550058 kJ/mol
# GULP energy per Si atom -12402.412502 kJ/mol
# Density = 2.014861 g / cm^3
# Si number density = 20.194575 Si / 1000 Ang^3
#
#
#
# Elastic Constant Matrix: (Units=GPa)
#
#
# Indices 1 2 3 4 5 6 
#
# 1 126.6058 37.7284 59.6702 0.0000 -9.8812 0.0000
# 2 37.7284 41.7994 29.7067 0.0000 -6.6938 0.0000
# 3 59.6702 29.7067 139.0556 0.0000 -12.2077 0.0000
# 4 0.0000 0.0000 0.0000 18.5458 0.0000 2.5746
# 5 -9.8812 -6.6938 -12.2077 0.0000 35.9601 0.0000
# 6 0.0000 0.0000 0.0000 2.5746 0.0000 18.6394
#
#
#
# Elastic Compliance Matrix: (Units=1/GPa)
#
#
# Indices 1 2 3 4 5 6 
#
# 1 0.012004 -0.008387 -0.003305 0.000000 0.000615 0.000000
# 2 -0.008387 0.034452 -0.003505 0.000000 0.002919 0.000000
# 3 -0.003305 -0.003505 0.009505 0.000000 0.001666 0.000000
# 4 0.000000 0.000000 0.000000 0.054975 0.000000 -0.007594
# 5 0.000615 0.002919 0.001666 0.000000 0.029087 0.000000
# 6 0.000000 0.000000 0.000000 -0.007594 0.000000 0.054699
#
#
# Mechanical properties :
#
#
# Convention : Reuss Voigt Hill
#
# Bulk Modulus (GPa) = 39.11380 62.40792 50.76086
# Shear Modulus (GPa) = 21.40074 26.65277 24.02676
#
# Velocity S-wave (km/s) = 3.25888 3.63684 3.45304
# Velocity P-wave (km/s) = 5.79404 6.97179 6.41002
#
# Compressibility (1/GPa) = 0.02556642
#
# Stress axis : x y z
#
# Youngs Moduli (GPa) = 83.30823 29.02558 105.21173
#
# Poissons Ratio (x) = 0.24344 0.34774
# Poissons Ratio (y) = 0.69871 0.36876
# Poissons Ratio (z) = 0.27534 0.10173
#
# Static dielectric constant tensor:
#      x y z
#    x 3.934850 0.000000 -0.197870 
#    y 0.000000 3.401590 0.000000 
#    z -0.197870 0.000000 3.807440 
# 
# 
# High freq. dielectric constant tensor:
#      x y z
#    x 1.799070 0.000000 -0.009630 
#    y 0.000000 1.757640 0.000000 
#    z -0.009630 0.000000 1.797140 
# 
# From -- ./inp_files/180825.got.cif
#   From: 2010.06.25/outbox.cif.g09.slc.cpg/sg12_91_cif.got.tgz:180825.got - 2010.06.28 00:19:55.
