data_PCOD8084593
_publ_section_title
;
Structure prediction by ZEFSAII (Michael W. Deem and Ramdas Pophale) SiO2 
 PCOD8084593
Probable space group: C 2/M
;
_chemical_formula_sum "Si O2"
_cell_formula_units_Z 64
_cell_length_a 15.627976
_cell_length_b 25.558200
_cell_length_c 8.694051
_cell_angle_alpha 90.000000
_cell_angle_beta 108.561870
_cell_angle_gamma 90.000000
_cell_volume 3291.960167
_symmetry_space_group_name_H-M "C 2/M"
_symmetry_group_IT_number 12
_symmetry_cell_setting 'monoclinic'
loop_
_space_group_symop_operation_xyz
x,y,z
-x,y,-z
-x,-y,-z
x,-y,z
1/2+x,1/2+y,z
1/2-x,1/2+y,-z
1/2-x,1/2-y,-z
1/2+x,1/2-y,z
loop_
_atom_site_type_symbol
_atom_site_label
_atom_site_fract_x
_atom_site_fract_y
_atom_site_fract_z
Si Si1 0.531728 0.061471 0.185494
Si Si2 0.829390 0.690892 0.470730
Si Si3 0.268195 0.901744 0.625907
Si Si4 0.896021 0.848966 0.923222
Si Si5 0.746264 0.846978 0.081016
Si Si6 0.373928 0.888232 0.259659
Si Si7 0.291322 0.441795 0.697561
Si Si8 0.173899 0.745412 0.241162
O O1 0.632322 0.077694 0.281676
O O2 0.470690 0.087465 0.281657
O O3 0.519832 0.000000 0.187596
O O4 0.500000 0.081942 0.000000
O O5 0.763886 0.648229 0.510534
O O6 0.891981 0.662097 0.380662
O O7 0.879173 0.717480 0.646092
O O8 0.771509 0.733991 0.348506
O O9 0.226218 0.886810 0.766228
O O10 0.208679 0.942490 0.491377
O O11 0.855299 0.897568 0.805928
O O12 0.890979 0.793214 0.836456
O O13 0.841318 0.838413 0.049675
O O14 0.000000 0.863482 0.000000
O O15 0.696932 0.794662 0.116244
O O16 0.674349 0.872251 0.925770
O O17 0.311757 0.931195 0.308694
O O18 0.321171 0.500000 0.769565
#
# Coordination Sequence:
#
# PCOD8084593 Si02
#       8
#     8   8   8   8   8   8   8   8
#     4  11  22  34  54  87 128 158 195 249 287 334
#     4   9  19  33  60  80 114 157 192 232 285 351
#     4  10  19  38  57  84 115 158 201 235 289 353
#     4  11  23  41  61  91 119 147 198 255 300 353
#     4  10  20  36  63  85 118 161 192 237 294 358
#     4  10  19  37  55  88 122 158 199 240 288 356
#     4  10  21  39  63  83 112 158 200 241 304 364
#     4  10  18  38  60  85 115 155 192 238 294 353
#
# _framework density 19.441305
#
# number of rings (size 3 to 8) (size 9 to 14) (size 15 to 20)
#    0.000    1.875    5.000    1.125    0.000    2.250 
#    4.500    5.625    0.000    0.750    0.000    0.000 
#    0.000    0.000    0.000    0.000    0.000    0.000 
#
# Total GULP energy -396457.096779 kJ/mol
# GULP energy per Si atom -12389.284274 kJ/mol
# Density = 1.939706 g / cm^3
# Si number density = 19.441305 Si / 1000 Ang^3
#
#
#
# Elastic Constant Matrix: (Units=GPa)
#
#
# Indices 1 2 3 4 5 6 
#
# 1 65.9483 25.1457 24.2674 0.0000 7.0122 0.0000
# 2 25.1457 106.2666 47.1478 0.0000 -5.2441 0.0000
# 3 24.2674 47.1478 103.4153 0.0000 -3.5116 0.0000
# 4 0.0000 0.0000 0.0000 30.2259 0.0000 -5.1930
# 5 7.0122 -5.2441 -3.5116 0.0000 11.0907 0.0000
# 6 0.0000 0.0000 0.0000 -5.1930 0.0000 15.7893
#
#
#
# Elastic Compliance Matrix: (Units=1/GPa)
#
#
# Indices 1 2 3 4 5 6 
#
# 1 0.019483 -0.003890 -0.003315 0.000000 -0.015207 0.000000
# 2 -0.003890 0.012744 -0.004659 0.000000 0.007010 0.000000
# 3 -0.003315 -0.004659 0.012705 0.000000 0.003915 0.000000
# 4 0.000000 0.000000 0.000000 0.035066 0.000000 0.011533
# 5 -0.015207 0.007010 0.003915 0.000000 0.104335 0.000000
# 6 0.000000 0.000000 0.000000 0.011533 0.000000 0.067127
#
#
# Mechanical properties :
#
#
# Convention : Reuss Voigt Hill
#
# Bulk Modulus (GPa) = 47.16121 52.08354 49.62238
# Shear Modulus (GPa) = 17.71440 23.35913 20.53676
#
# Velocity S-wave (km/s) = 3.02184 3.47006 3.25368
# Velocity P-wave (km/s) = 6.04039 6.55007 6.30038
#
# Compressibility (1/GPa) = 0.02120387
#
# Stress axis : x y z
#
# Youngs Moduli (GPa) = 51.32569 78.46895 78.71099
#
# Poissons Ratio (x) = 0.30525 0.26091
# Poissons Ratio (y) = 0.19966 0.36673
# Poissons Ratio (z) = 0.17014 0.36560
#
# Static dielectric constant tensor:
#      x y z
#    x 3.138690 0.000000 -0.244140 
#    y 0.000000 3.755340 0.000000 
#    z -0.244140 0.000000 4.027890 
# 
# 
# High freq. dielectric constant tensor:
#      x y z
#    x 1.707260 0.000000 -0.011980 
#    y 0.000000 1.766050 0.000000 
#    z -0.011980 0.000000 1.778200 
# 
# From -- ./inp_files/66990.got.cif
#   From: 2010.06.25/outbox.cif.g09.slc.cpg/sg12_34_cif.got.tgz:66990.got - 2010.06.28 00:19:55.
