data_PCOD8084398
_publ_section_title
;
Structure prediction by ZEFSAII (Michael W. Deem and Ramdas Pophale) SiO2 
 PCOD8084398
Probable space group: C 2/M
;
_chemical_formula_sum "Si O2"
_cell_formula_units_Z 56
_cell_length_a 17.102116
_cell_length_b 12.988513
_cell_length_c 11.928167
_cell_angle_alpha 90.000000
_cell_angle_beta 90.673202
_cell_angle_gamma 90.000000
_cell_volume 2649.433440
_symmetry_space_group_name_H-M "C 2/M"
_symmetry_group_IT_number 12
_symmetry_cell_setting 'monoclinic'
loop_
_space_group_symop_operation_xyz
x,y,z
-x,y,-z
-x,-y,-z
x,-y,z
1/2+x,1/2+y,z
1/2-x,1/2+y,-z
1/2-x,1/2-y,-z
1/2+x,1/2-y,z
loop_
_atom_site_type_symbol
_atom_site_label
_atom_site_fract_x
_atom_site_fract_y
_atom_site_fract_z
Si Si1 0.160774 0.725182 0.005168
Si Si2 0.591408 0.881950 0.199517
Si Si3 0.646692 0.737659 0.391420
Si Si4 0.562531 0.389364 0.084164
Si Si5 0.193851 0.619330 0.593698
Si Si6 0.918118 0.296208 0.233113
Si Si7 0.998896 0.884937 0.669511
O O1 0.130351 0.625749 0.075158
O O2 0.137375 0.819211 0.085077
O O3 0.250000 0.750000 0.000000
O O4 0.125268 0.731317 0.881598
O O5 0.641094 0.811335 0.283962
O O6 0.501494 0.845051 0.202077
O O7 0.595677 0.000000 0.237936
O O8 0.720305 0.662434 0.376283
O O9 0.654813 0.813226 0.496231
O O10 0.568651 0.667001 0.409292
O O11 0.583922 0.500000 0.032535
O O12 0.535115 0.400210 0.208717
O O13 0.500000 0.335637 0.000000
O O14 0.201019 0.500000 0.557747
O O15 0.136855 0.625066 0.700389
O O16 0.928287 0.193593 0.312208
O O17 0.022867 0.000000 0.624161
#
# Coordination Sequence:
#
# PCOD8084398 Si02
#       7
#     8   8   8   8   8   8   8
#     4  12  23  38  57  89 129 163 204 260 304 371
#     4  11  23  41  62  87 123 166 206 256 317 367
#     4  10  22  43  66  92 122 156 206 262 304 367
#     4  10  18  35  61  86 116 161 206 248 304 360
#     4  11  24  43  66  93 124 163 205 250 312 375
#     4  11  23  39  62  92 128 164 210 255 303 370
#     4  10  20  37  64  91 120 160 206 258 308 357
#
# _framework density 21.136595
#
# number of rings (size 3 to 8) (size 9 to 14) (size 15 to 20)
#    0.000    1.286    4.286    2.571    0.000    4.571 
#    0.000   10.000    0.000    0.000    0.000    0.000 
#    0.000    0.000    0.000    0.000    0.000    0.000 
#
# Total GULP energy -346969.842484 kJ/mol
# GULP energy per Si atom -12391.780089 kJ/mol
# Density = 2.108849 g / cm^3
# Si number density = 21.136595 Si / 1000 Ang^3
#
#
#
# Elastic Constant Matrix: (Units=GPa)
#
#
# Indices 1 2 3 4 5 6 
#
# 1 85.1047 29.0190 21.4974 0.0000 6.9897 0.0000
# 2 29.0190 139.3970 14.0201 0.0000 12.0210 0.0000
# 3 21.4974 14.0201 58.2850 0.0000 15.0270 0.0000
# 4 0.0000 0.0000 0.0000 25.9293 0.0000 4.3287
# 5 6.9897 12.0210 15.0270 0.0000 37.4620 0.0000
# 6 0.0000 0.0000 0.0000 4.3287 0.0000 18.7531
#
#
#
# Elastic Compliance Matrix: (Units=1/GPa)
#
#
# Indices 1 2 3 4 5 6 
#
# 1 0.013700 -0.002403 -0.004478 0.000000 0.000011 0.000000
# 2 -0.002403 0.007888 -0.000529 0.000000 -0.001871 0.000000
# 3 -0.004478 -0.000529 0.020831 0.000000 -0.007351 0.000000
# 4 0.000000 0.000000 0.000000 0.040112 0.000000 -0.009259
# 5 0.000011 -0.001871 -0.007351 0.000000 0.030241 0.000000
# 6 0.000000 0.000000 0.000000 -0.009259 0.000000 0.055462
#
#
# Mechanical properties :
#
#
# Convention : Reuss Voigt Hill
#
# Bulk Modulus (GPa) = 36.23142 45.76219 40.99680
# Shear Modulus (GPa) = 26.00751 30.97890 28.49320
#
# Velocity S-wave (km/s) = 3.51158 3.83254 3.67556
# Velocity P-wave (km/s) = 5.79831 6.42512 6.11974
#
# Compressibility (1/GPa) = 0.02760036
#
# Stress axis : x y z
#
# Youngs Moduli (GPa) = 72.99472 126.76787 48.00528
#
# Poissons Ratio (x) = 0.30456 0.21496
# Poissons Ratio (y) = 0.17537 0.02540
# Poissons Ratio (z) = 0.32686 0.06707
#
# Static dielectric constant tensor:
#      x y z
#    x 3.831750 0.000000 0.125000 
#    y 0.000000 3.335630 0.000000 
#    z 0.125000 0.000000 3.851810 
# 
# 
# High freq. dielectric constant tensor:
#      x y z
#    x 1.819290 0.000000 0.009150 
#    y 0.000000 1.837630 0.000000 
#    z 0.009150 0.000000 1.836530 
# 
# From -- ./inp_files/143741.got.cif
#   From: 2010.06.25/outbox.cif.g09.slc.cpg/sg12_72_cif.got.tgz:143741.got - 2010.06.28 00:19:55.
