data_PCOD8084026
_publ_section_title
;
Structure prediction by ZEFSAII (Michael W. Deem and Ramdas Pophale) SiO2 
 PCOD8084026
Probable space group: C 2/M
;
_chemical_formula_sum "Si O2"
_cell_formula_units_Z 60
_cell_length_a 23.142658
_cell_length_b 12.393359
_cell_length_c 12.374492
_cell_angle_alpha 90.000000
_cell_angle_beta 107.953118
_cell_angle_gamma 90.000000
_cell_volume 3376.379657
_symmetry_space_group_name_H-M "C 2/M"
_symmetry_group_IT_number 12
_symmetry_cell_setting 'monoclinic'
loop_
_space_group_symop_operation_xyz
x,y,z
-x,y,-z
-x,-y,-z
x,-y,z
1/2+x,1/2+y,z
1/2-x,1/2+y,-z
1/2-x,1/2-y,-z
1/2+x,1/2-y,z
loop_
_atom_site_type_symbol
_atom_site_label
_atom_site_fract_x
_atom_site_fract_y
_atom_site_fract_z
Si Si1 0.873247 0.626209 0.584918
Si Si2 0.609493 0.124561 0.773340
Si Si3 0.500000 0.225962 0.000000
Si Si4 0.456811 0.624380 0.795982
Si Si5 0.623979 0.124503 0.028482
Si Si6 0.507071 0.754036 0.381413
Si Si7 0.290623 0.125216 0.343262
Si Si8 0.335884 0.737831 0.764220
O O1 0.867465 0.500000 0.590038
O O2 0.942224 0.652962 0.592617
O O3 0.827913 0.670614 0.466956
O O4 0.854741 0.672948 0.688782
O O5 0.555773 0.199103 0.699100
O O6 0.670016 0.145759 0.740527
O O7 0.588401 0.000000 0.752967
O O8 0.627416 0.155980 0.905169
O O9 0.499395 0.302000 0.105166
O O10 0.556621 0.145800 0.034121
O O11 0.472885 0.500000 0.823808
O O12 0.469874 0.654381 0.678675
O O13 0.386767 0.643961 0.790168
O O14 0.668418 0.203196 0.121641
O O15 0.641706 0.000000 0.057708
O O16 0.500000 0.711959 0.500000
O O17 0.228917 0.190269 0.300150
O O18 0.274858 0.000000 0.348308
#
# Coordination Sequence:
#
# PCOD8084026 Si02
#       8
#     8   8   4   8   8   8   8   8
#     4  10  20  33  54  83 109 138 177 225 273 319
#     4  10  20  34  55  82 111 140 173 220 273 326
#     4  10  18  34  56  80 106 144 170 216 268 318
#     4  10  21  35  53  77 105 140 183 221 258 309
#     4  10  20  34  54  83 113 139 171 218 274 324
#     4  11  20  34  56  82 111 139 174 220 277 325
#     4  10  20  35  55  76 104 144 187 222 260 310
#     4  10  21  35  53  77 107 146 182 219 265 312
#
# _framework density 17.770513000000001
#
# number of rings (size 3 to 8) (size 9 to 14) (size 15 to 20)
#    0.000    1.867    2.667    2.000    0.000    1.333 
#    0.000    0.000    0.000    2.400    0.000    0.000 
#    0.000    0.000    0.000    0.000    0.000    0.000 
#
# Total GULP energy -372047.973437 kJ/mol
# GULP energy per Si atom -12401.599115 kJ/mol
# Density = 1.773007 g / cm^3
# Si number density = 17.770513 Si / 1000 Ang^3
#
#
#
# Elastic Constant Matrix: (Units=GPa)
#
#
# Indices 1 2 3 4 5 6 
#
# 1 58.8080 10.4399 18.2050 0.0000 3.9579 0.0000
# 2 10.4399 45.7358 20.3444 0.0000 -2.0868 0.0000
# 3 18.2050 20.3444 107.5053 0.0000 -8.7422 0.0000
# 4 0.0000 0.0000 0.0000 20.6165 0.0000 5.1904
# 5 3.9579 -2.0868 -8.7422 0.0000 22.2572 0.0000
# 6 0.0000 0.0000 0.0000 5.1904 0.0000 10.2828
#
#
#
# Elastic Compliance Matrix: (Units=1/GPa)
#
#
# Indices 1 2 3 4 5 6 
#
# 1 0.018816 -0.003192 -0.002974 0.000000 -0.004813 0.000000
# 2 -0.003192 0.024421 -0.003976 0.000000 0.001296 0.000000
# 3 -0.002974 -0.003976 0.010919 0.000000 0.004445 0.000000
# 4 0.000000 0.000000 0.000000 0.055566 0.000000 -0.028048
# 5 -0.004813 0.001296 0.004445 0.000000 0.047653 0.000000
# 6 0.000000 0.000000 0.000000 -0.028048 0.000000 0.111407
#
#
# Mechanical properties :
#
#
# Convention : Reuss Voigt Hill
#
# Bulk Modulus (GPa) = 29.52148 34.44754 31.98451
# Shear Modulus (GPa) = 16.64699 21.50195 19.07447
#
# Velocity S-wave (km/s) = 3.06400 3.48225 3.27980
# Velocity P-wave (km/s) = 5.40057 5.96614 5.69039
#
# Compressibility (1/GPa) = 0.03387364
#
# Stress axis : x y z
#
# Youngs Moduli (GPa) = 53.14742 40.94865 91.58164
#
# Poissons Ratio (x) = 0.13070 0.27233
# Poissons Ratio (y) = 0.16964 0.36409
# Poissons Ratio (z) = 0.15804 0.16279
#
# Static dielectric constant tensor:
#      x y z
#    x 3.166010 0.000000 -0.010740 
#    y 0.000000 3.080810 0.000000 
#    z -0.010740 0.000000 3.629640 
# 
# 
# High freq. dielectric constant tensor:
#      x y z
#    x 1.677710 0.000000 -0.001070 
#    y 0.000000 1.671080 0.000000 
#    z -0.001070 0.000000 1.707020 
# 
# From -- ./inp_files/174698.got.cif
#   From: 2010.06.25/outbox.cif.g09.slc.cpg/sg12_88_cif.got.tgz:174698.got - 2010.06.28 00:19:55.
