data_PCOD8084742
_publ_section_title
;
Structure prediction by ZEFSAII (Michael W. Deem and Ramdas Pophale) SiO2 
 PCOD8084742
Probable space group: C 2/M
;
_chemical_formula_sum "Si O2"
_cell_formula_units_Z 48
_cell_length_a 18.592980
_cell_length_b 15.113805
_cell_length_c 17.834913
_cell_angle_alpha 90.000000
_cell_angle_beta 32.356534
_cell_angle_gamma 90.000000
_cell_volume 2682.246255
_symmetry_space_group_name_H-M "C 2/M"
_symmetry_group_IT_number 12
_symmetry_cell_setting 'monoclinic'
loop_
_space_group_symop_operation_xyz
x,y,z
-x,y,-z
-x,-y,-z
x,-y,z
1/2+x,1/2+y,z
1/2-x,1/2+y,-z
1/2-x,1/2-y,-z
1/2+x,1/2-y,z
loop_
_atom_site_type_symbol
_atom_site_label
_atom_site_fract_x
_atom_site_fract_y
_atom_site_fract_z
Si Si1 0.040815 0.597261 0.344808
Si Si2 0.087189 0.897219 0.352273
Si Si3 0.169181 0.751866 0.686820
Si Si4 0.876000 0.601367 0.162737
Si Si5 0.547021 0.730238 0.641118
Si Si6 0.280659 0.097204 0.677394
O O1 0.054150 0.500000 0.294766
O O2 0.172091 0.617313 0.279529
O O3 0.026337 0.674203 0.296522
O O4 0.909846 0.598573 0.511201
O O5 0.241813 0.877768 0.234030
O O6 0.000000 0.863512 0.500000
O O7 0.047702 0.844221 0.312024
O O8 0.058273 0.000000 0.361945
O O9 0.111772 0.663101 0.775077
O O10 0.313985 0.728813 0.526059
O O11 0.071442 0.787818 0.707405
O O12 0.175096 0.828949 0.744062
O O13 0.875293 0.500000 0.191741
O O14 0.000000 0.621210 0.000000
O O15 0.212520 0.000000 0.733276
#
# Coordination Sequence:
#
# PCOD8084742 Si02
#       6
#     8   8   8   8   8   8
#     4   8  14  24  39  62  91 126 160 193 243 297
#     4  10  19  33  54  77 102 137 178 219 261 307
#     4  10  19  30  46  75 107 134 165 209 266 309
#     4  10  21  37  56  76 102 140 182 219 257 310
#     4  10  19  28  47  77 107 132 161 215 267 308
#     4   8  14  25  42  62  89 124 161 198 237 293
#
# _framework density 17.895447999999998
#
# number of rings (size 3 to 8) (size 9 to 14) (size 15 to 20)
#    0.000    2.667    1.667    2.000    2.333    1.333 
#    0.000    4.167    0.000    0.500    0.000    0.000 
#    0.000    0.000    0.000    0.000    0.000    0.000 
#
# Total GULP energy -297514.251950 kJ/mol
# GULP energy per Si atom -12396.427165 kJ/mol
# Density = 1.785472 g / cm^3
# Si number density = 17.895448 Si / 1000 Ang^3
#
#
#
# Elastic Constant Matrix: (Units=GPa)
#
#
# Indices 1 2 3 4 5 6 
#
# 1 106.4521 61.3215 36.8678 0.0000 -1.2202 0.0001
# 2 61.3215 110.4059 32.8460 -0.0002 4.2770 0.0002
# 3 36.8678 32.8460 51.6982 -0.0007 -7.1795 0.0004
# 4 0.0000 -0.0002 -0.0007 13.7429 0.0004 -1.0747
# 5 -1.2202 4.2770 -7.1795 0.0004 13.2018 -0.0003
# 6 0.0001 0.0002 0.0004 -1.0747 -0.0003 23.6875
#
#
#
# Elastic Compliance Matrix: (Units=1/GPa)
#
#
# Indices 1 2 3 4 5 6 
#
# 1 0.015596 -0.006580 -0.006972 0.000000 -0.000219 0.000000
# 2 -0.006580 0.014804 -0.005910 0.000000 -0.008619 0.000000
# 3 -0.006972 -0.005910 0.030554 0.000001 0.017887 0.000000
# 4 0.000000 0.000000 0.000001 0.073024 -0.000002 0.003313
# 5 -0.000219 -0.008619 0.017887 -0.000002 0.088247 0.000001
# 6 0.000000 0.000000 0.000000 0.003313 0.000001 0.042367
#
#
# Mechanical properties :
#
#
# Convention : Reuss Voigt Hill
#
# Bulk Modulus (GPa) = 45.39246 58.95853 52.17549
# Shear Modulus (GPa) = 16.08439 19.29450 17.68944
#
# Velocity S-wave (km/s) = 3.00125 3.28713 3.14743
# Velocity P-wave (km/s) = 6.11804 6.88655 6.51364
#
# Compressibility (1/GPa) = 0.02203009
#
# Stress axis : x y z
#
# Youngs Moduli (GPa) = 64.11732 67.54822 32.72865
#
# Poissons Ratio (x) = 0.44445 0.22819
# Poissons Ratio (y) = 0.42188 0.19344
# Poissons Ratio (z) = 0.44704 0.39923
#
# Static dielectric constant tensor:
#      x y z
#    x 3.407720 0.000000 -0.076570 
#    y 0.000000 3.647050 0.000000 
#    z -0.076570 0.000000 2.768670 
# 
# 
# High freq. dielectric constant tensor:
#      x y z
#    x 1.691420 0.000000 -0.006770 
#    y 0.000000 1.708380 0.000000 
#    z -0.006770 0.000000 1.625850 
# 
# From -- ./inp_files/283974.got.cif
#   From: 2010.06.25/outbox.cif.g09.slc.cpg/sg12_142_cif.got.tgz:283974.got - 2010.06.28 00:19:55.
