data_PCOD8084752
_publ_section_title
;
Structure prediction by ZEFSAII (Michael W. Deem and Ramdas Pophale) SiO2 
 PCOD8084752
Probable space group: C 2/M
;
_chemical_formula_sum "Si O2"
_cell_formula_units_Z 64
_cell_length_a 31.819886
_cell_length_b 9.004110
_cell_length_c 16.017059
_cell_angle_alpha 90.000000
_cell_angle_beta 54.860390
_cell_angle_gamma 90.000000
_cell_volume 3752.699636
_symmetry_space_group_name_H-M "C 2/M"
_symmetry_group_IT_number 12
_symmetry_cell_setting 'monoclinic'
loop_
_space_group_symop_operation_xyz
x,y,z
-x,y,-z
-x,-y,-z
x,-y,z
1/2+x,1/2+y,z
1/2-x,1/2+y,-z
1/2-x,1/2-y,-z
1/2+x,1/2-y,z
loop_
_atom_site_type_symbol
_atom_site_label
_atom_site_fract_x
_atom_site_fract_y
_atom_site_fract_z
Si Si1 0.882617 0.675700 0.081293
Si Si2 0.939703 0.669419 0.176891
Si Si3 0.540720 0.823515 0.144963
Si Si4 0.026125 0.676626 0.345575
Si Si5 0.834444 0.670889 0.378371
Si Si6 0.321290 0.174864 0.578545
Si Si7 0.707707 0.325933 0.733840
Si Si8 0.422603 0.823255 0.547879
O O1 0.875190 0.500000 0.100296
O O2 0.919796 0.739113 0.112259
O O3 0.826697 0.749963 0.154844
O O4 0.907193 0.718976 0.964031
O O5 0.953420 0.500000 0.141629
O O6 0.895806 0.684076 0.297056
O O7 0.991565 0.746288 0.152322
O O8 0.542978 0.757753 0.236251
O O9 0.534164 0.000000 0.156961
O O10 0.027554 0.500000 0.341902
O O11 0.065507 0.734814 0.371768
O O12 0.968266 0.729239 0.433847
O O13 0.816829 0.500000 0.388205
O O14 0.821115 0.737885 0.484307
O O15 0.805022 0.767176 0.343590
O O16 0.267335 0.211980 0.685089
O O17 0.368284 0.244236 0.578441
O O18 0.330091 0.000000 0.560670
O O19 0.697370 0.500000 0.747318
O O20 0.420332 0.000000 0.551700
#
# Coordination Sequence:
#
# PCOD8084752 Si02
#       8
#     8   8   8   8   8   8   8   8
#     4   9  17  28  41  57  80 111 142 171 200 231
#     4   8  13  21  36  58  80 101 128 163 200 239
#     4   9  14  21  37  60  81 103 136 170 200 239
#     4   8  13  20  34  58  86 109 125 156 207 251
#     4   9  16  27  43  62  83 107 134 164 200 240
#     4   9  16  25  39  57  78 108 140 164 193 242
#     4  10  19  29  40  56  81 112 142 170 199 231
#     4   8  13  22  35  56  86 110 127 154 202 256
#
# _framework density 17.054386999999998
#
# number of rings (size 3 to 8) (size 9 to 14) (size 15 to 20)
#    0.000    3.250    0.000    3.375    0.000    4.500 
#    0.000    0.625    0.000    6.750    0.000    0.000 
#    0.000    2.000    0.000   22.000    0.000   17.625 
#
# Total GULP energy -396540.557774 kJ/mol
# GULP energy per Si atom -12391.892430 kJ/mol
# Density = 1.701557 g / cm^3
# Si number density = 17.054387 Si / 1000 Ang^3
#
#
#
# Elastic Constant Matrix: (Units=GPa)
#
#
# Indices 1 2 3 4 5 6 
#
# 1 116.4277 20.6250 73.2748 0.0000 -10.8500 0.0000
# 2 20.6250 22.1451 21.3771 0.0001 -5.0257 0.0000
# 3 73.2748 21.3771 145.6874 0.0000 -0.1566 -0.0001
# 4 0.0000 0.0001 0.0000 14.2634 0.0000 -4.8585
# 5 -10.8500 -5.0257 -0.1566 0.0000 21.5592 0.0000
# 6 0.0000 0.0000 -0.0001 -4.8585 0.0000 11.1014
#
#
#
# Elastic Compliance Matrix: (Units=1/GPa)
#
#
# Indices 1 2 3 4 5 6 
#
# 1 0.014056 -0.005807 -0.006211 0.000000 0.005675 0.000000
# 2 -0.005807 0.058429 -0.005641 -0.000001 0.010657 0.000000
# 3 -0.006211 -0.005641 0.010811 0.000000 -0.004362 0.000000
# 4 0.000000 -0.000001 0.000000 0.082392 0.000000 0.036059
# 5 0.005675 0.010657 -0.004362 0.000000 0.051693 0.000000
# 6 0.000000 0.000000 0.000000 0.036059 0.000000 0.105860
#
#
# Mechanical properties :
#
#
# Convention : Reuss Voigt Hill
#
# Bulk Modulus (GPa) = 20.84341 57.20157 39.02249
# Shear Modulus (GPa) = 13.34924 20.65034 16.99979
#
# Velocity S-wave (km/s) = 2.80079 3.48350 3.16064
# Velocity P-wave (km/s) = 4.76524 7.05643 6.02083
#
# Compressibility (1/GPa) = 0.04797680
#
# Stress axis : x y z
#
# Youngs Moduli (GPa) = 71.14554 17.11468 92.49767
#
# Poissons Ratio (x) = 0.09939 0.57453
# Poissons Ratio (y) = 0.41315 0.52181
# Poissons Ratio (z) = 0.44190 0.09655
#
# Static dielectric constant tensor:
#      x y z
#    x 3.364290 0.000000 0.017030 
#    y 0.000000 2.585320 0.000000 
#    z 0.017030 0.000000 3.348950 
# 
# 
# High freq. dielectric constant tensor:
#      x y z
#    x 1.647290 0.000000 -0.008140 
#    y 0.000000 1.589440 0.000000 
#    z -0.008140 0.000000 1.659570 
# 
# From -- ./inp_files/249087.got.cif
#   From: 2010.06.25/outbox.cif.g09.slc.cpg/sg12_125_cif.got.tgz:249087.got - 2010.06.28 00:19:55.
