data_PCOD8084668
_publ_section_title
;
Structure prediction by ZEFSAII (Michael W. Deem and Ramdas Pophale) SiO2 
 PCOD8084668
Probable space group: C 2/M
;
_chemical_formula_sum "Si O2"
_cell_formula_units_Z 64
_cell_length_a 27.800358
_cell_length_b 9.562435
_cell_length_c 16.056487
_cell_angle_alpha 90.000000
_cell_angle_beta 87.322606
_cell_angle_gamma 90.000000
_cell_volume 4263.782812
_symmetry_space_group_name_H-M "C 2/M"
_symmetry_group_IT_number 12
_symmetry_cell_setting 'monoclinic'
loop_
_space_group_symop_operation_xyz
x,y,z
-x,y,-z
-x,-y,-z
x,-y,z
1/2+x,1/2+y,z
1/2-x,1/2+y,-z
1/2-x,1/2-y,-z
1/2+x,1/2-y,z
loop_
_atom_site_type_symbol
_atom_site_label
_atom_site_fract_x
_atom_site_fract_y
_atom_site_fract_z
Si Si1 0.965700 0.839280 0.581101
Si Si2 0.962791 0.157609 0.884047
Si Si3 0.571197 0.343584 0.938831
Si Si4 0.336076 0.836694 0.359870
Si Si5 0.490916 0.838455 0.737160
Si Si6 0.136258 0.162169 0.480229
Si Si7 0.263013 0.342338 0.575569
Si Si8 0.401566 0.159543 0.206220
O O1 0.984805 0.737678 0.650360
O O2 0.912111 0.789797 0.561408
O O3 0.000000 0.819942 0.500000
O O4 0.966273 0.000000 0.612323
O O5 0.956226 0.265051 0.808327
O O6 0.017251 0.160801 0.910089
O O7 0.949470 0.000000 0.856165
O O8 0.928606 0.204106 0.964098
O O9 0.591969 0.500000 0.929953
O O10 0.604154 0.243577 0.879690
O O11 0.355683 0.752402 0.437568
O O12 0.277922 0.813279 0.350718
O O13 0.362454 0.781795 0.274901
O O14 0.348573 0.000000 0.373081
O O15 0.546209 0.821747 0.757862
O O16 0.475734 0.000000 0.730969
O O17 0.180323 0.184748 0.409286
O O18 0.132105 0.000000 0.507743
O O19 0.256933 0.500000 0.545082
O O20 0.250000 0.250000 0.500000
O O21 0.390927 0.000000 0.184388
#
# Coordination Sequence:
#
# PCOD8084668 Si02
#       8
#     8   8   8   8   8   8   8   8
#     4  10  20  31  41  54  75 104 135 165 196 225
#     4   8  14  26  41  55  74 100 130 160 188 221
#     4   8  14  24  39  57  75 100 130 156 185 222
#     4   9  16  26  40  57  78 103 126 152 193 236
#     4  10  19  28  39  56  77 103 134 163 189 220
#     4   9  17  28  41  56  73  97 132 168 195 222
#     4   8  14  25  40  56  73  94 123 158 193 230
#     4   9  17  26  36  55  82 106 127 153 187 228
#
# _framework density 15.010145
#
# number of rings (size 3 to 8) (size 9 to 14) (size 15 to 20)
#    0.000    3.125    0.000    1.875    0.000    2.250 
#    0.000    2.500    0.000    0.000    0.000    0.000 
#    0.000    1.000    0.000    2.000    0.000    2.625 
#
# Total GULP energy -396445.024656 kJ/mol
# GULP energy per Si atom -12388.907020 kJ/mol
# Density = 1.497598 g / cm^3
# Si number density = 15.010145 Si / 1000 Ang^3
#
#
#
# Elastic Constant Matrix: (Units=GPa)
#
#
# Indices 1 2 3 4 5 6 
#
# 1 52.9993 22.4165 26.2786 0.0000 -15.0593 0.0000
# 2 22.4165 69.7989 52.6498 0.0000 -9.8381 0.0000
# 3 26.2786 52.6498 95.2446 0.0000 -22.1071 0.0000
# 4 0.0000 0.0000 0.0000 27.9581 0.0000 -1.1548
# 5 -15.0593 -9.8381 -22.1071 0.0000 19.2389 0.0000
# 6 0.0000 0.0000 0.0000 -1.1548 0.0000 12.8198
#
#
#
# Elastic Compliance Matrix: (Units=1/GPa)
#
#
# Indices 1 2 3 4 5 6 
#
# 1 0.026410 -0.006163 0.000255 0.000000 0.017814 0.000000
# 2 -0.006163 0.026257 -0.014752 0.000000 -0.008348 0.000000
# 3 0.000255 -0.014752 0.023018 0.000000 0.019106 0.000000
# 4 0.000000 0.000000 0.000000 0.035901 0.000000 0.003234
# 5 0.017814 -0.008348 0.019106 0.000000 0.083607 0.000000
# 6 0.000000 0.000000 0.000000 0.003234 0.000000 0.078295
#
#
# Mechanical properties :
#
#
# Convention : Reuss Voigt Hill
#
# Bulk Modulus (GPa) = 29.09916 46.74807 37.92361
# Shear Modulus (GPa) = 15.32500 19.78323 17.55412
#
# Velocity S-wave (km/s) = 3.19874 3.63435 3.42348
# Velocity P-wave (km/s) = 5.75074 6.98737 6.39899
#
# Compressibility (1/GPa) = 0.03436525
#
# Stress axis : x y z
#
# Youngs Moduli (GPa) = 37.86401 38.08521 43.44412
#
# Poissons Ratio (x) = 0.23474 -0.01108
# Poissons Ratio (y) = 0.23337 0.64087
# Poissons Ratio (z) = -0.00966 0.56182
#
# Static dielectric constant tensor:
#      x y z
#    x 2.521810 0.000000 -2.215350 
#    y 0.000000 3.009330 0.000000 
#    z -2.215350 0.000000 -3.740410 
# 
# 
# High freq. dielectric constant tensor:
#      x y z
#    x 1.542180 0.000000 -0.028840 
#    y 0.000000 1.581220 0.000000 
#    z -0.028840 0.000000 1.559350 
# 
# From -- ./inp_files/248313.got.cif
#   From: 2010.06.25/outbox.cif.g09.slc.cpg/sg12_125_cif.got.tgz:248313.got - 2010.06.28 00:19:55.
