data_PCOD8084117
_publ_section_title
;
Structure prediction by ZEFSAII (Michael W. Deem and Ramdas Pophale) SiO2 
 PCOD8084117
Probable space group: C 2/M
;
_chemical_formula_sum "Si O2"
_cell_formula_units_Z 64
_cell_length_a 14.657204
_cell_length_b 26.090215
_cell_length_c 8.923465
_cell_angle_alpha 90.000000
_cell_angle_beta 90.450034
_cell_angle_gamma 90.000000
_cell_volume 3412.313451
_symmetry_space_group_name_H-M "C 2/M"
_symmetry_group_IT_number 12
_symmetry_cell_setting 'monoclinic'
loop_
_space_group_symop_operation_xyz
x,y,z
-x,y,-z
-x,-y,-z
x,-y,z
1/2+x,1/2+y,z
1/2-x,1/2+y,-z
1/2-x,1/2-y,-z
1/2+x,1/2-y,z
loop_
_atom_site_type_symbol
_atom_site_label
_atom_site_fract_x
_atom_site_fract_y
_atom_site_fract_z
Si Si1 0.119419 0.733531 0.937952
Si Si2 0.490482 0.943580 0.178623
Si Si3 0.708374 0.232780 0.233345
Si Si4 0.805103 0.136706 0.332007
Si Si5 0.670326 0.877979 0.861733
Si Si6 0.668318 0.338437 0.335480
Si Si7 0.689835 0.060765 0.165723
Si Si8 0.981684 0.826540 0.162361
O O1 0.206334 0.762234 0.874698
O O2 0.116944 0.674339 0.895084
O O3 0.034161 0.765150 0.867473
O O4 0.121207 0.735918 0.120613
O O5 0.406719 0.908574 0.233742
O O6 0.590681 0.927989 0.240195
O O7 0.464877 0.000000 0.234422
O O8 0.500000 0.941511 0.000000
O O9 0.722859 0.178500 0.315634
O O10 0.701219 0.279198 0.352569
O O11 0.834868 0.134282 0.504759
O O12 0.765587 0.081631 0.281827
O O13 0.893059 0.148223 0.233749
O O14 0.762097 0.869356 0.769277
O O15 0.700493 0.908453 0.010243
O O16 0.566919 0.338395 0.268812
O O17 0.703262 0.000000 0.136831
O O18 0.000000 0.852307 0.000000
#
# Coordination Sequence:
#
# PCOD8084117 Si02
#       8
#     8   8   8   8   8   8   8   8
#     4   9  17  29  52  82 108 141 191 234 261 319
#     4   8  16  31  54  85 111 134 178 237 285 327
#     4   9  17  33  51  77 111 148 185 228 273 325
#     4  11  22  37  56  81 119 156 190 232 289 344
#     4  10  18  34  58  85 113 151 191 233 283 334
#     4  11  22  35  54  84 120 156 189 228 281 348
#     4  10  20  37  61  85 110 145 192 245 293 336
#     4  11  21  35  56  82 113 151 195 234 274 333
#
# _framework density 18.755604000000002
#
# number of rings (size 3 to 8) (size 9 to 14) (size 15 to 20)
#    0.000    2.125    2.500    2.625    0.000    2.500 
#    0.000    1.875    0.000    7.125    0.000    0.000 
#    0.000    0.000    0.000    0.000    0.000    0.000 
#
# Total GULP energy -396478.238924 kJ/mol
# GULP energy per Si atom -12389.944966 kJ/mol
# Density = 1.871292 g / cm^3
# Si number density = 18.755604 Si / 1000 Ang^3
#
#
#
# Elastic Constant Matrix: (Units=GPa)
#
#
# Indices 1 2 3 4 5 6 
#
# 1 121.5884 57.2364 46.6082 0.0000 16.4930 0.0000
# 2 57.2364 101.4908 40.5126 0.0000 10.3726 0.0000
# 3 46.6082 40.5126 94.6066 0.0000 14.7665 0.0000
# 4 0.0000 0.0000 0.0000 17.5452 0.0000 5.6925
# 5 16.4930 10.3726 14.7665 0.0000 22.8620 0.0000
# 6 0.0000 0.0000 0.0000 5.6925 0.0000 30.5814
#
#
#
# Elastic Compliance Matrix: (Units=1/GPa)
#
#
# Indices 1 2 3 4 5 6 
#
# 1 0.012594 -0.005358 -0.003193 0.000000 -0.004592 0.000000
# 2 -0.005358 0.014278 -0.003410 0.000000 -0.000410 0.000000
# 3 -0.003193 -0.003410 0.014460 0.000000 -0.005489 0.000000
# 4 0.000000 0.000000 0.000000 0.060659 0.000000 -0.011291
# 5 -0.004592 -0.000410 -0.005489 0.000000 0.050784 0.000000
# 6 0.000000 0.000000 0.000000 -0.011291 0.000000 0.034801
#
#
# Mechanical properties :
#
#
# Convention : Reuss Voigt Hill
#
# Bulk Modulus (GPa) = 57.44348 67.37782 62.41065
# Shear Modulus (GPa) = 23.00926 25.75297 24.38111
#
# Velocity S-wave (km/s) = 3.50636 3.70953 3.60938
# Velocity P-wave (km/s) = 6.86197 7.37222 7.12166
#
# Compressibility (1/GPa) = 0.01740842
#
# Stress axis : x y z
#
# Youngs Moduli (GPa) = 79.40450 70.03640 69.15465
#
# Poissons Ratio (x) = 0.37529 0.22081
# Poissons Ratio (y) = 0.42549 0.23585
# Poissons Ratio (z) = 0.25354 0.23886
#
# Static dielectric constant tensor:
#      x y z
#    x 3.668270 0.000000 0.145900 
#    y 0.000000 3.408710 0.000000 
#    z 0.145900 0.000000 3.236660 
# 
# 
# High freq. dielectric constant tensor:
#      x y z
#    x 1.738240 0.000000 0.009000 
#    y 0.000000 1.711430 0.000000 
#    z 0.009000 0.000000 1.700850 
# 
# From -- ./inp_files/66976.got.cif
#   From: 2010.06.25/outbox.cif.g09.slc.cpg/sg12_34_cif.got.tgz:66976.got - 2010.06.28 00:19:55.
