data_PCOD8084989
_publ_section_title
;
Structure prediction by ZEFSAII (Michael W. Deem and Ramdas Pophale) SiO2 
 PCOD8084989
Probable space group: C 2/M
;
_chemical_formula_sum "Si O2"
_cell_formula_units_Z 64
_cell_length_a 10.079367
_cell_length_b 19.418004
_cell_length_c 19.984423
_cell_angle_alpha 90.000000
_cell_angle_beta 75.393418
_cell_angle_gamma 90.000000
_cell_volume 3784.960194
_symmetry_space_group_name_H-M "C 2/M"
_symmetry_group_IT_number 12
_symmetry_cell_setting 'monoclinic'
loop_
_space_group_symop_operation_xyz
x,y,z
-x,y,-z
-x,-y,-z
x,-y,z
1/2+x,1/2+y,z
1/2-x,1/2+y,-z
1/2-x,1/2-y,-z
1/2+x,1/2-y,z
loop_
_atom_site_type_symbol
_atom_site_label
_atom_site_fract_x
_atom_site_fract_y
_atom_site_fract_z
Si Si1 0.881291 0.923594 0.423169
Si Si2 0.408324 0.168377 0.158360
Si Si3 0.562731 0.316714 0.692102
Si Si4 0.783911 0.831734 0.932178
Si Si5 0.304460 0.423594 0.576831
Si Si6 0.754833 0.683286 0.307898
Si Si7 0.794075 0.332304 0.911850
Si Si8 0.933316 0.168377 0.158360
O O1 0.859601 0.868366 0.367672
O O2 0.793528 0.901898 0.500000
O O3 0.039034 0.925911 0.421932
O O4 0.835457 0.000000 0.404936
O O5 0.327274 0.138871 0.105135
O O6 0.327769 0.146208 0.235584
O O7 0.560970 0.138505 0.132431
O O8 0.422011 0.250000 0.155978
O O9 0.405072 0.299248 0.689856
O O10 0.659021 0.250000 0.681958
O O11 0.563353 0.353792 0.764416
O O12 0.788814 0.749604 0.922372
O O13 0.932409 0.861129 0.894865
O O14 0.744986 0.860737 0.010027
O O15 0.240393 0.500000 0.595064
O O16 0.227273 0.368366 0.632328
O O17 0.693401 0.361495 0.867569
#
# Coordination Sequence:
#
# PCOD8084989 Si02
#       8
#     8   8   8   8   8   8   8   8
#     4   8  15  30  51  72  93 118 153 195 230 264
#     4   9  16  24  35  55  84 118 149 186 224 268
#     4  10  19  29  45  69  97 126 152 186 232 277
#     4   9  14  24  34  52  80 115 152 186 225 267
#     4   8  15  30  51  72  93 118 153 195 230 264
#     4  10  19  29  45  69  97 126 152 186 232 277
#     4   9  16  22  36  52  78 117 158 182 223 267
#     4   9  16  24  35  55  84 118 149 186 224 268
#
# _framework density 16.909029
#
# number of rings (size 3 to 8) (size 9 to 14) (size 15 to 20)
#    0.000    3.000    1.250    1.500    5.250    3.500 
#    0.000    0.000    0.000    0.750    0.000    1.750 
#    0.000    6.000    0.000    0.000    0.000    0.000 
#
# Total GULP energy -396459.469611 kJ/mol
# GULP energy per Si atom -12389.358425 kJ/mol
# Density = 1.687054 g / cm^3
# Si number density = 16.909029 Si / 1000 Ang^3
#
#
#
# Elastic Constant Matrix: (Units=GPa)
#
#
# Indices 1 2 3 4 5 6 
#
# 1 112.4850 26.2831 64.5915 0.0000 0.1119 0.0000
# 2 26.2831 41.0972 53.5753 0.0000 -0.6141 0.0000
# 3 64.5915 53.5753 162.4537 0.0000 -1.2362 0.0000
# 4 0.0000 0.0000 0.0000 1.6394 0.0000 0.1463
# 5 0.1119 -0.6141 -1.2362 0.0000 21.4902 0.0000
# 6 0.0000 0.0000 0.0000 0.1463 0.0000 8.1437
#
#
#
# Elastic Compliance Matrix: (Units=1/GPa)
#
#
# Indices 1 2 3 4 5 6 
#
# 1 0.011665 -0.002483 -0.003822 0.000000 -0.000352 0.000000
# 2 -0.002483 0.043215 -0.013261 0.000000 0.000485 0.000000
# 3 -0.003822 -0.013261 0.012051 0.000000 0.000334 0.000000
# 4 0.000000 0.000000 0.000000 0.610948 0.000000 -0.010979
# 5 -0.000352 0.000485 0.000334 0.000000 0.046568 0.000000
# 6 0.000000 0.000000 0.000000 -0.010979 0.000000 0.122992
#
#
# Mechanical properties :
#
#
# Convention : Reuss Voigt Hill
#
# Bulk Modulus (GPa) = 35.97204 67.21507 51.59356
# Shear Modulus (GPa) = 5.58137 17.69373 11.63755
#
# Velocity S-wave (km/s) = 1.81879 3.23833 2.62629
# Velocity P-wave (km/s) = 5.07254 7.33619 6.30676
#
# Compressibility (1/GPa) = 0.02779937
#
# Stress axis : x y z
#
# Youngs Moduli (GPa) = 85.72478 23.14009 82.98139
#
# Poissons Ratio (x) = 0.05747 0.31713
# Poissons Ratio (y) = 0.21289 1.10039
# Poissons Ratio (z) = 0.32762 0.30685
#
# Static dielectric constant tensor:
#      x y z
#    x 3.219290 0.000000 -0.008050 
#    y 0.000000 2.703680 0.000000 
#    z -0.008050 0.000000 3.576910 
# 
# 
# High freq. dielectric constant tensor:
#      x y z
#    x 1.643360 0.000000 -0.000640 
#    y 0.000000 1.581900 0.000000 
#    z -0.000640 0.000000 1.671890 
# 
# From -- ./inp_files/301413.got.cif
#   From: 2010.06.25/outbox.cif.g09.slc.cpg/sg12_151_cif.got.tgz:301413.got - 2010.06.28 00:19:55.
