data_PCOD8084517
_publ_section_title
;
Structure prediction by ZEFSAII (Michael W. Deem and Ramdas Pophale) SiO2 
 PCOD8084517
Probable space group: C 2/M
;
_chemical_formula_sum "Si O2"
_cell_formula_units_Z 48
_cell_length_a 22.362442
_cell_length_b 18.576559
_cell_length_c 8.982706
_cell_angle_alpha 90.000000
_cell_angle_beta 141.606214
_cell_angle_gamma 90.000000
_cell_volume 2317.539729
_symmetry_space_group_name_H-M "C 2/M"
_symmetry_group_IT_number 12
_symmetry_cell_setting 'monoclinic'
loop_
_space_group_symop_operation_xyz
x,y,z
-x,y,-z
-x,-y,-z
x,-y,z
1/2+x,1/2+y,z
1/2-x,1/2+y,-z
1/2-x,1/2-y,-z
1/2+x,1/2-y,z
loop_
_atom_site_type_symbol
_atom_site_label
_atom_site_fract_x
_atom_site_fract_y
_atom_site_fract_z
Si Si1 0.689578 0.419613 0.092998
Si Si2 0.567512 0.142694 0.935246
Si Si3 0.844383 0.238087 0.393113
Si Si4 0.308301 0.153731 0.076205
Si Si5 0.027585 0.190195 0.884286
Si Si6 0.856232 0.369746 0.605768
O O1 0.647189 0.500000 0.996309
O O2 0.736437 0.397584 0.026291
O O3 0.773469 0.421104 0.380680
O O4 0.605195 0.365574 0.972988
O O5 0.610469 0.113134 0.862829
O O6 0.566398 0.229224 0.944885
O O7 0.459963 0.111290 0.735928
O O8 0.635913 0.116612 0.203249
O O9 0.865127 0.292065 0.295774
O O10 0.828602 0.286721 0.510773
O O11 0.932825 0.183689 0.594549
O O12 0.749089 0.194951 0.166601
O O13 0.000000 0.170873 0.000000
#
# Coordination Sequence:
#
# PCOD8084517 Si02
#       6
#     8   8   8   8   8   8
#     4  11  26  43  55  81 125 176 211 233 284 364
#     4  10  18  36  63 102 117 139 192 264 332 351
#     4   9  18  35  56  95 116 152 188 250 315 349
#     4  10  21  35  61  87 125 155 196 247 301 364
#     4  11  21  36  64  94 124 152 195 257 305 362
#     4   9  19  36  61  92 123 147 193 260 306 369
#
# _framework density 20.711618999999999
#
# number of rings (size 3 to 8) (size 9 to 14) (size 15 to 20)
#    0.000    2.000    3.333    3.000    2.333   11.000 
#    0.000    5.833    0.000    0.000    0.000    0.000 
#    0.000    0.000    0.000    0.000    0.000    0.000 
#
# Total GULP energy -297441.883434 kJ/mol
# GULP energy per Si atom -12393.411810 kJ/mol
# Density = 2.066448 g / cm^3
# Si number density = 20.711619 Si / 1000 Ang^3
#
#
#
# Elastic Constant Matrix: (Units=GPa)
#
#
# Indices 1 2 3 4 5 6 
#
# 1 131.3319 30.4245 19.1642 0.0000 -5.1588 0.0000
# 2 30.4245 50.3615 11.8519 0.0000 7.5618 0.0000
# 3 19.1642 11.8519 107.7360 0.0000 -1.8141 0.0000
# 4 0.0000 0.0000 0.0000 10.7384 0.0000 1.9875
# 5 -5.1588 7.5618 -1.8141 0.0000 14.2078 0.0000
# 6 0.0000 0.0000 0.0000 1.9875 0.0000 10.8552
#
#
#
# Elastic Compliance Matrix: (Units=1/GPa)
#
#
# Indices 1 2 3 4 5 6 
#
# 1 0.009535 -0.006589 -0.000856 0.000000 0.006860 0.000000
# 2 -0.006589 0.026870 -0.002069 0.000000 -0.016958 0.000000
# 3 -0.000856 -0.002069 0.009696 0.000000 0.002029 0.000000
# 4 0.000000 0.000000 0.000000 0.096390 0.000000 -0.017649
# 5 0.006860 -0.016958 0.002029 0.000000 0.082159 0.000000
# 6 0.000000 0.000000 0.000000 -0.017649 0.000000 0.095353
#
#
# Mechanical properties :
#
#
# Convention : Reuss Voigt Hill
#
# Bulk Modulus (GPa) = 36.93724 45.81230 41.37477
# Shear Modulus (GPa) = 14.36552 22.35955 18.36253
#
# Velocity S-wave (km/s) = 2.63648 3.28924 2.98078
# Velocity P-wave (km/s) = 5.20969 6.04918 5.64506
#
# Compressibility (1/GPa) = 0.02707295
#
# Stress axis : x y z
#
# Youngs Moduli (GPa) = 104.87653 37.21593 103.13540
#
# Poissons Ratio (x) = 0.24521 0.08826
# Poissons Ratio (y) = 0.69102 0.21343
# Poissons Ratio (z) = 0.08975 0.07702
#
# Static dielectric constant tensor:
#      x y z
#    x 3.706180 0.000000 -0.057190 
#    y 0.000000 3.186840 0.000000 
#    z -0.057190 0.000000 4.145270 
# 
# 
# High freq. dielectric constant tensor:
#      x y z
#    x 1.809940 0.000000 -0.002780 
#    y 0.000000 1.749710 0.000000 
#    z -0.002780 0.000000 1.829130 
# 
# From -- ./inp_files/98949.got.cif
#   From: 2010.06.25/outbox.cif.g09.slc.cpg/sg12_50_cif.got.tgz:98949.got - 2010.06.28 00:19:55.
