data_PCOD8084416
_publ_section_title
;
Structure prediction by ZEFSAII (Michael W. Deem and Ramdas Pophale) SiO2 
 PCOD8084416
Probable space group: C 2/M
;
_chemical_formula_sum "Si O2"
_cell_formula_units_Z 48
_cell_length_a 17.599993
_cell_length_b 28.259278
_cell_length_c 8.049820
_cell_angle_alpha 90.000000
_cell_angle_beta 35.430884
_cell_angle_gamma 90.000000
_cell_volume 2321.017194
_symmetry_space_group_name_H-M "C 2/M"
_symmetry_group_IT_number 12
_symmetry_cell_setting 'monoclinic'
loop_
_space_group_symop_operation_xyz
x,y,z
-x,y,-z
-x,-y,-z
x,-y,z
1/2+x,1/2+y,z
1/2-x,1/2+y,-z
1/2-x,1/2-y,-z
1/2+x,1/2-y,z
loop_
_atom_site_type_symbol
_atom_site_label
_atom_site_fract_x
_atom_site_fract_y
_atom_site_fract_z
Si Si1 0.630725 0.946482 0.161391
Si Si2 0.117176 0.799544 0.189837
Si Si3 0.790857 0.646934 0.144427
Si Si4 0.471467 0.629970 0.227473
Si Si5 0.089044 0.053388 0.190823
Si Si6 0.636830 0.760323 0.835074
O O1 0.500000 0.944061 0.500000
O O2 0.639601 0.000000 0.062520
O O3 0.627088 0.900683 0.046405
O O4 0.757099 0.938953 0.052296
O O5 0.234389 0.822118 0.090108
O O6 0.000000 0.772006 0.500000
O O7 0.041587 0.843225 0.249287
O O8 0.174015 0.766561 0.941498
O O9 0.681668 0.627845 0.464930
O O10 0.877297 0.683947 0.096745
O O11 0.541407 0.578704 0.106960
O O12 0.500000 0.654184 0.000000
O O13 0.000000 0.073964 0.500000
O O14 0.051296 0.000000 0.228814
O O15 0.750000 0.750000 0.500000
O O16 0.500000 0.742749 0.000000
#
# Coordination Sequence:
#
# PCOD8084416 Si02
#       6
#     8   8   8   8   8   8
#     4  10  21  38  62  93 127 160 206 264 312 358
#     4  10  20  39  64  91 120 161 211 260 308 377
#     4  11  22  39  64  93 121 165 218 252 308 385
#     4  11  20  35  59  90 124 158 195 262 323 363
#     4  10  18  35  62  88 117 158 210 258 303 370
#     4  12  26  44  63  93 131 166 204 266 330 380
#
# _framework density 20.680586999999999
#
# number of rings (size 3 to 8) (size 9 to 14) (size 15 to 20)
#    0.000    1.333    3.333    4.500    0.000    2.333 
#    3.000    0.000    0.000    0.500    0.000    0.000 
#    0.000    0.000    0.000    0.000    0.000    0.000 
#
# Total GULP energy -297324.730565 kJ/mol
# GULP energy per Si atom -12388.530440 kJ/mol
# Density = 2.063352 g / cm^3
# Si number density = 20.680587 Si / 1000 Ang^3
#
#
#
# Elastic Constant Matrix: (Units=GPa)
#
#
# Indices 1 2 3 4 5 6 
#
# 1 58.1011 23.7593 37.1947 0.0000 8.5343 0.0000
# 2 23.7593 127.6721 43.4155 0.0000 10.2725 0.0000
# 3 37.1947 43.4155 135.7799 0.0000 5.7293 0.0000
# 4 0.0000 0.0000 0.0000 36.7390 0.0000 -2.2253
# 5 8.5343 10.2725 5.7293 0.0000 31.1661 0.0000
# 6 0.0000 0.0000 0.0000 -2.2253 0.0000 12.2586
#
#
#
# Elastic Compliance Matrix: (Units=1/GPa)
#
#
# Indices 1 2 3 4 5 6 
#
# 1 0.022001 -0.001967 -0.005212 0.000000 -0.004418 0.000000
# 2 -0.001967 0.009146 -0.002299 0.000000 -0.002053 0.000000
# 3 -0.005212 -0.002299 0.009509 0.000000 0.000437 0.000000
# 4 0.000000 0.000000 0.000000 0.027522 0.000000 0.004996
# 5 -0.004418 -0.002053 0.000437 0.000000 0.033893 0.000000
# 6 0.000000 0.000000 0.000000 0.004996 0.000000 0.082482
#
#
# Mechanical properties :
#
#
# Convention : Reuss Voigt Hill
#
# Bulk Modulus (GPa) = 46.07993 58.92135 52.50064
# Shear Modulus (GPa) = 23.72596 30.51164 27.11880
#
# Velocity S-wave (km/s) = 3.39079 3.84523 3.62514
# Velocity P-wave (km/s) = 6.13678 6.94747 6.55467
#
# Compressibility (1/GPa) = 0.02170142
#
# Stress axis : x y z
#
# Youngs Moduli (GPa) = 45.45281 109.34332 105.16221
#
# Poissons Ratio (x) = 0.21503 0.54806
# Poissons Ratio (y) = 0.08939 0.24176
# Poissons Ratio (z) = 0.23688 0.25137
#
# Static dielectric constant tensor:
#      x y z
#    x 3.638580 0.000000 0.040050 
#    y 0.000000 4.083100 0.000000 
#    z 0.040050 0.000000 3.893650 
# 
# 
# High freq. dielectric constant tensor:
#      x y z
#    x 1.783420 0.000000 -0.001360 
#    y 0.000000 1.828940 0.000000 
#    z -0.001360 0.000000 1.805350 
# 
# From -- ./inp_files/80603.got.cif
#   From: 2010.06.25/outbox.cif.g09.slc.cpg/sg12_41_cif.got.tgz:80603.got - 2010.06.28 00:19:55.
