data_PCOD8084572
_publ_section_title
;
Structure prediction by ZEFSAII (Michael W. Deem and Ramdas Pophale) SiO2 
 PCOD8084572
Probable space group: C 2/M
;
_chemical_formula_sum "Si O2"
_cell_formula_units_Z 32
_cell_length_a 12.197640
_cell_length_b 14.511129
_cell_length_c 20.439726
_cell_angle_alpha 90.000000
_cell_angle_beta 153.846791
_cell_angle_gamma 90.000000
_cell_volume 1594.656038
_symmetry_space_group_name_H-M "C 2/M"
_symmetry_group_IT_number 12
_symmetry_cell_setting 'monoclinic'
loop_
_space_group_symop_operation_xyz
x,y,z
-x,y,-z
-x,-y,-z
x,-y,z
1/2+x,1/2+y,z
1/2-x,1/2+y,-z
1/2-x,1/2-y,-z
1/2+x,1/2-y,z
loop_
_atom_site_type_symbol
_atom_site_label
_atom_site_fract_x
_atom_site_fract_y
_atom_site_fract_z
Si Si1 0.717460 0.500000 0.922793
Si Si2 0.868778 0.160094 0.032031
Si Si3 0.195354 0.000000 0.761396
Si Si4 0.339907 0.107612 0.214558
Si Si5 0.379888 0.397568 0.498676
O O1 0.603150 0.589834 0.893710
O O2 0.624502 0.500000 0.798870
O O3 0.012288 0.500000 0.090335
O O4 0.146495 0.172543 0.150619
O O5 0.750000 0.250000 0.000000
O O6 0.692467 0.120664 0.880603
O O7 0.076501 0.091953 0.663777
O O8 0.616646 0.145517 0.381135
O O9 0.292445 0.000000 0.207441
O O10 0.500000 0.344757 0.500000
O O11 0.300010 0.500000 0.430072
#
# Coordination Sequence:
#
# PCOD8084572 Si02
#       5
#     4   8   4   8   8
#     4  11  20  36  57  81 120 154 186 243 321 344
#     4  11  22  35  58  88 117 150 200 248 293 350
#     4   9  19  29  55  90 112 146 194 243 302 359
#     4  10  18  37  63  82 110 158 209 235 285 352
#     4   8  15  30  56  87 105 149 206 235 272 357
#
# _framework density 20.067024
#
# number of rings (size 3 to 8) (size 9 to 14) (size 15 to 20)
#    0.750    1.500    2.500    2.250    0.000    4.000 
#    0.000    2.500    0.000   16.500    0.000    0.000 
#    0.000    0.000    0.000    0.250    0.000    0.000 
#
# Total GULP energy -198233.321278 kJ/mol
# GULP energy per Si atom -12389.582580 kJ/mol
# Density = 2.002135 g / cm^3
# Si number density = 20.067024 Si / 1000 Ang^3
#
#
#
# Elastic Constant Matrix: (Units=GPa)
#
#
# Indices 1 2 3 4 5 6 
#
# 1 146.3707 40.1552 61.2825 0.0019 -3.9984 -0.0009
# 2 40.1552 65.5991 5.2419 0.0115 4.2795 0.0003
# 3 61.2825 5.2419 126.2355 0.0227 0.9346 0.0011
# 4 0.0019 0.0115 0.0227 7.3903 0.0040 7.8783
# 5 -3.9984 4.2795 0.9346 0.0040 37.7985 -0.0009
# 6 -0.0009 0.0003 0.0011 7.8783 -0.0009 31.2677
#
#
#
# Elastic Compliance Matrix: (Units=1/GPa)
#
#
# Indices 1 2 3 4 5 6 
#
# 1 0.010670 -0.006265 -0.004934 0.000028 0.001960 -0.000006
# 2 -0.006265 0.019086 0.002270 -0.000045 -0.002880 0.000011
# 3 -0.004934 0.002270 0.010231 -0.000044 -0.001032 0.000011
# 4 0.000028 -0.000045 -0.000044 0.185006 -0.000012 -0.046615
# 5 0.001960 -0.002880 -0.001032 -0.000012 0.027015 0.000004
# 6 -0.000006 0.000011 0.000011 -0.046615 0.000004 0.043727
#
#
# Mechanical properties :
#
#
# Convention : Reuss Voigt Hill
#
# Bulk Modulus (GPa) = 45.19160 61.28496 53.23828
# Shear Modulus (GPa) = 15.57783 30.72634 23.15209
#
# Velocity S-wave (km/s) = 2.78922 3.91728 3.40036
# Velocity P-wave (km/s) = 5.73953 7.14609 6.48108
#
# Compressibility (1/GPa) = 0.02212801
#
# Stress axis : x y z
#
# Youngs Moduli (GPa) = 93.71905 52.39534 97.74685
#
# Poissons Ratio (x) = 0.32826 0.48232
# Poissons Ratio (y) = 0.58716 -0.22191
# Poissons Ratio (z) = 0.46244 -0.11895
#
# Static dielectric constant tensor:
#      x y z
#    x 3.758810 0.000000 0.165390 
#    y 0.000000 3.040780 -0.000010 
#    z 0.165390 -0.000010 3.633710 
# 
# 
# High freq. dielectric constant tensor:
#      x y z
#    x 1.795850 0.000000 0.014690 
#    y 0.000000 1.724180 0.000000 
#    z 0.014690 0.000000 1.781630 
# 
# From -- ./inp_files/305247.got.cif
#   From: 2010.06.25/outbox.cif.g09.slc.cpg/sg12_153_cif.got.tgz:305247.got - 2010.06.28 00:19:55.
