data_PCOD8084073
_publ_section_title
;
Structure prediction by ZEFSAII (Michael W. Deem and Ramdas Pophale) SiO2 
 PCOD8084073
Probable space group: C 2/M
;
_chemical_formula_sum "Si O2"
_cell_formula_units_Z 64
_cell_length_a 12.940189
_cell_length_b 22.418709
_cell_length_c 11.404970
_cell_angle_alpha 90.000000
_cell_angle_beta 89.473760
_cell_angle_gamma 90.000000
_cell_volume 3308.468837
_symmetry_space_group_name_H-M "C 2/M"
_symmetry_group_IT_number 12
_symmetry_cell_setting 'monoclinic'
loop_
_space_group_symop_operation_xyz
x,y,z
-x,y,-z
-x,-y,-z
x,-y,z
1/2+x,1/2+y,z
1/2-x,1/2+y,-z
1/2-x,1/2-y,-z
1/2+x,1/2-y,z
loop_
_atom_site_type_symbol
_atom_site_label
_atom_site_fract_x
_atom_site_fract_y
_atom_site_fract_z
Si Si1 0.505752 0.431073 0.138502
Si Si2 0.391137 0.228594 0.001466
Si Si3 0.382781 0.934911 0.857687
Si Si4 0.307412 0.619696 0.269172
Si Si5 0.756868 0.738940 0.802874
Si Si6 0.392825 0.100440 0.113084
Si Si7 0.799820 0.125951 0.743644
Si Si8 0.379182 0.569989 0.509108
O O1 0.514014 0.500000 0.185079
O O2 0.403864 0.400003 0.189802
O O3 0.603707 0.391751 0.175969
O O4 0.500000 0.431206 0.000000
O O5 0.313434 0.266876 0.079509
O O6 0.404620 0.166825 0.067612
O O7 0.500000 0.263153 0.000000
O O8 0.364189 0.219673 0.863541
O O9 0.298706 0.894371 0.795706
O O10 0.499989 0.916263 0.824799
O O11 0.362984 0.000000 0.805865
O O12 0.368380 0.938709 0.998598
O O13 0.294529 0.691745 0.287329
O O14 0.317912 0.587978 0.393457
O O15 0.773232 0.803447 0.744132
O O16 0.300885 0.091541 0.207419
O O17 0.824238 0.106633 0.611987
O O18 0.500000 0.588017 0.500000
O O19 0.367744 0.500000 0.533211
#
# Coordination Sequence:
#
# PCOD8084073 Si02
#       8
#     8   8   8   8   8   8   8   8
#     4  11  24  38  62  99 133 165 209 274 338 387
#     4  10  18  34  57  83 126 166 198 240 307 382
#     4  11  21  35  59  90 123 166 206 247 310 375
#     4  12  23  42  62  91 129 166 212 265 315 380
#     4  10  24  34  57  94 121 164 207 254 315 379
#     4  10  19  37  58  90 127 163 202 250 310 373
#     4  11  24  41  63  92 125 164 214 264 317 378
#     4  11  24  44  68  90 119 167 216 264 322 382
#
# _framework density 19.344296
#
# number of rings (size 3 to 8) (size 9 to 14) (size 15 to 20)
#    0.000    1.250    3.750    3.000    5.250    3.500 
#    0.000    0.625    0.000    1.500    0.000    0.000 
#    0.000    0.000    0.000    0.000    0.000    0.000 
#
# Total GULP energy -396546.493562 kJ/mol
# GULP energy per Si atom -12392.077924 kJ/mol
# Density = 1.930027 g / cm^3
# Si number density = 19.344296 Si / 1000 Ang^3
#
#
#
# Elastic Constant Matrix: (Units=GPa)
#
#
# Indices 1 2 3 4 5 6 
#
# 1 139.4489 44.0127 60.3286 0.0000 -3.8802 0.0000
# 2 44.0127 105.3689 25.9125 0.0000 -4.2798 0.0000
# 3 60.3286 25.9125 82.6912 0.0000 -16.0581 0.0000
# 4 0.0000 0.0000 0.0000 20.4050 0.0000 -11.5504
# 5 -3.8802 -4.2798 -16.0581 0.0000 24.0741 0.0000
# 6 0.0000 0.0000 0.0000 -11.5504 0.0000 17.7288
#
#
#
# Elastic Compliance Matrix: (Units=1/GPa)
#
#
# Indices 1 2 3 4 5 6 
#
# 1 0.011606 -0.002964 -0.008360 0.000000 -0.004233 0.000000
# 2 -0.002964 0.011043 -0.001160 0.000000 0.000712 0.000000
# 3 -0.008360 -0.001160 0.020971 0.000000 0.012434 0.000000
# 4 0.000000 0.000000 0.000000 0.077641 0.000000 0.050584
# 5 -0.004233 0.000712 0.012434 0.000000 0.049277 0.000000
# 6 0.000000 0.000000 0.000000 0.050584 0.000000 0.089361
#
#
# Mechanical properties :
#
#
# Convention : Reuss Voigt Hill
#
# Bulk Modulus (GPa) = 53.61632 65.33517 59.47575
# Shear Modulus (GPa) = 17.17723 25.59190 21.38457
#
# Velocity S-wave (km/s) = 2.98312 3.64121 3.32847
# Velocity P-wave (km/s) = 6.29622 7.17817 6.75161
#
# Compressibility (1/GPa) = 0.01865104
#
# Stress axis : x y z
#
# Youngs Moduli (GPa) = 86.16597 90.55891 47.68543
#
# Poissons Ratio (x) = 0.26838 0.39866
# Poissons Ratio (y) = 0.25536 0.05532
# Poissons Ratio (z) = 0.72037 0.10505
#
# Static dielectric constant tensor:
#      x y z
#    x 4.475670 0.000000 -0.313850 
#    y 0.000000 3.683940 0.000000 
#    z -0.313850 0.000000 3.499270 
# 
# 
# High freq. dielectric constant tensor:
#      x y z
#    x 1.766620 0.000000 0.007790 
#    y 0.000000 1.763080 0.000000 
#    z 0.007790 0.000000 1.722440 
# 
# From -- ./inp_files/135430.got.cif
#   From: 2010.06.25/outbox.cif.g09.slc.cpg/sg12_68_cif.got.tgz:135430.got - 2010.06.28 00:19:55.
