data_PCOD8084003
_publ_section_title
;
Structure prediction by ZEFSAII (Michael W. Deem and Ramdas Pophale) SiO2 
 PCOD8084003
Probable space group: C 2/M
;
_chemical_formula_sum "Si O2"
_cell_formula_units_Z 56
_cell_length_a 8.863723
_cell_length_b 18.962136
_cell_length_c 26.714640
_cell_angle_alpha 90.000000
_cell_angle_beta 138.739483
_cell_angle_gamma 90.000000
_cell_volume 2961.126059
_symmetry_space_group_name_H-M "C 2/M"
_symmetry_group_IT_number 12
_symmetry_cell_setting 'monoclinic'
loop_
_space_group_symop_operation_xyz
x,y,z
-x,y,-z
-x,-y,-z
x,-y,z
1/2+x,1/2+y,z
1/2-x,1/2+y,-z
1/2-x,1/2-y,-z
1/2+x,1/2-y,z
loop_
_atom_site_type_symbol
_atom_site_label
_atom_site_fract_x
_atom_site_fract_y
_atom_site_fract_z
Si Si1 0.456811 0.832508 0.861775
Si Si2 0.238862 0.778942 0.552749
Si Si3 0.371847 0.419938 0.826650
Si Si4 0.535182 0.579047 0.756755
Si Si5 0.771563 0.301951 0.349670
Si Si6 0.827380 0.920158 0.002654
Si Si7 0.614374 0.208859 0.795510
O O1 0.284015 0.894526 0.802982
O O2 0.600926 0.813075 0.849360
O O3 0.321056 0.764229 0.846333
O O4 0.624029 0.863402 0.946099
O O5 0.250000 0.750000 0.500000
O O6 0.206084 0.718318 0.586512
O O7 0.487939 0.814689 0.620546
O O8 0.000000 0.825244 0.500000
O O9 0.272989 0.500000 0.807519
O O10 0.509835 0.411599 0.809874
O O11 0.547235 0.402023 0.914552
O O12 0.170019 0.361588 0.777125
O O13 0.503764 0.500000 0.730572
O O14 0.345387 0.622523 0.679733
O O15 0.622559 0.242605 0.283364
O O16 0.727672 0.000000 0.979429
O O17 0.000000 0.912779 0.000000
#
# Coordination Sequence:
#
# PCOD8084003 Si02
#       7
#     8   8   8   8   8   8   8
#     4  11  22  36  54  77 107 143 188 238 282 333
#     4   9  18  32  56  84 108 138 173 208 252 314
#     4  10  21  37  55  77 107 145 188 233 284 337
#     4  10  21  36  56  82 110 144 184 227 277 330
#     4  10  18  34  55  81 113 139 172 222 267 313
#     4  10  20  37  56  74 102 144 190 237 286 334
#     4  11  21  35  55  81 109 141 179 231 283 325
#
# _framework density 18.911725000000001
#
# number of rings (size 3 to 8) (size 9 to 14) (size 15 to 20)
#    0.000    1.857    1.429    4.714    0.000    1.714 
#    0.000    2.143    0.000    4.286    0.000    4.000 
#    0.000    0.000    0.000    0.000    0.000    0.000 
#
# Total GULP energy -346993.253885 kJ/mol
# GULP energy per Si atom -12392.616210 kJ/mol
# Density = 1.886868 g / cm^3
# Si number density = 18.911725 Si / 1000 Ang^3
#
#
#
# Elastic Constant Matrix: (Units=GPa)
#
#
# Indices 1 2 3 4 5 6 
#
# 1 75.7310 31.1662 21.4714 0.0004 8.9519 -0.0001
# 2 31.1662 111.4279 39.6555 0.0006 13.9328 0.0000
# 3 21.4714 39.6555 75.4318 -0.0001 8.9149 0.0007
# 4 0.0004 0.0006 -0.0001 12.8095 0.0001 -3.8219
# 5 8.9519 13.9328 8.9149 0.0001 38.3339 0.0002
# 6 -0.0001 0.0000 0.0007 -3.8219 0.0002 21.6911
#
#
#
# Elastic Compliance Matrix: (Units=1/GPa)
#
#
# Indices 1 2 3 4 5 6 
#
# 1 0.015449 -0.003200 -0.002495 0.000000 -0.001864 0.000000
# 2 -0.003200 0.011990 -0.005106 0.000000 -0.002423 0.000000
# 3 -0.002495 -0.005106 0.016826 0.000000 -0.001475 0.000000
# 4 0.000000 0.000000 0.000000 0.082399 0.000000 0.014518
# 5 -0.001864 -0.002423 -0.001475 0.000000 0.027746 0.000000
# 6 0.000000 0.000000 0.000000 0.014518 0.000000 0.048660
#
#
# Mechanical properties :
#
#
# Convention : Reuss Voigt Hill
#
# Bulk Modulus (GPa) = 44.12505 49.68634 46.90570
# Shear Modulus (GPa) = 21.53088 25.92007 23.72547
#
# Velocity S-wave (km/s) = 3.37782 3.70615 3.54579
# Velocity P-wave (km/s) = 6.21254 6.68161 6.45134
#
# Compressibility (1/GPa) = 0.02266286
#
# Stress axis : x y z
#
# Youngs Moduli (GPa) = 64.72764 83.40620 59.43311
#
# Poissons Ratio (x) = 0.26691 0.14828
# Poissons Ratio (y) = 0.20714 0.30345
# Poissons Ratio (z) = 0.16149 0.42585
#
# Static dielectric constant tensor:
#      x y z
#    x 3.762370 0.000000 0.230380 
#    y 0.000000 3.540720 0.000000 
#    z 0.230380 0.000000 3.648780 
# 
# 
# High freq. dielectric constant tensor:
#      x y z
#    x 1.748900 0.000000 0.002240 
#    y 0.000000 1.716910 0.000000 
#    z 0.002240 0.000000 1.731730 
# 
# From -- ./inp_files/257036.got.cif
#   From: 2010.06.25/outbox.cif.g09.slc.cpg/sg12_129_cif.got.tgz:257036.got - 2010.06.28 00:19:55.
