data_PCOD8084074
_publ_section_title
;
Structure prediction by ZEFSAII (Michael W. Deem and Ramdas Pophale) SiO2 
 PCOD8084074
Probable space group: C 2/M
;
_chemical_formula_sum "Si O2"
_cell_formula_units_Z 64
_cell_length_a 20.349433
_cell_length_b 20.868651
_cell_length_c 11.635302
_cell_angle_alpha 90.000000
_cell_angle_beta 43.128498
_cell_angle_gamma 90.000000
_cell_volume 3377.923579
_symmetry_space_group_name_H-M "C 2/M"
_symmetry_group_IT_number 12
_symmetry_cell_setting 'monoclinic'
loop_
_space_group_symop_operation_xyz
x,y,z
-x,y,-z
-x,-y,-z
x,-y,z
1/2+x,1/2+y,z
1/2-x,1/2+y,-z
1/2-x,1/2-y,-z
1/2+x,1/2-y,z
loop_
_atom_site_type_symbol
_atom_site_label
_atom_site_fract_x
_atom_site_fract_y
_atom_site_fract_z
Si Si1 0.121676 0.791467 0.574639
Si Si2 0.916824 0.811753 0.871367
Si Si3 0.084103 0.572529 0.188358
Si Si4 0.661236 0.722473 0.267772
Si Si5 0.630578 0.926763 0.511206
Si Si6 0.169343 0.665739 0.651108
Si Si7 0.365503 0.821324 0.046597
Si Si8 0.725966 0.134479 0.179436
O O1 0.105754 0.778248 0.459300
O O2 0.129558 0.722381 0.622986
O O3 0.215736 0.832433 0.481165
O O4 0.029276 0.831029 0.740779
O O5 0.903770 0.802605 0.751861
O O6 0.907312 0.746332 0.954273
O O7 0.842538 0.865877 0.013542
O O8 0.096590 0.500000 0.127189
O O9 0.171035 0.586470 0.164653
O O10 0.981226 0.579849 0.383939
O O11 0.082655 0.619959 0.082178
O O12 0.752981 0.676027 0.159763
O O13 0.693241 0.793869 0.192498
O O14 0.643661 0.901486 0.624309
O O15 0.700346 0.884858 0.341531
O O16 0.664463 0.000000 0.462495
O O17 0.116767 0.670588 0.840427
#
# Coordination Sequence:
#
# PCOD8084074 Si02
#       8
#     8   8   8   8   8   8   8   8
#     4  10  21  34  57  85 111 147 182 222 278 331
#     4  11  20  33  58  87 114 141 177 230 285 335
#     4  11  22  36  57  83 110 146 188 227 278 332
#     4  10  18  34  57  84 114 143 174 222 286 331
#     4  11  24  39  57  79 108 153 193 224 268 327
#     4  10  22  39  53  78 117 149 185 225 268 326
#     4  10  20  35  53  83 116 144 178 226 281 327
#     4  11  20  36  55  83 115 141 179 233 281 322
#
# _framework density 18.946550999999999
#
# number of rings (size 3 to 8) (size 9 to 14) (size 15 to 20)
#    0.000    1.500    3.750    2.625    1.750    4.500 
#    0.000    1.250    0.000    2.250    0.000    1.750 
#    0.000    0.000    0.000    0.000    0.000    0.000 
#
# Total GULP energy -396767.811358 kJ/mol
# GULP energy per Si atom -12398.994105 kJ/mol
# Density = 1.890343 g / cm^3
# Si number density = 18.946551 Si / 1000 Ang^3
#
#
#
# Elastic Constant Matrix: (Units=GPa)
#
#
# Indices 1 2 3 4 5 6 
#
# 1 72.5125 20.4771 52.8551 0.0000 7.4645 0.0000
# 2 20.4771 65.1638 26.4672 0.0000 0.9622 0.0000
# 3 52.8551 26.4672 116.3914 0.0000 -7.2982 0.0000
# 4 0.0000 0.0000 0.0000 22.2585 0.0000 -3.2283
# 5 7.4645 0.9622 -7.2982 0.0000 40.3287 0.0000
# 6 0.0000 0.0000 0.0000 -3.2283 0.0000 15.4569
#
#
#
# Elastic Compliance Matrix: (Units=1/GPa)
#
#
# Indices 1 2 3 4 5 6 
#
# 1 0.022433 -0.002948 -0.009885 0.000000 -0.005871 0.000000
# 2 -0.002948 0.017344 -0.002627 0.000000 -0.000344 0.000000
# 3 -0.009885 -0.002627 0.013955 0.000000 0.004418 0.000000
# 4 0.000000 0.000000 0.000000 0.046330 0.000000 0.009676
# 5 -0.005871 -0.000344 0.004418 0.000000 0.026690 0.000000
# 6 0.000000 0.000000 0.000000 0.009676 0.000000 0.066717
#
#
# Mechanical properties :
#
#
# Convention : Reuss Voigt Hill
#
# Bulk Modulus (GPa) = 43.83503 50.40739 47.12121
# Shear Modulus (GPa) = 21.55242 25.89338 23.72290
#
# Velocity S-wave (km/s) = 3.37640 3.70084 3.54234
# Velocity P-wave (km/s) = 6.19568 6.70257 6.45410
#
# Compressibility (1/GPa) = 0.02281281
#
# Stress axis : x y z
#
# Youngs Moduli (GPa) = 44.57795 57.65586 71.65926
#
# Poissons Ratio (x) = 0.16995 0.70834
# Poissons Ratio (y) = 0.13140 0.18825
# Poissons Ratio (z) = 0.44064 0.15146
#
# Static dielectric constant tensor:
#      x y z
#    x 3.481030 0.000000 -0.022550 
#    y 0.000000 3.143690 0.000000 
#    z -0.022550 0.000000 3.716660 
# 
# 
# High freq. dielectric constant tensor:
#      x y z
#    x 1.738520 0.000000 0.003030 
#    y 0.000000 1.693560 0.000000 
#    z 0.003030 0.000000 1.750750 
# 
# From -- ./inp_files/169649.got.cif
#   From: 2010.06.25/outbox.cif.g09.slc.cpg/sg12_85_cif.got.tgz:169649.got - 2010.06.28 00:19:55.
