data_PCOD8084085
_publ_section_title
;
Structure prediction by ZEFSAII (Michael W. Deem and Ramdas Pophale) SiO2 
 PCOD8084085
Probable space group: C 2/M
;
_chemical_formula_sum "Si O2"
_cell_formula_units_Z 64
_cell_length_a 14.432538
_cell_length_b 9.246582
_cell_length_c 26.053363
_cell_angle_alpha 90.000000
_cell_angle_beta 93.199931
_cell_angle_gamma 90.000000
_cell_volume 3471.443161
_symmetry_space_group_name_H-M "C 2/M"
_symmetry_group_IT_number 12
_symmetry_cell_setting 'monoclinic'
loop_
_space_group_symop_operation_xyz
x,y,z
-x,y,-z
-x,-y,-z
x,-y,z
1/2+x,1/2+y,z
1/2-x,1/2+y,-z
1/2-x,1/2-y,-z
1/2+x,1/2-y,z
loop_
_atom_site_type_symbol
_atom_site_label
_atom_site_fract_x
_atom_site_fract_y
_atom_site_fract_z
Si Si1 0.143099 0.334146 0.902821
Si Si2 0.984095 0.327949 0.824496
Si Si3 0.391955 0.161171 0.988189
Si Si4 0.851350 0.830814 0.359105
Si Si5 0.018223 0.668706 0.709999
Si Si6 0.847224 0.833755 0.885939
Si Si7 0.358095 0.830851 0.626898
Si Si8 0.511367 0.668850 0.442250
O O1 0.115442 0.500000 0.911214
O O2 0.062979 0.265236 0.865145
O O3 0.237570 0.318097 0.874505
O O4 0.151121 0.268307 0.960711
O O5 0.973325 0.500000 0.826922
O O6 0.006874 0.277697 0.767793
O O7 0.889338 0.253986 0.839696
O O8 0.373723 0.269034 0.941494
O O9 0.351141 0.000000 0.974954
O O10 0.500000 0.147332 0.000000
O O11 0.893833 0.751020 0.311102
O O12 0.746629 0.774968 0.366080
O O13 0.915465 0.794228 0.410133
O O14 0.850590 0.000000 0.346723
O O15 0.040997 0.500000 0.707611
O O16 0.922148 0.705292 0.677973
O O17 0.879428 0.000000 0.885486
O O18 0.400542 0.750608 0.578998
O O19 0.357191 0.000000 0.614343
O O20 0.500000 0.722686 0.500000
O O21 0.534125 0.500000 0.440201
#
# Coordination Sequence:
#
# PCOD8084085 Si02
#       8
#     8   8   8   8   8   8   8   8
#     4   9  19  35  53  73  99 131 163 196 241 298
#     4  10  20  38  56  71  98 135 168 198 244 303
#     4  10  18  34  58  74  94 135 170 191 235 303
#     4   9  18  33  52  72 102 137 165 206 259 301
#     4   9  19  34  54  75  96 127 170 213 243 291
#     4  11  22  34  51  78 105 125 157 208 251 285
#     4   9  18  33  51  75 103 133 169 208 256 300
#     4   9  18  32  49  73 104 138 175 210 246 295
#
# _framework density 18.436136000000001
#
# number of rings (size 3 to 8) (size 9 to 14) (size 15 to 20)
#    0.000    2.500    1.250    0.750    0.000    3.000 
#    0.000    1.875    0.000    0.000    0.000    0.000 
#    0.000    0.000    0.000    0.000    0.000    0.000 
#
# Total GULP energy -396771.052013 kJ/mol
# GULP energy per Si atom -12399.095375 kJ/mol
# Density = 1.839417 g / cm^3
# Si number density = 18.436136 Si / 1000 Ang^3
#
#
#
# Elastic Constant Matrix: (Units=GPa)
#
#
# Indices 1 2 3 4 5 6 
#
# 1 119.6398 37.1932 55.0015 0.0000 -26.3241 0.0000
# 2 37.1932 46.3994 42.9380 0.0000 -12.5442 0.0000
# 3 55.0015 42.9380 142.3964 0.0000 -29.4373 0.0000
# 4 0.0000 0.0000 0.0000 17.4085 0.0000 -14.8628
# 5 -26.3241 -12.5442 -29.4373 0.0000 25.0896 0.0000
# 6 0.0000 0.0000 0.0000 -14.8628 0.0000 24.4066
#
#
#
# Elastic Compliance Matrix: (Units=1/GPa)
#
#
# Indices 1 2 3 4 5 6 
#
# 1 0.012981 -0.007026 -0.001064 0.000000 0.008858 0.000000
# 2 -0.007026 0.034342 -0.007415 0.000000 0.001100 0.000000
# 3 -0.001064 -0.007415 0.011449 0.000000 0.008610 0.000000
# 4 0.000000 0.000000 0.000000 0.119652 0.000000 0.072864
# 5 0.008858 0.001100 0.008610 0.000000 0.059803 0.000000
# 6 0.000000 0.000000 0.000000 0.072864 0.000000 0.085344
#
#
# Mechanical properties :
#
#
# Convention : Reuss Voigt Hill
#
# Bulk Modulus (GPa) = 36.01803 64.30009 50.15906
# Shear Modulus (GPa) = 13.74251 24.93448 19.33849
#
# Velocity S-wave (km/s) = 2.73318 3.68160 3.24226
# Velocity P-wave (km/s) = 5.43502 7.28183 6.42513
#
# Compressibility (1/GPa) = 0.02776387
#
# Stress axis : x y z
#
# Youngs Moduli (GPa) = 77.03673 29.11859 87.34132
#
# Poissons Ratio (x) = 0.20458 0.09295
# Poissons Ratio (y) = 0.54123 0.64759
# Poissons Ratio (z) = 0.08198 0.21590
#
# Static dielectric constant tensor:
#      x y z
#    x 3.505490 0.000000 -0.045310 
#    y 0.000000 3.260050 0.000000 
#    z -0.045310 0.000000 3.477790 
# 
# 
# High freq. dielectric constant tensor:
#      x y z
#    x 1.719420 0.000000 -0.007840 
#    y 0.000000 1.696640 0.000000 
#    z -0.007840 0.000000 1.714780 
# 
# From -- ./inp_files/338825.got.cif
#   From: 2010.06.25/outbox.cif.g09.slc.cpg/sg12_170_cif.got.tgz:338825.got - 2010.06.28 00:19:55.
