data_PCOD8084092
_publ_section_title
;
Structure prediction by ZEFSAII (Michael W. Deem and Ramdas Pophale) SiO2 
 PCOD8084092
Probable space group: C 2/M
;
_chemical_formula_sum "Si O2"
_cell_formula_units_Z 48
_cell_length_a 14.698941
_cell_length_b 9.182705
_cell_length_c 29.518550
_cell_angle_alpha 90.000000
_cell_angle_beta 40.196444
_cell_angle_gamma 90.000000
_cell_volume 2571.506224
_symmetry_space_group_name_H-M "C 2/M"
_symmetry_group_IT_number 12
_symmetry_cell_setting 'monoclinic'
loop_
_space_group_symop_operation_xyz
x,y,z
-x,y,-z
-x,-y,-z
x,-y,z
1/2+x,1/2+y,z
1/2-x,1/2+y,-z
1/2-x,1/2-y,-z
1/2+x,1/2-y,z
loop_
_atom_site_type_symbol
_atom_site_label
_atom_site_fract_x
_atom_site_fract_y
_atom_site_fract_z
Si Si1 0.621071 0.331764 0.153764
Si Si2 0.373527 0.337270 0.013520
Si Si3 0.135149 0.327658 0.238457
Si Si4 0.384208 0.828873 0.507417
Si Si5 0.398971 0.169776 0.398202
Si Si6 0.445858 0.331744 0.135652
O O1 0.648384 0.500000 0.154660
O O2 0.758278 0.270025 0.077170
O O3 0.576923 0.246204 0.215387
O O4 0.488291 0.309999 0.171348
O O5 0.309341 0.500000 0.030395
O O6 0.500000 0.348410 0.000000
O O7 0.435105 0.266500 0.943451
O O8 0.136958 0.500000 0.230705
O O9 0.291286 0.262627 0.187958
O O10 0.036748 0.283717 0.317850
O O11 0.500000 0.772165 0.500000
O O12 0.431647 0.789394 0.438091
O O13 0.233984 0.753157 0.572805
O O14 0.362272 0.000000 0.522208
O O15 0.365372 0.000000 0.406300
O O16 0.435408 0.500000 0.125901
#
# Coordination Sequence:
#
# PCOD8084092 Si02
#       6
#     8   8   8   8   8   8
#     4  11  22  34  52  80 107 132 173 228 273 300
#     4  10  18  34  58  75  96 138 181 213 262 325
#     4  10  20  38  56  72 104 146 181 206 250 322
#     4   9  18  34  57  84 110 138 171 209 257 309
#     4   9  19  34  55  81 107 139 175 214 253 300
#     4   9  19  35  54  75 101 138 176 214 263 320
#
# _framework density 18.666101999999999
#
# number of rings (size 3 to 8) (size 9 to 14) (size 15 to 20)
#    0.000    2.333    1.667    1.000    0.000    2.667 
#    0.000    5.833    0.000    0.000    0.000    0.000 
#    0.000    0.000    0.000    0.000    0.000    0.000 
#
# Total GULP energy -297560.359129 kJ/mol
# GULP energy per Si atom -12398.348297 kJ/mol
# Density = 1.862362 g / cm^3
# Si number density = 18.666102 Si / 1000 Ang^3
#
#
#
# Elastic Constant Matrix: (Units=GPa)
#
#
# Indices 1 2 3 4 5 6 
#
# 1 108.3227 30.1830 45.3983 0.0009 9.7099 0.0004
# 2 30.1830 40.9135 39.3660 0.0008 2.0006 0.0002
# 3 45.3983 39.3660 121.0634 0.0003 14.5986 0.0000
# 4 0.0009 0.0008 0.0003 15.5666 0.0000 7.0028
# 5 9.7099 2.0006 14.5986 0.0000 19.6202 0.0001
# 6 0.0004 0.0002 0.0000 7.0028 0.0001 24.3920
#
#
#
# Elastic Compliance Matrix: (Units=1/GPa)
#
#
# Indices 1 2 3 4 5 6 
#
# 1 0.012351 -0.007169 -0.001814 0.000000 -0.004031 0.000000
# 2 -0.007169 0.040274 -0.011359 -0.000002 0.007893 0.000000
# 3 -0.001814 -0.011359 0.013607 0.000000 -0.008068 0.000000
# 4 0.000000 -0.000002 0.000000 0.073767 0.000000 -0.021178
# 5 -0.004031 0.007893 -0.008068 0.000000 0.058162 0.000000
# 6 0.000000 0.000000 0.000000 -0.021178 0.000000 0.047077
#
#
# Mechanical properties :
#
#
# Convention : Reuss Voigt Hill
#
# Bulk Modulus (GPa) = 39.14325 55.57714 47.36019
# Shear Modulus (GPa) = 16.98141 22.27258 19.62700
#
# Velocity S-wave (km/s) = 3.01947 3.45803 3.24617
# Velocity P-wave (km/s) = 5.75952 6.76631 6.28311
#
# Compressibility (1/GPa) = 0.02554719
#
# Stress axis : x y z
#
# Youngs Moduli (GPa) = 80.96538 24.82975 73.49049
#
# Poissons Ratio (x) = 0.17800 0.13334
# Poissons Ratio (y) = 0.58042 0.83481
# Poissons Ratio (z) = 0.14690 0.28205
#
# Static dielectric constant tensor:
#      x y z
#    x 3.607370 0.000000 0.049490 
#    y 0.000000 3.282560 0.000000 
#    z 0.049490 0.000000 3.534990 
# 
# 
# High freq. dielectric constant tensor:
#      x y z
#    x 1.730740 0.000000 0.007350 
#    y 0.000000 1.702500 0.000000 
#    z 0.007350 0.000000 1.724930 
# 
# From -- ./inp_files/308599.got.cif
#   From: 2010.06.25/outbox.cif.g09.slc.cpg/sg12_155_cif.got.tgz:308599.got - 2010.06.28 00:19:55.
