data_PCOD8084928
_publ_section_title
;
Structure prediction by ZEFSAII (Michael W. Deem and Ramdas Pophale) SiO2 
 PCOD8084928
Probable space group: C 2/M
;
_chemical_formula_sum "Si O2"
_cell_formula_units_Z 64
_cell_length_a 22.232942
_cell_length_b 9.108614
_cell_length_c 20.934873
_cell_angle_alpha 90.000000
_cell_angle_beta 117.257318
_cell_angle_gamma 90.000000
_cell_volume 3768.782942
_symmetry_space_group_name_H-M "C 2/M"
_symmetry_group_IT_number 12
_symmetry_cell_setting 'monoclinic'
loop_
_space_group_symop_operation_xyz
x,y,z
-x,y,-z
-x,-y,-z
x,-y,z
1/2+x,1/2+y,z
1/2-x,1/2+y,-z
1/2-x,1/2-y,-z
1/2+x,1/2-y,z
loop_
_atom_site_type_symbol
_atom_site_label
_atom_site_fract_x
_atom_site_fract_y
_atom_site_fract_z
Si Si1 0.035234 0.172250 0.369852
Si Si2 0.079408 0.835487 0.523768
Si Si3 0.515905 0.331654 0.110732
Si Si4 0.992486 0.329727 0.764599
Si Si5 0.352681 0.834473 0.194113
Si Si6 0.403519 0.832495 0.351198
Si Si7 0.258575 0.826563 0.936589
Si Si8 0.891045 0.169009 0.962780
O O1 0.053655 0.252678 0.312487
O O2 0.962932 0.227937 0.357503
O O3 0.089258 0.206073 0.453310
O O4 0.030434 0.000000 0.354729
O O5 0.121238 0.726236 0.591203
O O6 0.000000 0.823473 0.500000
O O7 0.105734 0.000000 0.549133
O O8 0.514479 0.500000 0.132364
O O9 0.529821 0.229685 0.177758
O O10 0.576075 0.304797 0.090168
O O11 0.444458 0.290239 0.043877
O O12 0.976072 0.500000 0.753317
O O13 0.071453 0.297011 0.791424
O O14 0.346105 0.822865 0.268303
O O15 0.303283 0.717036 0.138932
O O16 0.333415 0.000000 0.162948
O O17 0.429140 0.000000 0.370154
O O18 0.327861 0.776375 0.937577
O O19 0.258872 0.000000 0.946232
O O20 0.250000 0.750000 0.000000
O O21 0.867908 0.000000 0.958808
#
# Coordination Sequence:
#
# PCOD8084928 Si02
#       8
#     8   8   8   8   8   8   8   8
#     4   9  16  25  37  55  83 118 152 184 219 264
#     4   8  14  23  35  53  79 113 149 182 218 262
#     4   9  18  33  53  72  90 117 149 181 224 274
#     4  10  19  29  44  67  93 121 153 190 229 265
#     4   9  19  33  45  63  92 123 155 189 226 269
#     4   9  16  25  39  58  81 112 148 186 226 265
#     4  12  24  35  50  70  92 121 153 187 228 268
#     4   9  19  36  54  71  91 116 149 186 223 269
#
# _framework density 16.98161
#
# number of rings (size 3 to 8) (size 9 to 14) (size 15 to 20)
#    0.000    2.625    0.000    5.250    0.000    8.750 
#    0.000    1.250    0.000    0.000    0.000    0.000 
#    0.000    1.000    0.000    3.250    0.000    5.375 
#
# Total GULP energy -396610.632596 kJ/mol
# GULP energy per Si atom -12394.082269 kJ/mol
# Density = 1.694296 g / cm^3
# Si number density = 16.981610 Si / 1000 Ang^3
#
#
#
# Elastic Constant Matrix: (Units=GPa)
#
#
# Indices 1 2 3 4 5 6 
#
# 1 39.9403 33.0947 30.2868 0.0000 -8.4667 0.0000
# 2 33.0947 112.2885 68.5130 0.0000 -14.4020 0.0000
# 3 30.2868 68.5130 126.1542 0.0000 -28.6359 0.0000
# 4 0.0000 0.0000 0.0000 33.1471 0.0000 -4.4304
# 5 -8.4667 -14.4020 -28.6359 0.0000 19.7747 0.0000
# 6 0.0000 0.0000 0.0000 -4.4304 0.0000 21.0213
#
#
#
# Elastic Compliance Matrix: (Units=1/GPa)
#
#
# Indices 1 2 3 4 5 6 
#
# 1 0.034818 -0.007794 -0.003025 0.000000 0.004850 0.000000
# 2 -0.007794 0.015081 -0.006828 0.000000 -0.002241 0.000000
# 3 -0.003025 -0.006828 0.016295 0.000000 0.017328 0.000000
# 4 0.000000 0.000000 0.000000 0.031043 0.000000 0.006543
# 5 0.004850 -0.002241 0.017328 0.000000 0.076108 0.000000
# 6 0.000000 0.000000 0.000000 0.006543 0.000000 0.048950
#
#
# Mechanical properties :
#
#
# Convention : Reuss Voigt Hill
#
# Bulk Modulus (GPa) = 32.36306 60.24133 46.30219
# Shear Modulus (GPa) = 18.66451 24.55452 21.60952
#
# Velocity S-wave (km/s) = 3.31887 3.80669 3.57112
# Velocity P-wave (km/s) = 5.81254 7.40761 6.65801
#
# Compressibility (1/GPa) = 0.03089943
#
# Stress axis : x y z
#
# Youngs Moduli (GPa) = 28.72118 66.30646 61.36945
#
# Poissons Ratio (x) = 0.51678 0.18565
# Poissons Ratio (y) = 0.22385 0.41904
# Poissons Ratio (z) = 0.08689 0.45275
#
# Static dielectric constant tensor:
#      x y z
#    x 2.719610 0.000000 -0.285250 
#    y 0.000000 3.256980 0.000000 
#    z -0.285250 0.000000 3.752600 
# 
# 
# High freq. dielectric constant tensor:
#      x y z
#    x 1.590810 0.000000 -0.026040 
#    y 0.000000 1.664100 0.000000 
#    z -0.026040 0.000000 1.669190 
# 
# From -- ./inp_files/323768.got.cif
#   From: 2010.06.25/outbox.cif.g09.slc.cpg/sg12_162_cif.got.tgz:323768.got - 2010.06.28 00:19:55.
