data_PCOD8084427
_publ_section_title
;
Structure prediction by ZEFSAII (Michael W. Deem and Ramdas Pophale) SiO2 
 PCOD8084427
Probable space group: C 2/M
;
_chemical_formula_sum "Si O2"
_cell_formula_units_Z 48
_cell_length_a 12.107015
_cell_length_b 21.104782
_cell_length_c 13.974862
_cell_angle_alpha 90.000000
_cell_angle_beta 41.478810
_cell_angle_gamma 90.000000
_cell_volume 2365.094173
_symmetry_space_group_name_H-M "C 2/M"
_symmetry_group_IT_number 12
_symmetry_cell_setting 'monoclinic'
loop_
_space_group_symop_operation_xyz
x,y,z
-x,y,-z
-x,-y,-z
x,-y,z
1/2+x,1/2+y,z
1/2-x,1/2+y,-z
1/2-x,1/2-y,-z
1/2+x,1/2-y,z
loop_
_atom_site_type_symbol
_atom_site_label
_atom_site_fract_x
_atom_site_fract_y
_atom_site_fract_z
Si Si1 0.380030 0.663862 0.166941
Si Si2 0.673325 0.285390 0.333308
Si Si3 0.500907 0.364947 0.287091
Si Si4 0.834380 0.371469 0.377393
Si Si5 0.059995 0.000000 0.298790
Si Si6 0.093353 0.572986 0.339211
Si Si7 0.253598 0.500000 0.643120
O O1 0.244731 0.719609 0.250388
O O2 0.492538 0.668406 0.189568
O O3 0.283072 0.596645 0.228182
O O4 0.500000 0.670460 0.000000
O O5 0.500000 0.273230 0.500000
O O6 0.636108 0.330667 0.266983
O O7 0.814305 0.316094 0.311632
O O8 0.318474 0.363861 0.451225
O O9 0.555014 0.437904 0.236086
O O10 0.846535 0.437278 0.314302
O O11 0.004717 0.374485 0.327715
O O12 0.223804 0.000000 0.257470
O O13 0.916578 0.000000 0.471506
O O14 0.092220 0.500000 0.301229
O O15 0.000000 0.574144 0.500000
#
# Coordination Sequence:
#
# PCOD8084427 Si02
#       7
#     8   8   8   8   4   8   4
#     4  12  28  44  59  83 126 173 209 246 298 366
#     4  10  23  40  66  93 119 159 207 258 305 355
#     4  10  21  37  62  93 123 161 199 250 304 361
#     4  10  18  35  63  98 126 147 197 258 311 358
#     4   9  16  30  58  93 128 147 191 246 315 364
#     4  11  23  40  66  95 124 159 199 249 306 365
#     4   9  14  28  56  98 126 150 181 248 320 359
#
# _framework density 20.295175
#
# number of rings (size 3 to 8) (size 9 to 14) (size 15 to 20)
#    0.000    1.667    4.167    0.500    3.500    2.333 
#    0.000    0.000    0.000    0.000    0.000    3.500 
#    0.000    0.000    0.000    0.000    0.000    0.000 
#
# Total GULP energy -297455.791531 kJ/mol
# GULP energy per Si atom -12393.991314 kJ/mol
# Density = 2.024898 g / cm^3
# Si number density = 20.295175 Si / 1000 Ang^3
#
#
#
# Elastic Constant Matrix: (Units=GPa)
#
#
# Indices 1 2 3 4 5 6 
#
# 1 123.9172 41.9922 37.5629 0.0000 10.4239 0.0004
# 2 41.9922 112.4482 43.4020 0.0001 3.4986 0.0000
# 3 37.5629 43.4020 60.3595 0.0010 9.6864 0.0010
# 4 0.0000 0.0001 0.0010 2.2120 -0.0003 2.9939
# 5 10.4239 3.4986 9.6864 -0.0003 15.8601 -0.0007
# 6 0.0004 0.0000 0.0010 2.9939 -0.0007 32.3542
#
#
#
# Elastic Compliance Matrix: (Units=1/GPa)
#
#
# Indices 1 2 3 4 5 6 
#
# 1 0.010418 -0.002079 -0.004394 0.000002 -0.003705 0.000000
# 2 -0.002079 0.012853 -0.008550 0.000004 0.003753 0.000000
# 3 -0.004394 -0.008550 0.027366 -0.000015 -0.011940 0.000000
# 4 0.000002 0.000004 -0.000015 0.516793 0.000015 -0.047821
# 5 -0.003705 0.003753 -0.011940 0.000015 0.071951 0.000001
# 6 0.000000 0.000000 0.000000 -0.047821 0.000001 0.035333
#
#
# Mechanical properties :
#
#
# Convention : Reuss Voigt Hill
#
# Bulk Modulus (GPa) = 48.56654 60.29323 54.42989
# Shear Modulus (GPa) = 7.02619 21.66979 14.34799
#
# Velocity S-wave (km/s) = 1.86266 3.27116 2.66177
# Velocity P-wave (km/s) = 5.34865 6.63626 6.02694
#
# Compressibility (1/GPa) = 0.02059031
#
# Stress axis : x y z
#
# Youngs Moduli (GPa) = 95.98731 77.80348 36.54194
#
# Poissons Ratio (x) = 0.16178 0.16055
# Poissons Ratio (y) = 0.19960 0.31244
# Poissons Ratio (z) = 0.42173 0.66524
#
# Static dielectric constant tensor:
#      x y z
#    x 3.949300 0.000000 0.010740 
#    y 0.000000 3.846200 0.000000 
#    z 0.010740 0.000000 3.058380 
# 
# 
# High freq. dielectric constant tensor:
#      x y z
#    x 1.812480 0.000000 0.003990 
#    y 0.000000 1.804250 0.000000 
#    z 0.003990 0.000000 1.724930 
# 
# From -- ./inp_files/207955.got.cif
#   From: 2010.06.25/outbox.cif.g09.slc.cpg/sg12_104_cif.got.tgz:207955.got - 2010.06.28 00:19:55.
