data_PCOD8084899
_publ_section_title
;
Structure prediction by ZEFSAII (Michael W. Deem and Ramdas Pophale) SiO2 
 PCOD8084899
Probable space group: C 2/M
;
_chemical_formula_sum "Si O2"
_cell_formula_units_Z 56
_cell_length_a 19.170263
_cell_length_b 9.092986
_cell_length_c 21.011163
_cell_angle_alpha 90.000000
_cell_angle_beta 58.052934
_cell_angle_gamma 90.000000
_cell_volume 3107.818370
_symmetry_space_group_name_H-M "C 2/M"
_symmetry_group_IT_number 12
_symmetry_cell_setting 'monoclinic'
loop_
_space_group_symop_operation_xyz
x,y,z
-x,y,-z
-x,-y,-z
x,-y,z
1/2+x,1/2+y,z
1/2-x,1/2+y,-z
1/2-x,1/2-y,-z
1/2+x,1/2-y,z
loop_
_atom_site_type_symbol
_atom_site_label
_atom_site_fract_x
_atom_site_fract_y
_atom_site_fract_z
Si Si1 0.466749 0.328357 0.775162
Si Si2 0.211201 0.171315 0.194494
Si Si3 0.030455 0.334212 0.628584
Si Si4 0.090846 0.833733 0.484833
Si Si5 0.632461 0.326075 0.927705
Si Si6 0.011229 0.173556 0.094077
Si Si7 0.849192 0.333890 0.658974
O O1 0.488213 0.500000 0.760475
O O2 0.372574 0.298764 0.802752
O O3 0.528193 0.244357 0.698060
O O4 0.481750 0.261837 0.838259
O O5 0.282819 0.238574 0.116861
O O6 0.210604 0.250477 0.263322
O O7 0.226213 0.000000 0.198861
O O8 0.062997 0.500000 0.621122
O O9 0.092186 0.246967 0.552376
O O10 0.940694 0.333291 0.641630
O O11 0.152779 0.749026 0.407710
O O12 0.000000 0.832979 0.500000
O O13 0.122336 0.000000 0.478525
O O14 0.649764 0.500000 0.920513
O O15 0.575802 0.282144 0.894733
O O16 0.586655 0.271269 0.013836
O O17 0.018579 0.000000 0.093406
O O18 0.817036 0.500000 0.665196
#
# Coordination Sequence:
#
# PCOD8084899 Si02
#       7
#     8   8   8   8   8   8   8
#     4   9  17  30  46  65  92 123 153 187 229 274
#     4  10  19  29  43  67  97 123 148 185 233 278
#     4   9  16  25  38  60  89 119 152 188 225 266
#     4   9  15  23  37  58  86 120 153 185 225 269
#     4   9  17  32  52  69  87 116 155 193 227 270
#     4   8  16  32  52  69  86 116 157 193 225 269
#     4   9  16  26  40  59  86 120 155 189 223 263
#
# _framework density 18.019071
#
# number of rings (size 3 to 8) (size 9 to 14) (size 15 to 20)
#    0.000    3.000    0.000    2.571    0.000    6.286 
#    0.000    2.857    0.000    0.000    0.000    1.000 
#    0.000    0.000    0.000    0.000    0.000    0.000 
#
# Total GULP energy -347148.519376 kJ/mol
# GULP energy per Si atom -12398.161406 kJ/mol
# Density = 1.797806 g / cm^3
# Si number density = 18.019071 Si / 1000 Ang^3
#
#
#
# Elastic Constant Matrix: (Units=GPa)
#
#
# Indices 1 2 3 4 5 6 
#
# 1 32.7383 24.4922 35.6284 0.0000 19.6750 0.0002
# 2 24.4922 102.7701 48.5409 0.0000 18.2318 0.0006
# 3 35.6284 48.5409 113.6512 0.0000 42.5389 0.0000
# 4 0.0000 0.0000 0.0000 35.1495 0.0000 -1.4326
# 5 19.6750 18.2318 42.5389 0.0000 22.8596 0.0000
# 6 0.0002 0.0006 0.0000 -1.4326 0.0000 10.5200
#
#
#
# Elastic Compliance Matrix: (Units=1/GPa)
#
#
# Indices 1 2 3 4 5 6 
#
# 1 0.067841 -0.007622 0.005166 0.000000 -0.061924 -0.000001
# 2 -0.007622 0.013046 -0.005745 0.000000 0.006846 -0.000001
# 3 0.005166 -0.005745 0.031574 0.000000 -0.058621 0.000000
# 4 0.000000 0.000000 0.000000 0.028609 0.000000 0.003896
# 5 -0.061924 0.006846 -0.058621 0.000000 0.200668 0.000001
# 6 -0.000001 -0.000001 0.000000 0.003896 0.000001 0.095588
#
#
# Mechanical properties :
#
#
# Convention : Reuss Voigt Hill
#
# Bulk Modulus (GPa) = 10.41035 51.83138 31.12086
# Shear Modulus (GPa) = 10.29341 23.07236 16.68289
#
# Velocity S-wave (km/s) = 2.39268 3.58221 3.04607
# Velocity P-wave (km/s) = 3.66376 6.77767 5.44793
#
# Compressibility (1/GPa) = 0.09605829
#
# Stress axis : x y z
#
# Youngs Moduli (GPa) = 14.74045 76.65214 31.67116
#
# Poissons Ratio (x) = 0.58426 -0.16361
# Poissons Ratio (y) = 0.11236 0.18195
# Poissons Ratio (z) = -0.07615 0.44037
#
# Static dielectric constant tensor:
#      x y z
#    x 2.937510 0.000000 0.293850 
#    y 0.000000 3.298240 0.000000 
#    z 0.293850 0.000000 3.607490 
# 
# 
# High freq. dielectric constant tensor:
#      x y z
#    x 1.641770 0.000000 0.013850 
#    y 0.000000 1.692330 0.000000 
#    z 0.013850 0.000000 1.711110 
# 
# From -- ./inp_files/275509.got.cif
#   From: 2010.06.25/outbox.cif.g09.slc.cpg/sg12_138_cif.got.tgz:275509.got - 2010.06.28 00:19:55.
