data_PCOD8084604
_publ_section_title
;
Structure prediction by ZEFSAII (Michael W. Deem and Ramdas Pophale) SiO2 
 PCOD8084604
Probable space group: C 2/M
;
_chemical_formula_sum "Si O2"
_cell_formula_units_Z 48
_cell_length_a 9.715519
_cell_length_b 30.614411
_cell_length_c 18.846072
_cell_angle_alpha 90.000000
_cell_angle_beta 24.947780
_cell_angle_gamma 90.000000
_cell_volume 2364.346739
_symmetry_space_group_name_H-M "C 2/M"
_symmetry_group_IT_number 12
_symmetry_cell_setting 'monoclinic'
loop_
_space_group_symop_operation_xyz
x,y,z
-x,y,-z
-x,-y,-z
x,-y,z
1/2+x,1/2+y,z
1/2-x,1/2+y,-z
1/2-x,1/2-y,-z
1/2+x,1/2-y,z
loop_
_atom_site_type_symbol
_atom_site_label
_atom_site_fract_x
_atom_site_fract_y
_atom_site_fract_z
Si Si1 0.191238 0.831270 0.840464
Si Si2 0.237494 0.500000 0.563129
Si Si3 0.223993 0.595057 0.570230
Si Si4 0.379114 0.406111 0.339840
Si Si5 0.321800 0.244872 0.384150
Si Si6 0.365832 0.678366 0.844370
Si Si7 0.622787 0.500000 0.658800
O O1 0.439023 0.869586 0.704552
O O2 0.378931 0.786891 0.770551
O O3 0.944830 0.820798 0.891135
O O4 0.000000 0.845958 0.000000
O O5 0.500000 0.500000 0.500000
O O6 0.047621 0.546663 0.658720
O O7 0.433871 0.500000 0.398384
O O8 0.500000 0.603468 0.500000
O O9 0.420416 0.598588 0.404867
O O10 0.601321 0.370987 0.197509
O O11 0.514438 0.453653 0.248058
O O12 0.000000 0.399225 0.500000
O O13 0.250000 0.250000 0.500000
O O14 0.388780 0.291154 0.314832
O O15 0.000000 0.223821 0.500000
O O16 0.000000 0.694654 0.000000
O O17 0.000000 0.500000 0.500000
#
# Coordination Sequence:
#
# PCOD8084604 Si02
#       7
#     8   4   8   8   8   8   4
#     4  12  27  43  61  91 128 161 199 247 305 367
#     4   8  16  32  57  90 122 152 201 258 300 341
#     4  10  20  37  64  93 121 161 208 254 299 354
#     4  10  18  38  63  88 121 157 209 254 296 350
#     4  12  25  45  71  92 114 153 205 253 301 359
#     4  12  27  43  61  90 129 163 194 249 310 360
#     4   8  16  28  59  92 110 152 205 256 296 338
#
# _framework density 20.301590000000001
#
# number of rings (size 3 to 8) (size 9 to 14) (size 15 to 20)
#    0.000    1.333    3.333    2.500    4.667    1.333 
#    0.000    0.833    0.000    0.000    0.000    0.000 
#    0.000    0.000    0.000    0.000    0.000    0.000 
#
# Total GULP energy -297436.618145 kJ/mol
# GULP energy per Si atom -12393.192423 kJ/mol
# Density = 2.025538 g / cm^3
# Si number density = 20.301590 Si / 1000 Ang^3
#
#
#
# Elastic Constant Matrix: (Units=GPa)
#
#
# Indices 1 2 3 4 5 6 
#
# 1 150.0768 19.0992 29.1929 0.0000 -2.5090 0.0007
# 2 19.0992 126.2343 23.0713 -0.0001 3.5305 0.0001
# 3 29.1929 23.0713 58.4393 -0.0004 0.8501 0.0014
# 4 0.0000 -0.0001 -0.0004 15.2685 -0.0003 2.4290
# 5 -2.5090 3.5305 0.8501 -0.0003 33.6702 -0.0007
# 6 0.0007 0.0001 0.0014 2.4290 -0.0007 26.3255
#
#
#
# Elastic Compliance Matrix: (Units=1/GPa)
#
#
# Indices 1 2 3 4 5 6 
#
# 1 0.007423 -0.000499 -0.003521 0.000000 0.000694 0.000000
# 2 -0.000499 0.008594 -0.003131 0.000000 -0.000859 0.000000
# 3 -0.003521 -0.003131 0.020113 0.000001 -0.000442 -0.000001
# 4 0.000000 0.000000 0.000001 0.066470 0.000000 -0.006133
# 5 0.000694 -0.000859 -0.000442 0.000000 0.029853 0.000001
# 6 0.000000 0.000000 -0.000001 -0.006133 0.000001 0.038552
#
#
# Mechanical properties :
#
#
# Convention : Reuss Voigt Hill
#
# Bulk Modulus (GPa) = 45.81338 53.05304 49.43321
# Shear Modulus (GPa) = 25.96277 32.61197 29.28737
#
# Velocity S-wave (km/s) = 3.57999 4.01231 3.80230
# Velocity P-wave (km/s) = 6.30109 6.90319 6.60900
#
# Compressibility (1/GPa) = 0.02182769
#
# Stress axis : x y z
#
# Youngs Moduli (GPa) = 134.71024 116.36670 49.71832
#
# Poissons Ratio (x) = 0.05806 0.17508
# Poissons Ratio (y) = 0.06722 0.15566
# Poissons Ratio (z) = 0.47437 0.36433
#
# Static dielectric constant tensor:
#      x y z
#    x 3.960460 0.000000 0.027630 
#    y 0.000000 4.454660 0.000000 
#    z 0.027630 0.000000 3.257530 
# 
# 
# High freq. dielectric constant tensor:
#      x y z
#    x 1.819050 0.000000 0.001780 
#    y 0.000000 1.819860 0.000000 
#    z 0.001780 0.000000 1.741050 
# 
# From -- ./inp_files/260260.got.cif
#   From: 2010.06.25/outbox.cif.g09.slc.cpg/sg12_131_cif.got.tgz:260260.got - 2010.06.28 00:19:55.
