data_PCOD8084920
_publ_section_title
;
Structure prediction by ZEFSAII (Michael W. Deem and Ramdas Pophale) SiO2 
 PCOD8084920
Probable space group: C 2/M
;
_chemical_formula_sum "Si O2"
_cell_formula_units_Z 56
_cell_length_a 27.194264
_cell_length_b 8.937027
_cell_length_c 16.012630
_cell_angle_alpha 90.000000
_cell_angle_beta 65.041050
_cell_angle_gamma 90.000000
_cell_volume 3528.204236
_symmetry_space_group_name_H-M "C 2/M"
_symmetry_group_IT_number 12
_symmetry_cell_setting 'monoclinic'
loop_
_space_group_symop_operation_xyz
x,y,z
-x,y,-z
-x,-y,-z
x,-y,z
1/2+x,1/2+y,z
1/2-x,1/2+y,-z
1/2-x,1/2-y,-z
1/2+x,1/2-y,z
loop_
_atom_site_type_symbol
_atom_site_label
_atom_site_fract_x
_atom_site_fract_y
_atom_site_fract_z
Si Si1 0.395188 0.677189 0.191892
Si Si2 0.078146 0.824674 0.457941
Si Si3 0.807092 0.674049 0.360142
Si Si4 0.184898 0.827704 0.474997
Si Si5 0.055776 0.835144 0.009530
Si Si6 0.987563 0.324755 0.629271
Si Si7 0.499937 0.826794 0.811360
O O1 0.397014 0.500000 0.200055
O O2 0.338213 0.739849 0.264710
O O3 0.444317 0.740733 0.211887
O O4 0.400407 0.723411 0.090027
O O5 0.140689 0.793641 0.435674
O O6 0.040854 0.759623 0.558354
O O7 0.065100 0.740883 0.380475
O O8 0.066192 0.000000 0.456742
O O9 0.819873 0.500000 0.342610
O O10 0.827936 0.727199 0.435469
O O11 0.743547 0.711365 0.394719
O O12 0.182751 0.000000 0.505770
O O13 0.049132 0.724734 0.092717
O O14 0.071836 0.000000 0.031610
O O15 0.000000 0.845865 0.000000
O O16 0.993421 0.500000 0.605829
O O17 0.980253 0.293056 0.732096
O O18 0.511453 0.000000 0.818514
#
# Coordination Sequence:
#
# PCOD8084920 Si02
#       7
#     8   8   8   8   8   8   8
#     4  10  19  30  44  64  91 120 148 178 214 257
#     4  10  19  31  47  64  84 115 150 180 212 252
#     4  10  19  30  46  67  89 116 148 179 216 258
#     4   9  19  33  46  64  90 116 146 183 217 255
#     4   8  16  29  43  61  87 117 145 176 215 258
#     4  10  20  31  43  64  91 115 143 179 217 256
#     4  10  19  29  44  66  90 117 147 179 217 259
#
# _framework density 15.872096000000001
#
# number of rings (size 3 to 8) (size 9 to 14) (size 15 to 20)
#    0.000    2.429    0.000    4.714    0.000    9.429 
#    0.000    0.000    0.000    0.000    0.000    1.000 
#    0.000    0.000    0.000    0.000    0.000    0.000 
#
# Total GULP energy -347161.115920 kJ/mol
# GULP energy per Si atom -12398.611283 kJ/mol
# Density = 1.583597 g / cm^3
# Si number density = 15.872096 Si / 1000 Ang^3
#
#
#
# Elastic Constant Matrix: (Units=GPa)
#
#
# Indices 1 2 3 4 5 6 
#
# 1 81.8734 35.2925 46.1093 0.0000 1.4327 0.0000
# 2 35.2925 85.0472 56.3033 0.0000 3.2968 0.0000
# 3 46.1093 56.3033 126.7296 0.0000 -1.0918 0.0000
# 4 0.0000 0.0000 0.0000 29.9460 0.0000 -0.0661
# 5 1.4327 3.2968 -1.0918 0.0000 20.8738 0.0000
# 6 0.0000 0.0000 0.0000 -0.0661 0.0000 20.4493
#
#
#
# Elastic Compliance Matrix: (Units=1/GPa)
#
#
# Indices 1 2 3 4 5 6 
#
# 1 0.016285 -0.003972 -0.004167 0.000000 -0.000708 0.000000
# 2 -0.003972 0.017819 -0.006496 0.000000 -0.002881 0.000000
# 3 -0.004167 -0.006496 0.012310 0.000000 0.001956 0.000000
# 4 0.000000 0.000000 0.000000 0.033394 0.000000 0.000108
# 5 -0.000708 -0.002881 0.001956 0.000000 0.048513 0.000000
# 6 0.000000 0.000000 0.000000 0.000108 0.000000 0.048902
#
#
# Mechanical properties :
#
#
# Convention : Reuss Voigt Hill
#
# Bulk Modulus (GPa) = 58.32928 63.22894 60.77911
# Shear Modulus (GPa) = 23.56196 24.65015 24.10605
#
# Velocity S-wave (km/s) = 3.85709 3.94515 3.90137
# Velocity P-wave (km/s) = 7.52765 7.78943 7.65966
#
# Compressibility (1/GPa) = 0.01714405
#
# Stress axis : x y z
#
# Youngs Moduli (GPa) = 61.40574 56.12050 81.23655
#
# Poissons Ratio (x) = 0.22292 0.33848
# Poissons Ratio (y) = 0.24391 0.52772
# Poissons Ratio (z) = 0.25585 0.36457
#
# Static dielectric constant tensor:
#      x y z
#    x 2.846340 0.000000 -0.065750 
#    y 0.000000 3.161790 0.000000 
#    z -0.065750 0.000000 3.241160 
# 
# 
# High freq. dielectric constant tensor:
#      x y z
#    x 1.577130 0.000000 -0.001910 
#    y 0.000000 1.625890 0.000000 
#    z -0.001910 0.000000 1.605920 
# 
# From -- ./inp_files/248145.got.cif
#   From: 2010.06.25/outbox.cif.g09.slc.cpg/sg12_125_cif.got.tgz:248145.got - 2010.06.28 00:19:55.
