data_PCOD8084485
_publ_section_title
;
Structure prediction by ZEFSAII (Michael W. Deem and Ramdas Pophale) SiO2 
 PCOD8084485
Probable space group: C 2/M
;
_chemical_formula_sum "Si O2"
_cell_formula_units_Z 52
_cell_length_a 11.824339
_cell_length_b 25.420150
_cell_length_c 16.947799
_cell_angle_alpha 90.000000
_cell_angle_beta 32.509214
_cell_angle_gamma 90.000000
_cell_volume 2737.753978
_symmetry_space_group_name_H-M "C 2/M"
_symmetry_group_IT_number 12
_symmetry_cell_setting 'monoclinic'
loop_
_space_group_symop_operation_xyz
x,y,z
-x,y,-z
-x,-y,-z
x,-y,z
1/2+x,1/2+y,z
1/2-x,1/2+y,-z
1/2-x,1/2-y,-z
1/2+x,1/2-y,z
loop_
_atom_site_type_symbol
_atom_site_label
_atom_site_fract_x
_atom_site_fract_y
_atom_site_fract_z
Si Si1 0.437734 0.500000 0.916195
Si Si2 0.726995 0.300239 0.458615
Si Si3 0.110359 0.173976 0.857864
Si Si4 0.153640 0.500000 0.237477
Si Si5 0.255681 0.718186 0.724553
Si Si6 0.000000 0.654288 0.000000
Si Si7 0.540531 0.109975 0.272072
Si Si8 0.765328 0.890653 0.977898
O O1 0.691793 0.500000 0.777535
O O2 0.313509 0.500000 0.070827
O O3 0.372096 0.447693 0.907597
O O4 0.750000 0.250000 0.500000
O O5 0.830580 0.287430 0.313251
O O6 0.479314 0.310858 0.599236
O O7 0.847771 0.353177 0.414857
O O8 0.264188 0.219033 0.733714
O O9 0.247294 0.124830 0.806201
O O10 0.000000 0.198549 0.000000
O O11 0.941621 0.153857 0.892777
O O12 0.997585 0.550250 0.325287
O O13 0.100457 0.691454 0.875954
O O14 0.168060 0.619073 0.948435
O O15 0.583885 0.111855 0.152241
#
# Coordination Sequence:
#
# PCOD8084485 Si02
#       8
#     4   8   8   4   8   4   8   8
#     4   9  16  33  54  92 117 148 198 251 305 350
#     4  11  23  39  58  85 122 161 201 245 301 367
#     4  10  19  32  58  89 116 151 199 252 296 348
#     4   9  16  30  62  87 118 150 194 259 305 346
#     4  11  24  38  56  85 122 163 201 241 299 365
#     4  12  24  39  56  86 122 169 198 240 302 358
#     4  10  18  36  58  90 119 153 201 251 304 354
#     4  10  21  33  58  86 124 156 198 250 299 355
#
# _framework density 18.993670999999999
#
# number of rings (size 3 to 8) (size 9 to 14) (size 15 to 20)
#    0.000    1.692    5.385    0.000    2.154    0.923 
#    0.000    0.000    0.000    3.692    0.000    2.154 
#    0.000    0.000    0.000    0.000    0.000    0.000 
#
# Total GULP energy -322276.908825 kJ/mol
# GULP energy per Si atom -12395.265724 kJ/mol
# Density = 1.895044 g / cm^3
# Si number density = 18.993671 Si / 1000 Ang^3
#
#
#
# Elastic Constant Matrix: (Units=GPa)
#
#
# Indices 1 2 3 4 5 6 
#
# 1 123.9160 50.0243 29.7884 -0.0027 -1.9958 0.0043
# 2 50.0243 143.3187 46.8499 -0.0042 -6.4445 0.0042
# 3 29.7884 46.8499 69.6838 -0.0327 -0.9731 0.0326
# 4 -0.0027 -0.0042 -0.0327 29.7118 -0.0003 -5.0281
# 5 -1.9958 -6.4445 -0.9731 -0.0003 22.9823 -0.0074
# 6 0.0043 0.0042 0.0326 -5.0281 -0.0074 19.7924
#
#
#
# Elastic Compliance Matrix: (Units=1/GPa)
#
#
# Indices 1 2 3 4 5 6 
#
# 1 0.009696 -0.002600 -0.002396 -0.000002 0.000011 0.000002
# 2 -0.002600 0.009759 -0.005417 -0.000004 0.002281 0.000007
# 3 -0.002396 -0.005417 0.019004 0.000016 -0.000923 -0.000026
# 4 -0.000002 -0.000004 0.000016 0.035169 0.000003 0.008934
# 5 0.000011 0.002281 -0.000923 0.000003 0.044113 0.000018
# 6 0.000002 0.000007 -0.000026 0.008934 0.000018 0.052794
#
#
# Mechanical properties :
#
#
# Convention : Reuss Voigt Hill
#
# Bulk Modulus (GPa) = 56.71994 65.58263 61.15128
# Shear Modulus (GPa) = 25.34977 28.51435 26.93206
#
# Velocity S-wave (km/s) = 3.65724 3.87881 3.76965
# Velocity P-wave (km/s) = 6.91095 7.39350 7.15629
#
# Compressibility (1/GPa) = 0.01763048
#
# Stress axis : x y z
#
# Youngs Moduli (GPa) = 103.13507 102.47335 52.61956
#
# Poissons Ratio (x) = 0.26648 0.12609
# Poissons Ratio (y) = 0.26820 0.28506
# Poissons Ratio (z) = 0.24715 0.55514
#
# Static dielectric constant tensor:
#      x y z
#    x 3.541080 -0.000020 -0.041860 
#    y -0.000020 3.526690 0.000040 
#    z -0.041860 0.000040 3.261600 
# 
# 
# High freq. dielectric constant tensor:
#      x y z
#    x 1.735110 0.000000 -0.009020 
#    y 0.000000 1.740610 0.000000 
#    z -0.009020 0.000000 1.707210 
# 
# From -- ./inp_files/52596.got.cif
#   From: 2010.06.25/outbox.cif.g09.slc.cpg/sg12_27_cif.got.tgz:52596.got - 2010.06.28 00:19:55.
