data_PCOD8084578
_publ_section_title
;
Structure prediction by ZEFSAII (Michael W. Deem and Ramdas Pophale) SiO2 
 PCOD8084578
Probable space group: C 2/M
;
_chemical_formula_sum "Si O2"
_cell_formula_units_Z 52
_cell_length_a 9.094225
_cell_length_b 31.603691
_cell_length_c 15.564502
_cell_angle_alpha 90.000000
_cell_angle_beta 142.895595
_cell_angle_gamma 90.000000
_cell_volume 2698.671113
_symmetry_space_group_name_H-M "C 2/M"
_symmetry_group_IT_number 12
_symmetry_cell_setting 'monoclinic'
loop_
_space_group_symop_operation_xyz
x,y,z
-x,y,-z
-x,-y,-z
x,-y,z
1/2+x,1/2+y,z
1/2-x,1/2+y,-z
1/2-x,1/2-y,-z
1/2+x,1/2-y,z
loop_
_atom_site_type_symbol
_atom_site_label
_atom_site_fract_x
_atom_site_fract_y
_atom_site_fract_z
Si Si1 0.269263 0.210609 0.833659
Si Si2 0.776666 0.000000 0.651275
Si Si3 0.743633 0.000000 0.840125
Si Si4 0.123668 0.137949 0.648353
Si Si5 0.275915 0.085622 0.455032
Si Si6 0.500000 0.643834 0.000000
Si Si7 0.030444 0.586616 0.754999
Si Si8 0.467790 0.283173 0.114577
O O1 0.244123 0.180389 0.740484
O O2 0.292781 0.258980 0.809083
O O3 0.026817 0.207637 0.780595
O O4 0.500000 0.196813 0.000000
O O5 0.500000 0.000000 0.500000
O O6 0.867258 0.043911 0.649250
O O7 0.798042 0.000000 0.763513
O O8 0.604565 0.960266 0.815630
O O9 0.000000 0.000000 0.000000
O O10 0.339054 0.104088 0.735005
O O11 0.000000 0.149103 0.500000
O O12 0.932718 0.120904 0.630274
O O13 0.500000 0.101367 0.500000
O O14 0.398429 0.078770 0.603545
O O15 0.270704 0.615957 0.862397
O O16 0.576923 0.673134 0.955928
O O17 0.250000 0.250000 0.000000
#
# Coordination Sequence:
#
# PCOD8084578 Si02
#       8
#     8   4   4   8   8   4   8   8
#     4  10  20  38  61  88 118 155 204 257 303 367
#     4  10  18  37  65  83 115 159 211 247 285 370
#     4  12  22  39  59  95 128 162 198 251 310 353
#     4  10  24  41  60  90 129 160 204 261 304 361
#     4  10  20  39  63  86 114 164 210 247 298 363
#     4  12  22  35  64  94 124 166 200 255 320 364
#     4  11  22  37  62  89 126 162 203 251 301 365
#     4  10  19  35  59  87 116 156 204 249 302 369
#
# _framework density 19.268744000000002
#
# number of rings (size 3 to 8) (size 9 to 14) (size 15 to 20)
#    0.000    1.538    6.154    1.846    2.154    0.615 
#    2.769    3.077    0.000    0.923    0.000    0.000 
#    0.000    0.000    0.000    0.000    0.000    0.000 
#
# Total GULP energy -322122.662381 kJ/mol
# GULP energy per Si atom -12389.333169 kJ/mol
# Density = 1.922489 g / cm^3
# Si number density = 19.268744 Si / 1000 Ang^3
#
#
#
# Elastic Constant Matrix: (Units=GPa)
#
#
# Indices 1 2 3 4 5 6 
#
# 1 112.8013 39.8545 24.2446 0.0000 -8.7308 0.0000
# 2 39.8545 121.5157 41.1123 0.0000 -7.4258 0.0000
# 3 24.2446 41.1123 76.6872 0.0000 -3.5821 0.0000
# 4 0.0000 0.0000 0.0000 24.9419 0.0000 -8.0812
# 5 -8.7308 -7.4258 -3.5821 0.0000 26.3092 0.0000
# 6 0.0000 0.0000 0.0000 -8.0812 0.0000 30.7057
#
#
#
# Elastic Compliance Matrix: (Units=1/GPa)
#
#
# Indices 1 2 3 4 5 6 
#
# 1 0.010369 -0.002664 -0.001736 0.000000 0.002453 0.000000
# 2 -0.002664 0.010856 -0.004907 0.000000 0.001512 0.000000
# 3 -0.001736 -0.004907 0.016231 0.000000 0.000249 0.000000
# 4 0.000000 0.000000 0.000000 0.043831 0.000000 0.011536
# 5 0.002453 0.001512 0.000249 0.000000 0.039284 0.000000
# 6 0.000000 0.000000 0.000000 0.011536 0.000000 0.035603
#
#
# Mechanical properties :
#
#
# Convention : Reuss Voigt Hill
#
# Bulk Modulus (GPa) = 53.06976 57.93634 55.50305
# Shear Modulus (GPa) = 27.61399 30.11086 28.86243
#
# Velocity S-wave (km/s) = 3.78973 3.95736 3.87445
# Velocity P-wave (km/s) = 6.83748 7.14239 6.99160
#
# Compressibility (1/GPa) = 0.01884312
#
# Stress axis : x y z
#
# Youngs Moduli (GPa) = 96.43953 92.11826 61.61071
#
# Poissons Ratio (x) = 0.24538 0.10693
# Poissons Ratio (y) = 0.25689 0.30232
# Poissons Ratio (z) = 0.16738 0.45202
#
# Static dielectric constant tensor:
#      x y z
#    x 4.202440 0.000000 -0.059940 
#    y 0.000000 3.196700 0.000000 
#    z -0.059940 0.000000 3.440250 
# 
# 
# High freq. dielectric constant tensor:
#      x y z
#    x 1.756210 0.000000 -0.009180 
#    y 0.000000 1.754790 0.000000 
#    z -0.009180 0.000000 1.726920 
# 
# From -- ./inp_files/201407.got.cif
#   From: 2010.06.25/outbox.cif.g09.slc.cpg/sg12_101_cif.got.tgz:201407.got - 2010.06.28 00:19:55.
