data_PCOD8084145
_publ_section_title
;
Structure prediction by ZEFSAII (Michael W. Deem and Ramdas Pophale) SiO2 
 PCOD8084145
Probable space group: C 2/M
;
_chemical_formula_sum "Si O2"
_cell_formula_units_Z 64
_cell_length_a 15.443483
_cell_length_b 8.972839
_cell_length_c 23.891312
_cell_angle_alpha 90.000000
_cell_angle_beta 91.473231
_cell_angle_gamma 90.000000
_cell_volume 3309.569823
_symmetry_space_group_name_H-M "C 2/M"
_symmetry_group_IT_number 12
_symmetry_cell_setting 'monoclinic'
loop_
_space_group_symop_operation_xyz
x,y,z
-x,y,-z
-x,-y,-z
x,-y,z
1/2+x,1/2+y,z
1/2-x,1/2+y,-z
1/2-x,1/2-y,-z
1/2+x,1/2-y,z
loop_
_atom_site_type_symbol
_atom_site_label
_atom_site_fract_x
_atom_site_fract_y
_atom_site_fract_z
Si Si1 0.993159 0.823663 0.064035
Si Si2 0.587134 0.671063 0.256793
Si Si3 0.843672 0.176364 0.362196
Si Si4 0.846861 0.676465 0.132438
Si Si5 0.092060 0.675398 0.743884
Si Si6 0.846311 0.823685 0.861296
Si Si7 0.505163 0.677340 0.437192
Si Si8 0.827255 0.828947 0.625296
O O1 0.906389 0.753158 0.087274
O O2 0.078391 0.760254 0.097104
O O3 0.986383 0.000000 0.070905
O O4 0.000000 0.774839 0.000000
O O5 0.554861 0.500000 0.250287
O O6 0.506026 0.775421 0.267562
O O7 0.635182 0.727495 0.201814
O O8 0.653428 0.686719 0.308640
O O9 0.847089 0.246121 0.300507
O O10 0.756055 0.230088 0.390971
O O11 0.923683 0.236599 0.400440
O O12 0.844793 0.000000 0.357180
O O13 0.854085 0.500000 0.125460
O O14 0.877481 0.726509 0.194351
O O15 0.748307 0.734458 0.121510
O O16 0.101419 0.500000 0.736190
O O17 0.845316 0.000000 0.864352
O O18 0.500000 0.741058 0.500000
O O19 0.503801 0.500000 0.437129
O O20 0.593088 0.734633 0.409760
O O21 0.808273 0.000000 0.609209
#
# Coordination Sequence:
#
# PCOD8084145 Si02
#       8
#     8   8   8   8   8   8   8   8
#     4  10  21  37  57  81 109 144 188 235 276 319
#     4  10  18  34  59  82 109 151 187 217 279 347
#     4  11  22  37  58  85 114 149 188 227 280 337
#     4  10  21  37  57  81 109 146 184 222 273 334
#     4  11  21  34  56  85 115 143 182 233 281 331
#     4   9  18  34  56  78 109 146 179 217 273 336
#     4   9  19  37  59  81 110 151 194 231 273 332
#     4  10  20  36  58  84 113 147 187 229 278 335
#
# _framework density 19.337859999999999
#
# number of rings (size 3 to 8) (size 9 to 14) (size 15 to 20)
#    0.000    2.000    2.500    1.500    0.000    4.250 
#    0.000    1.250    0.000    2.625    0.000    0.000 
#    0.000    0.000    0.000    0.000    0.000    0.000 
#
# Total GULP energy -396867.653843 kJ/mol
# GULP energy per Si atom -12402.114183 kJ/mol
# Density = 1.929385 g / cm^3
# Si number density = 19.337860 Si / 1000 Ang^3
#
#
#
# Elastic Constant Matrix: (Units=GPa)
#
#
# Indices 1 2 3 4 5 6 
#
# 1 157.8921 32.3893 62.1128 0.0000 -20.8072 0.0000
# 2 32.3893 38.8393 29.5547 0.0000 -5.1093 0.0000
# 3 62.1128 29.5547 135.8140 0.0000 -18.9878 0.0000
# 4 0.0000 0.0000 0.0000 13.5867 0.0000 -7.3894
# 5 -20.8072 -5.1093 -18.9878 0.0000 20.6502 0.0000
# 6 0.0000 0.0000 0.0000 -7.3894 0.0000 33.4994
#
#
#
# Elastic Compliance Matrix: (Units=1/GPa)
#
#
# Indices 1 2 3 4 5 6 
#
# 1 0.009004 -0.005069 -0.002205 0.000000 0.005790 0.000000
# 2 -0.005069 0.033761 -0.005250 0.000000 -0.001581 0.000000
# 3 -0.002205 -0.005250 0.010353 0.000000 0.005998 0.000000
# 4 0.000000 0.000000 0.000000 0.083635 0.000000 0.018448
# 5 0.005790 -0.001581 0.005998 0.000000 0.059384 0.000000
# 6 0.000000 0.000000 0.000000 0.018448 0.000000 0.033921
#
#
# Mechanical properties :
#
#
# Convention : Reuss Voigt Hill
#
# Bulk Modulus (GPa) = 35.62544 64.51766 50.07155
# Shear Modulus (GPa) = 18.90641 27.44651 23.17646
#
# Velocity S-wave (km/s) = 3.13019 3.77147 3.46569
# Velocity P-wave (km/s) = 5.61487 7.23886 6.47796
#
# Compressibility (1/GPa) = 0.02806983
#
# Stress axis : x y z
#
# Youngs Moduli (GPa) = 111.06430 29.62016 96.59483
#
# Poissons Ratio (x) = 0.15014 0.21301
# Poissons Ratio (y) = 0.56296 0.50709
# Poissons Ratio (z) = 0.24492 0.15550
#
# Static dielectric constant tensor:
#      x y z
#    x 3.722610 0.000000 0.004140 
#    y 0.000000 3.194180 0.000000 
#    z 0.004140 0.000000 3.666730 
# 
# 
# High freq. dielectric constant tensor:
#      x y z
#    x 1.766870 0.000000 -0.004020 
#    y 0.000000 1.718860 0.000000 
#    z -0.004020 0.000000 1.753360 
# 
# From -- ./inp_files/338718.got.cif
#   From: 2010.06.25/outbox.cif.g09.slc.cpg/sg12_170_cif.got.tgz:338718.got - 2010.06.28 00:19:55.
