data_PCOD8084671
_publ_section_title
;
Structure prediction by ZEFSAII (Michael W. Deem and Ramdas Pophale) SiO2 
 PCOD8084671
Probable space group: C 2/M
;
_chemical_formula_sum "Si O2"
_cell_formula_units_Z 64
_cell_length_a 35.381815
_cell_length_b 13.491756
_cell_length_c 9.198124
_cell_angle_alpha 90.000000
_cell_angle_beta 105.068121
_cell_angle_gamma 90.000000
_cell_volume 4239.873894
_symmetry_space_group_name_H-M "C 2/M"
_symmetry_group_IT_number 12
_symmetry_cell_setting 'monoclinic'
loop_
_space_group_symop_operation_xyz
x,y,z
-x,y,-z
-x,-y,-z
x,-y,z
1/2+x,1/2+y,z
1/2-x,1/2+y,-z
1/2-x,1/2-y,-z
1/2+x,1/2-y,z
loop_
_atom_site_type_symbol
_atom_site_label
_atom_site_fract_x
_atom_site_fract_y
_atom_site_fract_z
Si Si1 0.956974 0.617589 0.294019
Si Si2 0.761740 0.110802 0.096191
Si Si3 0.881709 0.384070 0.051385
Si Si4 0.238260 0.110802 0.572711
Si Si5 0.808615 0.301324 0.139278
Si Si6 0.191385 0.301324 0.522049
Si Si7 0.881709 0.615930 0.712033
Si Si8 0.043026 0.382411 0.380071
O O1 0.957749 0.500000 0.293750
O O2 0.923646 0.655228 0.150676
O O3 0.947474 0.655525 0.447474
O O4 0.000000 0.657081 0.287950
O O5 0.746967 0.125822 0.246967
O O6 0.796609 0.187322 0.096647
O O7 0.778137 0.000000 0.088111
O O8 0.724989 0.126709 0.954492
O O9 0.875545 0.500000 0.080628
O O10 0.848884 0.320455 0.098039
O O11 0.879468 0.362720 0.879468
O O12 0.203391 0.187322 0.503430
O O13 0.275011 0.126709 0.504514
O O14 0.221863 0.000000 0.531838
O O15 0.814284 0.323920 0.314284
O O16 0.151117 0.320455 0.400272
O O17 0.875545 0.500000 0.670462
O O18 0.923646 0.655228 0.696616
O O19 0.042252 0.500000 0.378253
#
# Coordination Sequence:
#
# PCOD8084671 Si02
#       8
#     8   8   8   8   8   8   8   8
#     4   8  14  25  40  57  78 105 136 168 200 234
#     4   9  18  32  46  59  79 106 134 167 207 245
#     4  10  19  28  39  57  83 113 140 167 199 235
#     4   9  18  32  46  59  79 106 134 167 207 245
#     4  10  19  29  43  62  81 104 136 170 202 239
#     4  10  19  29  43  62  81 104 136 170 202 239
#     4  10  19  28  39  57  83 113 140 167 199 235
#     4   8  14  25  40  57  78 105 136 168 200 234
#
# _framework density 15.09479
#
# number of rings (size 3 to 8) (size 9 to 14) (size 15 to 20)
#    0.000    2.750    0.000    3.000    0.000    6.500 
#    0.000    2.500    0.000    0.000    0.000    0.000 
#    0.000    1.000    0.000   11.500    0.000    3.750 
#
# Total GULP energy -396712.231741 kJ/mol
# GULP energy per Si atom -12397.257242 kJ/mol
# Density = 1.506043 g / cm^3
# Si number density = 15.094790 Si / 1000 Ang^3
#
#
#
# Elastic Constant Matrix: (Units=GPa)
#
#
# Indices 1 2 3 4 5 6 
#
# 1 132.9741 41.1196 72.6445 0.0000 -0.2953 0.0000
# 2 41.1196 64.9783 35.3445 0.0000 0.8363 0.0000
# 3 72.6445 35.3445 97.3039 0.0000 5.4606 0.0000
# 4 0.0000 0.0000 0.0000 16.5831 0.0000 0.0396
# 5 -0.2953 0.8363 5.4606 0.0000 30.3511 0.0000
# 6 0.0000 0.0000 0.0000 0.0396 0.0000 16.8564
#
#
#
# Elastic Compliance Matrix: (Units=1/GPa)
#
#
# Indices 1 2 3 4 5 6 
#
# 1 0.013508 -0.003777 -0.008815 0.000000 0.001821 0.000000
# 2 -0.003777 0.020251 -0.004549 0.000000 0.000224 0.000000
# 3 -0.008815 -0.004549 0.018697 0.000000 -0.003324 0.000000
# 4 0.000000 0.000000 0.000000 0.060303 0.000000 -0.000142
# 5 0.001821 0.000224 -0.003324 0.000000 0.033557 0.000000
# 6 0.000000 0.000000 0.000000 -0.000142 0.000000 0.059325
#
#
# Mechanical properties :
#
#
# Convention : Reuss Voigt Hill
#
# Bulk Modulus (GPa) = 55.02128 65.94150 60.48139
# Shear Modulus (GPa) = 20.32679 22.50131 21.41405
#
# Velocity S-wave (km/s) = 3.67360 3.86510 3.77057
# Velocity P-wave (km/s) = 7.38400 7.98113 7.68836
#
# Compressibility (1/GPa) = 0.01817479
#
# Stress axis : x y z
#
# Youngs Moduli (GPa) = 74.03124 49.37977 53.48434
#
# Poissons Ratio (x) = 0.18649 0.47146
# Poissons Ratio (y) = 0.27959 0.24330
# Poissons Ratio (z) = 0.65258 0.22463
#
# Static dielectric constant tensor:
#      x y z
#    x 3.080140 0.000000 0.003830 
#    y 0.000000 2.650360 0.000000 
#    z 0.003830 0.000000 3.053650 
# 
# 
# High freq. dielectric constant tensor:
#      x y z
#    x 1.576860 0.000000 -0.001940 
#    y 0.000000 1.531750 0.000000 
#    z -0.001940 0.000000 1.590260 
# 
# From -- ./inp_files/111229.got.cif
#   From: 2010.06.25/outbox.cif.g09.slc.cpg/sg12_56_cif.got.tgz:111229.got - 2010.06.28 00:19:55.
