data_PCOD8084104
_publ_section_title
;
Structure prediction by ZEFSAII (Michael W. Deem and Ramdas Pophale) SiO2 
 PCOD8084104
Probable space group: C 2/M
;
_chemical_formula_sum "Si O2"
_cell_formula_units_Z 40
_cell_length_a 22.409386
_cell_length_b 12.625990
_cell_length_c 8.985148
_cell_angle_alpha 90.000000
_cell_angle_beta 128.924476
_cell_angle_gamma 90.000000
_cell_volume 1977.817313
_symmetry_space_group_name_H-M "C 2/M"
_symmetry_group_IT_number 12
_symmetry_cell_setting 'monoclinic'
loop_
_space_group_symop_operation_xyz
x,y,z
-x,y,-z
-x,-y,-z
x,-y,z
1/2+x,1/2+y,z
1/2-x,1/2+y,-z
1/2-x,1/2-y,-z
1/2+x,1/2-y,z
loop_
_atom_site_type_symbol
_atom_site_label
_atom_site_fract_x
_atom_site_fract_y
_atom_site_fract_z
Si Si1 0.622070 0.380592 0.859958
Si Si2 0.831939 0.374996 0.543429
Si Si3 0.681208 0.273027 0.215802
Si Si4 0.414375 0.185813 0.372974
Si Si5 0.780884 0.614693 0.962237
O O1 0.589580 0.500000 0.799968
O O2 0.580649 0.309855 0.669370
O O3 0.614489 0.333788 0.016689
O O4 0.713636 0.374498 0.977313
O O5 0.847155 0.500000 0.592096
O O6 0.740442 0.356769 0.380304
O O7 0.859045 0.303933 0.726619
O O8 0.881775 0.330582 0.485906
O O9 0.731888 0.199832 0.185675
O O10 0.500000 0.138351 0.500000
O O11 0.361853 0.125151 0.172272
O O12 0.777931 0.500000 0.880610
#
# Coordination Sequence:
#
# PCOD8084104 Si02
#       5
#     8   8   8   8   8
#     4  10  19  37  61  81 108 147 194 235 272 323
#     4  11  21  34  54  85 118 145 182 230 283 333
#     4  10  19  34  55  82 114 141 184 238 278 320
#     4  11  22  37  56  83 119 150 183 229 276 337
#     4  10  18  34  58  82 107 147 191 228 273 326
#
# _framework density 20.224316000000002
#
# number of rings (size 3 to 8) (size 9 to 14) (size 15 to 20)
#    0.000    1.600    4.000    3.000    0.000    2.000 
#    0.000    5.000    0.000    7.200    0.000    0.000 
#    0.000    0.000    0.000    0.000    0.000    0.000 
#
# Total GULP energy -247902.289944 kJ/mol
# GULP energy per Si atom -12395.114497 kJ/mol
# Density = 2.017828 g / cm^3
# Si number density = 20.224316 Si / 1000 Ang^3
#
#
#
# Elastic Constant Matrix: (Units=GPa)
#
#
# Indices 1 2 3 4 5 6 
#
# 1 63.2043 28.1898 31.9886 0.0000 -13.6133 0.0000
# 2 28.1898 112.9118 20.5453 0.0000 -24.7942 0.0000
# 3 31.9886 20.5453 50.7646 0.0000 -6.1527 0.0000
# 4 0.0000 0.0000 0.0000 12.5730 0.0000 -5.7621
# 5 -13.6133 -24.7942 -6.1527 0.0000 38.1590 0.0000
# 6 0.0000 0.0000 0.0000 -5.7621 0.0000 13.8567
#
#
#
# Elastic Compliance Matrix: (Units=1/GPa)
#
#
# Indices 1 2 3 4 5 6 
#
# 1 0.025292 -0.002615 -0.014271 0.000000 0.005023 0.000000
# 2 -0.002615 0.011223 -0.002166 0.000000 0.006010 0.000000
# 3 -0.014271 -0.002166 0.029354 0.000000 -0.001766 0.000000
# 4 0.000000 0.000000 0.000000 0.098262 0.000000 0.040861
# 5 0.005023 0.006010 -0.001766 0.000000 0.031619 0.000000
# 6 0.000000 0.000000 0.000000 0.040861 0.000000 0.089159
#
#
# Mechanical properties :
#
#
# Convention : Reuss Voigt Hill
#
# Bulk Modulus (GPa) = 36.01469 43.14758 39.58114
# Shear Modulus (GPa) = 15.04814 22.66154 18.85484
#
# Velocity S-wave (km/s) = 2.73071 3.35103 3.05665
# Velocity P-wave (km/s) = 5.27149 6.02938 5.66313
#
# Compressibility (1/GPa) = 0.02776645
#
# Stress axis : x y z
#
# Youngs Moduli (GPa) = 39.53761 89.10096 34.06718
#
# Poissons Ratio (x) = 0.23299 0.48616
# Poissons Ratio (y) = 0.10339 0.07379
# Poissons Ratio (z) = 0.56422 0.19300
#
# Static dielectric constant tensor:
#      x y z
#    x 3.416540 0.000000 -0.298970 
#    y 0.000000 3.992270 0.000000 
#    z -0.298970 0.000000 3.530370 
# 
# 
# High freq. dielectric constant tensor:
#      x y z
#    x 1.753120 0.000000 -0.024610 
#    y 0.000000 1.806920 0.000000 
#    z -0.024610 0.000000 1.773510 
# 
# From -- ./inp_files/72339.got.cif
#   From: 2010.06.25/outbox.cif.g09.slc.cpg/sg12_37_cif.got.tgz:72339.got - 2010.06.28 00:19:55.
