data_PCOD8084040
_publ_section_title
;
Structure prediction by ZEFSAII (Michael W. Deem and Ramdas Pophale) SiO2 
 PCOD8084040
Probable space group: C 2/M
;
_chemical_formula_sum "Si O2"
_cell_formula_units_Z 56
_cell_length_a 25.580837
_cell_length_b 9.253248
_cell_length_c 15.284449
_cell_angle_alpha 90.000000
_cell_angle_beta 128.307523
_cell_angle_gamma 90.000000
_cell_volume 2838.962247
_symmetry_space_group_name_H-M "C 2/M"
_symmetry_group_IT_number 12
_symmetry_cell_setting 'monoclinic'
loop_
_space_group_symop_operation_xyz
x,y,z
-x,y,-z
-x,-y,-z
x,-y,z
1/2+x,1/2+y,z
1/2-x,1/2+y,-z
1/2-x,1/2-y,-z
1/2+x,1/2-y,z
loop_
_atom_site_type_symbol
_atom_site_label
_atom_site_fract_x
_atom_site_fract_y
_atom_site_fract_z
Si Si1 0.123342 0.833175 0.518163
Si Si2 0.681052 0.172342 0.103465
Si Si3 0.882460 0.173021 0.122444
Si Si4 0.760020 0.657576 0.426328
Si Si5 0.380262 0.660025 0.806827
Si Si6 0.534054 0.671035 0.266654
Si Si7 0.331805 0.333517 0.254253
O O1 0.189928 0.741864 0.582512
O O2 0.067599 0.773044 0.393093
O O3 0.111292 0.813396 0.610398
O O4 0.138405 0.000000 0.511526
O O5 0.627831 0.233518 0.119202
O O6 0.757333 0.223104 0.202108
O O7 0.672856 0.000000 0.092547
O O8 0.663579 0.242851 0.992797
O O9 0.860557 0.233521 0.194824
O O10 0.958463 0.223349 0.186554
O O11 0.875148 0.000000 0.104116
O O12 0.789099 0.500000 0.480923
O O13 0.750000 0.750000 0.500000
O O14 0.691095 0.637736 0.307698
O O15 0.406498 0.500000 0.864224
O O16 0.428711 0.728891 0.782323
O O17 0.539613 0.500000 0.272565
O O18 0.321644 0.500000 0.223409
#
# Coordination Sequence:
#
# PCOD8084040 Si02
#       7
#     8   8   8   8   8   8   8
#     4  10  18  34  56  83 116 143 177 226 274 327
#     4  11  22  37  57  83 110 142 182 234 285 321
#     4  10  21  39  58  79 108 148 190 227 270 327
#     4  11  20  31  52  82 115 147 181 222 276 328
#     4  10  20  35  55  82 111 144 183 224 272 329
#     4   9  19  35  57  82 112 147 183 221 269 328
#     4   9  19  34  58  86 110 138 182 233 279 320
#
# _framework density 19.725518999999998
#
# number of rings (size 3 to 8) (size 9 to 14) (size 15 to 20)
#    0.000    2.000    2.857    1.286    0.000    1.714 
#    0.000    8.571    0.000    0.000    0.000    2.000 
#    0.000    0.000    0.000    0.000    0.000    0.000 
#
# Total GULP energy -346881.747385 kJ/mol
# GULP energy per Si atom -12388.633835 kJ/mol
# Density = 1.968062 g / cm^3
# Si number density = 19.725519 Si / 1000 Ang^3
#
#
#
# Elastic Constant Matrix: (Units=GPa)
#
#
# Indices 1 2 3 4 5 6 
#
# 1 90.7966 19.2836 35.5022 0.0000 -13.7504 0.0000
# 2 19.2836 56.4683 21.8950 0.0000 -10.9251 0.0000
# 3 35.5022 21.8950 75.8383 0.0000 -19.0365 0.0000
# 4 0.0000 0.0000 0.0000 22.7179 0.0000 -0.0455
# 5 -13.7504 -10.9251 -19.0365 0.0000 34.9521 0.0000
# 6 0.0000 0.0000 0.0000 -0.0455 0.0000 15.2136
#
#
#
# Elastic Compliance Matrix: (Units=1/GPa)
#
#
# Indices 1 2 3 4 5 6 
#
# 1 0.013880 -0.002304 -0.005378 0.000000 0.001811 0.000000
# 2 -0.002304 0.020720 -0.004060 0.000000 0.003359 0.000000
# 3 -0.005378 -0.004060 0.018564 0.000000 0.006726 0.000000
# 4 0.000000 0.000000 0.000000 0.044018 0.000000 0.000132
# 5 0.001811 0.003359 0.006726 0.000000 0.034036 0.000000
# 6 0.000000 0.000000 0.000000 0.000132 0.000000 0.065731
#
#
# Mechanical properties :
#
#
# Convention : Reuss Voigt Hill
#
# Bulk Modulus (GPa) = 33.69330 41.82941 37.76135
# Shear Modulus (GPa) = 21.70820 24.33821 23.02321
#
# Velocity S-wave (km/s) = 3.32100 3.51642 3.42011
# Velocity P-wave (km/s) = 5.64123 6.14319 5.89755
#
# Compressibility (1/GPa) = 0.02967949
#
# Stress axis : x y z
#
# Youngs Moduli (GPa) = 72.04572 48.26234 53.86783
#
# Poissons Ratio (x) = 0.11121 0.28969
# Poissons Ratio (y) = 0.16602 0.21872
# Poissons Ratio (z) = 0.38744 0.19596
#
# Static dielectric constant tensor:
#      x y z
#    x 3.758200 0.000000 -0.105500 
#    y 0.000000 3.384000 0.000000 
#    z -0.105500 0.000000 3.606090 
# 
# 
# High freq. dielectric constant tensor:
#      x y z
#    x 1.765600 0.000000 -0.014460 
#    y 0.000000 1.733850 0.000000 
#    z -0.014460 0.000000 1.776910 
# 
# From -- ./inp_files/238388.got.cif
#   From: 2010.06.25/outbox.cif.g09.slc.cpg/sg12_120_cif.got.tgz:238388.got - 2010.06.28 00:19:55.
