data_PCOD8084969
_publ_section_title
;
Structure prediction by ZEFSAII (Michael W. Deem and Ramdas Pophale) SiO2 
 PCOD8084969
Probable space group: C 2/M
;
_chemical_formula_sum "Si O2"
_cell_formula_units_Z 64
_cell_length_a 27.268430
_cell_length_b 9.315984
_cell_length_c 15.301689
_cell_angle_alpha 90.000000
_cell_angle_beta 111.077668
_cell_angle_gamma 90.000000
_cell_volume 3627.049917
_symmetry_space_group_name_H-M "C 2/M"
_symmetry_group_IT_number 12
_symmetry_cell_setting 'monoclinic'
loop_
_space_group_symop_operation_xyz
x,y,z
-x,y,-z
-x,-y,-z
x,-y,z
1/2+x,1/2+y,z
1/2-x,1/2+y,-z
1/2-x,1/2-y,-z
1/2+x,1/2-y,z
loop_
_atom_site_type_symbol
_atom_site_label
_atom_site_fract_x
_atom_site_fract_y
_atom_site_fract_z
Si Si1 0.956978 0.337440 0.547880
Si Si2 0.113285 0.834455 0.615257
Si Si3 0.178137 0.832316 0.131088
Si Si4 0.198747 0.838257 0.957642
Si Si5 0.030344 0.167961 0.712121
Si Si6 0.919826 0.664837 0.903318
Si Si7 0.026008 0.334282 0.881189
Si Si8 0.785860 0.165522 0.220868
O O1 0.944392 0.500000 0.569198
O O2 0.904052 0.263741 0.477229
O O3 0.000000 0.334073 0.500000
O O4 0.978015 0.247936 0.643953
O O5 0.078351 0.802214 0.677953
O O6 0.174092 0.797277 0.675236
O O7 0.106555 0.000000 0.583569
O O8 0.130972 0.759785 0.154860
O O9 0.234552 0.765080 0.192939
O O10 0.180488 0.000000 0.155185
O O11 0.162509 0.800897 0.018328
O O12 0.178720 0.811374 0.845762
O O13 0.216967 0.000000 0.981241
O O14 0.250000 0.750000 0.000000
O O15 0.045799 0.232683 0.815934
O O16 0.018272 0.000000 0.713992
O O17 0.902164 0.500000 0.893284
O O18 0.964027 0.691091 0.858388
O O19 0.942409 0.709142 0.012094
O O20 0.036427 0.500000 0.863013
O O21 0.767379 0.000000 0.214346
#
# Coordination Sequence:
#
# PCOD8084969 Si02
#       8
#     8   8   8   8   8   8   8   8
#     4   9  17  30  47  67  95 127 158 192 230 278
#     4   9  18  30  46  69  98 129 159 193 232 278
#     4  10  19  29  45  67  92 120 157 201 237 273
#     4   8  15  26  39  56  83 116 151 188 222 261
#     4  10  19  30  49  73  98 125 155 193 239 284
#     4   9  19  35  51  66  91 126 160 197 240 282
#     4   9  19  35  51  69  92 121 161 200 235 282
#     4   9  17  30  45  62  91 128 161 189 227 281
#
# _framework density 17.645194
#
# number of rings (size 3 to 8) (size 9 to 14) (size 15 to 20)
#    0.000    2.875    0.000    1.875    1.750    4.000 
#    0.000    1.250    0.000    0.000    0.000    0.875 
#    0.000    0.000    0.000    0.000    0.000    0.000 
#
# Total GULP energy -396502.121755 kJ/mol
# GULP energy per Si atom -12390.691305 kJ/mol
# Density = 1.760503 g / cm^3
# Si number density = 17.645194 Si / 1000 Ang^3
#
#
#
# Elastic Constant Matrix: (Units=GPa)
#
#
# Indices 1 2 3 4 5 6 
#
# 1 58.0609 31.1783 5.9673 0.0000 15.3547 0.0000
# 2 31.1783 84.5824 24.0181 0.0000 9.2922 0.0000
# 3 5.9673 24.0181 41.8044 0.0000 10.6902 0.0000
# 4 0.0000 0.0000 0.0000 28.5783 0.0000 2.5681
# 5 15.3547 9.2922 10.6902 0.0000 21.4133 0.0000
# 6 0.0000 0.0000 0.0000 2.5681 0.0000 22.1341
#
#
#
# Elastic Compliance Matrix: (Units=1/GPa)
#
#
# Indices 1 2 3 4 5 6 
#
# 1 0.026472 -0.009578 0.006323 0.000000 -0.017982 0.000000
# 2 -0.009578 0.017700 -0.009852 0.000000 0.004106 0.000000
# 3 0.006323 -0.009852 0.032951 0.000000 -0.016709 0.000000
# 4 0.000000 0.000000 0.000000 0.035360 0.000000 -0.004103
# 5 -0.017982 0.004106 -0.016709 0.000000 0.066154 0.000000
# 6 0.000000 0.000000 0.000000 -0.004103 0.000000 0.045655
#
#
# Mechanical properties :
#
#
# Convention : Reuss Voigt Hill
#
# Bulk Modulus (GPa) = 19.64281 34.08612 26.86447
# Shear Modulus (GPa) = 18.69315 22.64408 20.66861
#
# Velocity S-wave (km/s) = 3.25836 3.58620 3.42621
# Velocity P-wave (km/s) = 5.03112 6.04212 5.55965
#
# Compressibility (1/GPa) = 0.05090922
#
# Stress axis : x y z
#
# Youngs Moduli (GPa) = 37.77525 56.49757 30.34767
#
# Poissons Ratio (x) = 0.54113 -0.19188
# Poissons Ratio (y) = 0.36181 0.29898
# Poissons Ratio (z) = -0.23884 0.55661
#
# Static dielectric constant tensor:
#      x y z
#    x 2.978800 0.000000 0.062830 
#    y 0.000000 3.298870 0.000000 
#    z 0.062830 0.000000 2.487070 
# 
# 
# High freq. dielectric constant tensor:
#      x y z
#    x 1.651990 0.000000 0.015960 
#    y 0.000000 1.688450 0.000000 
#    z 0.015960 0.000000 1.661410 
# 
# From -- ./inp_files/244198.got.cif
#   From: 2010.06.25/outbox.cif.g09.slc.cpg/sg12_123_cif.got.tgz:244198.got - 2010.06.28 00:19:55.
