data_PCOD8084413
_publ_section_title
;
Structure prediction by ZEFSAII (Michael W. Deem and Ramdas Pophale) SiO2 
 PCOD8084413
Probable space group: C 2/M
;
_chemical_formula_sum "Si O2"
_cell_formula_units_Z 56
_cell_length_a 28.184373
_cell_length_b 8.589721
_cell_length_c 17.613727
_cell_angle_alpha 90.000000
_cell_angle_beta 137.177610
_cell_angle_gamma 90.000000
_cell_volume 2898.503593
_symmetry_space_group_name_H-M "C 2/M"
_symmetry_group_IT_number 12
_symmetry_cell_setting 'monoclinic'
loop_
_space_group_symop_operation_xyz
x,y,z
-x,y,-z
-x,-y,-z
x,-y,z
1/2+x,1/2+y,z
1/2-x,1/2+y,-z
1/2-x,1/2-y,-z
1/2+x,1/2-y,z
loop_
_atom_site_type_symbol
_atom_site_label
_atom_site_fract_x
_atom_site_fract_y
_atom_site_fract_z
Si Si1 0.565287 0.681459 0.933242
Si Si2 0.313922 0.179698 0.365270
Si Si3 0.585235 0.182266 0.224070
Si Si4 0.038064 0.817670 0.734198
Si Si5 0.331770 0.180573 0.828414
Si Si6 0.578204 0.678988 0.621108
Si Si7 0.115204 0.816617 0.412387
O O1 0.578019 0.500000 0.964724
O O2 0.486392 0.721895 0.863372
O O3 0.578098 0.721649 0.859268
O O4 0.619032 0.785284 0.042539
O O5 0.238166 0.220546 0.244121
O O6 0.370429 0.216497 0.367410
O O7 0.326393 0.276594 0.457095
O O8 0.318405 0.000000 0.391400
O O9 0.629329 0.230657 0.202594
O O10 0.630766 0.230476 0.351040
O O11 0.567747 0.000000 0.204190
O O12 0.080024 0.754943 0.710069
O O13 0.959169 0.751473 0.644443
O O14 0.029593 0.000000 0.712238
O O15 0.312140 0.000000 0.804587
O O16 0.500000 0.695965 0.500000
O O17 0.603296 0.500000 0.644788
O O18 0.113958 0.000000 0.395500
#
# Coordination Sequence:
#
# PCOD8084413 Si02
#       7
#     8   8   8   8   8   8   8
#     4  10  20  36  60  88 117 149 190 236 283 336
#     4  12  25  38  55  84 119 150 189 238 289 343
#     4  10  21  37  59  87 114 146 192 241 285 334
#     4   8  16  32  57  87 113 143 183 229 276 332
#     4  11  24  41  58  78 112 157 198 236 284 340
#     4  10  18  35  62  86 113 150 189 226 278 345
#     4  10  19  36  59  85 115 150 189 230 284 343
#
# _framework density 19.320314
#
# number of rings (size 3 to 8) (size 9 to 14) (size 15 to 20)
#    0.000    1.857    1.429    4.286    0.000    4.857 
#    0.000    2.143    0.000    0.000    0.000    0.000 
#    0.000    0.000    0.000    0.000    0.000    0.000 
#
# Total GULP energy -347252.577332 kJ/mol
# GULP energy per Si atom -12401.877762 kJ/mol
# Density = 1.927634 g / cm^3
# Si number density = 19.320314 Si / 1000 Ang^3
#
#
#
# Elastic Constant Matrix: (Units=GPa)
#
#
# Indices 1 2 3 4 5 6 
#
# 1 84.5707 26.9859 55.0559 0.0000 -19.6253 0.0000
# 2 26.9859 52.4108 19.1264 0.0000 -6.0381 0.0000
# 3 55.0559 19.1264 80.5037 0.0000 -11.2572 0.0000
# 4 0.0000 0.0000 0.0000 32.0953 0.0000 -1.8295
# 5 -19.6253 -6.0381 -11.2572 0.0000 27.7625 0.0000
# 6 0.0000 0.0000 0.0000 -1.8295 0.0000 27.9858
#
#
#
# Elastic Compliance Matrix: (Units=1/GPa)
#
#
# Indices 1 2 3 4 5 6 
#
# 1 0.026138 -0.006818 -0.014713 0.000000 0.011028 0.000000
# 2 -0.006818 0.022860 -0.000792 0.000000 -0.000169 0.000000
# 3 -0.014713 -0.000792 0.022468 0.000000 -0.001463 0.000000
# 4 0.000000 0.000000 0.000000 0.031274 0.000000 0.002044
# 5 0.011028 -0.000169 -0.001463 0.000000 0.043185 0.000000
# 6 0.000000 0.000000 0.000000 0.002044 0.000000 0.035866
#
#
# Mechanical properties :
#
#
# Convention : Reuss Voigt Hill
#
# Bulk Modulus (GPa) = 37.28760 46.64685 41.96723
# Shear Modulus (GPa) = 21.24249 25.32321 23.28285
#
# Velocity S-wave (km/s) = 3.31945 3.62429 3.47522
# Velocity P-wave (km/s) = 5.83380 6.45835 6.15401
#
# Compressibility (1/GPa) = 0.02681856
#
# Stress axis : x y z
#
# Youngs Moduli (GPa) = 38.25900 43.74410 44.50819
#
# Poissons Ratio (x) = 0.29826 0.65487
# Poissons Ratio (y) = 0.26086 0.03525
# Poissons Ratio (z) = 0.56292 0.03464
#
# Static dielectric constant tensor:
#      x y z
#    x 3.710810 0.000000 -0.267480 
#    y 0.000000 3.386820 0.000000 
#    z -0.267480 0.000000 3.482290 
# 
# 
# High freq. dielectric constant tensor:
#      x y z
#    x 1.750070 0.000000 -0.019150 
#    y 0.000000 1.744430 0.000000 
#    z -0.019150 0.000000 1.747580 
# 
# From -- ./inp_files/288483.got.cif
#   From: 2010.06.25/outbox.cif.g09.slc.cpg/sg12_145_cif.got.tgz:288483.got - 2010.06.28 00:19:55.
