data_PCOD8084095
_publ_section_title
;
Structure prediction by ZEFSAII (Michael W. Deem and Ramdas Pophale) SiO2 
 PCOD8084095
Probable space group: C 2/M
;
_chemical_formula_sum "Si O2"
_cell_formula_units_Z 64
_cell_length_a 20.668143
_cell_length_b 9.105466
_cell_length_c 19.953498
_cell_angle_alpha 90.000000
_cell_angle_beta 106.911997
_cell_angle_gamma 90.000000
_cell_volume 3592.711716
_symmetry_space_group_name_H-M "C 2/M"
_symmetry_group_IT_number 12
_symmetry_cell_setting 'monoclinic'
loop_
_space_group_symop_operation_xyz
x,y,z
-x,y,-z
-x,-y,-z
x,-y,z
1/2+x,1/2+y,z
1/2-x,1/2+y,-z
1/2-x,1/2-y,-z
1/2+x,1/2-y,z
loop_
_atom_site_type_symbol
_atom_site_label
_atom_site_fract_x
_atom_site_fract_y
_atom_site_fract_z
Si Si1 0.924316 0.827153 0.713904
Si Si2 0.320087 0.673780 0.792450
Si Si3 0.311675 0.330534 0.938919
Si Si4 0.578707 0.673011 0.783204
Si Si5 0.327828 0.169942 0.290972
Si Si6 0.795007 0.667499 0.427515
Si Si7 0.660374 0.170874 0.414962
Si Si8 0.343531 0.169804 0.078285
O O1 0.877110 0.764104 0.759630
O O2 0.903050 0.751986 0.637726
O O3 0.000576 0.784158 0.753439
O O4 0.915163 0.000000 0.702717
O O5 0.318188 0.500000 0.786519
O O6 0.337917 0.720531 0.873899
O O7 0.246248 0.732813 0.749727
O O8 0.328696 0.500000 0.958878
O O9 0.231355 0.304689 0.915903
O O10 0.349692 0.232078 0.004990
O O11 0.590273 0.500000 0.790379
O O12 0.616315 0.735253 0.729614
O O13 0.604873 0.744163 0.859362
O O14 0.339583 0.189484 0.374183
O O15 0.335042 0.000000 0.270847
O O16 0.768021 0.500000 0.423412
O O17 0.730076 0.771385 0.404426
O O18 0.841301 0.704264 0.505830
O O19 0.654601 0.000000 0.397652
O O20 0.363558 0.000000 0.083376
#
# Coordination Sequence:
#
# PCOD8084095 Si02
#       8
#     8   8   8   8   8   8   8   8
#     4  10  21  38  56  75 107 149 181 214 267 324
#     4   9  16  32  57  79  99 134 183 219 255 312
#     4   9  17  31  53  80 103 129 173 224 263 305
#     4  11  23  36  53  79 110 142 178 221 268 318
#     4  10  18  34  58  79 103 140 181 221 263 313
#     4   9  18  33  54  79 109 142 176 217 268 321
#     4  10  19  31  52  83 110 137 177 224 268 310
#     4  10  19  33  53  78 107 140 173 211 267 322
#
# _framework density 17.813841
#
# number of rings (size 3 to 8) (size 9 to 14) (size 15 to 20)
#    0.000    2.250    2.500    1.125    0.000    2.500 
#    0.000    1.875    0.000    7.500    0.000    0.000 
#    0.000    0.000    0.000    0.000    0.000    0.000 
#
# Total GULP energy -396832.053973 kJ/mol
# GULP energy per Si atom -12401.001687 kJ/mol
# Density = 1.777330 g / cm^3
# Si number density = 17.813841 Si / 1000 Ang^3
#
#
#
# Elastic Constant Matrix: (Units=GPa)
#
#
# Indices 1 2 3 4 5 6 
#
# 1 101.1903 46.0678 67.8685 0.0000 -1.0075 0.0000
# 2 46.0678 70.1341 60.2217 0.0000 9.7095 0.0000
# 3 67.8685 60.2217 147.0519 0.0000 0.1131 0.0000
# 4 0.0000 0.0000 0.0000 33.0846 0.0000 0.4924
# 5 -1.0075 9.7095 0.1131 0.0000 23.7720 0.0000
# 6 0.0000 0.0000 0.0000 0.4924 0.0000 23.4217
#
#
#
# Elastic Compliance Matrix: (Units=1/GPa)
#
#
# Indices 1 2 3 4 5 6 
#
# 1 0.016287 -0.007333 -0.004517 0.000000 0.003707 0.000000
# 2 -0.007333 0.027373 -0.007817 0.000000 -0.011454 0.000000
# 3 -0.004517 -0.007817 0.012084 0.000000 0.002944 0.000000
# 4 0.000000 0.000000 0.000000 0.030235 0.000000 -0.000636
# 5 0.003707 -0.011454 0.002944 0.000000 0.046887 0.000000
# 6 0.000000 0.000000 0.000000 -0.000636 0.000000 0.042709
#
#
# Mechanical properties :
#
#
# Convention : Reuss Voigt Hill
#
# Bulk Modulus (GPa) = 60.93573 74.07691 67.50632
# Shear Modulus (GPa) = 22.68832 25.67024 24.17928
#
# Velocity S-wave (km/s) = 3.57267 3.80021 3.68819
# Velocity P-wave (km/s) = 7.16239 7.80574 7.49098
#
# Compressibility (1/GPa) = 0.01641073
#
# Stress axis : x y z
#
# Youngs Moduli (GPa) = 61.39844 36.53279 82.75573
#
# Poissons Ratio (x) = 0.26790 0.37378
# Poissons Ratio (y) = 0.45024 0.64687
# Poissons Ratio (z) = 0.27732 0.28556
#
# Static dielectric constant tensor:
#      x y z
#    x 3.143670 0.000000 -0.163150 
#    y 0.000000 3.209180 0.000000 
#    z -0.163150 0.000000 3.490220 
# 
# 
# High freq. dielectric constant tensor:
#      x y z
#    x 1.660720 0.000000 -0.012480 
#    y 0.000000 1.679650 0.000000 
#    z -0.012480 0.000000 1.704370 
# 
# From -- ./inp_files/320032.got.cif
#   From: 2010.06.25/outbox.cif.g09.slc.cpg/sg12_161_cif.got.tgz:320032.got - 2010.06.28 00:19:55.
