data_PCOD8084909
_publ_section_title
;
Structure prediction by ZEFSAII (Michael W. Deem and Ramdas Pophale) SiO2 
 PCOD8084909
Probable space group: C 2/M
;
_chemical_formula_sum "Si O2"
_cell_formula_units_Z 64
_cell_length_a 16.846391
_cell_length_b 13.628251
_cell_length_c 27.934466
_cell_angle_alpha 90.000000
_cell_angle_beta 37.494420
_cell_angle_gamma 90.000000
_cell_volume 3903.726431
_symmetry_space_group_name_H-M "C 2/M"
_symmetry_group_IT_number 12
_symmetry_cell_setting 'monoclinic'
loop_
_space_group_symop_operation_xyz
x,y,z
-x,y,-z
-x,-y,-z
x,-y,z
1/2+x,1/2+y,z
1/2-x,1/2+y,-z
1/2-x,1/2-y,-z
1/2+x,1/2-y,z
loop_
_atom_site_type_symbol
_atom_site_label
_atom_site_fract_x
_atom_site_fract_y
_atom_site_fract_z
Si Si1 0.640322 0.610781 0.530206
Si Si2 0.181269 0.886841 0.780931
Si Si3 0.636063 0.763927 0.721285
Si Si4 0.101102 0.111235 0.410274
Si Si5 0.870717 0.117209 0.087690
Si Si6 0.168665 0.244900 0.599032
Si Si7 0.401948 0.891883 0.813191
Si Si8 0.968128 0.394150 0.670905
O O1 0.691272 0.500000 0.497332
O O2 0.483685 0.614485 0.598206
O O3 0.704686 0.684257 0.459937
O O4 0.684441 0.643777 0.562452
O O5 0.124280 0.822389 0.765321
O O6 0.128536 0.847262 0.857409
O O7 0.336490 0.874215 0.704966
O O8 0.140088 0.000000 0.792618
O O9 0.771073 0.823428 0.659561
O O10 0.624396 0.718128 0.673601
O O11 0.507623 0.829641 0.792404
O O12 0.000000 0.146761 0.500000
O O13 0.147774 0.000000 0.399563
O O14 0.744109 0.155777 0.118419
O O15 0.863039 0.000000 0.091605
O O16 0.000000 0.157540 0.000000
O O17 0.066802 0.305872 0.614482
O O18 0.445798 0.900752 0.737850
O O19 0.397623 0.000000 0.838981
O O20 0.025182 0.500000 0.626745
#
# Coordination Sequence:
#
# PCOD8084909 Si02
#       8
#     8   8   8   8   8   8   8   8
#     4  10  20  32  43  58  81 109 150 190 227 272
#     4   9  18  30  45  68  94 122 151 179 222 275
#     4  11  19  29  46  66  95 122 148 188 232 274
#     4  10  19  31  47  66  87 116 154 198 243 272
#     4   8  14  29  52  73  94 119 148 184 222 263
#     4  10  19  29  44  61  79 112 147 185 230 269
#     4   8  15  26  44  71  92 113 148 184 222 263
#     4   8  14  27  45  61  80 107 145 185 218 256
#
# _framework density 16.394590999999998
#
# number of rings (size 3 to 8) (size 9 to 14) (size 15 to 20)
#    0.000    2.750    1.250    3.000    0.000    1.500 
#    0.000    0.625    0.000    0.375    0.000    0.000 
#    0.000    2.500    0.000    0.000    0.000    0.000 
#
# Total GULP energy -396450.360513 kJ/mol
# GULP energy per Si atom -12389.073766 kJ/mol
# Density = 1.635728 g / cm^3
# Si number density = 16.394591 Si / 1000 Ang^3
#
#
#
# Elastic Constant Matrix: (Units=GPa)
#
#
# Indices 1 2 3 4 5 6 
#
# 1 84.8710 47.5488 38.9134 0.0000 -5.2519 0.0000
# 2 47.5488 63.9746 26.5891 0.0000 -2.4403 0.0000
# 3 38.9134 26.5891 77.7360 0.0000 -11.1032 0.0000
# 4 0.0000 0.0000 0.0000 12.9094 0.0000 2.0067
# 5 -5.2519 -2.4403 -11.1032 0.0000 22.6174 0.0000
# 6 0.0000 0.0000 0.0000 2.0067 0.0000 17.3730
#
#
#
# Elastic Compliance Matrix: (Units=1/GPa)
#
#
# Indices 1 2 3 4 5 6 
#
# 1 0.022719 -0.014188 -0.006436 0.000000 0.000585 0.000000
# 2 -0.014188 0.027112 -0.002391 0.000000 -0.001543 0.000000
# 3 -0.006436 -0.002391 0.017909 0.000000 0.007039 0.000000
# 4 0.000000 0.000000 0.000000 0.078879 0.000000 -0.009111
# 5 0.000585 -0.001543 0.007039 0.000000 0.047639 0.000000
# 6 0.000000 0.000000 0.000000 -0.009111 0.000000 0.058613
#
#
# Mechanical properties :
#
#
# Convention : Reuss Voigt Hill
#
# Bulk Modulus (GPa) = 46.06563 50.29825 48.18194
# Shear Modulus (GPa) = 16.33250 18.14864 17.24057
#
# Velocity S-wave (km/s) = 3.15971 3.33075 3.24636
# Velocity P-wave (km/s) = 6.43978 6.74821 6.59580
#
# Compressibility (1/GPa) = 0.02170816
#
# Stress axis : x y z
#
# Youngs Moduli (GPa) = 44.01659 36.88455 55.83713
#
# Poissons Ratio (x) = 0.52333 0.35937
# Poissons Ratio (y) = 0.62452 0.13352
# Poissons Ratio (z) = 0.28329 0.08820
#
# Static dielectric constant tensor:
#      x y z
#    x 3.113120 0.000000 -0.268610 
#    y 0.000000 3.024890 0.000000 
#    z -0.268610 0.000000 3.069440 
# 
# 
# High freq. dielectric constant tensor:
#      x y z
#    x 1.628560 0.000000 -0.019070 
#    y 0.000000 1.607220 0.000000 
#    z -0.019070 0.000000 1.604290 
# 
# From -- ./inp_files/361244.got.cif
#   From: 2010.06.25/outbox.cif.g09.slc.cpg/sg12_181_cif.got.tgz:361244.got - 2010.06.28 00:19:55.
