data_PCOD8084360
_publ_section_title
;
Structure prediction by ZEFSAII (Michael W. Deem and Ramdas Pophale) SiO2 
 PCOD8084360
Probable space group: C 2/M
;
_chemical_formula_sum "Si O2"
_cell_formula_units_Z 56
_cell_length_a 20.538880
_cell_length_b 9.159394
_cell_length_c 17.093544
_cell_angle_alpha 90.000000
_cell_angle_beta 74.685596
_cell_angle_gamma 90.000000
_cell_volume 3101.514495
_symmetry_space_group_name_H-M "C 2/M"
_symmetry_group_IT_number 12
_symmetry_cell_setting 'monoclinic'
loop_
_space_group_symop_operation_xyz
x,y,z
-x,y,-z
-x,-y,-z
x,-y,z
1/2+x,1/2+y,z
1/2-x,1/2+y,-z
1/2-x,1/2-y,-z
1/2+x,1/2-y,z
loop_
_atom_site_type_symbol
_atom_site_label
_atom_site_fract_x
_atom_site_fract_y
_atom_site_fract_z
Si Si1 0.444985 0.669056 0.762608
Si Si2 0.927136 0.830118 0.487205
Si Si3 0.924228 0.328511 0.325503
Si Si4 0.335497 0.333393 0.918169
Si Si5 0.155458 0.827234 0.339155
Si Si6 0.708411 0.669790 0.899410
Si Si7 0.196603 0.328483 0.749430
O O1 0.462625 0.500000 0.740828
O O2 0.513241 0.760504 0.741086
O O3 0.409583 0.690615 0.858207
O O4 0.395306 0.731399 0.711218
O O5 0.916234 0.736136 0.413906
O O6 0.870795 0.778583 0.567346
O O7 0.000000 0.797767 0.500000
O O8 0.919871 0.000000 0.468008
O O9 0.935488 0.500000 0.328475
O O10 0.856801 0.288322 0.300053
O O11 0.311350 0.500000 0.911184
O O12 0.283433 0.229210 0.890505
O O13 0.338185 0.299159 0.009757
O O14 0.230714 0.766226 0.301518
O O15 0.156600 0.000000 0.332955
O O16 0.713524 0.500000 0.878680
O O17 0.674647 0.750676 0.836812
O O18 0.199416 0.500000 0.764594
#
# Coordination Sequence:
#
# PCOD8084360 Si02
#       7
#     8   8   8   8   8   8   8
#     4  10  18  35  60  80 103 144 188 222 261 320
#     4  10  19  35  58  82 104 136 184 227 266 320
#     4  11  24  37  53  80 114 145 176 225 281 324
#     4   9  18  33  55  82 111 144 180 220 271 323
#     4   9  17  33  59  80  99 139 189 221 253 321
#     4  10  19  31  53  86 114 138 178 229 270 312
#     4  10  21  39  56  75 111 154 183 212 271 334
#
# _framework density 18.055693999999999
#
# number of rings (size 3 to 8) (size 9 to 14) (size 15 to 20)
#    0.000    2.143    2.857    0.857    0.000    3.143 
#    0.000    1.429    0.000    4.286    0.000    0.000 
#    0.000    0.000    0.000    0.000    0.000    0.000 
#
# Total GULP energy -347232.854166 kJ/mol
# GULP energy per Si atom -12401.173363 kJ/mol
# Density = 1.801460 g / cm^3
# Si number density = 18.055694 Si / 1000 Ang^3
#
#
#
# Elastic Constant Matrix: (Units=GPa)
#
#
# Indices 1 2 3 4 5 6 
#
# 1 107.8685 47.1642 59.9037 0.0000 -4.6550 0.0000
# 2 47.1642 63.3029 54.0827 0.0000 7.8432 0.0000
# 3 59.9037 54.0827 132.1255 0.0000 -7.8083 0.0000
# 4 0.0000 0.0000 0.0000 31.3706 0.0000 2.1524
# 5 -4.6550 7.8432 -7.8083 0.0000 25.6150 0.0000
# 6 0.0000 0.0000 0.0000 2.1524 0.0000 23.5953
#
#
#
# Elastic Compliance Matrix: (Units=1/GPa)
#
#
# Indices 1 2 3 4 5 6 
#
# 1 0.015169 -0.009661 -0.002632 0.000000 0.004912 0.000000
# 2 -0.009661 0.033686 -0.010307 0.000000 -0.015212 0.000000
# 3 -0.002632 -0.010307 0.013380 0.000000 0.006757 0.000000
# 4 0.000000 0.000000 0.000000 0.032078 0.000000 -0.002926
# 5 0.004912 -0.015212 0.006757 0.000000 0.046650 0.000000
# 6 0.000000 0.000000 0.000000 -0.002926 0.000000 0.042648
#
#
# Mechanical properties :
#
#
# Convention : Reuss Voigt Hill
#
# Bulk Modulus (GPa) = 58.70865 69.51090 64.10977
# Shear Modulus (GPa) = 21.32277 25.59258 23.45768
#
# Velocity S-wave (km/s) = 3.44022 3.76895 3.60833
# Velocity P-wave (km/s) = 6.95457 7.58430 7.27625
#
# Compressibility (1/GPa) = 0.01703327
#
# Stress axis : x y z
#
# Youngs Moduli (GPa) = 65.92563 29.68577 74.73596
#
# Poissons Ratio (x) = 0.28680 0.19673
# Poissons Ratio (y) = 0.63692 0.77034
# Poissons Ratio (z) = 0.17354 0.30599
#
# Static dielectric constant tensor:
#      x y z
#    x 3.302680 0.000000 -0.179000 
#    y 0.000000 3.203570 0.000000 
#    z -0.179000 0.000000 3.544910 
# 
# 
# High freq. dielectric constant tensor:
#      x y z
#    x 1.683830 0.000000 -0.012770 
#    y 0.000000 1.683910 0.000000 
#    z -0.012770 0.000000 1.712550 
# 
# From -- ./inp_files/230904.got.cif
#   From: 2010.06.25/outbox.cif.g09.slc.cpg/sg12_116_cif.got.tgz:230904.got - 2010.06.28 00:19:55.
