data_PCOD8084326
_publ_section_title
;
Structure prediction by ZEFSAII (Michael W. Deem and Ramdas Pophale) SiO2 
 PCOD8084326
Probable space group: C 2/M
;
_chemical_formula_sum "Si O2"
_cell_formula_units_Z 64
_cell_length_a 21.535711
_cell_length_b 20.923379
_cell_length_c 9.704015
_cell_angle_alpha 90.000000
_cell_angle_beta 47.129714
_cell_angle_gamma 90.000000
_cell_volume 3204.680549
_symmetry_space_group_name_H-M "C 2/M"
_symmetry_group_IT_number 12
_symmetry_cell_setting 'monoclinic'
loop_
_space_group_symop_operation_xyz
x,y,z
-x,y,-z
-x,-y,-z
x,-y,z
1/2+x,1/2+y,z
1/2-x,1/2+y,-z
1/2-x,1/2-y,-z
1/2+x,1/2-y,z
loop_
_atom_site_type_symbol
_atom_site_label
_atom_site_fract_x
_atom_site_fract_y
_atom_site_fract_z
Si Si1 0.696180 0.803261 0.230923
Si Si2 0.923231 0.121488 0.936607
Si Si3 0.909202 0.637193 0.092668
Si Si4 0.259696 0.427188 0.701754
Si Si5 0.373724 0.242521 0.930497
Si Si6 0.279575 0.427143 0.985142
Si Si7 0.341933 0.230424 0.413206
Si Si8 0.391199 0.366862 0.296249
O O1 0.626069 0.778613 0.229021
O O2 0.722131 0.876276 0.154412
O O3 0.652930 0.799343 0.443280
O O4 0.775852 0.754938 0.119464
O O5 0.873537 0.074497 0.908835
O O6 0.875803 0.120292 0.157030
O O7 0.925667 0.192845 0.872021
O O8 0.020654 0.098306 0.796740
O O9 0.841400 0.582129 0.160171
O O10 0.875948 0.673183 0.274193
O O11 0.916287 0.686361 0.954824
O O12 0.000000 0.607356 0.000000
O O13 0.282869 0.500000 0.642536
O O14 0.312341 0.389091 0.507402
O O15 0.286008 0.405394 0.815977
O O16 0.243699 0.500000 0.050956
O O17 0.250000 0.250000 0.500000
O O18 0.402976 0.291371 0.303503
#
# Coordination Sequence:
#
# PCOD8084326 Si02
#       8
#     8   8   8   8   8   8   8   8
#     4  10  20  34  60  88 120 159 200 242 293 354
#     4  10  22  37  61  92 129 162 188 239 302 366
#     4  12  23  40  63  88 121 156 198 253 310 362
#     4  11  25  43  63  85 114 161 212 255 294 351
#     4  10  18  35  58  89 123 154 190 235 300 365
#     4  10  22  41  61  83 117 164 207 245 294 351
#     4  12  20  35  62  93 122 154 191 244 305 365
#     4  11  22  39  59  94 130 155 193 243 302 363
#
# _framework density 19.970790999999998
#
# number of rings (size 3 to 8) (size 9 to 14) (size 15 to 20)
#    0.000    1.250    5.000    1.500    3.500    1.750 
#    0.000    4.375    0.000    0.000    0.000    1.750 
#    0.000    0.000    0.000    0.000    0.000    0.000 
#
# Total GULP energy -396721.906252 kJ/mol
# GULP energy per Si atom -12397.559570 kJ/mol
# Density = 1.992534 g / cm^3
# Si number density = 19.970791 Si / 1000 Ang^3
#
#
#
# Elastic Constant Matrix: (Units=GPa)
#
#
# Indices 1 2 3 4 5 6 
#
# 1 133.2212 22.1504 53.1510 0.0000 13.8921 0.0000
# 2 22.1504 50.4294 18.4046 0.0000 10.0474 0.0000
# 3 53.1510 18.4046 84.9368 0.0000 17.5618 0.0000
# 4 0.0000 0.0000 0.0000 15.1727 0.0000 -1.0412
# 5 13.8921 10.0474 17.5618 0.0000 30.8427 0.0000
# 6 0.0000 0.0000 0.0000 -1.0412 0.0000 14.9937
#
#
#
# Elastic Compliance Matrix: (Units=1/GPa)
#
#
# Indices 1 2 3 4 5 6 
#
# 1 0.010262 -0.002273 -0.005811 0.000000 -0.000573 0.000000
# 2 -0.002273 0.022721 -0.002474 0.000000 -0.004970 0.000000
# 3 -0.005811 -0.002474 0.017271 0.000000 -0.006411 0.000000
# 4 0.000000 0.000000 0.000000 0.066223 0.000000 0.004599
# 5 -0.000573 -0.004970 -0.006411 0.000000 0.037950 0.000000
# 6 0.000000 0.000000 0.000000 0.004599 0.000000 0.067014
#
#
# Mechanical properties :
#
#
# Convention : Reuss Voigt Hill
#
# Bulk Modulus (GPa) = 34.31687 50.66658 42.49173
# Shear Modulus (GPa) = 19.82004 23.86056 21.84030
#
# Velocity S-wave (km/s) = 3.15374 3.46030 3.31057
# Velocity P-wave (km/s) = 5.52107 6.43353 5.99469
#
# Compressibility (1/GPa) = 0.02914019
#
# Stress axis : x y z
#
# Youngs Moduli (GPa) = 97.44391 44.01251 57.89945
#
# Poissons Ratio (x) = 0.10002 0.33645
# Poissons Ratio (y) = 0.22145 0.14322
# Poissons Ratio (z) = 0.56623 0.10887
#
# Static dielectric constant tensor:
#      x y z
#    x 3.911980 0.000000 0.265120 
#    y 0.000000 3.546180 0.000000 
#    z 0.265120 0.000000 3.376070 
# 
# 
# High freq. dielectric constant tensor:
#      x y z
#    x 1.794400 0.000000 0.019110 
#    y 0.000000 1.761130 0.000000 
#    z 0.019110 0.000000 1.761850 
# 
# From -- ./inp_files/90661.got.cif
#   From: 2010.06.25/outbox.cif.g09.slc.cpg/sg12_46_cif.got.tgz:90661.got - 2010.06.28 00:19:55.
