data_PCOD8084972
_publ_section_title
;
Structure prediction by ZEFSAII (Michael W. Deem and Ramdas Pophale) SiO2 
 PCOD8084972
Probable space group: C 2/M
;
_chemical_formula_sum "Si O2"
_cell_formula_units_Z 56
_cell_length_a 23.873606
_cell_length_b 9.253038
_cell_length_c 22.557773
_cell_angle_alpha 90.000000
_cell_angle_beta 44.492283
_cell_angle_gamma 90.000000
_cell_volume 3492.214075
_symmetry_space_group_name_H-M "C 2/M"
_symmetry_group_IT_number 12
_symmetry_cell_setting 'monoclinic'
loop_
_space_group_symop_operation_xyz
x,y,z
-x,y,-z
-x,-y,-z
x,-y,z
1/2+x,1/2+y,z
1/2-x,1/2+y,-z
1/2-x,1/2-y,-z
1/2+x,1/2-y,z
loop_
_atom_site_type_symbol
_atom_site_label
_atom_site_fract_x
_atom_site_fract_y
_atom_site_fract_z
Si Si1 0.268351 0.840193 0.898272
Si Si2 0.075987 0.668712 0.281547
Si Si3 0.524528 0.667211 0.548893
Si Si4 0.336996 0.167414 0.499387
Si Si5 0.013883 0.668216 0.772399
Si Si6 0.359745 0.159862 0.952870
Si Si7 0.657073 0.666812 0.627830
O O1 0.333865 0.778567 0.802498
O O2 0.308112 0.844460 0.932478
O O3 0.243577 0.000000 0.897128
O O4 0.186143 0.749935 0.961865
O O5 0.076352 0.500000 0.298778
O O6 0.045618 0.764878 0.358519
O O7 0.018200 0.694283 0.269567
O O8 0.500000 0.686017 0.500000
O O9 0.536172 0.500000 0.557390
O O10 0.607579 0.752489 0.494918
O O11 0.348758 0.241532 0.427414
O O12 0.245137 0.181145 0.589822
O O13 0.362922 0.000000 0.474091
O O14 0.033650 0.500000 0.767598
O O15 0.093077 0.765246 0.721966
O O16 0.947633 0.721683 0.870255
O O17 0.369255 0.000000 0.971766
O O18 0.636603 0.500000 0.629784
#
# Coordination Sequence:
#
# PCOD8084972 Si02
#       7
#     8   8   8   8   8   8   8
#     4   8  14  24  37  55  80 110 144 179 210 250
#     4   9  17  29  44  61  83 115 152 183 218 265
#     4  11  23  35  47  66  89 113 150 195 229 261
#     4  10  20  33  47  64  87 116 149 183 224 270
#     4   9  16  26  41  62  89 119 149 179 213 260
#     4   8  14  23  35  55  83 114 144 173 208 252
#     4  10  19  29  45  68  90 114 148 186 220 261
#
# _framework density 16.035672000000002
#
# number of rings (size 3 to 8) (size 9 to 14) (size 15 to 20)
#    0.000    2.714    1.429    3.000    0.000    4.000 
#    0.000    2.857    0.000    0.000    0.000    0.000 
#    0.000    1.143    0.000   12.571    0.000    9.714 
#
# Total GULP energy -347034.934709 kJ/mol
# GULP energy per Si atom -12394.104811 kJ/mol
# Density = 1.599917 g / cm^3
# Si number density = 16.035672 Si / 1000 Ang^3
#
#
#
# Elastic Constant Matrix: (Units=GPa)
#
#
# Indices 1 2 3 4 5 6 
#
# 1 51.1730 42.4459 41.8710 0.0002 -15.0590 -0.0003
# 2 42.4459 106.5181 66.8561 0.0018 -19.0089 -0.0016
# 3 41.8710 66.8561 119.0658 0.0002 -35.4235 -0.0002
# 4 0.0002 0.0018 0.0002 31.1173 -0.0003 -7.4398
# 5 -15.0590 -19.0089 -35.4235 -0.0003 25.1156 0.0001
# 6 -0.0003 -0.0016 -0.0002 -7.4398 0.0001 20.0819
#
#
#
# Elastic Compliance Matrix: (Units=1/GPa)
#
#
# Indices 1 2 3 4 5 6 
#
# 1 0.032578 -0.009024 -0.004497 0.000000 0.006361 0.000000
# 2 -0.009024 0.017008 -0.007162 -0.000001 -0.002639 0.000001
# 3 -0.004497 -0.007162 0.019964 0.000000 0.020041 0.000000
# 4 0.000000 -0.000001 0.000000 0.035260 0.000001 0.013063
# 5 0.006361 -0.002639 0.020041 0.000001 0.069898 0.000000
# 6 0.000000 0.000001 0.000000 0.013063 0.000000 0.054635
#
#
# Mechanical properties :
#
#
# Convention : Reuss Voigt Hill
#
# Bulk Modulus (GPa) = 35.48117 64.34477 49.91297
# Shear Modulus (GPa) = 17.85049 23.63522 20.74285
#
# Velocity S-wave (km/s) = 3.34005 3.84333 3.60049
# Velocity P-wave (km/s) = 6.08679 7.74003 6.96265
#
# Compressibility (1/GPa) = 0.02818396
#
# Stress axis : x y z
#
# Youngs Moduli (GPa) = 30.69535 58.79454 50.09031
#
# Poissons Ratio (x) = 0.53058 0.22525
# Poissons Ratio (y) = 0.27701 0.35875
# Poissons Ratio (z) = 0.13803 0.42109
#
# Static dielectric constant tensor:
#      x y z
#    x 2.690670 0.000000 -0.429860 
#    y 0.000000 3.226290 0.000000 
#    z -0.429860 0.000000 3.186810 
# 
# 
# High freq. dielectric constant tensor:
#      x y z
#    x 1.559980 0.000000 -0.040790 
#    y 0.000000 1.623920 0.000000 
#    z -0.040790 0.000000 1.614910 
# 
# From -- ./inp_files/320270.got.cif
#   From: 2010.06.25/outbox.cif.g09.slc.cpg/sg12_161_cif.got.tgz:320270.got - 2010.06.28 00:19:55.
