data_PCOD8084087
_publ_section_title
;
Structure prediction by ZEFSAII (Michael W. Deem and Ramdas Pophale) SiO2 
 PCOD8084087
Probable space group: C 2/M
;
_chemical_formula_sum "Si O2"
_cell_formula_units_Z 48
_cell_length_a 14.663198
_cell_length_b 9.150144
_cell_length_c 29.844662
_cell_angle_alpha 90.000000
_cell_angle_beta 39.626091
_cell_angle_gamma 90.000000
_cell_volume 2553.822121
_symmetry_space_group_name_H-M "C 2/M"
_symmetry_group_IT_number 12
_symmetry_cell_setting 'monoclinic'
loop_
_space_group_symop_operation_xyz
x,y,z
-x,y,-z
-x,-y,-z
x,-y,z
1/2+x,1/2+y,z
1/2-x,1/2+y,-z
1/2-x,1/2-y,-z
1/2+x,1/2-y,z
loop_
_atom_site_type_symbol
_atom_site_label
_atom_site_fract_x
_atom_site_fract_y
_atom_site_fract_z
Si Si1 0.908639 0.671467 0.491586
Si Si2 0.886096 0.668727 0.845008
Si Si3 0.128214 0.663285 0.985717
Si Si4 0.557935 0.168782 0.865050
Si Si5 0.582017 0.671035 0.603045
Si Si6 0.873809 0.826175 0.760359
O O1 0.933393 0.500000 0.476144
O O2 0.740920 0.710072 0.560716
O O3 0.962215 0.749060 0.426094
O O4 0.000000 0.728133 0.500000
O O5 0.860395 0.500000 0.842908
O O6 0.744995 0.728838 0.921936
O O7 0.932797 0.756711 0.783512
O O8 0.018438 0.690506 0.828430
O O9 0.193511 0.500000 0.968439
O O10 0.000000 0.651918 0.000000
O O11 0.065152 0.734091 0.055708
O O12 0.714205 0.237826 0.813416
O O13 0.568008 0.000000 0.874968
O O14 0.567385 0.500000 0.599327
O O15 0.472811 0.726031 0.682165
O O16 0.877035 0.000000 0.763636
#
# Coordination Sequence:
#
# PCOD8084087 Si02
#       6
#     8   8   8   8   8   8
#     4   9  18  34  55  80 111 140 166 207 261 305
#     4  11  22  34  51  78 106 130 168 221 270 302
#     4  10  18  34  58  74  94 137 180 209 258 316
#     4   9  19  35  53  73 100 136 172 213 262 311
#     4   9  19  34  55  80 103 137 179 213 244 298
#     4  10  20  38  56  72 103 142 178 208 249 314
#
# _framework density 18.795359000000001
#
# number of rings (size 3 to 8) (size 9 to 14) (size 15 to 20)
#    0.000    2.333    1.667    1.000    0.000    2.667 
#    0.000    2.500    0.000    0.000    0.000    0.000 
#    0.000    0.000    0.000    0.000    0.000    0.000 
#
# Total GULP energy -297567.963682 kJ/mol
# GULP energy per Si atom -12398.665153 kJ/mol
# Density = 1.875258 g / cm^3
# Si number density = 18.795359 Si / 1000 Ang^3
#
#
#
# Elastic Constant Matrix: (Units=GPa)
#
#
# Indices 1 2 3 4 5 6 
#
# 1 112.4778 31.3612 52.5359 0.0001 24.6840 0.0007
# 2 31.3612 40.2076 37.0032 0.0002 9.7421 0.0005
# 3 52.5359 37.0032 140.4385 0.0000 30.4709 0.0001
# 4 0.0001 0.0002 0.0000 16.7652 0.0000 13.2441
# 5 24.6840 9.7421 30.4709 0.0000 25.2850 0.0002
# 6 0.0007 0.0005 0.0001 13.2441 0.0002 25.3071
#
#
#
# Elastic Compliance Matrix: (Units=1/GPa)
#
#
# Indices 1 2 3 4 5 6 
#
# 1 0.013404 -0.007210 -0.001189 0.000000 -0.008875 0.000000
# 2 -0.007210 0.036881 -0.007399 0.000000 0.001746 -0.000001
# 3 -0.001189 -0.007399 0.011705 0.000000 -0.010094 0.000000
# 4 0.000000 0.000000 0.000000 0.101687 0.000000 -0.053217
# 5 -0.008875 0.001746 -0.010094 0.000000 0.059705 0.000000
# 6 0.000000 -0.000001 0.000000 -0.053217 0.000000 0.067365
#
#
# Mechanical properties :
#
#
# Convention : Reuss Voigt Hill
#
# Bulk Modulus (GPa) = 32.90175 59.43606 46.16890
# Shear Modulus (GPa) = 15.03872 24.95302 19.99587
#
# Velocity S-wave (km/s) = 2.83173 3.64760 3.26525
# Velocity P-wave (km/s) = 5.31364 7.03074 6.23162
#
# Compressibility (1/GPa) = 0.03039352
#
# Stress axis : x y z
#
# Youngs Moduli (GPa) = 74.60484 27.11397 85.43384
#
# Poissons Ratio (x) = 0.19550 0.10157
# Poissons Ratio (y) = 0.53794 0.63213
# Poissons Ratio (z) = 0.08870 0.20062
#
# Static dielectric constant tensor:
#      x y z
#    x 3.599290 0.000000 0.022890 
#    y 0.000000 3.278180 0.000000 
#    z 0.022890 0.000000 3.560000 
# 
# 
# High freq. dielectric constant tensor:
#      x y z
#    x 1.736800 0.000000 0.008150 
#    y 0.000000 1.706970 0.000000 
#    z 0.008150 0.000000 1.730150 
# 
# From -- ./inp_files/308576.got.cif
#   From: 2010.06.25/outbox.cif.g09.slc.cpg/sg12_155_cif.got.tgz:308576.got - 2010.06.28 00:19:55.
