data_PCOD8084880
_publ_section_title
;
Structure prediction by ZEFSAII (Michael W. Deem and Ramdas Pophale) SiO2 
 PCOD8084880
Probable space group: C 2/M
;
_chemical_formula_sum "Si O2"
_cell_formula_units_Z 64
_cell_length_a 21.195782
_cell_length_b 13.714036
_cell_length_c 20.892900
_cell_angle_alpha 90.000000
_cell_angle_beta 138.705765
_cell_angle_gamma 90.000000
_cell_volume 4007.824932
_symmetry_space_group_name_H-M "C 2/M"
_symmetry_group_IT_number 12
_symmetry_cell_setting 'monoclinic'
loop_
_space_group_symop_operation_xyz
x,y,z
-x,y,-z
-x,-y,-z
x,-y,z
1/2+x,1/2+y,z
1/2-x,1/2+y,-z
1/2-x,1/2-y,-z
1/2+x,1/2-y,z
loop_
_atom_site_type_symbol
_atom_site_label
_atom_site_fract_x
_atom_site_fract_y
_atom_site_fract_z
Si Si1 0.930433 0.264091 0.758411
Si Si2 0.068753 0.393843 0.701315
Si Si3 0.767879 0.884419 0.624062
Si Si4 0.291639 0.112545 0.982516
Si Si5 0.601922 0.890508 0.584945
Si Si6 0.636443 0.110355 0.411054
Si Si7 0.130388 0.253329 0.851704
Si Si8 0.511802 0.113393 0.935247
O O1 0.865594 0.168930 0.717737
O O2 0.878679 0.329611 0.665344
O O3 0.032402 0.224426 0.812151
O O4 0.944832 0.323727 0.835940
O O5 0.086619 0.500000 0.748272
O O6 0.124013 0.393167 0.676676
O O7 0.112185 0.303891 0.771034
O O8 0.953751 0.378998 0.609188
O O9 0.689419 0.841613 0.614109
O O10 0.730639 0.858836 0.523693
O O11 0.784659 0.000000 0.644983
O O12 0.192304 0.158006 0.881681
O O13 0.274743 0.000000 0.984349
O O14 0.313103 0.166499 0.064783
O O15 0.376808 0.128469 0.996818
O O16 0.500000 0.834488 0.500000
O O17 0.590340 0.000000 0.547378
O O18 0.648627 0.000000 0.396970
O O19 0.482439 0.000000 0.904933
O O20 0.500000 0.147749 0.000000
#
# Coordination Sequence:
#
# PCOD8084880 Si02
#       8
#     8   8   8   8   8   8   8   8
#     4  10  19  30  45  68  94 117 149 187 221 263
#     4   9  15  25  44  66  89 113 142 182 219 252
#     4  10  19  29  43  65  95 127 152 176 214 263
#     4   9  17  31  48  64  86 113 143 181 223 264
#     4   9  15  26  42  61  86 116 146 175 210 251
#     4   9  16  28  46  66  89 118 150 186 223 256
#     4   9  18  29  44  67  88 112 146 180 218 264
#     4   9  18  33  52  70  87 110 145 191 235 267
#
# _framework density 15.968761000000001
#
# number of rings (size 3 to 8) (size 9 to 14) (size 15 to 20)
#    0.000    2.750    1.250    1.125    0.000    4.500 
#    0.000    0.000    0.000    0.375    0.000    0.000 
#    0.000    1.500    0.000    0.000    0.000    0.000 
#
# Total GULP energy -396524.379136 kJ/mol
# GULP energy per Si atom -12391.386848 kJ/mol
# Density = 1.593242 g / cm^3
# Si number density = 15.968761 Si / 1000 Ang^3
#
#
#
# Elastic Constant Matrix: (Units=GPa)
#
#
# Indices 1 2 3 4 5 6 
#
# 1 72.2708 44.8300 45.5334 0.0000 -0.7250 0.0000
# 2 44.8300 74.3441 48.1708 0.0000 10.0978 0.0000
# 3 45.5334 48.1708 87.4142 0.0000 6.5089 0.0000
# 4 0.0000 0.0000 0.0000 26.7278 0.0000 6.9171
# 5 -0.7250 10.0978 6.5089 0.0000 25.5670 0.0000
# 6 0.0000 0.0000 0.0000 6.9171 0.0000 19.8291
#
#
#
# Elastic Compliance Matrix: (Units=1/GPa)
#
#
# Indices 1 2 3 4 5 6 
#
# 1 0.025982 -0.011724 -0.007617 0.000000 0.007307 0.000000
# 2 -0.011724 0.026978 -0.008095 0.000000 -0.008927 0.000000
# 3 -0.007617 -0.008095 0.020026 0.000000 -0.002117 0.000000
# 4 0.000000 0.000000 0.000000 0.041127 0.000000 -0.014347
# 5 0.007307 -0.008927 -0.002117 0.000000 0.043385 0.000000
# 6 0.000000 0.000000 0.000000 -0.014347 0.000000 0.055435
#
#
# Mechanical properties :
#
#
# Convention : Reuss Voigt Hill
#
# Bulk Modulus (GPa) = 55.20710 56.78862 55.99786
# Shear Modulus (GPa) = 18.25859 20.79112 19.52485
#
# Velocity S-wave (km/s) = 3.38508 3.61222 3.50049
# Velocity P-wave (km/s) = 7.06579 7.28265 7.17504
#
# Compressibility (1/GPa) = 0.01811361
#
# Stress axis : x y z
#
# Youngs Moduli (GPa) = 38.48854 37.06669 49.93528
#
# Poissons Ratio (x) = 0.43458 0.38035
# Poissons Ratio (y) = 0.45125 0.40423
# Poissons Ratio (z) = 0.29317 0.30006
#
# Static dielectric constant tensor:
#      x y z
#    x 3.009400 0.000000 0.057240 
#    y 0.000000 2.876360 0.000000 
#    z 0.057240 0.000000 3.043930 
# 
# 
# High freq. dielectric constant tensor:
#      x y z
#    x 1.608480 0.000000 -0.003040 
#    y 0.000000 1.589600 0.000000 
#    z -0.003040 0.000000 1.609980 
# 
# From -- ./inp_files/324988.got.cif
#   From: 2010.06.25/outbox.cif.g09.slc.cpg/sg12_163_cif.got.tgz:324988.got - 2010.06.28 00:19:55.
