data_PCOD8084242
_publ_section_title
;
Structure prediction by ZEFSAII (Michael W. Deem and Ramdas Pophale) SiO2 
 PCOD8084242
Probable space group: C 2/M
;
_chemical_formula_sum "Si O2"
_cell_formula_units_Z 56
_cell_length_a 12.317011
_cell_length_b 25.674772
_cell_length_c 9.852989
_cell_angle_alpha 90.000000
_cell_angle_beta 114.762472
_cell_angle_gamma 90.000000
_cell_volume 2829.375910
_symmetry_space_group_name_H-M "C 2/M"
_symmetry_group_IT_number 12
_symmetry_cell_setting 'monoclinic'
loop_
_space_group_symop_operation_xyz
x,y,z
-x,y,-z
-x,-y,-z
x,-y,z
1/2+x,1/2+y,z
1/2-x,1/2+y,-z
1/2-x,1/2-y,-z
1/2+x,1/2-y,z
loop_
_atom_site_type_symbol
_atom_site_label
_atom_site_fract_x
_atom_site_fract_y
_atom_site_fract_z
Si Si1 0.210947 0.844313 0.818637
Si Si2 0.030923 0.194610 0.357000
Si Si3 0.880981 0.305333 0.677868
Si Si4 0.101457 0.440236 0.666820
Si Si5 0.429136 0.127579 0.096937
Si Si6 0.259918 0.618771 0.566322
Si Si7 0.136888 0.940910 0.613119
O O1 0.277952 0.811544 0.736633
O O2 0.169319 0.901615 0.750480
O O3 0.092820 0.810442 0.792850
O O4 0.294913 0.853345 0.992731
O O5 0.104447 0.246631 0.364988
O O6 0.114193 0.147582 0.351406
O O7 0.000000 0.189121 0.500000
O O8 0.844004 0.340902 0.531531
O O9 0.007777 0.322396 0.804601
O O10 0.136909 0.500000 0.700845
O O11 0.062712 0.420121 0.794252
O O12 0.218756 0.407482 0.684960
O O13 0.000000 0.432260 0.500000
O O14 0.500000 0.108773 0.000000
O O15 0.275213 0.572160 0.465827
O O16 0.000000 0.933167 0.500000
O O17 0.161779 0.000000 0.673919
#
# Coordination Sequence:
#
# PCOD8084242 Si02
#       7
#     8   8   8   8   8   8   8
#     4  10  21  41  58  88 127 160 208 253 302 373
#     4  12  22  36  64  95 124 166 215 255 308 368
#     4  10  22  36  60  92 121 161 207 257 307 353
#     4  11  24  41  65  95 125 163 207 257 314 368
#     4  10  23  44  64  88 128 168 204 254 309 376
#     4  11  20  39  58  93 124 154 200 267 301 360
#     4  10  18  34  62  91 119 158 204 254 302 356
#
# _framework density 19.792351
#
# number of rings (size 3 to 8) (size 9 to 14) (size 15 to 20)
#    0.000    1.429    5.714    0.857    2.000    1.429 
#    0.000    3.571    0.000    0.857    0.000    0.000 
#    0.000    0.000    0.000    0.000    0.000    0.000 
#
# Total GULP energy -347175.739873 kJ/mol
# GULP energy per Si atom -12399.133567 kJ/mol
# Density = 1.974730 g / cm^3
# Si number density = 19.792351 Si / 1000 Ang^3
#
#
#
# Elastic Constant Matrix: (Units=GPa)
#
#
# Indices 1 2 3 4 5 6 
#
# 1 97.0541 58.1649 39.7457 0.0000 13.7304 0.0000
# 2 58.1649 111.5823 18.8857 0.0000 -5.5390 0.0000
# 3 39.7457 18.8857 70.8690 0.0000 7.3449 0.0000
# 4 0.0000 0.0000 0.0000 13.7902 0.0000 1.5349
# 5 13.7304 -5.5390 7.3449 0.0000 37.2162 0.0000
# 6 0.0000 0.0000 0.0000 1.5349 0.0000 32.9804
#
#
#
# Elastic Compliance Matrix: (Units=1/GPa)
#
#
# Indices 1 2 3 4 5 6 
#
# 1 0.020471 -0.009660 -0.008142 0.000000 -0.007384 0.000000
# 2 -0.009660 0.014081 0.001101 0.000000 0.005442 0.000000
# 3 -0.008142 0.001101 0.018432 0.000000 -0.000470 0.000000
# 4 0.000000 0.000000 0.000000 0.072893 0.000000 -0.003392
# 5 -0.007384 0.005442 -0.000470 0.000000 0.030497 0.000000
# 6 0.000000 0.000000 0.000000 -0.003392 0.000000 0.030479
#
#
# Mechanical properties :
#
#
# Convention : Reuss Voigt Hill
#
# Bulk Modulus (GPa) = 51.06251 57.01087 54.03669
# Shear Modulus (GPa) = 22.04763 27.64462 24.84612
#
# Velocity S-wave (km/s) = 3.34121 3.74134 3.54692
# Velocity P-wave (km/s) = 6.38279 6.89424 6.64344
#
# Compressibility (1/GPa) = 0.01958384
#
# Stress axis : x y z
#
# Youngs Moduli (GPa) = 48.84882 71.01691 54.25365
#
# Poissons Ratio (x) = 0.68600 0.44171
# Poissons Ratio (y) = 0.47186 -0.05973
# Poissons Ratio (z) = 0.39771 -0.07819
#
# Static dielectric constant tensor:
#      x y z
#    x 3.806170 0.000000 0.208830 
#    y 0.000000 3.582530 0.000000 
#    z 0.208830 0.000000 3.460510 
# 
# 
# High freq. dielectric constant tensor:
#      x y z
#    x 1.780830 0.000000 0.014860 
#    y 0.000000 1.773380 0.000000 
#    z 0.014860 0.000000 1.743340 
# 
# From -- ./inp_files/53284.got.cif
#   From: 2010.06.25/outbox.cif.g09.slc.cpg/sg12_27_cif.got.tgz:53284.got - 2010.06.28 00:19:55.
