data_PCOD8084024
_publ_section_title
;
Structure prediction by ZEFSAII (Michael W. Deem and Ramdas Pophale) SiO2 
 PCOD8084024
Probable space group: C 2/M
;
_chemical_formula_sum "Si O2"
_cell_formula_units_Z 64
_cell_length_a 13.433071
_cell_length_b 21.975193
_cell_length_c 11.465364
_cell_angle_alpha 90.000000
_cell_angle_beta 86.980950
_cell_angle_gamma 90.000000
_cell_volume 3379.812985
_symmetry_space_group_name_H-M "C 2/M"
_symmetry_group_IT_number 12
_symmetry_cell_setting 'monoclinic'
loop_
_space_group_symop_operation_xyz
x,y,z
-x,y,-z
-x,-y,-z
x,-y,z
1/2+x,1/2+y,z
1/2-x,1/2+y,-z
1/2-x,1/2-y,-z
1/2+x,1/2-y,z
loop_
_atom_site_type_symbol
_atom_site_label
_atom_site_fract_x
_atom_site_fract_y
_atom_site_fract_z
Si Si1 0.522149 0.752204 0.863295
Si Si2 0.494783 0.429322 0.126194
Si Si3 0.664854 0.782211 0.274535
Si Si4 0.822455 0.069496 0.733600
Si Si5 0.355962 0.354780 0.255406
Si Si6 0.611403 0.854910 0.500265
Si Si7 0.185479 0.324543 0.742500
Si Si8 0.801457 0.930104 0.469557
O O1 0.422503 0.780277 0.814509
O O2 0.558159 0.694500 0.783009
O O3 0.611136 0.801970 0.849025
O O4 0.500000 0.736118 0.000000
O O5 0.509552 0.500000 0.114049
O O6 0.582302 0.403896 0.203842
O O7 0.384609 0.414704 0.180791
O O8 0.500000 0.397477 0.000000
O O9 0.747354 0.831109 0.225594
O O10 0.625332 0.802029 0.403383
O O11 0.717070 0.717021 0.280435
O O12 0.724717 0.108427 0.773533
O O13 0.847790 0.075264 0.595176
O O14 0.798165 0.000000 0.768949
O O15 0.358462 0.379016 0.388854
O O16 0.500000 0.881351 0.500000
O O17 0.626829 0.823321 0.624207
O O18 0.684551 0.912311 0.478021
O O19 0.812393 0.000000 0.423082
#
# Coordination Sequence:
#
# PCOD8084024 Si02
#       8
#     8   8   8   8   8   8   8   8
#     4  11  23  37  55  81 109 146 188 224 267 322
#     4  10  20  34  54  80 109 146 188 224 267 321
#     4  10  21  36  53  80 111 140 182 224 269 326
#     4   9  19  36  57  82 112 141 181 228 269 326
#     4  10  21  35  55  76 109 144 178 229 274 320
#     4  10  18  34  56  79 113 141 177 223 269 327
#     4  10  20  35  57  79 107 147 179 223 278 322
#     4   9  19  35  55  83 112 140 179 221 275 330
#
# _framework density 18.935959
#
# number of rings (size 3 to 8) (size 9 to 14) (size 15 to 20)
#    0.000    2.125    1.250    1.875    0.000    4.750 
#    0.000    3.125    0.000    0.375    0.000    0.000 
#    0.000    0.000    0.000    0.000    0.000    0.000 
#
# Total GULP energy -396587.457482 kJ/mol
# GULP energy per Si atom -12393.358046 kJ/mol
# Density = 1.889286 g / cm^3
# Si number density = 18.935959 Si / 1000 Ang^3
#
#
#
# Elastic Constant Matrix: (Units=GPa)
#
#
# Indices 1 2 3 4 5 6 
#
# 1 109.6627 48.4550 59.9949 0.0000 1.7561 0.0000
# 2 48.4550 80.1585 49.0280 0.0000 1.9616 0.0000
# 3 59.9949 49.0280 104.9579 0.0000 -2.5499 0.0000
# 4 0.0000 0.0000 0.0000 22.3727 0.0000 -9.6486
# 5 1.7561 1.9616 -2.5499 0.0000 25.6634 0.0000
# 6 0.0000 0.0000 0.0000 -9.6486 0.0000 24.9972
#
#
#
# Elastic Compliance Matrix: (Units=1/GPa)
#
#
# Indices 1 2 3 4 5 6 
#
# 1 0.014726 -0.005188 -0.006023 0.000000 -0.001210 0.000000
# 2 -0.005188 0.019412 -0.006145 0.000000 -0.001739 0.000000
# 3 -0.006023 -0.006145 0.015901 0.000000 0.002462 0.000000
# 4 0.000000 0.000000 0.000000 0.053624 0.000000 0.020698
# 5 -0.001210 -0.001739 0.002462 0.000000 0.039426 0.000000
# 6 0.000000 0.000000 0.000000 0.020698 0.000000 0.047994
#
#
# Mechanical properties :
#
#
# Convention : Reuss Voigt Hill
#
# Bulk Modulus (GPa) = 65.24490 67.74834 66.49662
# Shear Modulus (GPa) = 21.65406 23.76006 22.70706
#
# Velocity S-wave (km/s) = 3.38530 3.54610 3.46663
# Velocity P-wave (km/s) = 7.05767 7.25408 7.15655
#
# Compressibility (1/GPa) = 0.01532687
#
# Stress axis : x y z
#
# Youngs Moduli (GPa) = 67.90761 51.51414 62.88986
#
# Poissons Ratio (x) = 0.26725 0.37882
# Poissons Ratio (y) = 0.35230 0.38644
# Poissons Ratio (z) = 0.40904 0.31654
#
# Static dielectric constant tensor:
#      x y z
#    x 3.523120 0.000000 0.016710 
#    y 0.000000 3.523230 0.000000 
#    z 0.016710 0.000000 3.613340 
# 
# 
# High freq. dielectric constant tensor:
#      x y z
#    x 1.733970 0.000000 -0.002530 
#    y 0.000000 1.734940 0.000000 
#    z -0.002530 0.000000 1.729540 
# 
# From -- ./inp_files/135336.got.cif
#   From: 2010.06.25/outbox.cif.g09.slc.cpg/sg12_68_cif.got.tgz:135336.got - 2010.06.28 00:19:55.
