data_PCOD8084025
_publ_section_title
;
Structure prediction by ZEFSAII (Michael W. Deem and Ramdas Pophale) SiO2 
 PCOD8084025
Probable space group: C 2/M
;
_chemical_formula_sum "Si O2"
_cell_formula_units_Z 56
_cell_length_a 17.720110
_cell_length_b 14.993448
_cell_length_c 11.667326
_cell_angle_alpha 90.000000
_cell_angle_beta 120.108331
_cell_angle_gamma 90.000000
_cell_volume 2681.604820
_symmetry_space_group_name_H-M "C 2/M"
_symmetry_group_IT_number 12
_symmetry_cell_setting 'monoclinic'
loop_
_space_group_symop_operation_xyz
x,y,z
-x,y,-z
-x,-y,-z
x,-y,z
1/2+x,1/2+y,z
1/2-x,1/2+y,-z
1/2-x,1/2-y,-z
1/2+x,1/2-y,z
loop_
_atom_site_type_symbol
_atom_site_label
_atom_site_fract_x
_atom_site_fract_y
_atom_site_fract_z
Si Si1 0.242723 0.658481 0.281175
Si Si2 0.817129 0.348705 0.320430
Si Si3 0.161202 0.902367 0.053861
Si Si4 0.537247 0.783269 0.725154
Si Si5 0.409698 0.216924 0.983256
Si Si6 0.630376 0.098024 0.400539
Si Si7 0.609107 0.402178 0.761240
O O1 0.272648 0.758326 0.329301
O O2 0.166236 0.657427 0.128362
O O3 0.209030 0.615429 0.372674
O O4 0.324310 0.603631 0.294189
O O5 0.757978 0.397199 0.180574
O O6 0.912333 0.331712 0.338879
O O7 0.829381 0.408276 0.441976
O O8 0.102013 0.822067 0.057846
O O9 0.121326 0.000000 0.055352
O O10 0.166520 0.891854 0.920514
O O11 0.440282 0.822532 0.662390
O O12 0.535409 0.675824 0.699878
O O13 0.591354 0.799953 0.882163
O O14 0.500000 0.183307 0.000000
O O15 0.589436 0.000000 0.342979
O O16 0.563331 0.500000 0.721631
#
# Coordination Sequence:
#
# PCOD8084025 Si02
#       7
#     8   8   8   8   8   8   8
#     4  10  20  37  59  83 111 147 188 234 283 331
#     4  10  21  37  58  78 111 153 192 228 272 334
#     4   9  18  32  55  85 110 143 189 231 274 332
#     4  10  21  37  57  83 114 151 186 226 284 333
#     4  10  18  34  56  79 115 149 178 231 291 334
#     4  12  24  37  56  83 117 153 189 232 280 332
#     4   9  18  36  63  88 112 143 185 234 281 332
#
# _framework density 20.883016000000001
#
# number of rings (size 3 to 8) (size 9 to 14) (size 15 to 20)
#    0.000    2.000    1.429    2.571    0.000    5.429 
#    0.000    2.143    0.000    7.714    0.000    0.000 
#    0.000    0.000    0.000    0.000    0.000    0.000 
#
# Total GULP energy -347097.192087 kJ/mol
# GULP energy per Si atom -12396.328289 kJ/mol
# Density = 2.083549 g / cm^3
# Si number density = 20.883016 Si / 1000 Ang^3
#
#
#
# Elastic Constant Matrix: (Units=GPa)
#
#
# Indices 1 2 3 4 5 6 
#
# 1 78.5248 34.8533 17.7236 0.0000 -10.1316 0.0000
# 2 34.8533 110.0470 20.6644 0.0000 -4.6980 0.0000
# 3 17.7236 20.6644 58.7576 0.0000 -12.5968 0.0000
# 4 0.0000 0.0000 0.0000 19.2828 0.0000 -0.1671
# 5 -10.1316 -4.6980 -12.5968 0.0000 31.3285 0.0000
# 6 0.0000 0.0000 0.0000 -0.1671 0.0000 17.5026
#
#
#
# Elastic Compliance Matrix: (Units=1/GPa)
#
#
# Indices 1 2 3 4 5 6 
#
# 1 0.015664 -0.004353 -0.002460 0.000000 0.003424 0.000000
# 2 -0.004353 0.010939 -0.002719 0.000000 -0.000860 0.000000
# 3 -0.002460 -0.002719 0.020201 0.000000 0.006919 0.000000
# 4 0.000000 0.000000 0.000000 0.051864 0.000000 0.000495
# 5 0.003424 -0.000860 0.006919 0.000000 0.035680 0.000000
# 6 0.000000 0.000000 0.000000 0.000495 0.000000 0.057139
#
#
# Mechanical properties :
#
#
# Convention : Reuss Voigt Hill
#
# Bulk Modulus (GPa) = 36.04805 43.75689 39.90247
# Shear Modulus (GPa) = 22.74824 25.22865 23.98844
#
# Velocity S-wave (km/s) = 3.30406 3.47954 3.39293
# Velocity P-wave (km/s) = 5.64404 6.09440 5.87354
#
# Compressibility (1/GPa) = 0.02774076
#
# Stress axis : x y z
#
# Youngs Moduli (GPa) = 63.84136 91.41259 49.50342
#
# Poissons Ratio (x) = 0.39790 0.12178
# Poissons Ratio (y) = 0.27789 0.13459
# Poissons Ratio (z) = 0.15705 0.24853
#
# Static dielectric constant tensor:
#      x y z
#    x 3.495130 0.000000 -0.142330 
#    y 0.000000 3.842090 0.000000 
#    z -0.142330 0.000000 3.703560 
# 
# 
# High freq. dielectric constant tensor:
#      x y z
#    x 1.798490 0.000000 -0.015110 
#    y 0.000000 1.817910 0.000000 
#    z -0.015110 0.000000 1.812480 
# 
# From -- ./inp_files/156755.got.cif
#   From: 2010.06.25/outbox.cif.g09.slc.cpg/sg12_79_cif.got.tgz:156755.got - 2010.06.28 00:19:55.
