data_PCOD8084553
_publ_section_title
;
Structure prediction by ZEFSAII (Michael W. Deem and Ramdas Pophale) SiO2 
 PCOD8084553
Probable space group: C 2/M
;
_chemical_formula_sum "Si O2"
_cell_formula_units_Z 64
_cell_length_a 12.514085
_cell_length_b 13.959797
_cell_length_c 20.702515
_cell_angle_alpha 90.000000
_cell_angle_beta 63.451646
_cell_angle_gamma 90.000000
_cell_volume 3235.262792
_symmetry_space_group_name_H-M "C 2/M"
_symmetry_group_IT_number 12
_symmetry_cell_setting 'monoclinic'
loop_
_space_group_symop_operation_xyz
x,y,z
-x,y,-z
-x,-y,-z
x,-y,z
1/2+x,1/2+y,z
1/2-x,1/2+y,-z
1/2-x,1/2-y,-z
1/2+x,1/2-y,z
loop_
_atom_site_type_symbol
_atom_site_label
_atom_site_fract_x
_atom_site_fract_y
_atom_site_fract_z
Si Si1 0.307322 0.608188 0.935628
Si Si2 0.510492 0.179152 0.206840
Si Si3 0.221658 0.606762 0.677903
Si Si4 0.582376 0.743618 0.319772
Si Si5 0.071474 0.850290 0.840387
Si Si6 0.757959 0.184764 0.090100
Si Si7 0.244465 0.106473 0.679583
Si Si8 0.323664 0.744685 0.415194
O O1 0.251588 0.500000 0.937740
O O2 0.446939 0.595416 0.882857
O O3 0.250560 0.697282 0.909487
O O4 0.291538 0.638599 0.013569
O O5 0.409952 0.102272 0.253727
O O6 0.540413 0.253929 0.256816
O O7 0.450519 0.238565 0.165642
O O8 0.633323 0.135766 0.146746
O O9 0.269036 0.500000 0.654763
O O10 0.320070 0.660734 0.695134
O O11 0.205966 0.656542 0.613193
O O12 0.639638 0.845811 0.320208
O O13 0.463610 0.731830 0.395583
O O14 0.145130 0.853859 0.886293
O O15 0.139157 0.895093 0.760746
O O16 0.210876 0.157546 0.621963
O O17 0.280119 0.000000 0.650674
O O18 0.250000 0.750000 0.500000
#
# Coordination Sequence:
#
# PCOD8084553 Si02
#       8
#     8   8   8   8   8   8   8   8
#     4  10  23  39  58  89 120 159 206 246 297 355
#     4  10  18  37  59  82 118 155 194 238 294 350
#     4  10  21  36  58  88 115 151 198 242 288 349
#     4  10  19  40  59  83 117 154 186 240 292 350
#     4  11  19  38  60  87 119 154 199 249 298 345
#     4  10  21  37  62  84 123 162 196 251 302 349
#     4  11  22  36  61  94 117 150 201 247 292 349
#     4  10  23  43  62  83 121 160 190 238 295 354
#
# _framework density 19.78201
#
# number of rings (size 3 to 8) (size 9 to 14) (size 15 to 20)
#    0.000    1.750    5.000    0.750    0.000    7.000 
#    0.000    5.000    0.000    9.750    0.000    0.000 
#    0.000    0.000    0.000    0.000    0.000    0.000 
#
# Total GULP energy -396536.541187 kJ/mol
# GULP energy per Si atom -12391.766912 kJ/mol
# Density = 1.973698 g / cm^3
# Si number density = 19.782010 Si / 1000 Ang^3
#
#
#
# Elastic Constant Matrix: (Units=GPa)
#
#
# Indices 1 2 3 4 5 6 
#
# 1 77.3595 23.8952 24.2123 0.0000 -6.2103 0.0000
# 2 23.8952 121.0906 18.9008 0.0000 -2.0093 0.0000
# 3 24.2123 18.9008 110.6818 0.0000 -11.9261 0.0000
# 4 0.0000 0.0000 0.0000 8.3041 0.0000 -1.5146
# 5 -6.2103 -2.0093 -11.9261 0.0000 24.2010 0.0000
# 6 0.0000 0.0000 0.0000 -1.5146 0.0000 8.8482
#
#
#
# Elastic Compliance Matrix: (Units=1/GPa)
#
#
# Indices 1 2 3 4 5 6 
#
# 1 0.014667 -0.002459 -0.002540 0.000000 0.002308 0.000000
# 2 -0.002459 0.008897 -0.001024 0.000000 -0.000397 0.000000
# 3 -0.002540 -0.001024 0.010229 0.000000 0.004304 0.000000
# 4 0.000000 0.000000 0.000000 0.124303 0.000000 0.021277
# 5 0.002308 -0.000397 0.004304 0.000000 0.044001 0.000000
# 6 0.000000 0.000000 0.000000 0.021277 0.000000 0.116659
#
#
# Mechanical properties :
#
#
# Convention : Reuss Voigt Hill
#
# Bulk Modulus (GPa) = 45.98540 49.23872 47.61206
# Shear Modulus (GPa) = 14.79069 24.41224 19.60147
#
# Velocity S-wave (km/s) = 2.73735 3.51673 3.15123
# Velocity P-wave (km/s) = 5.76951 6.43697 6.11236
#
# Compressibility (1/GPa) = 0.02174603
#
# Stress axis : x y z
#
# Youngs Moduli (GPa) = 68.18245 112.39905 97.75995
#
# Poissons Ratio (x) = 0.27644 0.24828
# Poissons Ratio (y) = 0.16769 0.10011
# Poissons Ratio (z) = 0.17316 0.11510
#
# Static dielectric constant tensor:
#      x y z
#    x 3.748700 0.000000 -0.188900 
#    y 0.000000 3.446300 0.000000 
#    z -0.188900 0.000000 3.597600 
# 
# 
# High freq. dielectric constant tensor:
#      x y z
#    x 1.773930 0.000000 -0.008740 
#    y 0.000000 1.755940 0.000000 
#    z -0.008740 0.000000 1.769550 
# 
# From -- ./inp_files/305405.got.cif
#   From: 2010.06.25/outbox.cif.g09.slc.cpg/sg12_153_cif.got.tgz:305405.got - 2010.06.28 00:19:55.
