data_PCOD8084316
_publ_section_title
;
Structure prediction by ZEFSAII (Michael W. Deem and Ramdas Pophale) SiO2 
 PCOD8084316
Probable space group: C 2/M
;
_chemical_formula_sum "Si O2"
_cell_formula_units_Z 64
_cell_length_a 14.490544
_cell_length_b 16.504799
_cell_length_c 21.717050
_cell_angle_alpha 90.000000
_cell_angle_beta 40.965777
_cell_angle_gamma 90.000000
_cell_volume 3405.180090
_symmetry_space_group_name_H-M "C 2/M"
_symmetry_group_IT_number 12
_symmetry_cell_setting 'monoclinic'
loop_
_space_group_symop_operation_xyz
x,y,z
-x,y,-z
-x,-y,-z
x,-y,z
1/2+x,1/2+y,z
1/2-x,1/2+y,-z
1/2-x,1/2-y,-z
1/2+x,1/2-y,z
loop_
_atom_site_type_symbol
_atom_site_label
_atom_site_fract_x
_atom_site_fract_y
_atom_site_fract_z
Si Si1 0.139344 0.411648 0.888525
Si Si2 0.559022 0.226590 0.535170
Si Si3 0.570607 0.092673 0.099906
Si Si4 0.933691 0.906187 0.238530
Si Si5 0.793153 0.180129 0.906593
Si Si6 0.594683 0.169742 0.208652
Si Si7 0.389743 0.295778 0.366903
Si Si8 0.148044 0.595756 0.310043
O O1 0.208338 0.500000 0.852722
O O2 0.258713 0.354723 0.855882
O O3 0.085662 0.386542 0.847515
O O4 0.000000 0.409593 0.000000
O O5 0.500000 0.261044 0.500000
O O6 0.543373 0.293685 0.597704
O O7 0.722809 0.208621 0.449267
O O8 0.478569 0.143009 0.592367
O O9 0.556702 0.098080 0.180434
O O10 0.613986 0.000000 0.059756
O O11 0.678077 0.157963 0.015728
O O12 0.926792 0.879020 0.313607
O O13 0.790660 0.885633 0.274762
O O14 0.059318 0.856115 0.142980
O O15 0.969938 0.000000 0.217184
O O16 0.801185 0.275011 0.885901
O O17 0.454757 0.219304 0.297267
O O18 0.668878 0.129364 0.230273
O O19 0.112558 0.500000 0.327454
#
# Coordination Sequence:
#
# PCOD8084316 Si02
#       8
#     8   8   8   8   8   8   8   8
#     4   8  15  29  49  71  92 124 175 225 260 292
#     4  10  18  35  58  77 106 132 171 215 263 316
#     4  10  19  34  55  75 102 141 185 225 260 305
#     4  10  19  33  52  77 109 140 177 218 256 308
#     4  10  19  32  52  75 104 142 180 220 259 307
#     4  10  21  35  50  76 111 139 173 215 273 314
#     4   9  20  34  52  81 103 137 170 212 265 318
#     4  10  21  35  54  79 106 138 176 217 262 315
#
# _framework density 18.794893999999999
#
# number of rings (size 3 to 8) (size 9 to 14) (size 15 to 20)
#    0.000    2.375    1.250    2.625    0.000    2.750 
#    2.250    1.875    0.000    2.625    0.000    0.000 
#    0.000    0.000    0.000    0.000    0.000    0.000 
#
# Total GULP energy -396455.728100 kJ/mol
# GULP energy per Si atom -12389.241503 kJ/mol
# Density = 1.875212 g / cm^3
# Si number density = 18.794894 Si / 1000 Ang^3
#
#
#
# Elastic Constant Matrix: (Units=GPa)
#
#
# Indices 1 2 3 4 5 6 
#
# 1 132.5959 44.4447 38.8594 -0.0001 17.9272 0.0000
# 2 44.4447 61.7394 18.4187 -0.0001 5.5386 0.0001
# 3 38.8594 18.4187 52.3192 -0.0002 9.9052 0.0001
# 4 -0.0001 -0.0001 -0.0002 14.4739 0.0001 2.9936
# 5 17.9272 5.5386 9.9052 0.0001 34.4092 -0.0001
# 6 0.0000 0.0001 0.0001 2.9936 -0.0001 22.1618
#
#
#
# Elastic Compliance Matrix: (Units=1/GPa)
#
#
# Indices 1 2 3 4 5 6 
#
# 1 0.011924 -0.006510 -0.005909 0.000000 -0.003463 0.000000
# 2 -0.006510 0.021695 -0.002944 0.000000 0.000747 0.000000
# 3 -0.005909 -0.002944 0.025241 0.000000 -0.003714 0.000000
# 4 0.000000 0.000000 0.000000 0.071075 0.000000 -0.009601
# 5 -0.003463 0.000747 -0.003714 0.000000 0.031815 0.000000
# 6 0.000000 0.000000 0.000000 -0.009601 0.000000 0.046420
#
#
# Mechanical properties :
#
#
# Convention : Reuss Voigt Hill
#
# Bulk Modulus (GPa) = 35.54280 50.01110 42.77695
# Shear Modulus (GPa) = 20.13909 23.87111 22.00510
#
# Velocity S-wave (km/s) = 3.27696 3.56769 3.42541
# Velocity P-wave (km/s) = 5.76800 6.60590 6.20112
#
# Compressibility (1/GPa) = 0.02813510
#
# Stress axis : x y z
#
# Youngs Moduli (GPa) = 83.86633 46.09402 39.61746
#
# Poissons Ratio (x) = 0.30008 0.23408
# Poissons Ratio (y) = 0.54599 0.11662
# Poissons Ratio (z) = 0.49553 0.13568
#
# Static dielectric constant tensor:
#      x y z
#    x 3.902520 0.000000 0.119550 
#    y 0.000000 3.369740 0.000000 
#    z 0.119550 0.000000 3.325080 
# 
# 
# High freq. dielectric constant tensor:
#      x y z
#    x 1.744590 0.000000 0.005200 
#    y 0.000000 1.716890 0.000000 
#    z 0.005200 0.000000 1.715000 
# 
# From -- ./inp_files/306192.got.cif
#   From: 2010.06.25/outbox.cif.g09.slc.cpg/sg12_154_cif.got.tgz:306192.got - 2010.06.28 00:19:55.
