data_PCOD8084588
_publ_section_title
;
Structure prediction by ZEFSAII (Michael W. Deem and Ramdas Pophale) SiO2 
 PCOD8084588
Probable space group: C 2/M
;
_chemical_formula_sum "Si O2"
_cell_formula_units_Z 40
_cell_length_a 15.015885
_cell_length_b 28.268656
_cell_length_c 9.392525
_cell_angle_alpha 90.000000
_cell_angle_beta 149.988633
_cell_angle_gamma 90.000000
_cell_volume 1994.149245
_symmetry_space_group_name_H-M "C 2/M"
_symmetry_group_IT_number 12
_symmetry_cell_setting 'monoclinic'
loop_
_space_group_symop_operation_xyz
x,y,z
-x,y,-z
-x,-y,-z
x,-y,z
1/2+x,1/2+y,z
1/2-x,1/2+y,-z
1/2-x,1/2-y,-z
1/2+x,1/2-y,z
loop_
_atom_site_type_symbol
_atom_site_label
_atom_site_fract_x
_atom_site_fract_y
_atom_site_fract_z
Si Si1 0.196092 0.185612 0.289148
Si Si2 0.180619 0.448503 0.334510
Si Si3 0.702057 0.789092 0.261635
Si Si4 0.805729 0.119743 0.276623
Si Si5 0.468143 0.896796 0.617884
O O1 0.197782 0.202723 0.452795
O O2 0.212444 0.234763 0.221265
O O3 0.358030 0.152325 0.465563
O O4 0.000000 0.161873 0.000000
O O5 0.278915 0.500000 0.468402
O O6 0.285039 0.406385 0.400608
O O7 0.148907 0.434532 0.455737
O O8 0.000000 0.454456 0.000000
O O9 0.794836 0.823592 0.276473
O O10 0.500000 0.806701 0.000000
O O11 0.000000 0.103735 0.500000
O O12 0.660660 0.105716 0.958180
O O13 0.500000 0.913610 0.500000
#
# Coordination Sequence:
#
# PCOD8084588 Si02
#       5
#     8   8   8   8   8
#     4  10  21  34  60  85 118 155 196 240 287 337
#     4   9  19  40  65  84 111 152 193 238 292 348
#     4  10  18  38  59  83 114 160 200 236 281 337
#     4  11  22  38  61  86 117 155 196 236 283 349
#     4  11  23  38  58  90 122 148 191 241 294 344
#
# _framework density 20.058679000000001
#
# number of rings (size 3 to 8) (size 9 to 14) (size 15 to 20)
#    0.000    1.800    4.000    0.600    2.800    1.600 
#    0.000    2.000    0.000    4.200    0.000    0.000 
#    0.000    0.000    0.000    0.000    0.000    0.000 
#
# Total GULP energy -247847.808420 kJ/mol
# GULP energy per Si atom -12392.390421 kJ/mol
# Density = 2.001303 g / cm^3
# Si number density = 20.058679 Si / 1000 Ang^3
#
#
#
# Elastic Constant Matrix: (Units=GPa)
#
#
# Indices 1 2 3 4 5 6 
#
# 1 111.8154 39.3384 39.8546 0.0001 -7.1389 0.0000
# 2 39.3384 105.8391 18.7395 0.0000 2.8963 0.0000
# 3 39.8546 18.7395 97.9228 0.0002 10.7048 0.0000
# 4 0.0001 0.0000 0.0002 1.6020 0.0001 2.0207
# 5 -7.1389 2.8963 10.7048 0.0001 36.4745 0.0000
# 6 0.0000 0.0000 0.0000 2.0207 0.0000 10.8561
#
#
#
# Elastic Compliance Matrix: (Units=1/GPa)
#
#
# Indices 1 2 3 4 5 6 
#
# 1 0.012219 -0.003823 -0.004686 -0.000001 0.004070 0.000000
# 2 -0.003823 0.010978 -0.000380 0.000001 -0.001508 0.000000
# 3 -0.004686 -0.000380 0.012696 -0.000001 -0.004613 0.000000
# 4 -0.000001 0.000001 -0.000001 0.815752 -0.000002 -0.151840
# 5 0.004070 -0.001508 -0.004613 -0.000002 0.029687 0.000000
# 6 0.000000 0.000000 0.000000 -0.151840 0.000000 0.120377
#
#
# Mechanical properties :
#
#
# Convention : Reuss Voigt Hill
#
# Bulk Modulus (GPa) = 55.20518 56.82694 56.01606
# Shear Modulus (GPa) = 4.87555 24.29617 14.58586
#
# Velocity S-wave (km/s) = 1.56074 3.48408 2.69951
# Velocity P-wave (km/s) = 5.55243 6.67660 6.14030
#
# Compressibility (1/GPa) = 0.01811424
#
# Stress axis : x y z
#
# Youngs Moduli (GPa) = 81.84287 91.09289 78.76206
#
# Poissons Ratio (x) = 0.34825 0.36910
# Poissons Ratio (y) = 0.31289 0.02993
# Poissons Ratio (z) = 0.38354 0.03461
#
# Static dielectric constant tensor:
#      x y z
#    x 3.406980 0.000000 -0.055790 
#    y 0.000000 4.009990 0.000000 
#    z -0.055790 0.000000 3.615920 
# 
# 
# High freq. dielectric constant tensor:
#      x y z
#    x 1.756660 0.000000 -0.002880 
#    y 0.000000 1.781930 0.000000 
#    z -0.002880 0.000000 1.778310 
# 
# From -- ./inp_files/41885.got.cif
#   From: 2010.06.25/outbox.cif.g09.slc.cpg/sg12_21_cif.got.tgz:41885.got - 2010.06.28 00:19:55.
