data_PCOD8084383
_publ_section_title
;
Structure prediction by ZEFSAII (Michael W. Deem and Ramdas Pophale) SiO2 
 PCOD8084383
Probable space group: C 2/M
;
_chemical_formula_sum "Si O2"
_cell_formula_units_Z 64
_cell_length_a 20.484362
_cell_length_b 9.062280
_cell_length_c 22.434772
_cell_angle_alpha 90.000000
_cell_angle_beta 124.348257
_cell_angle_gamma 90.000000
_cell_volume 3438.456697
_symmetry_space_group_name_H-M "C 2/M"
_symmetry_group_IT_number 12
_symmetry_cell_setting 'monoclinic'
loop_
_space_group_symop_operation_xyz
x,y,z
-x,y,-z
-x,-y,-z
x,-y,z
1/2+x,1/2+y,z
1/2-x,1/2+y,-z
1/2-x,1/2-y,-z
1/2+x,1/2-y,z
loop_
_atom_site_type_symbol
_atom_site_label
_atom_site_fract_x
_atom_site_fract_y
_atom_site_fract_z
Si Si1 0.682513 0.324686 0.591245
Si Si2 0.219449 0.827317 0.042627
Si Si3 0.585009 0.828450 0.438834
Si Si4 0.639977 0.174664 0.338310
Si Si5 0.400399 0.171825 0.343143
Si Si6 0.636042 0.173490 0.806312
Si Si7 0.040392 0.173925 0.959975
Si Si8 0.503343 0.824569 0.181555
O O1 0.678511 0.500000 0.590214
O O2 0.631188 0.266783 0.510418
O O3 0.772106 0.266951 0.629185
O O4 0.650223 0.263385 0.636345
O O5 0.275820 0.784035 0.127082
O O6 0.223611 0.000000 0.032641
O O7 0.250000 0.750000 0.000000
O O8 0.131250 0.774540 0.011502
O O9 0.609151 0.767479 0.386262
O O10 0.492647 0.803957 0.402517
O O11 0.607584 0.000000 0.458050
O O12 0.581841 0.230589 0.256232
O O13 0.637213 0.000000 0.338562
O O14 0.378282 0.237744 0.266876
O O15 0.377946 0.000000 0.337354
O O16 0.572360 0.236028 0.820684
O O17 0.621886 0.000000 0.795186
O O18 0.995981 0.253168 0.883103
O O19 0.032789 0.000000 0.946469
O O20 0.000000 0.225856 0.000000
O O21 0.500864 0.000000 0.173244
#
# Coordination Sequence:
#
# PCOD8084383 Si02
#       8
#     8   8   8   8   8   8   8   8
#     4  11  23  36  51  79 117 144 168 218 281 325
#     4  10  19  33  55  81 107 138 178 220 261 311
#     4  10  19  36  60  80 101 140 189 225 258 313
#     4   9  19  36  58  81 106 139 180 226 270 314
#     4  10  20  36  58  81 104 139 186 226 262 312
#     4   9  17  32  57  82 101 132 182 230 262 300
#     4  10  22  37  52  79 119 150 170 209 273 329
#     4  10  18  35  61  82 102 136 185 229 263 308
#
# _framework density 18.613002000000002
#
# number of rings (size 3 to 8) (size 9 to 14) (size 15 to 20)
#    0.000    2.125    2.500    1.125    0.000    3.250 
#    0.000    5.000    0.000    0.000    0.000    0.000 
#    0.000    0.000    0.000    0.000    0.000    0.000 
#
# Total GULP energy -396841.972791 kJ/mol
# GULP energy per Si atom -12401.311650 kJ/mol
# Density = 1.857064 g / cm^3
# Si number density = 18.613002 Si / 1000 Ang^3
#
#
#
# Elastic Constant Matrix: (Units=GPa)
#
#
# Indices 1 2 3 4 5 6 
#
# 1 127.6876 29.4641 52.7420 0.0000 -13.5838 0.0000
# 2 29.4641 32.8574 28.3768 0.0000 -3.9663 0.0000
# 3 52.7420 28.3768 135.8160 0.0000 -14.2408 0.0000
# 4 0.0000 0.0000 0.0000 18.7590 0.0000 2.3435
# 5 -13.5838 -3.9663 -14.2408 0.0000 33.1967 0.0000
# 6 0.0000 0.0000 0.0000 2.3435 0.0000 21.0599
#
#
#
# Elastic Compliance Matrix: (Units=1/GPa)
#
#
# Indices 1 2 3 4 5 6 
#
# 1 0.010769 -0.007284 -0.002397 0.000000 0.002508 0.000000
# 2 -0.007284 0.042105 -0.006025 0.000000 -0.000534 0.000000
# 3 -0.002397 -0.006025 0.009816 0.000000 0.002510 0.000000
# 4 0.000000 0.000000 0.000000 0.054059 0.000000 -0.006016
# 5 0.002508 -0.000534 0.002510 0.000000 0.032163 0.000000
# 6 0.000000 0.000000 0.000000 -0.006016 0.000000 0.048153
#
#
# Mechanical properties :
#
#
# Convention : Reuss Voigt Hill
#
# Bulk Modulus (GPa) = 31.97113 57.50297 44.73705
# Shear Modulus (GPa) = 20.92900 26.98833 23.95867
#
# Velocity S-wave (km/s) = 3.35689 3.81198 3.59165
# Velocity P-wave (km/s) = 5.67794 7.09479 6.42553
#
# Compressibility (1/GPa) = 0.03127822
#
# Stress axis : x y z
#
# Youngs Moduli (GPa) = 92.85515 23.75021 101.87685
#
# Poissons Ratio (x) = 0.17300 0.24422
# Poissons Ratio (y) = 0.67637 0.61376
# Poissons Ratio (z) = 0.22260 0.14308
#
# Static dielectric constant tensor:
#      x y z
#    x 3.538060 0.000000 0.067450 
#    y 0.000000 3.096070 0.000000 
#    z 0.067450 0.000000 3.463300 
# 
# 
# High freq. dielectric constant tensor:
#      x y z
#    x 1.729720 0.000000 0.001430 
#    y 0.000000 1.689260 0.000000 
#    z 0.001430 0.000000 1.739770 
# 
# From -- ./inp_files/346147.got.cif
#   From: 2010.06.25/outbox.cif.g09.slc.cpg/sg12_174_cif.got.tgz:346147.got - 2010.06.28 00:19:55.
