data_PCOD8084359
_publ_section_title
;
Structure prediction by ZEFSAII (Michael W. Deem and Ramdas Pophale) SiO2 
 PCOD8084359
Probable space group: C 2/M
;
_chemical_formula_sum "Si O2"
_cell_formula_units_Z 52
_cell_length_a 9.171260
_cell_length_b 29.171630
_cell_length_c 16.371941
_cell_angle_alpha 90.000000
_cell_angle_beta 35.880940
_cell_angle_gamma 90.000000
_cell_volume 2567.223684
_symmetry_space_group_name_H-M "C 2/M"
_symmetry_group_IT_number 12
_symmetry_cell_setting 'monoclinic'
loop_
_space_group_symop_operation_xyz
x,y,z
-x,y,-z
-x,-y,-z
x,-y,z
1/2+x,1/2+y,z
1/2-x,1/2+y,-z
1/2-x,1/2-y,-z
1/2+x,1/2-y,z
loop_
_atom_site_type_symbol
_atom_site_label
_atom_site_fract_x
_atom_site_fract_y
_atom_site_fract_z
Si Si1 0.000000 0.362276 0.500000
Si Si2 0.252242 0.000000 0.012331
Si Si3 0.363402 0.399351 0.931818
Si Si4 0.192202 0.666160 0.246001
Si Si5 0.803738 0.000000 0.770475
Si Si6 0.008179 0.904243 0.311938
Si Si7 0.399160 0.150771 0.222942
Si Si8 0.525823 0.239623 0.899682
O O1 0.099885 0.330556 0.381373
O O2 0.216083 0.394216 0.438173
O O3 0.533810 0.000000 0.849445
O O4 0.120582 0.047575 0.043824
O O5 0.249810 0.000000 0.110088
O O6 0.602162 0.373380 0.859317
O O7 0.357784 0.396224 0.835980
O O8 0.115196 0.374796 0.075070
O O9 0.305609 0.715107 0.171635
O O10 0.965389 0.652742 0.288983
O O11 0.964613 0.043629 0.670915
O O12 0.137707 0.873863 0.323641
O O13 0.355429 0.202946 0.214657
O O14 0.500000 0.216871 0.000000
O O15 0.250000 0.250000 0.000000
#
# Coordination Sequence:
#
# PCOD8084359 Si02
#       8
#     4   4   8   8   4   8   8   8
#     4  10  26  45  60  80 118 166 212 241 288 346
#     4   9  16  28  56  94 129 151 189 239 309 369
#     4  10  18  35  59  94 126 155 189 246 307 358
#     4  11  24  42  58  87 125 160 202 248 289 359
#     4   9  16  31  57  92 121 152 199 245 294 355
#     4  10  21  37  62  87 121 163 200 244 293 359
#     4  12  22  36  64  92 122 154 195 250 309 351
#     4  12  22  38  64  97 125 153 191 243 305 363
#
# _framework density 20.255344999999998
#
# number of rings (size 3 to 8) (size 9 to 14) (size 15 to 20)
#    0.000    1.385    4.615    1.846    2.154    0.923 
#    0.000    6.154    0.000    0.923    0.000    0.000 
#    0.000    0.000    0.000    0.000    0.000    0.000 
#
# Total GULP energy -322350.348342 kJ/mol
# GULP energy per Si atom -12398.090321 kJ/mol
# Density = 2.020924 g / cm^3
# Si number density = 20.255345 Si / 1000 Ang^3
#
#
#
# Elastic Constant Matrix: (Units=GPa)
#
#
# Indices 1 2 3 4 5 6 
#
# 1 134.3132 52.2084 25.3149 0.0000 -16.5239 0.0000
# 2 52.2084 139.6907 19.1987 0.0000 -8.4715 0.0000
# 3 25.3149 19.1987 59.0664 0.0000 -10.0673 0.0000
# 4 0.0000 0.0000 0.0000 7.4351 0.0000 1.2720
# 5 -16.5239 -8.4715 -10.0673 0.0000 28.6618 0.0000
# 6 0.0000 0.0000 0.0000 1.2720 0.0000 25.8308
#
#
#
# Elastic Compliance Matrix: (Units=1/GPa)
#
#
# Indices 1 2 3 4 5 6 
#
# 1 0.009537 -0.002997 -0.002475 0.000000 0.003743 0.000000
# 2 -0.002997 0.008492 -0.001428 0.000000 0.000280 0.000000
# 3 -0.002475 -0.001428 0.019295 0.000000 0.004928 0.000000
# 4 0.000000 0.000000 0.000000 0.135640 0.000000 -0.006679
# 5 0.003743 0.000280 0.004928 0.000000 0.038862 0.000000
# 6 0.000000 0.000000 0.000000 -0.006679 0.000000 0.039042
#
#
# Mechanical properties :
#
#
# Convention : Reuss Voigt Hill
#
# Bulk Modulus (GPa) = 42.51065 58.50162 50.50613
# Shear Modulus (GPa) = 18.34794 28.14210 23.24502
#
# Velocity S-wave (km/s) = 3.01297 3.73146 3.39130
# Velocity P-wave (km/s) = 5.75647 6.89274 6.35007
#
# Compressibility (1/GPa) = 0.02352351
#
# Stress axis : x y z
#
# Youngs Moduli (GPa) = 104.85031 117.75578 51.82679
#
# Poissons Ratio (x) = 0.35295 0.12829
# Poissons Ratio (y) = 0.31427 0.07400
# Poissons Ratio (z) = 0.25954 0.16814
#
# Static dielectric constant tensor:
#      x y z
#    x 3.692890 0.000000 -0.067240 
#    y 0.000000 10.464470 0.000000 
#    z -0.067240 0.000000 3.363170 
# 
# 
# High freq. dielectric constant tensor:
#      x y z
#    x 1.796180 0.000000 -0.004580 
#    y 0.000000 1.798850 0.000000 
#    z -0.004580 0.000000 1.757610 
# 
# From -- ./inp_files/123794.got.cif
#   From: 2010.06.25/outbox.cif.g09.slc.cpg/sg12_62_cif.got.tgz:123794.got - 2010.06.28 00:19:55.
