data_PCOD8084201
_publ_section_title
;
Structure prediction by ZEFSAII (Michael W. Deem and Ramdas Pophale) SiO2 
 PCOD8084201
Probable space group: C 2/M
;
_chemical_formula_sum "Si O2"
_cell_formula_units_Z 48
_cell_length_a 11.975280
_cell_length_b 21.587456
_cell_length_c 12.033556
_cell_angle_alpha 90.000000
_cell_angle_beta 131.440569
_cell_angle_gamma 90.000000
_cell_volume 2332.036813
_symmetry_space_group_name_H-M "C 2/M"
_symmetry_group_IT_number 12
_symmetry_cell_setting 'monoclinic'
loop_
_space_group_symop_operation_xyz
x,y,z
-x,y,-z
-x,-y,-z
x,-y,z
1/2+x,1/2+y,z
1/2-x,1/2+y,-z
1/2-x,1/2-y,-z
1/2+x,1/2-y,z
loop_
_atom_site_type_symbol
_atom_site_label
_atom_site_fract_x
_atom_site_fract_y
_atom_site_fract_z
Si Si1 0.363128 0.929738 0.330058
Si Si2 0.831216 0.068529 0.424442
Si Si3 0.894028 0.884278 0.691741
Si Si4 0.469036 0.273999 0.106002
Si Si5 0.222000 0.072185 0.849835
Si Si6 0.160767 0.655110 0.897213
O O1 0.500000 0.913556 0.500000
O O2 0.205663 0.923484 0.288892
O O3 0.373790 0.881563 0.237080
O O4 0.374687 0.000000 0.292558
O O5 0.813279 0.115181 0.516979
O O6 0.751379 0.094662 0.260624
O O7 0.000000 0.060291 0.500000
O O8 0.769813 0.000000 0.417975
O O9 0.905354 0.814528 0.747843
O O10 0.054912 0.915964 0.785153
O O11 0.458584 0.210065 0.167425
O O12 0.500000 0.256763 0.000000
O O13 0.321659 0.314441 0.005409
O O14 0.254316 0.000000 0.880106
O O15 0.344709 0.107586 0.003417
#
# Coordination Sequence:
#
# PCOD8084201 Si02
#       6
#     8   8   8   8   8   8
#     4  11  23  39  59  85 121 154 186 237 294 346
#     4   8  14  27  50  85 121 142 172 229 289 342
#     4  10  18  34  60  87 112 152 190 234 289 338
#     4  10  20  39  61  83 112 150 196 241 282 328
#     4   9  17  31  58  91 117 144 183 235 290 341
#     4  10  21  38  59  85 116 149 191 239 285 339
#
# _framework density 20.582865999999999
#
# number of rings (size 3 to 8) (size 9 to 14) (size 15 to 20)
#    0.000    2.333    1.667    3.000    0.000    0.000 
#    3.000    9.167    0.000    1.000    0.000    0.000 
#    0.000    0.000    0.000    0.000    0.000    0.000 
#
# Total GULP energy -297439.783827 kJ/mol
# GULP energy per Si atom -12393.324326 kJ/mol
# Density = 2.053602 g / cm^3
# Si number density = 20.582866 Si / 1000 Ang^3
#
#
#
# Elastic Constant Matrix: (Units=GPa)
#
#
# Indices 1 2 3 4 5 6 
#
# 1 55.3586 48.0028 39.2944 0.0000 -29.9017 0.0000
# 2 48.0028 133.9190 77.5680 0.0000 -27.5878 0.0000
# 3 39.2944 77.5680 110.1323 0.0000 -38.6518 0.0000
# 4 0.0000 0.0000 0.0000 29.3813 0.0000 -8.5876
# 5 -29.9017 -27.5878 -38.6518 0.0000 34.8400 0.0000
# 6 0.0000 0.0000 0.0000 -8.5876 0.0000 31.0090
#
#
#
# Elastic Compliance Matrix: (Units=1/GPa)
#
#
# Indices 1 2 3 4 5 6 
#
# 1 0.041551 -0.010509 0.003556 0.000000 0.031285 0.000000
# 2 -0.010509 0.015271 -0.009707 0.000000 -0.007696 0.000000
# 3 0.003556 -0.009707 0.021325 0.000000 0.019023 0.000000
# 4 0.000000 0.000000 0.000000 0.037033 0.000000 0.010256
# 5 0.031285 -0.007696 0.019023 0.000000 0.070564 0.000000
# 6 0.000000 0.000000 0.000000 0.010256 0.000000 0.035089
#
#
# Mechanical properties :
#
#
# Convention : Reuss Voigt Hill
#
# Bulk Modulus (GPa) = 22.30804 69.90448 46.10626
# Shear Modulus (GPa) = 18.58088 28.01571 23.29829
#
# Velocity S-wave (km/s) = 3.00781 3.69334 3.36806
# Velocity P-wave (km/s) = 4.78793 7.22661 6.12977
#
# Compressibility (1/GPa) = 0.04482688
#
# Stress axis : x y z
#
# Youngs Moduli (GPa) = 24.06696 65.48258 46.89441
#
# Poissons Ratio (x) = 0.68813 -0.16677
# Poissons Ratio (y) = 0.25291 0.45522
# Poissons Ratio (z) = -0.08559 0.63567
#
# Static dielectric constant tensor:
#      x y z
#    x 3.721980 0.000000 -0.413150 
#    y 0.000000 3.787970 0.000000 
#    z -0.413150 0.000000 4.044910 
# 
# 
# High freq. dielectric constant tensor:
#      x y z
#    x 1.794370 0.000000 -0.021450 
#    y 0.000000 1.797940 0.000000 
#    z -0.021450 0.000000 1.798840 
# 
# From -- ./inp_files/135531.got.cif
#   From: 2010.06.25/outbox.cif.g09.slc.cpg/sg12_68_cif.got.tgz:135531.got - 2010.06.28 00:19:55.
