data_PCOD8084992
_publ_section_title
;
Structure prediction by ZEFSAII (Michael W. Deem and Ramdas Pophale) SiO2 
 PCOD8084992
Probable space group: C 2/M
;
_chemical_formula_sum "Si O2"
_cell_formula_units_Z 48
_cell_length_a 24.110848
_cell_length_b 12.620632
_cell_length_c 13.976777
_cell_angle_alpha 90.000000
_cell_angle_beta 136.494396
_cell_angle_gamma 90.000000
_cell_volume 2927.909077
_symmetry_space_group_name_H-M "C 2/M"
_symmetry_group_IT_number 12
_symmetry_cell_setting 'monoclinic'
loop_
_space_group_symop_operation_xyz
x,y,z
-x,y,-z
-x,-y,-z
x,-y,z
1/2+x,1/2+y,z
1/2-x,1/2+y,-z
1/2-x,1/2-y,-z
1/2+x,1/2-y,z
loop_
_atom_site_type_symbol
_atom_site_label
_atom_site_fract_x
_atom_site_fract_y
_atom_site_fract_z
Si Si1 0.688046 0.122741 0.887708
Si Si2 0.931910 0.220990 0.343647
Si Si3 0.184553 0.877780 0.662543
Si Si4 0.949738 0.878779 0.646321
Si Si5 0.034302 0.877734 0.940012
Si Si6 0.311824 0.753062 0.928982
O O1 0.615831 0.173309 0.738443
O O2 0.771253 0.164956 0.946537
O O3 0.684955 0.000000 0.866587
O O4 0.676499 0.146606 0.986051
O O5 0.875185 0.131607 0.320971
O O6 0.000000 0.259379 0.500000
O O7 0.970545 0.175463 0.296005
O O8 0.135438 0.838164 0.505370
O O9 0.259208 0.797029 0.773115
O O10 0.213604 0.000000 0.689453
O O11 0.954180 0.000000 0.620521
O O12 0.959120 0.862191 0.772023
O O13 0.106559 0.796656 0.009617
O O14 0.064823 0.000000 0.974268
O O15 0.000000 0.848147 0.000000
#
# Coordination Sequence:
#
# PCOD8084992 Si02
#       6
#     8   8   8   8   8   8
#     4  10  19  29  45  69  99 131 156 189 239 291
#     4   9  16  27  44  70  99 127 158 189 236 284
#     4   9  17  28  47  73  99 126 156 194 239 284
#     4   9  16  29  48  71  97 123 158 200 237 275
#     4  10  20  34  53  73  93 123 163 203 239 277
#     4  10  19  32  47  71  98 125 159 199 238 285
#
# _framework density 16.393951000000001
#
# number of rings (size 3 to 8) (size 9 to 14) (size 15 to 20)
#    0.000    2.500    1.667    1.500    0.000    2.333 
#    0.000    0.833    0.000    2.000    0.000    0.000 
#    0.000    0.000    0.000    0.000    0.000    0.000 
#
# Total GULP energy -297421.906412 kJ/mol
# GULP energy per Si atom -12392.579434 kJ/mol
# Density = 1.635664 g / cm^3
# Si number density = 16.393951 Si / 1000 Ang^3
#
#
#
# Elastic Constant Matrix: (Units=GPa)
#
#
# Indices 1 2 3 4 5 6 
#
# 1 61.0650 23.2427 42.0453 0.0000 -5.2859 0.0000
# 2 23.2427 68.7515 32.7537 0.0000 2.0827 0.0000
# 3 42.0453 32.7537 105.8413 0.0000 -4.6541 0.0000
# 4 0.0000 0.0000 0.0000 21.9283 0.0000 1.9369
# 5 -5.2859 2.0827 -4.6541 0.0000 23.2875 0.0000
# 6 0.0000 0.0000 0.0000 1.9369 0.0000 16.1242
#
#
#
# Elastic Compliance Matrix: (Units=1/GPa)
#
#
# Indices 1 2 3 4 5 6 
#
# 1 0.023890 -0.004424 -0.007935 0.000000 0.004233 0.000000
# 2 -0.004424 0.018038 -0.003974 0.000000 -0.003412 0.000000
# 3 -0.007935 -0.003974 0.013889 0.000000 0.001330 0.000000
# 4 0.000000 0.000000 0.000000 0.046092 0.000000 -0.005537
# 5 0.004233 -0.003412 0.001330 0.000000 0.044473 0.000000
# 6 0.000000 0.000000 0.000000 -0.005537 0.000000 0.062684
#
#
# Mechanical properties :
#
#
# Convention : Reuss Voigt Hill
#
# Bulk Modulus (GPa) = 43.19880 47.97125 45.58503
# Shear Modulus (GPa) = 20.04420 21.44240 20.74330
#
# Velocity S-wave (km/s) = 3.50045 3.62048 3.56097
# Velocity P-wave (km/s) = 6.53798 6.84121 6.69131
#
# Compressibility (1/GPa) = 0.02314879
#
# Stress axis : x y z
#
# Youngs Moduli (GPa) = 41.85882 55.43956 72.00125
#
# Poissons Ratio (x) = 0.24528 0.57132
# Poissons Ratio (y) = 0.18520 0.28616
# Poissons Ratio (z) = 0.33215 0.22034
#
# Static dielectric constant tensor:
#      x y z
#    x 2.783480 0.000000 0.040300 
#    y 0.000000 2.890750 0.000000 
#    z 0.040300 0.000000 3.525580 
# 
# 
# High freq. dielectric constant tensor:
#      x y z
#    x 1.590700 0.000000 0.003790 
#    y 0.000000 1.614090 0.000000 
#    z 0.003790 0.000000 1.652700 
# 
# From -- ./inp_files/164295.got.cif
#   From: 2010.06.25/outbox.cif.g09.slc.cpg/sg12_83_cif.got.tgz:164295.got - 2010.06.28 00:19:55.
