data_PCOD8084275
_publ_section_title
;
Structure prediction by ZEFSAII (Michael W. Deem and Ramdas Pophale) SiO2 
 PCOD8084275
Probable space group: C 2/M
;
_chemical_formula_sum "Si O2"
_cell_formula_units_Z 48
_cell_length_a 20.777048
_cell_length_b 16.773275
_cell_length_c 21.282586
_cell_angle_alpha 90.000000
_cell_angle_beta 21.184693
_cell_angle_gamma 90.000000
_cell_volume 2680.308532
_symmetry_space_group_name_H-M "C 2/M"
_symmetry_group_IT_number 12
_symmetry_cell_setting 'monoclinic'
loop_
_space_group_symop_operation_xyz
x,y,z
-x,y,-z
-x,-y,-z
x,-y,z
1/2+x,1/2+y,z
1/2-x,1/2+y,-z
1/2-x,1/2-y,-z
1/2+x,1/2-y,z
loop_
_atom_site_type_symbol
_atom_site_label
_atom_site_fract_x
_atom_site_fract_y
_atom_site_fract_z
Si Si1 0.801042 0.408643 0.977419
Si Si2 0.186265 0.590831 0.302706
Si Si3 0.558457 0.275149 0.881250
Si Si4 0.860312 0.306421 0.311134
Si Si5 0.489892 0.702904 0.302095
Si Si6 0.710128 0.154758 0.147059
O O1 0.785988 0.500000 0.011872
O O2 0.650102 0.359781 0.152013
O O3 0.770869 0.401451 0.930529
O O4 0.996654 0.377316 0.817434
O O5 0.229733 0.500000 0.281466
O O6 0.340218 0.644234 0.192204
O O7 0.172035 0.598679 0.240835
O O8 0.000000 0.619581 0.500000
O O9 0.674277 0.218013 0.730542
O O10 0.500000 0.231933 0.000000
O O11 0.388750 0.295230 0.993586
O O12 0.673645 0.336564 0.510676
O O13 0.928239 0.229233 0.288523
O O14 0.550461 0.782357 0.283661
#
# Coordination Sequence:
#
# PCOD8084275 Si02
#       6
#     8   8   8   8   8   8
#     4  11  21  34  55  80 109 139 173 225 278 313
#     4  10  21  33  47  77 114 144 176 212 255 314
#     4  10  19  32  55  76 104 144 181 211 254 315
#     4  10  19  36  54  80 105 139 182 220 261 317
#     4  10  19  34  59  76 105 140 180 223 264 313
#     4  10  18  35  54  75 106 141 180 214 259 316
#
# _framework density 17.908387000000001
#
# number of rings (size 3 to 8) (size 9 to 14) (size 15 to 20)
#    0.000    1.833    3.333    2.500    0.000    4.333 
#    0.000    0.000    0.000    0.500    0.000    1.167 
#    0.000    0.000    0.000    0.000    0.000    0.000 
#
# Total GULP energy -297588.853708 kJ/mol
# GULP energy per Si atom -12399.535571 kJ/mol
# Density = 1.786763 g / cm^3
# Si number density = 17.908387 Si / 1000 Ang^3
#
#
#
# Elastic Constant Matrix: (Units=GPa)
#
#
# Indices 1 2 3 4 5 6 
#
# 1 84.7777 19.9263 29.9814 -0.0062 10.2372 0.0059
# 2 19.9263 67.0389 35.2701 -0.0305 3.3203 0.0091
# 3 29.9814 35.2701 122.0323 -0.0163 4.8614 0.0127
# 4 -0.0062 -0.0305 -0.0163 14.9745 0.0133 2.6767
# 5 10.2372 3.3203 4.8614 0.0133 27.4266 -0.0051
# 6 0.0059 0.0091 0.0127 2.6767 -0.0051 20.3405
#
#
#
# Elastic Compliance Matrix: (Units=1/GPa)
#
#
# Indices 1 2 3 4 5 6 
#
# 1 0.013809 -0.002587 -0.002469 0.000002 -0.004403 -0.000003
# 2 -0.002587 0.018118 -0.004584 0.000033 -0.000415 -0.000009
# 3 -0.002469 -0.004584 0.010139 0.000002 -0.000320 -0.000004
# 4 0.000002 0.000033 0.000002 0.068389 -0.000040 -0.009000
# 5 -0.004403 -0.000415 -0.000320 -0.000040 0.038212 0.000016
# 6 -0.000003 -0.000009 -0.000004 -0.009000 0.000016 0.050347
#
#
# Mechanical properties :
#
#
# Convention : Reuss Voigt Hill
#
# Bulk Modulus (GPa) = 43.89055 49.35606 46.62331
# Shear Modulus (GPa) = 22.13461 25.12637 23.63049
#
# Velocity S-wave (km/s) = 3.51948 3.74980 3.63646
# Velocity P-wave (km/s) = 6.40915 6.80941 6.61231
#
# Compressibility (1/GPa) = 0.02278395
#
# Stress axis : x y z
#
# Youngs Moduli (GPa) = 72.41839 55.19312 98.62885
#
# Poissons Ratio (x) = 0.14279 0.24356
# Poissons Ratio (y) = 0.18736 0.45216
# Poissons Ratio (z) = 0.17883 0.25303
#
# Static dielectric constant tensor:
#      x y z
#    x 3.307450 -0.000040 0.081740 
#    y -0.000040 2.912010 0.000110 
#    z 0.081740 0.000110 3.516910 
# 
# 
# High freq. dielectric constant tensor:
#      x y z
#    x 1.688870 0.000000 0.005260 
#    y 0.000000 1.655200 0.000010 
#    z 0.005260 0.000010 1.710640 
# 
# From -- ./inp_files/85185.got.cif
#   From: 2010.06.25/outbox.cif.g09.slc.cpg/sg12_43_cif.got.tgz:85185.got - 2010.06.28 00:19:55.
