data_PCOD8084720
_publ_section_title
;
Structure prediction by ZEFSAII (Michael W. Deem and Ramdas Pophale) SiO2 
 PCOD8084720
Probable space group: C 2/M
;
_chemical_formula_sum "Si O2"
_cell_formula_units_Z 56
_cell_length_a 28.600140
_cell_length_b 9.123227
_cell_length_c 13.432480
_cell_angle_alpha 90.000000
_cell_angle_beta 78.147974
_cell_angle_gamma 90.000000
_cell_volume 3430.158053
_symmetry_space_group_name_H-M "C 2/M"
_symmetry_group_IT_number 12
_symmetry_cell_setting 'monoclinic'
loop_
_space_group_symop_operation_xyz
x,y,z
-x,y,-z
-x,-y,-z
x,-y,z
1/2+x,1/2+y,z
1/2-x,1/2+y,-z
1/2-x,1/2-y,-z
1/2+x,1/2-y,z
loop_
_atom_site_type_symbol
_atom_site_label
_atom_site_fract_x
_atom_site_fract_y
_atom_site_fract_z
Si Si1 0.389991 0.172173 0.137854
Si Si2 0.604656 0.835215 0.261618
Si Si3 0.305669 0.670109 0.082321
Si Si4 0.949895 0.665778 0.917713
Si Si5 0.967604 0.827083 0.213661
Si Si6 0.021979 0.827668 0.388348
Si Si7 0.302528 0.830732 0.878424
O O1 0.337706 0.242714 0.147977
O O2 0.416736 0.247299 0.219820
O O3 0.384611 0.000000 0.159009
O O4 0.420419 0.211662 0.027052
O O5 0.585208 0.817013 0.159074
O O6 0.575560 0.733716 0.350455
O O7 0.660726 0.791573 0.227654
O O8 0.598641 0.000000 0.303773
O O9 0.319974 0.500000 0.077279
O O10 0.250773 0.694802 0.139162
O O11 0.313492 0.729442 0.967862
O O12 0.969570 0.500000 0.918070
O O13 0.995361 0.771703 0.886558
O O14 0.987296 0.780039 0.313440
O O15 0.961032 0.000000 0.207147
O O16 0.000000 0.764357 0.500000
O O17 0.027358 0.000000 0.391556
O O18 0.310099 0.000000 0.908636
#
# Coordination Sequence:
#
# PCOD8084720 Si02
#       7
#     8   8   8   8   8   8   8
#     4  11  20  31  44  61  92 129 158 186 227 269
#     4   9  16  29  48  68  92 122 156 188 223 271
#     4  10  19  28  44  66  92 126 164 196 222 261
#     4   9  17  29  43  60  88 126 156 180 219 268
#     4  10  20  31  45  66  89 115 153 192 225 273
#     4   9  19  35  51  69  94 119 145 187 240 283
#     4   9  17  31  45  64  94 127 158 192 232 267
#
# _framework density 16.325779000000001
#
# number of rings (size 3 to 8) (size 9 to 14) (size 15 to 20)
#    0.000    2.429    1.429    1.714    0.000    4.857 
#    0.000    0.000    0.000    0.000    0.000    1.000 
#    0.000    0.000    0.000    0.000    0.000    0.000 
#
# Total GULP energy -347169.595616 kJ/mol
# GULP energy per Si atom -12398.914129 kJ/mol
# Density = 1.628862 g / cm^3
# Si number density = 16.325779 Si / 1000 Ang^3
#
#
#
# Elastic Constant Matrix: (Units=GPa)
#
#
# Indices 1 2 3 4 5 6 
#
# 1 115.2452 52.8123 40.7206 0.0000 -12.7473 0.0000
# 2 52.8123 73.0724 28.6327 0.0000 -4.6343 0.0000
# 3 40.7206 28.6327 70.4387 0.0000 -15.4836 0.0000
# 4 0.0000 0.0000 0.0000 18.0831 0.0000 -2.9110
# 5 -12.7473 -4.6343 -15.4836 0.0000 16.8262 0.0000
# 6 0.0000 0.0000 0.0000 -2.9110 0.0000 29.0878
#
#
#
# Elastic Compliance Matrix: (Units=1/GPa)
#
#
# Indices 1 2 3 4 5 6 
#
# 1 0.014578 -0.008745 -0.003729 0.000000 0.005204 0.000000
# 2 -0.008745 0.021578 -0.004846 0.000000 -0.005141 0.000000
# 3 -0.003729 -0.004846 0.021822 0.000000 0.015921 0.000000
# 4 0.000000 0.000000 0.000000 0.056206 0.000000 0.005625
# 5 0.005204 -0.005141 0.015921 0.000000 0.076609 0.000000
# 6 0.000000 0.000000 0.000000 0.005625 0.000000 0.034942
#
#
# Mechanical properties :
#
#
# Convention : Reuss Voigt Hill
#
# Bulk Modulus (GPa) = 42.84756 55.89861 49.37308
# Shear Modulus (GPa) = 18.64613 21.90547 20.27580
#
# Velocity S-wave (km/s) = 3.38320 3.66699 3.52795
# Velocity P-wave (km/s) = 6.44699 7.22793 6.84860
#
# Compressibility (1/GPa) = 0.02333855
#
# Stress axis : x y z
#
# Youngs Moduli (GPa) = 68.59818 46.34339 45.82547
#
# Poissons Ratio (x) = 0.40526 0.17087
# Poissons Ratio (y) = 0.59987 0.22207
# Poissons Ratio (z) = 0.25578 0.22458
#
# Static dielectric constant tensor:
#      x y z
#    x 3.320350 0.000000 -0.092910 
#    y 0.000000 3.114050 0.000000 
#    z -0.092910 0.000000 2.849060 
# 
# 
# High freq. dielectric constant tensor:
#      x y z
#    x 1.632930 0.000000 -0.008480 
#    y 0.000000 1.634260 0.000000 
#    z -0.008480 0.000000 1.579770 
# 
# From -- ./inp_files/247737.got.cif
#   From: 2010.06.25/outbox.cif.g09.slc.cpg/sg12_124_cif.got.tgz:247737.got - 2010.06.28 00:19:55.
