data_PCOD8084942
_publ_section_title
;
Structure prediction by ZEFSAII (Michael W. Deem and Ramdas Pophale) SiO2 
 PCOD8084942
Probable space group: C 2/M
;
_chemical_formula_sum "Si O2"
_cell_formula_units_Z 64
_cell_length_a 28.980285
_cell_length_b 8.918765
_cell_length_c 15.948819
_cell_angle_alpha 90.000000
_cell_angle_beta 116.798638
_cell_angle_gamma 90.000000
_cell_volume 3679.519421
_symmetry_space_group_name_H-M "C 2/M"
_symmetry_group_IT_number 12
_symmetry_cell_setting 'monoclinic'
loop_
_space_group_symop_operation_xyz
x,y,z
-x,y,-z
-x,-y,-z
x,-y,z
1/2+x,1/2+y,z
1/2-x,1/2+y,-z
1/2-x,1/2-y,-z
1/2+x,1/2-y,z
loop_
_atom_site_type_symbol
_atom_site_label
_atom_site_fract_x
_atom_site_fract_y
_atom_site_fract_z
Si Si1 0.893291 0.673942 0.365063
Si Si2 0.335016 0.325141 0.552523
Si Si3 0.557761 0.326774 0.444141
Si Si4 0.323353 0.322915 0.729931
Si Si5 0.210261 0.676941 0.640315
Si Si6 0.535797 0.827415 0.722304
Si Si7 0.476537 0.822517 0.097701
Si Si8 0.926066 0.820315 0.902163
O O1 0.893938 0.500000 0.387472
O O2 0.935496 0.748832 0.460303
O O3 0.835100 0.737458 0.334600
O O4 0.910208 0.703758 0.282719
O O5 0.321826 0.500000 0.537538
O O6 0.393587 0.291267 0.574460
O O7 0.328281 0.257949 0.639987
O O8 0.296123 0.241828 0.458071
O O9 0.551140 0.500000 0.457802
O O10 0.508062 0.271601 0.354632
O O11 0.329160 0.500000 0.728869
O O12 0.267134 0.275420 0.721211
O O13 0.369482 0.263668 0.826655
O O14 0.207615 0.500000 0.630070
O O15 0.543316 0.784701 0.825419
O O16 0.519163 0.000000 0.699582
O O17 0.532080 0.745555 0.128565
O O18 0.480906 0.000000 0.084957
O O19 0.434958 0.749333 0.001096
O O20 0.931275 0.000000 0.909442
#
# Coordination Sequence:
#
# PCOD8084942 Si02
#       8
#     8   8   8   8   8   8   8   8
#     4   9  18  32  47  64  90 124 158 190 224 263
#     4   9  17  29  43  64  96 124 147 180 223 267
#     4  10  19  29  44  68  96 124 153 188 228 269
#     4   9  17  29  47  69  91 118 151 185 221 267
#     4   9  17  30  47  66  89 119 156 190 218 256
#     4  10  20  32  47  66  90 122 156 189 226 268
#     4  10  20  34  50  70  95 119 148 186 226 271
#     4  10  19  33  52  72  95 120 145 179 229 280
#
# _framework density 17.393575999999999
#
# number of rings (size 3 to 8) (size 9 to 14) (size 15 to 20)
#    0.000    2.500    0.000    3.375    0.000    4.500 
#    0.000    2.500    0.000    0.750    0.000    0.000 
#    0.000    0.000    0.000    0.000    0.000    1.000 
#
# Total GULP energy -396686.968016 kJ/mol
# GULP energy per Si atom -12396.467751 kJ/mol
# Density = 1.735399 g / cm^3
# Si number density = 17.393576 Si / 1000 Ang^3
#
#
#
# Elastic Constant Matrix: (Units=GPa)
#
#
# Indices 1 2 3 4 5 6 
#
# 1 108.3288 34.0278 87.2409 0.0000 3.2653 0.0000
# 2 34.0278 45.6260 32.9673 0.0000 0.1568 0.0000
# 3 87.2409 32.9673 121.2847 0.0000 3.9160 0.0000
# 4 0.0000 0.0000 0.0000 19.4457 0.0000 -0.8379
# 5 3.2653 0.1568 3.9160 0.0000 35.0451 0.0000
# 6 0.0000 0.0000 0.0000 -0.8379 0.0000 17.4322
#
#
#
# Elastic Compliance Matrix: (Units=1/GPa)
#
#
# Indices 1 2 3 4 5 6 
#
# 1 0.023441 -0.006606 -0.015050 0.000000 -0.000473 0.000000
# 2 -0.006606 0.029153 -0.003200 0.000000 0.000843 0.000000
# 3 -0.015050 -0.003200 0.019967 0.000000 -0.000815 0.000000
# 4 0.000000 0.000000 0.000000 0.051532 0.000000 0.002477
# 5 -0.000473 0.000843 -0.000815 0.000000 0.028666 0.000000
# 6 0.000000 0.000000 0.000000 0.002477 0.000000 0.057484
#
#
# Mechanical properties :
#
#
# Convention : Reuss Voigt Hill
#
# Bulk Modulus (GPa) = 43.76590 64.85684 54.31137
# Shear Modulus (GPa) = 18.68654 22.45151 20.56903
#
# Velocity S-wave (km/s) = 3.28126 3.59666 3.44257
# Velocity P-wave (km/s) = 6.29065 7.39031 6.86254
#
# Compressibility (1/GPa) = 0.02284884
#
# Stress axis : x y z
#
# Youngs Moduli (GPa) = 42.66015 34.30153 50.08246
#
# Poissons Ratio (x) = 0.22659 0.75376
# Poissons Ratio (y) = 0.28181 0.16026
# Poissons Ratio (z) = 0.64206 0.10976
#
# Static dielectric constant tensor:
#      x y z
#    x 3.556270 0.000000 -0.009510 
#    y 0.000000 3.164550 0.000000 
#    z -0.009510 0.000000 3.276620 
# 
# 
# High freq. dielectric constant tensor:
#      x y z
#    x 1.676410 0.000000 -0.000530 
#    y 0.000000 1.664230 0.000000 
#    z -0.000530 0.000000 1.652330 
# 
# From -- ./inp_files/249175.got.cif
#   From: 2010.06.25/outbox.cif.g09.slc.cpg/sg12_125_cif.got.tgz:249175.got - 2010.06.28 00:19:55.
