data_PCOD8084277
_publ_section_title
;
Structure prediction by ZEFSAII (Michael W. Deem and Ramdas Pophale) SiO2 
 PCOD8084277
Probable space group: C 2/M
;
_chemical_formula_sum "Si O2"
_cell_formula_units_Z 56
_cell_length_a 18.066875
_cell_length_b 13.774229
_cell_length_c 15.040984
_cell_angle_alpha 90.000000
_cell_angle_beta 127.224777
_cell_angle_gamma 90.000000
_cell_volume 2980.478984
_symmetry_space_group_name_H-M "C 2/M"
_symmetry_group_IT_number 12
_symmetry_cell_setting 'monoclinic'
loop_
_space_group_symop_operation_xyz
x,y,z
-x,y,-z
-x,-y,-z
x,-y,z
1/2+x,1/2+y,z
1/2-x,1/2+y,-z
1/2-x,1/2-y,-z
1/2+x,1/2-y,z
loop_
_atom_site_type_symbol
_atom_site_label
_atom_site_fract_x
_atom_site_fract_y
_atom_site_fract_z
Si Si1 0.025870 0.218117 0.416934
Si Si2 0.715740 0.389232 0.539648
Si Si3 0.662891 0.714167 0.820330
Si Si4 0.352756 0.889246 0.476714
Si Si5 0.758146 0.107819 0.961764
Si Si6 0.262907 0.257190 0.719591
Si Si7 0.397927 0.390395 0.901093
O O1 0.111246 0.149054 0.451083
O O2 0.055443 0.331116 0.425876
O O3 0.000000 0.194316 0.500000
O O4 0.941938 0.197524 0.288846
O O5 0.713577 0.500000 0.571413
O O6 0.769046 0.380164 0.485644
O O7 0.772607 0.325012 0.651897
O O8 0.690992 0.629364 0.908216
O O9 0.733413 0.705951 0.789257
O O10 0.674578 0.817608 0.879516
O O11 0.317486 0.836256 0.361491
O O12 0.380477 0.000000 0.477360
O O13 0.715145 0.000000 0.934905
O O14 0.835423 0.115141 0.942515
O O15 0.359540 0.315693 0.799192
O O16 0.399356 0.500000 0.862874
O O17 0.500000 0.354643 0.000000
#
# Coordination Sequence:
#
# PCOD8084277 Si02
#       7
#     8   8   8   8   8   8   8
#     4  11  20  36  55  86 112 140 184 231 277 327
#     4  10  22  37  53  78 114 151 185 222 272 334
#     4  10  20  35  53  79 108 138 185 224 273 332
#     4  10  21  36  54  80 112 147 182 221 281 337
#     4   9  20  36  53  75 108 144 176 224 276 319
#     4  10  18  35  54  75 106 145 180 227 278 328
#     4   9  18  32  54  82 104 132 181 230 277 325
#
# _framework density 18.788926
#
# number of rings (size 3 to 8) (size 9 to 14) (size 15 to 20)
#    0.000    2.143    2.857    2.143    0.000    5.143 
#    0.000    2.857    0.000    0.429    0.000    0.000 
#    0.000    0.000    0.000    0.000    0.000    0.000 
#
# Total GULP energy -347179.312207 kJ/mol
# GULP energy per Si atom -12399.261150 kJ/mol
# Density = 1.874616 g / cm^3
# Si number density = 18.788926 Si / 1000 Ang^3
#
#
#
# Elastic Constant Matrix: (Units=GPa)
#
#
# Indices 1 2 3 4 5 6 
#
# 1 35.4202 3.3056 14.2428 0.0000 11.3507 0.0000
# 2 3.3056 89.8496 30.8367 0.0000 1.6930 0.0000
# 3 14.2428 30.8367 105.1930 0.0000 15.9950 0.0000
# 4 0.0000 0.0000 0.0000 24.0725 0.0000 -3.3954
# 5 11.3507 1.6930 15.9950 0.0000 30.0708 0.0000
# 6 0.0000 0.0000 0.0000 -3.3954 0.0000 21.7599
#
#
#
# Elastic Compliance Matrix: (Units=1/GPa)
#
#
# Indices 1 2 3 4 5 6 
#
# 1 0.032852 -0.000051 -0.002772 0.000000 -0.010923 0.000000
# 2 -0.000051 0.012425 -0.003843 0.000000 0.001364 0.000000
# 3 -0.002772 -0.003843 0.011768 0.000000 -0.004997 0.000000
# 4 0.000000 0.000000 0.000000 0.042476 0.000000 0.006628
# 5 -0.010923 0.001364 -0.004997 0.000000 0.039959 0.000000
# 6 0.000000 0.000000 0.000000 0.006628 0.000000 0.046990
#
#
# Mechanical properties :
#
#
# Convention : Reuss Voigt Hill
#
# Bulk Modulus (GPa) = 22.87664 36.35921 29.61792
# Shear Modulus (GPa) = 23.32375 27.31915 25.32145
#
# Velocity S-wave (km/s) = 3.52711 3.81728 3.67506
# Velocity P-wave (km/s) = 5.36557 6.23075 5.81427
#
# Compressibility (1/GPa) = 0.04371272
#
# Stress axis : x y z
#
# Youngs Moduli (GPa) = 30.43909 80.48474 84.97698
#
# Poissons Ratio (x) = 0.00414 0.23556
# Poissons Ratio (y) = 0.00157 0.32654
# Poissons Ratio (z) = 0.08438 0.30927
#
# Static dielectric constant tensor:
#      x y z
#    x 3.310360 0.000000 0.006710 
#    y 0.000000 3.644540 0.000000 
#    z 0.006710 0.000000 3.493310 
# 
# 
# High freq. dielectric constant tensor:
#      x y z
#    x 1.716120 0.000000 -0.003680 
#    y 0.000000 1.730650 0.000000 
#    z -0.003680 0.000000 1.730250 
# 
# From -- ./inp_files/156765.got.cif
#   From: 2010.06.25/outbox.cif.g09.slc.cpg/sg12_79_cif.got.tgz:156765.got - 2010.06.28 00:19:55.
