data_PCOD8084723
_publ_section_title
;
Structure prediction by ZEFSAII (Michael W. Deem and Ramdas Pophale) SiO2 
 PCOD8084723
Probable space group: C 2/M
;
_chemical_formula_sum "Si O2"
_cell_formula_units_Z 64
_cell_length_a 21.680973
_cell_length_b 20.575010
_cell_length_c 18.129041
_cell_angle_alpha 90.000000
_cell_angle_beta 31.055249
_cell_angle_gamma 90.000000
_cell_volume 4171.854926
_symmetry_space_group_name_H-M "C 2/M"
_symmetry_group_IT_number 12
_symmetry_cell_setting 'monoclinic'
loop_
_space_group_symop_operation_xyz
x,y,z
-x,y,-z
-x,-y,-z
x,-y,z
1/2+x,1/2+y,z
1/2-x,1/2+y,-z
1/2-x,1/2-y,-z
1/2+x,1/2-y,z
loop_
_atom_site_type_symbol
_atom_site_label
_atom_site_fract_x
_atom_site_fract_y
_atom_site_fract_z
Si Si1 0.095416 0.720101 0.224842
Si Si2 0.649971 0.675463 0.045346
Si Si3 0.230619 0.723936 0.635555
Si Si4 0.526374 0.425062 0.264013
Si Si5 0.823494 0.926528 0.355273
Si Si6 0.471516 0.324663 0.445001
Si Si7 0.450718 0.324220 0.129983
Si Si8 0.364146 0.166817 0.406736
O O1 0.122517 0.770564 0.133333
O O2 0.042291 0.758948 0.349400
O O3 0.002678 0.667197 0.287787
O O4 0.215037 0.680747 0.123839
O O5 0.628578 0.605386 0.105932
O O6 0.562062 0.689779 0.068427
O O7 0.328390 0.685213 0.583650
O O8 0.136901 0.761798 0.783701
O O9 0.299428 0.773398 0.512458
O O10 0.154905 0.674539 0.661726
O O11 0.559190 0.500000 0.246832
O O12 0.401106 0.418274 0.349780
O O13 0.515266 0.385887 0.351691
O O14 0.878843 0.886925 0.231014
O O15 0.691321 0.901096 0.509698
O O16 0.814676 0.000000 0.337401
O O17 0.500000 0.341235 0.500000
O O18 0.500000 0.340894 0.000000
#
# Coordination Sequence:
#
# PCOD8084723 Si02
#       8
#     8   8   8   8   8   8   8   8
#     4   9  17  29  46  66  92 117 145 188 225 266
#     4   9  17  30  45  67  91 117 151 183 223 264
#     4   9  16  28  44  66  90 113 149 183 225 270
#     4   9  17  31  48  65  88 119 154 190 221 256
#     4   9  17  30  48  67  87 115 158 195 217 255
#     4  10  19  28  44  70  96 120 144 181 228 273
#     4  10  19  28  45  68  94 123 144 179 226 273
#     4   9  14  28  49  64  84 115 147 192 229 253
#
# _framework density 15.340897999999999
#
# number of rings (size 3 to 8) (size 9 to 14) (size 15 to 20)
#    0.000    2.750    2.500    0.000    1.750    0.500 
#    0.000    0.625    0.000    0.000    0.000    0.875 
#    0.000    2.000    0.000    0.000    0.000    0.000 
#
# Total GULP energy -396695.292821 kJ/mol
# GULP energy per Si atom -12396.727901 kJ/mol
# Density = 1.530598 g / cm^3
# Si number density = 15.340898 Si / 1000 Ang^3
#
#
#
# Elastic Constant Matrix: (Units=GPa)
#
#
# Indices 1 2 3 4 5 6 
#
# 1 61.9832 25.0280 28.8452 -0.0003 1.0671 -0.0001
# 2 25.0280 70.8970 35.5619 0.0000 -7.5349 -0.0005
# 3 28.8452 35.5619 74.0330 0.0002 -13.1709 -0.0007
# 4 -0.0003 0.0000 0.0002 2.9731 -0.0009 -4.9594
# 5 1.0671 -7.5349 -13.1709 -0.0009 27.6650 0.0011
# 6 -0.0001 -0.0005 -0.0007 -4.9594 0.0011 14.4460
#
#
#
# Elastic Compliance Matrix: (Units=1/GPa)
#
#
# Indices 1 2 3 4 5 6 
#
# 1 0.021376 -0.004560 -0.007108 0.000003 -0.005451 0.000001
# 2 -0.004560 0.019575 -0.007261 0.000002 0.002050 0.000001
# 3 -0.007108 -0.007261 0.021263 0.000001 0.008419 0.000000
# 4 0.000003 0.000002 0.000001 0.787108 0.000015 0.270219
# 5 -0.005451 0.002050 0.008419 0.000015 0.040924 0.000002
# 6 0.000001 0.000001 0.000000 0.270219 0.000002 0.161991
#
#
# Mechanical properties :
#
#
# Convention : Reuss Voigt Hill
#
# Bulk Modulus (GPa) = 41.05907 42.86481 41.96194
# Shear Modulus (GPa) = 4.55284 16.84869 10.70077
#
# Velocity S-wave (km/s) = 1.72459 3.31763 2.64395
# Velocity P-wave (km/s) = 5.54871 6.53282 6.06077
#
# Compressibility (1/GPa) = 0.02435515
#
# Stress axis : x y z
#
# Youngs Moduli (GPa) = 46.78046 51.08554 47.03042
#
# Poissons Ratio (x) = 0.23296 0.33429
# Poissons Ratio (y) = 0.21333 0.34150
# Poissons Ratio (z) = 0.33252 0.37095
#
# Static dielectric constant tensor:
#      x y z
#    x 2.938030 0.000000 -0.223880 
#    y 0.000000 2.830080 0.000000 
#    z -0.223880 0.000000 3.056570 
# 
# 
# High freq. dielectric constant tensor:
#      x y z
#    x 1.579410 0.000000 -0.007780 
#    y 0.000000 1.565550 0.000000 
#    z -0.007780 0.000000 1.580430 
# 
# From -- ./inp_files/168467.got.cif
#   From: 2010.06.25/outbox.cif.g09.slc.cpg/sg12_85_cif.got.tgz:168467.got - 2010.06.28 00:19:55.
