data_PCOD8084639
_publ_section_title
;
Structure prediction by ZEFSAII (Michael W. Deem and Ramdas Pophale) SiO2 
 PCOD8084639
Probable space group: C 2/M
;
_chemical_formula_sum "Si O2"
_cell_formula_units_Z 32
_cell_length_a 13.602236
_cell_length_b 8.053214
_cell_length_c 21.398561
_cell_angle_alpha 90.000000
_cell_angle_beta 130.697944
_cell_angle_gamma 90.000000
_cell_volume 1777.148360
_symmetry_space_group_name_H-M "C 2/M"
_symmetry_group_IT_number 12
_symmetry_cell_setting 'monoclinic'
loop_
_space_group_symop_operation_xyz
x,y,z
-x,y,-z
-x,-y,-z
x,-y,z
1/2+x,1/2+y,z
1/2-x,1/2+y,-z
1/2-x,1/2-y,-z
1/2+x,1/2-y,z
loop_
_atom_site_type_symbol
_atom_site_label
_atom_site_fract_x
_atom_site_fract_y
_atom_site_fract_z
Si Si1 0.000000 0.750033 0.500000
Si Si2 0.887095 0.308807 0.997361
Si Si3 0.949444 0.000000 0.586277
Si Si4 0.227485 0.500000 0.586324
Si Si5 0.889412 0.686611 0.138257
Si Si6 0.000191 0.000000 0.256483
O O1 0.012805 0.844740 0.440244
O O2 0.135425 0.655323 0.559891
O O3 0.847962 0.500000 0.968933
O O4 0.765643 0.194282 0.930700
O O5 0.941386 0.283669 0.089817
O O6 0.000000 0.246138 0.000000
O O7 0.796909 0.000000 0.545816
O O8 0.037870 0.000000 0.685573
O O9 0.342903 0.500000 0.685677
O O10 0.927397 0.500000 0.177893
O O11 0.946106 0.829697 0.205563
#
# Coordination Sequence:
#
# PCOD8084639 Si02
#       6
#     4   8   4   4   8   4
#     4  10  18  42  64  88 114 156 206 228 298 390
#     4   9  18  35  59  79 105 155 201 241 284 346
#     4   9  21  38  63  87 119 154 191 251 299 351
#     4   9  21  38  63  89 119 152 193 249 299 357
#     4  10  20  38  55  79 116 152 194 241 297 346
#     4  10  22  42  50  88 126 148 186 262 294 340
#
# _framework density 18.006375999999999
#
# number of rings (size 3 to 8) (size 9 to 14) (size 15 to 20)
#    0.750    1.750    1.250    0.750    1.750    0.500 
#   13.500    0.000    0.000    0.000    0.000    0.000 
#    0.000    0.000    0.000    0.000    0.000    0.000 
#
# Total GULP energy -198213.566148 kJ/mol
# GULP energy per Si atom -12388.347884 kJ/mol
# Density = 1.796539 g / cm^3
# Si number density = 18.006376 Si / 1000 Ang^3
#
#
#
# Elastic Constant Matrix: (Units=GPa)
#
#
# Indices 1 2 3 4 5 6 
#
# 1 132.3364 51.5844 39.9275 0.0000 -21.2671 0.0000
# 2 51.5844 137.5687 72.9202 0.0000 -8.8169 0.0000
# 3 39.9275 72.9202 108.2596 0.0000 -12.2304 0.0000
# 4 0.0000 0.0000 0.0000 17.0040 0.0000 3.6278
# 5 -21.2671 -8.8169 -12.2304 0.0000 19.4857 0.0000
# 6 0.0000 0.0000 0.0000 3.6278 0.0000 24.1677
#
#
#
# Elastic Compliance Matrix: (Units=1/GPa)
#
#
# Indices 1 2 3 4 5 6 
#
# 1 0.010471 -0.002860 -0.000851 0.000000 0.009600 0.000000
# 2 -0.002860 0.012089 -0.007343 0.000000 -0.002261 0.000000
# 3 -0.000851 -0.007343 0.015087 0.000000 0.005218 0.000000
# 4 0.000000 0.000000 0.000000 0.060756 0.000000 -0.009120
# 5 0.009600 -0.002261 0.005218 0.000000 0.064050 0.000000
# 6 0.000000 0.000000 0.000000 -0.009120 0.000000 0.042747
#
#
# Mechanical properties :
#
#
# Convention : Reuss Voigt Hill
#
# Bulk Modulus (GPa) = 64.35820 78.55875 71.45848
# Shear Modulus (GPa) = 21.50667 26.38030 23.94348
#
# Velocity S-wave (km/s) = 3.45975 3.83175 3.65049
# Velocity P-wave (km/s) = 7.19578 7.95610 7.58547
#
# Compressibility (1/GPa) = 0.01553804
#
# Stress axis : x y z
#
# Youngs Moduli (GPa) = 95.50402 82.71908 66.28385
#
# Poissons Ratio (x) = 0.23657 0.05640
# Poissons Ratio (y) = 0.27314 0.48675
# Poissons Ratio (z) = 0.08126 0.60744
#
# Static dielectric constant tensor:
#      x y z
#    x 3.400150 0.000000 -0.091830 
#    y 0.000000 1.523190 0.000000 
#    z -0.091830 0.000000 3.079650 
# 
# 
# High freq. dielectric constant tensor:
#      x y z
#    x 1.703220 0.000000 -0.005420 
#    y 0.000000 1.705080 0.000000 
#    z -0.005420 0.000000 1.675460 
# 
# From -- ./inp_files/307862.got.cif
#   From: 2010.06.25/outbox.cif.g09.slc.cpg/sg12_154_cif.got.tgz:307862.got - 2010.06.28 00:19:55.
