data_PCOD8084881
_publ_section_title
;
Structure prediction by ZEFSAII (Michael W. Deem and Ramdas Pophale) SiO2 
 PCOD8084881
Probable space group: C 2/M
;
_chemical_formula_sum "Si O2"
_cell_formula_units_Z 64
_cell_length_a 22.677170
_cell_length_b 8.873343
_cell_length_c 25.555458
_cell_angle_alpha 90.000000
_cell_angle_beta 41.948840
_cell_angle_gamma 90.000000
_cell_volume 3437.475585
_symmetry_space_group_name_H-M "C 2/M"
_symmetry_group_IT_number 12
_symmetry_cell_setting 'monoclinic'
loop_
_space_group_symop_operation_xyz
x,y,z
-x,y,-z
-x,-y,-z
x,-y,z
1/2+x,1/2+y,z
1/2-x,1/2+y,-z
1/2-x,1/2-y,-z
1/2+x,1/2-y,z
loop_
_atom_site_type_symbol
_atom_site_label
_atom_site_fract_x
_atom_site_fract_y
_atom_site_fract_z
Si Si1 0.222516 0.679495 0.674325
Si Si2 0.324418 0.679756 0.707251
Si Si3 0.497639 0.678636 0.363021
Si Si4 0.574933 0.322459 0.202924
Si Si5 0.254960 0.178399 0.133344
Si Si6 0.474178 0.821158 0.176096
Si Si7 0.697242 0.679455 0.487457
Si Si8 0.552175 0.179718 0.015969
O O1 0.222900 0.500000 0.675603
O O2 0.284366 0.744617 0.679866
O O3 0.123478 0.741704 0.747177
O O4 0.260301 0.738492 0.594419
O O5 0.322713 0.500000 0.707288
O O6 0.425330 0.737098 0.648662
O O7 0.265636 0.739144 0.794644
O O8 0.498420 0.500000 0.363535
O O9 0.517126 0.731580 0.290862
O O10 0.403235 0.740278 0.444100
O O11 0.565130 0.500000 0.200487
O O12 0.676801 0.275580 0.145264
O O13 0.543058 0.235962 0.173134
O O14 0.260332 0.000000 0.133192
O O15 0.347917 0.244305 0.051862
O O16 0.504497 0.759683 0.099542
O O17 0.474195 0.000000 0.176840
O O18 0.701149 0.500000 0.489213
O O19 0.750000 0.750000 0.500000
O O20 0.552820 0.000000 0.015352
O O21 0.500000 0.241432 0.000000
#
# Coordination Sequence:
#
# PCOD8084881 Si02
#       8
#     8   8   8   8   8   8   8   8
#     4   9  17  27  41  64  91 113 136 176 223 255
#     4   8  13  24  42  64  89 111 135 176 223 253
#     4   8  15  27  44  65  86 111 144 177 208 251
#     4   9  17  30  46  63  86 116 146 173 206 251
#     4   8  14  25  42  63  86 113 143 173 209 255
#     4  10  19  29  43  66  91 112 140 177 214 252
#     4  10  19  30  44  64  89 115 144 175 210 253
#     4   9  16  26  42  64  88 112 140 177 217 254
#
# _framework density 18.618314000000002
#
# number of rings (size 3 to 8) (size 9 to 14) (size 15 to 20)
#    0.000    3.125    0.000    3.000    0.000    4.000 
#    0.000    2.500    0.000    0.375    0.000   13.125 
#    0.000    0.000    0.000    0.000    0.000    0.000 
#
# Total GULP energy -396645.799101 kJ/mol
# GULP energy per Si atom -12395.181222 kJ/mol
# Density = 1.857594 g / cm^3
# Si number density = 18.618314 Si / 1000 Ang^3
#
#
#
# Elastic Constant Matrix: (Units=GPa)
#
#
# Indices 1 2 3 4 5 6 
#
# 1 180.9799 12.7452 106.7995 -0.0001 3.8578 0.0004
# 2 12.7452 5.7068 12.6555 -0.0006 0.3787 0.0016
# 3 106.7995 12.6555 185.3072 0.0001 -10.0388 -0.0001
# 4 -0.0001 -0.0006 0.0001 7.8307 0.0000 1.8298
# 5 3.8578 0.3787 -10.0388 0.0000 36.2621 -0.0001
# 6 0.0004 0.0016 -0.0001 1.8298 -0.0001 23.0597
#
#
#
# Elastic Compliance Matrix: (Units=1/GPa)
#
#
# Indices 1 2 3 4 5 6 
#
# 1 0.008986 -0.009646 -0.004636 -0.000001 -0.002139 0.000001
# 2 -0.009646 0.218221 -0.009555 0.000022 -0.003898 -0.000017
# 3 -0.004636 -0.009555 0.008886 -0.000001 0.003053 0.000001
# 4 -0.000001 0.000022 -0.000001 0.130116 0.000000 -0.010325
# 5 -0.002139 -0.003898 0.003053 0.000000 0.028690 0.000001
# 6 0.000001 -0.000017 0.000001 -0.010325 0.000001 0.044185
#
#
# Mechanical properties :
#
#
# Convention : Reuss Voigt Hill
#
# Bulk Modulus (GPa) = 5.30732 70.71049 38.00890
# Shear Modulus (GPa) = 9.09808 29.41675 19.25741
#
# Velocity S-wave (km/s) = 2.21297 3.97922 3.21958
# Velocity P-wave (km/s) = 3.06373 7.69245 5.85492
#
# Compressibility (1/GPa) = 0.18841913
#
# Stress axis : x y z
#
# Youngs Moduli (GPa) = 111.28057 4.58250 112.53097
#
# Poissons Ratio (x) = 0.04420 0.52172
# Poissons Ratio (y) = 1.07343 1.07525
# Poissons Ratio (z) = 0.51592 0.04379
#
# Static dielectric constant tensor:
#      x y z
#    x 3.672530 0.000000 -0.190670 
#    y 0.000000 2.689230 0.000000 
#    z -0.190670 0.000000 3.884380 
# 
# 
# High freq. dielectric constant tensor:
#      x y z
#    x 1.737790 0.000000 -0.006190 
#    y 0.000000 1.645400 0.000000 
#    z -0.006190 0.000000 1.732700 
# 
# From -- ./inp_files/276469.got.cif
#   From: 2010.06.25/outbox.cif.g09.slc.cpg/sg12_139_cif.got.tgz:276469.got - 2010.06.28 00:19:55.
