data_PCOD8084156
_publ_section_title
;
Structure prediction by ZEFSAII (Michael W. Deem and Ramdas Pophale) SiO2 
 PCOD8084156
Probable space group: C 2/M
;
_chemical_formula_sum "Si O2"
_cell_formula_units_Z 56
_cell_length_a 28.929354
_cell_length_b 9.321049
_cell_length_c 12.576746
_cell_angle_alpha 90.000000
_cell_angle_beta 60.903836
_cell_angle_gamma 90.000000
_cell_volume 2963.372415
_symmetry_space_group_name_H-M "C 2/M"
_symmetry_group_IT_number 12
_symmetry_cell_setting 'monoclinic'
loop_
_space_group_symop_operation_xyz
x,y,z
-x,y,-z
-x,-y,-z
x,-y,z
1/2+x,1/2+y,z
1/2-x,1/2+y,-z
1/2-x,1/2-y,-z
1/2+x,1/2-y,z
loop_
_atom_site_type_symbol
_atom_site_label
_atom_site_fract_x
_atom_site_fract_y
_atom_site_fract_z
Si Si1 0.197706 0.666352 0.587668
Si Si2 0.548722 0.663203 0.023607
Si Si3 0.104043 0.670827 0.540528
Si Si4 0.108748 0.332065 0.299234
Si Si5 0.696370 0.831321 0.038373
Si Si6 0.351847 0.164762 0.133978
Si Si7 0.511652 0.168188 0.268313
O O1 0.206910 0.500000 0.551970
O O2 0.250000 0.750000 0.500000
O O3 0.148901 0.725320 0.571371
O O4 0.186553 0.692951 0.723942
O O5 0.562405 0.500000 0.038552
O O6 0.537002 0.750559 0.142061
O O7 0.500000 0.672037 0.000000
O O8 0.597768 0.734102 0.907853
O O9 0.101271 0.500000 0.540169
O O10 0.116193 0.733297 0.409114
O O11 0.046912 0.728220 0.642777
O O12 0.118523 0.500000 0.293280
O O13 0.152076 0.269035 0.168904
O O14 0.049055 0.300029 0.327613
O O15 0.705355 0.000000 0.043741
O O16 0.750000 0.750000 0.000000
O O17 0.679035 0.794989 0.938271
O O18 0.371270 0.000000 0.110332
O O19 0.511080 0.000000 0.241260
#
# Coordination Sequence:
#
# PCOD8084156 Si02
#       7
#     8   8   8   8   8   8   8
#     4  10  22  38  57  81 110 145 186 228 272 327
#     4  11  23  36  54  83 117 149 182 226 280 336
#     4   9  18  32  55  85 111 141 184 228 274 326
#     4   9  17  32  55  85 113 138 179 231 275 321
#     4  10  21  36  56  83 113 145 185 232 280 330
#     4  10  21  40  60  82 111 145 191 234 271 326
#     4  10  18  34  59  84 110 143 182 229 278 327
#
# _framework density 18.897387999999999
#
# number of rings (size 3 to 8) (size 9 to 14) (size 15 to 20)
#    0.000    2.143    1.429    1.714    2.000    5.143 
#    0.000    0.714    0.000    3.429    0.000    0.000 
#    0.000    0.000    0.000    0.000    0.000    0.000 
#
# Total GULP energy -347230.071165 kJ/mol
# GULP energy per Si atom -12401.073970 kJ/mol
# Density = 1.885438 g / cm^3
# Si number density = 18.897388 Si / 1000 Ang^3
#
#
#
# Elastic Constant Matrix: (Units=GPa)
#
#
# Indices 1 2 3 4 5 6 
#
# 1 122.3320 42.5209 56.5760 0.0000 -18.9128 0.0000
# 2 42.5209 51.6558 37.3140 0.0000 -6.4392 0.0000
# 3 56.5760 37.3140 123.0093 0.0000 -5.2451 0.0000
# 4 0.0000 0.0000 0.0000 18.0531 0.0000 -8.0925
# 5 -18.9128 -6.4392 -5.2451 0.0000 36.8315 0.0000
# 6 0.0000 0.0000 0.0000 -8.0925 0.0000 29.7608
#
#
#
# Elastic Compliance Matrix: (Units=1/GPa)
#
#
# Indices 1 2 3 4 5 6 
#
# 1 0.013272 -0.007748 -0.003543 0.000000 0.004956 0.000000
# 2 -0.007748 0.029716 -0.005431 0.000000 0.000443 0.000000
# 3 -0.003543 -0.005431 0.011357 0.000000 -0.001151 0.000000
# 4 0.000000 0.000000 0.000000 0.063081 0.000000 0.017153
# 5 0.004956 0.000443 -0.001151 0.000000 0.029609 0.000000
# 6 0.000000 0.000000 0.000000 0.017153 0.000000 0.038265
#
#
# Mechanical properties :
#
#
# Convention : Reuss Voigt Hill
#
# Bulk Modulus (GPa) = 47.84576 63.31319 55.57948
# Shear Modulus (GPa) = 22.15207 27.63484 24.89345
#
# Velocity S-wave (km/s) = 3.42750 3.82823 3.63339
# Velocity P-wave (km/s) = 6.40604 7.28813 6.86128
#
# Compressibility (1/GPa) = 0.02090049
#
# Stress axis : x y z
#
# Youngs Moduli (GPa) = 75.34477 33.65231 88.04886
#
# Poissons Ratio (x) = 0.26075 0.31193
# Poissons Ratio (y) = 0.58380 0.47823
# Poissons Ratio (z) = 0.26692 0.18278
#
# Static dielectric constant tensor:
#      x y z
#    x 3.146320 0.000000 -0.396440 
#    y 0.000000 3.193760 0.000000 
#    z -0.396440 0.000000 3.237290 
# 
# 
# High freq. dielectric constant tensor:
#      x y z
#    x 1.744690 0.000000 0.002500 
#    y 0.000000 1.694190 0.000000 
#    z 0.002500 0.000000 1.749190 
# 
# From -- ./inp_files/180800.got.cif
#   From: 2010.06.25/outbox.cif.g09.slc.cpg/sg12_91_cif.got.tgz:180800.got - 2010.06.28 00:19:55.
