data_PCOD8084483
_publ_section_title
;
Structure prediction by ZEFSAII (Michael W. Deem and Ramdas Pophale) SiO2 
 PCOD8084483
Probable space group: C 2/M
;
_chemical_formula_sum "Si O2"
_cell_formula_units_Z 60
_cell_length_a 22.975488
_cell_length_b 21.920407
_cell_length_c 12.098138
_cell_angle_alpha 90.000000
_cell_angle_beta 28.625456
_cell_angle_gamma 90.000000
_cell_volume 2919.050759
_symmetry_space_group_name_H-M "C 2/M"
_symmetry_group_IT_number 12
_symmetry_cell_setting 'monoclinic'
loop_
_space_group_symop_operation_xyz
x,y,z
-x,y,-z
-x,-y,-z
x,-y,z
1/2+x,1/2+y,z
1/2-x,1/2+y,-z
1/2-x,1/2-y,-z
1/2+x,1/2-y,z
loop_
_atom_site_type_symbol
_atom_site_label
_atom_site_fract_x
_atom_site_fract_y
_atom_site_fract_z
Si Si1 0.518032 0.336032 0.349455
Si Si2 0.417716 0.929630 0.831759
Si Si3 0.223336 0.931764 0.973832
Si Si4 0.705633 0.179636 0.570949
Si Si5 0.500000 0.239819 0.000000
Si Si6 0.842801 0.768815 0.065859
Si Si7 0.247706 0.860456 0.267421
Si Si8 0.177296 0.372023 0.392456
O O1 0.500000 0.305279 0.500000
O O2 0.618426 0.388331 0.192451
O O3 0.393903 0.368749 0.521071
O O4 0.560710 0.285104 0.190615
O O5 0.534038 0.884928 0.635627
O O6 0.460323 0.000000 0.772079
O O7 0.346766 0.918652 0.835614
O O8 0.327597 0.915623 0.084943
O O9 0.177231 0.000000 0.070616
O O10 0.253425 0.923942 0.793135
O O11 0.750000 0.250000 0.500000
O O12 0.561652 0.192611 0.811415
O O13 0.746364 0.142521 0.610296
O O14 0.733443 0.135270 0.421883
O O15 0.592529 0.280186 0.920766
O O16 0.801233 0.699864 0.120075
O O17 0.718194 0.808330 0.265201
#
# Coordination Sequence:
#
# PCOD8084483 Si02
#       8
#     8   8   8   8   4   8   8   8
#     4  11  23  41  61  93 123 165 215 266 327 385
#     4  11  24  43  67  92 128 176 221 266 317 378
#     4  10  23  45  67  90 122 171 228 269 313 375
#     4  11  20  37  62  93 127 170 204 251 318 399
#     4  10  18  36  58  88 122 168 212 236 300 392
#     4  10  23  36  62  94 131 163 210 263 322 386
#     4  11  23  40  63  95 130 168 214 260 321 387
#     4  11  21  39  64  99 125 164 214 265 318 384
#
# _framework density 20.554628000000001
#
# number of rings (size 3 to 8) (size 9 to 14) (size 15 to 20)
#    0.000    1.333    4.000    3.200    1.867    2.400 
#    0.000    2.000    0.000    0.800    0.000    0.000 
#    0.000    0.000    0.000    0.000    0.000    0.000 
#
# Total GULP energy -371678.908724 kJ/mol
# GULP energy per Si atom -12389.296957 kJ/mol
# Density = 2.050784 g / cm^3
# Si number density = 20.554628 Si / 1000 Ang^3
#
#
#
# Elastic Constant Matrix: (Units=GPa)
#
#
# Indices 1 2 3 4 5 6 
#
# 1 109.1646 43.9478 50.9572 -0.0013 16.1494 0.0007
# 2 43.9478 61.7748 22.4624 -0.0005 0.4374 0.0002
# 3 50.9572 22.4624 109.4105 -0.0014 8.4608 0.0008
# 4 -0.0013 -0.0005 -0.0014 24.6361 0.0012 2.0152
# 5 16.1494 0.4374 8.4608 0.0012 46.7228 -0.0006
# 6 0.0007 0.0002 0.0008 2.0152 -0.0006 28.1897
#
#
#
# Elastic Compliance Matrix: (Units=1/GPa)
#
#
# Indices 1 2 3 4 5 6 
#
# 1 0.016087 -0.009527 -0.005186 0.000001 -0.004532 0.000000
# 2 -0.009527 0.023147 -0.000561 0.000000 0.003178 0.000000
# 3 -0.005186 -0.000561 0.011695 0.000000 -0.000320 0.000000
# 4 0.000001 0.000000 0.000000 0.040830 -0.000001 -0.002919
# 5 -0.004532 0.003178 -0.000320 -0.000001 0.022998 0.000001
# 6 0.000000 0.000000 0.000000 -0.002919 0.000001 0.035683
#
#
# Mechanical properties :
#
#
# Convention : Reuss Voigt Hill
#
# Bulk Modulus (GPa) = 49.06385 57.23164 53.14774
# Shear Modulus (GPa) = 26.62686 30.77522 28.70104
#
# Velocity S-wave (km/s) = 3.60310 3.87362 3.74080
# Velocity P-wave (km/s) = 6.42118 6.92175 6.67616
#
# Compressibility (1/GPa) = 0.02038161
#
# Stress axis : x y z
#
# Youngs Moduli (GPa) = 62.16152 43.20241 85.50542
#
# Poissons Ratio (x) = 0.41158 0.44344
# Poissons Ratio (y) = 0.59220 0.04795
# Poissons Ratio (z) = 0.32238 0.02423
#
# Static dielectric constant tensor:
#      x y z
#    x 3.730040 0.000000 0.086260 
#    y 0.000000 3.476020 0.000000 
#    z 0.086260 0.000000 4.136610 
# 
# 
# High freq. dielectric constant tensor:
#      x y z
#    x 1.801450 0.000000 0.005240 
#    y 0.000000 1.770630 0.000000 
#    z 0.005240 0.000000 1.830770 
# 
# From -- ./inp_files/178010.got.cif
#   From: 2010.06.25/outbox.cif.g09.slc.cpg/sg12_90_cif.got.tgz:178010.got - 2010.06.28 00:19:55.
