data_PCOD8084378
_publ_section_title
;
Structure prediction by ZEFSAII (Michael W. Deem and Ramdas Pophale) SiO2 
 PCOD8084378
Probable space group: C 2/M
;
_chemical_formula_sum "Si O2"
_cell_formula_units_Z 40
_cell_length_a 9.241102
_cell_length_b 27.676431
_cell_length_c 12.221820
_cell_angle_alpha 90.000000
_cell_angle_beta 37.068539
_cell_angle_gamma 90.000000
_cell_volume 1884.175368
_symmetry_space_group_name_H-M "C 2/M"
_symmetry_group_IT_number 12
_symmetry_cell_setting 'monoclinic'
loop_
_space_group_symop_operation_xyz
x,y,z
-x,y,-z
-x,-y,-z
x,-y,z
1/2+x,1/2+y,z
1/2-x,1/2+y,-z
1/2-x,1/2-y,-z
1/2+x,1/2-y,z
loop_
_atom_site_type_symbol
_atom_site_label
_atom_site_fract_x
_atom_site_fract_y
_atom_site_fract_z
Si Si1 0.745168 0.685964 0.396480
Si Si2 0.224874 0.210675 0.648625
Si Si3 0.634680 0.554239 0.529407
Si Si4 0.546901 0.612038 0.803227
Si Si5 0.394090 0.099393 0.787435
O O1 0.500000 0.660935 0.500000
O O2 0.822764 0.734241 0.279428
O O3 0.658910 0.707917 0.562144
O O4 0.964098 0.649307 0.276187
O O5 0.500000 0.194723 0.500000
O O6 0.052803 0.170585 0.808755
O O7 0.500000 0.569146 0.500000
O O8 0.566715 0.500000 0.608132
O O9 0.580432 0.592319 0.659533
O O10 0.915857 0.555951 0.328569
O O11 0.763131 0.594883 0.749991
O O12 0.293065 0.592768 0.000773
#
# Coordination Sequence:
#
# PCOD8084378 Si02
#       5
#     8   8   8   8   8
#     4  10  20  34  59  90 123 167 212 249 298 351
#     4  10  18  35  60  86 124 170 210 248 294 354
#     4  11  25  46  68  90 120 156 198 255 317 369
#     4  11  23  40  65  92 125 164 204 252 303 363
#     4  11  23  40  63  95 126 160 207 250 302 368
#
# _framework density 21.229445999999999
#
# number of rings (size 3 to 8) (size 9 to 14) (size 15 to 20)
#    0.000    1.400    4.000    1.200    0.000    4.000 
#    0.000    4.000    0.000    0.000    0.000    0.000 
#    0.000    0.000    0.000    0.000    0.000    0.000 
#
# Total GULP energy -247767.286192 kJ/mol
# GULP energy per Si atom -12388.364310 kJ/mol
# Density = 2.118113 g / cm^3
# Si number density = 21.229446 Si / 1000 Ang^3
#
#
#
# Elastic Constant Matrix: (Units=GPa)
#
#
# Indices 1 2 3 4 5 6 
#
# 1 142.6716 24.7053 57.5552 0.0000 -7.4960 0.0000
# 2 24.7053 95.4071 20.5634 0.0000 1.7050 0.0000
# 3 57.5552 20.5634 93.9277 0.0000 -6.5424 0.0000
# 4 0.0000 0.0000 0.0000 17.9278 0.0000 -3.4983
# 5 -7.4960 1.7050 -6.5424 0.0000 23.3559 0.0000
# 6 0.0000 0.0000 0.0000 -3.4983 0.0000 26.7249
#
#
#
# Elastic Compliance Matrix: (Units=1/GPa)
#
#
# Indices 1 2 3 4 5 6 
#
# 1 0.009513 -0.001323 -0.005426 0.000000 0.001630 0.000000
# 2 -0.001323 0.011237 -0.001771 0.000000 -0.001741 0.000000
# 3 -0.005426 -0.001771 0.014530 0.000000 0.002458 0.000000
# 4 0.000000 0.000000 0.000000 0.057241 0.000000 0.007493
# 5 0.001630 -0.001741 0.002458 0.000000 0.044154 0.000000
# 6 0.000000 0.000000 0.000000 0.007493 0.000000 0.038399
#
#
# Mechanical properties :
#
#
# Convention : Reuss Voigt Hill
#
# Bulk Modulus (GPa) = 54.82274 59.73936 57.28105
# Shear Modulus (GPa) = 25.22788 28.88055 27.05422
#
# Velocity S-wave (km/s) = 3.45098 3.69236 3.57371
# Velocity P-wave (km/s) = 6.46212 6.81021 6.63845
#
# Compressibility (1/GPa) = 0.01824061
#
# Stress axis : x y z
#
# Youngs Moduli (GPa) = 105.12325 88.99404 68.82280
#
# Poissons Ratio (x) = 0.11773 0.37342
# Poissons Ratio (y) = 0.13907 0.12186
# Poissons Ratio (z) = 0.57038 0.15758
#
# Static dielectric constant tensor:
#      x y z
#    x 4.010730 0.000000 -0.082560 
#    y 0.000000 4.043220 0.000000 
#    z -0.082560 0.000000 3.600140 
# 
# 
# High freq. dielectric constant tensor:
#      x y z
#    x 1.852310 0.000000 -0.007580 
#    y 0.000000 1.837730 0.000000 
#    z -0.007580 0.000000 1.792510 
# 
# From -- ./inp_files/124987.got.cif
#   From: 2010.06.25/outbox.cif.g09.slc.cpg/sg12_63_cif.got.tgz:124987.got - 2010.06.28 00:19:55.
