data_PCOD8084798
_publ_section_title
;
Structure prediction by ZEFSAII (Michael W. Deem and Ramdas Pophale) SiO2 
 PCOD8084798
Probable space group: C 2/M
;
_chemical_formula_sum "Si O2"
_cell_formula_units_Z 64
_cell_length_a 24.829019
_cell_length_b 9.135786
_cell_length_c 17.669060
_cell_angle_alpha 90.000000
_cell_angle_beta 84.711503
_cell_angle_gamma 90.000000
_cell_volume 3990.858076
_symmetry_space_group_name_H-M "C 2/M"
_symmetry_group_IT_number 12
_symmetry_cell_setting 'monoclinic'
loop_
_space_group_symop_operation_xyz
x,y,z
-x,y,-z
-x,-y,-z
x,-y,z
1/2+x,1/2+y,z
1/2-x,1/2+y,-z
1/2-x,1/2-y,-z
1/2+x,1/2-y,z
loop_
_atom_site_type_symbol
_atom_site_label
_atom_site_fract_x
_atom_site_fract_y
_atom_site_fract_z
Si Si1 0.488679 0.334793 0.090007
Si Si2 0.306027 0.837664 0.330702
Si Si3 0.324528 0.169967 0.782648
Si Si4 0.322249 0.334795 0.635235
Si Si5 0.807024 0.671477 0.495135
Si Si6 0.199628 0.170417 0.813576
Si Si7 0.406938 0.169895 0.901882
Si Si8 0.383653 0.171750 0.077021
O O1 0.481464 0.500000 0.120869
O O2 0.539231 0.260325 0.125791
O O3 0.434349 0.244162 0.114076
O O4 0.500000 0.331357 0.000000
O O5 0.242172 0.829680 0.352493
O O6 0.334634 0.805833 0.408476
O O7 0.323911 0.721411 0.264985
O O8 0.322000 0.000000 0.299940
O O9 0.345917 0.259665 0.707534
O O10 0.262853 0.208581 0.811232
O O11 0.360461 0.215456 0.849526
O O12 0.330056 0.000000 0.761858
O O13 0.344250 0.500000 0.627158
O O14 0.342103 0.245774 0.557852
O O15 0.798923 0.500000 0.513700
O O16 0.750000 0.750000 0.500000
O O17 0.171307 0.258849 0.884395
O O18 0.187556 0.000000 0.825004
O O19 0.422170 0.000000 0.894199
O O20 0.385094 0.208163 0.987965
O O21 0.384714 0.000000 0.092749
#
# Coordination Sequence:
#
# PCOD8084798 Si02
#       8
#     8   8   8   8   8   8   8   8
#     4   9  17  30  48  68  86 104 134 180 227 264
#     4   8  15  26  38  54  78 109 143 176 211 253
#     4   9  18  31  44  60  87 120 150 180 215 257
#     4   9  16  25  38  57  81 110 144 178 213 254
#     4   9  15  23  37  56  78 106 141 178 214 253
#     4  10  19  29  42  61  87 118 149 181 216 254
#     4   9  18  32  48  65  85 113 147 180 219 264
#     4  10  19  31  47  64  85 114 146 181 220 263
#
# _framework density 16.036652
#
# number of rings (size 3 to 8) (size 9 to 14) (size 15 to 20)
#    0.000    2.875    0.000    2.625    0.000    7.000 
#    0.000    0.000    0.000    0.000    0.000    0.000 
#    0.000    1.000    0.000   10.500    0.000    7.500 
#
# Total GULP energy -396671.381198 kJ/mol
# GULP energy per Si atom -12395.980662 kJ/mol
# Density = 1.600015 g / cm^3
# Si number density = 16.036652 Si / 1000 Ang^3
#
#
#
# Elastic Constant Matrix: (Units=GPa)
#
#
# Indices 1 2 3 4 5 6 
#
# 1 61.2831 41.6373 42.6179 0.0000 14.5636 0.0000
# 2 41.6373 102.1596 51.0703 0.0000 15.4019 0.0000
# 3 42.6179 51.0703 87.2237 0.0000 23.5523 0.0000
# 4 0.0000 0.0000 0.0000 28.7679 0.0000 -1.1849
# 5 14.5636 15.4019 23.5523 0.0000 8.5143 0.0000
# 6 0.0000 0.0000 0.0000 -1.1849 0.0000 20.5286
#
#
#
# Elastic Compliance Matrix: (Units=1/GPa)
#
#
# Indices 1 2 3 4 5 6 
#
# 1 0.030113 -0.006102 -0.000841 0.000000 -0.038142 0.000000
# 2 -0.006102 0.015311 -0.005227 0.000000 -0.002799 0.000000
# 3 -0.000841 -0.005227 0.047397 0.000000 -0.120214 0.000000
# 4 0.000000 0.000000 0.000000 0.034844 0.000000 0.002011
# 5 -0.038142 -0.002799 -0.120214 0.000000 0.520291 0.000000
# 6 0.000000 0.000000 0.000000 0.002011 0.000000 0.048829
#
#
# Mechanical properties :
#
#
# Convention : Reuss Voigt Hill
#
# Bulk Modulus (GPa) = 14.60295 57.92414 36.26354
# Shear Modulus (GPa) = 6.72086 19.25154 12.98620
#
# Velocity S-wave (km/s) = 2.04940 3.46854 2.84876
# Velocity P-wave (km/s) = 3.83742 7.22768 5.78641
#
# Compressibility (1/GPa) = 0.06847934
#
# Stress axis : x y z
#
# Youngs Moduli (GPa) = 33.20822 65.31323 21.09845
#
# Poissons Ratio (x) = 0.39855 0.01775
# Poissons Ratio (y) = 0.20264 0.11029
# Poissons Ratio (z) = 0.02794 0.34141
#
# Static dielectric constant tensor:
#      x y z
#    x 2.712750 0.000000 0.168280 
#    y 0.000000 3.200950 0.000000 
#    z 0.168280 0.000000 3.294610 
# 
# 
# High freq. dielectric constant tensor:
#      x y z
#    x 1.563460 0.000000 0.013660 
#    y 0.000000 1.631320 0.000000 
#    z 0.013660 0.000000 1.610490 
# 
# From -- ./inp_files/287565.got.cif
#   From: 2010.06.25/outbox.cif.g09.slc.cpg/sg12_144_cif.got.tgz:287565.got - 2010.06.28 00:19:55.
