data_PCOD8084987
_publ_section_title
;
Structure prediction by ZEFSAII (Michael W. Deem and Ramdas Pophale) SiO2 
 PCOD8084987
Probable space group: C 2/M
;
_chemical_formula_sum "Si O2"
_cell_formula_units_Z 64
_cell_length_a 30.978227
_cell_length_b 9.133078
_cell_length_c 14.126042
_cell_angle_alpha 90.000000
_cell_angle_beta 89.412492
_cell_angle_gamma 90.000000
_cell_volume 3996.422411
_symmetry_space_group_name_H-M "C 2/M"
_symmetry_group_IT_number 12
_symmetry_cell_setting 'monoclinic'
loop_
_space_group_symop_operation_xyz
x,y,z
-x,y,-z
-x,-y,-z
x,-y,z
1/2+x,1/2+y,z
1/2-x,1/2+y,-z
1/2-x,1/2-y,-z
1/2+x,1/2-y,z
loop_
_atom_site_type_symbol
_atom_site_label
_atom_site_fract_x
_atom_site_fract_y
_atom_site_fract_z
Si Si1 0.496852 0.338809 0.612259
Si Si2 0.909176 0.827664 0.402419
Si Si3 0.248274 0.328730 0.400948
Si Si4 0.668532 0.830505 0.275739
Si Si5 0.700067 0.328651 0.096705
Si Si6 0.414114 0.169493 0.598385
Si Si7 0.670256 0.672006 0.725102
Si Si8 0.800106 0.671499 0.095255
O O1 0.500000 0.347929 0.500000
O O2 0.486385 0.500000 0.654267
O O3 0.544340 0.284443 0.644911
O O4 0.458847 0.228667 0.642625
O O5 0.900691 0.748168 0.501867
O O6 0.872883 0.780916 0.328828
O O7 0.907684 0.000000 0.424367
O O8 0.248739 0.500000 0.420965
O O9 0.250000 0.250000 0.500000
O O10 0.205103 0.279219 0.348260
O O11 0.289204 0.279746 0.338722
O O12 0.671024 0.733104 0.181953
O O13 0.622275 0.802177 0.322984
O O14 0.675533 0.000000 0.248193
O O15 0.691589 0.500000 0.084591
O O16 0.750039 0.294251 0.117728
O O17 0.685312 0.247744 0.001921
O O18 0.419909 0.000000 0.574846
O O19 0.671468 0.500000 0.747879
O O20 0.670933 0.760973 0.822441
O O21 0.809118 0.500000 0.086716
#
# Coordination Sequence:
#
# PCOD8084987 Si02
#       8
#     8   8   8   8   8   8   8   8
#     4   8  15  29  46  64  90 122 157 197 237 275
#     4   9  18  31  47  68  94 126 161 197 234 273
#     4  10  20  31  44  62  91 128 159 189 224 265
#     4  10  20  33  46  66  96 126 156 194 236 274
#     4  10  20  33  51  71  90 120 159 196 233 278
#     4  10  19  29  45  69  96 126 159 196 236 278
#     4  10  19  32  49  68  92 125 161 193 229 277
#     4  10  20  33  50  71  94 120 152 196 241 277
#
# _framework density 16.014323000000001
#
# number of rings (size 3 to 8) (size 9 to 14) (size 15 to 20)
#    0.000    2.375    1.250    2.625    0.000    5.750 
#    0.000    0.000    0.000    0.000    0.000    0.875 
#    0.000    7.000    0.000    0.000    0.000    0.000 
#
# Total GULP energy -396828.393333 kJ/mol
# GULP energy per Si atom -12400.887292 kJ/mol
# Density = 1.597787 g / cm^3
# Si number density = 16.014323 Si / 1000 Ang^3
#
#
#
# Elastic Constant Matrix: (Units=GPa)
#
#
# Indices 1 2 3 4 5 6 
#
# 1 99.6379 41.3634 42.7417 0.0000 -3.5035 0.0000
# 2 41.3634 74.8182 55.0555 0.0000 -3.6112 0.0000
# 3 42.7417 55.0555 100.7964 0.0000 -3.8025 0.0000
# 4 0.0000 0.0000 0.0000 31.7348 0.0000 -0.7030
# 5 -3.5035 -3.6112 -3.8025 0.0000 11.5601 0.0000
# 6 0.0000 0.0000 0.0000 -0.7030 0.0000 24.2933
#
#
#
# Elastic Compliance Matrix: (Units=1/GPa)
#
#
# Indices 1 2 3 4 5 6 
#
# 1 0.013492 -0.005381 -0.002725 0.000000 0.001512 0.000000
# 2 -0.005381 0.024598 -0.011062 0.000000 0.002414 0.000000
# 3 -0.002725 -0.011062 0.017170 0.000000 0.001366 0.000000
# 4 0.000000 0.000000 0.000000 0.031531 0.000000 0.000912
# 5 0.001512 0.002414 0.001366 0.000000 0.088166 0.000000
# 6 0.000000 0.000000 0.000000 0.000912 0.000000 0.041190
#
#
# Mechanical properties :
#
#
# Convention : Reuss Voigt Hill
#
# Bulk Modulus (GPa) = 59.09058 61.50819 60.29938
# Shear Modulus (GPa) = 19.22145 22.59045 20.90595
#
# Velocity S-wave (km/s) = 3.46824 3.75992 3.61703
# Velocity P-wave (km/s) = 7.28128 7.57238 7.42826
#
# Compressibility (1/GPa) = 0.01692317
#
# Stress axis : x y z
#
# Youngs Moduli (GPa) = 74.11600 40.65447 58.23954
#
# Poissons Ratio (x) = 0.21876 0.15871
# Poissons Ratio (y) = 0.39882 0.64427
# Poissons Ratio (z) = 0.20198 0.44974
#
# Static dielectric constant tensor:
#      x y z
#    x 3.290090 0.000000 0.084170 
#    y 0.000000 3.078270 0.000000 
#    z 0.084170 0.000000 2.835150 
# 
# 
# High freq. dielectric constant tensor:
#      x y z
#    x 1.608210 0.000000 0.002250 
#    y 0.000000 1.620780 0.000000 
#    z 0.002250 0.000000 1.593750 
# 
# From -- ./inp_files/248401.got.cif
#   From: 2010.06.25/outbox.cif.g09.slc.cpg/sg12_125_cif.got.tgz:248401.got - 2010.06.28 00:19:55.
