data_PCOD8084406
_publ_section_title
;
Structure prediction by ZEFSAII (Michael W. Deem and Ramdas Pophale) SiO2 
 PCOD8084406
Probable space group: C 2/M
;
_chemical_formula_sum "Si O2"
_cell_formula_units_Z 64
_cell_length_a 26.178998
_cell_length_b 19.021976
_cell_length_c 19.677445
_cell_angle_alpha 90.000000
_cell_angle_beta 160.335016
_cell_angle_gamma 90.000000
_cell_volume 3297.524308
_symmetry_space_group_name_H-M "C 2/M"
_symmetry_group_IT_number 12
_symmetry_cell_setting 'monoclinic'
loop_
_space_group_symop_operation_xyz
x,y,z
-x,y,-z
-x,-y,-z
x,-y,z
1/2+x,1/2+y,z
1/2-x,1/2+y,-z
1/2-x,1/2-y,-z
1/2+x,1/2-y,z
loop_
_atom_site_type_symbol
_atom_site_label
_atom_site_fract_x
_atom_site_fract_y
_atom_site_fract_z
Si Si1 0.154807 0.077916 0.155142
Si Si2 0.301304 0.215259 0.377616
Si Si3 0.296656 0.220255 0.881801
Si Si4 0.868294 0.220529 0.699899
Si Si5 0.014232 0.922264 0.189256
Si Si6 0.820789 0.920768 0.074654
Si Si7 0.647938 0.208760 0.819766
Si Si8 0.850918 0.919433 0.268302
O O1 0.283865 0.133609 0.335053
O O2 0.207949 0.000000 0.244211
O O3 0.128654 0.081169 0.041309
O O4 0.000000 0.098839 0.000000
O O5 0.258417 0.266692 0.263112
O O6 0.186833 0.236641 0.293642
O O7 0.473708 0.226583 0.616451
O O8 0.190237 0.267428 0.796900
O O9 0.278904 0.136567 0.873445
O O10 0.469675 0.243384 0.109481
O O11 0.750000 0.250000 0.500000
O O12 0.867422 0.136684 0.685643
O O13 0.090256 0.000000 0.279657
O O14 0.960361 0.906811 0.198357
O O15 0.679315 0.873086 0.874264
O O16 0.760586 0.000000 0.992560
O O17 0.884228 0.906263 0.230076
O O18 0.750000 0.250000 0.000000
O O19 0.000000 0.904296 0.500000
O O20 0.794707 0.000000 0.210116
#
# Coordination Sequence:
#
# PCOD8084406 Si02
#       8
#     8   8   8   8   8   8   8   8
#     4  10  18  35  61  89 123 163 203 244 297 373
#     4  12  24  38  62  94 123 162 208 254 305 369
#     4  12  23  42  64  90 124 162 204 255 312 371
#     4  12  25  40  61  91 128 165 207 259 308 363
#     4  10  20  38  63  89 125 167 203 241 306 383
#     4  10  21  38  61  89 125 161 199 252 309 368
#     4  12  23  38  61  92 126 160 204 256 312 367
#     4  10  22  40  64  92 120 160 213 265 317 368
#
# _framework density 19.4085
#
# number of rings (size 3 to 8) (size 9 to 14) (size 15 to 20)
#    0.000    1.000    5.000    2.250    0.000    0.500 
#    0.000    0.625    0.000    5.250    0.000    0.000 
#    0.000    0.000    0.000    0.000    0.000    0.000 
#
# Total GULP energy -396786.170431 kJ/mol
# GULP energy per Si atom -12399.567826 kJ/mol
# Density = 1.936433 g / cm^3
# Si number density = 19.408500 Si / 1000 Ang^3
#
#
#
# Elastic Constant Matrix: (Units=GPa)
#
#
# Indices 1 2 3 4 5 6 
#
# 1 125.3729 51.7088 29.2611 -0.0001 -6.7194 0.0000
# 2 51.7088 126.6510 51.1051 -0.0004 0.5664 -0.0001
# 3 29.2611 51.1051 91.5717 -0.0003 2.5306 -0.0001
# 4 -0.0001 -0.0004 -0.0003 24.9829 -0.0006 -3.3024
# 5 -6.7194 0.5664 2.5306 -0.0006 30.8506 -0.0003
# 6 0.0000 -0.0001 -0.0001 -3.3024 -0.0003 28.9900
#
#
#
# Elastic Compliance Matrix: (Units=1/GPa)
#
#
# Indices 1 2 3 4 5 6 
#
# 1 0.009845 -0.003530 -0.001240 0.000000 0.002311 0.000000
# 2 -0.003530 0.011458 -0.005252 0.000000 -0.000548 0.000000
# 3 -0.001240 -0.005252 0.014285 0.000000 -0.001345 0.000000
# 4 0.000000 0.000000 0.000000 0.040639 0.000001 0.004629
# 5 0.002311 -0.000548 -0.001345 0.000001 0.033038 0.000000
# 6 0.000000 0.000000 0.000000 0.004629 0.000000 0.035022
#
#
# Mechanical properties :
#
#
# Convention : Reuss Voigt Hill
#
# Bulk Modulus (GPa) = 64.32675 67.52729 65.92702
# Shear Modulus (GPa) = 29.49639 31.06607 30.28123
#
# Velocity S-wave (km/s) = 3.90265 4.00514 3.95423
# Velocity P-wave (km/s) = 7.31595 7.50043 7.40876
#
# Compressibility (1/GPa) = 0.01554563
#
# Stress axis : x y z
#
# Youngs Moduli (GPa) = 101.57239 87.27256 70.00451
#
# Poissons Ratio (x) = 0.30803 0.08681
# Poissons Ratio (y) = 0.35850 0.36765
# Poissons Ratio (z) = 0.12595 0.45834
#
# Static dielectric constant tensor:
#      x y z
#    x 3.777040 0.000000 -0.134400 
#    y 0.000000 3.942550 0.000000 
#    z -0.134400 0.000000 3.304580 
# 
# 
# High freq. dielectric constant tensor:
#      x y z
#    x 1.770430 0.000000 -0.020440 
#    y 0.000000 1.770330 0.000000 
#    z -0.020440 0.000000 1.724380 
# 
# From -- ./inp_files/290965.got.cif
#   From: 2010.06.25/outbox.cif.g09.slc.cpg/sg12_146_cif.got.tgz:290965.got - 2010.06.28 00:19:55.
