data_PCOD8084083
_publ_section_title
;
Structure prediction by ZEFSAII (Michael W. Deem and Ramdas Pophale) SiO2 
 PCOD8084083
Probable space group: C 2/M
;
_chemical_formula_sum "Si O2"
_cell_formula_units_Z 48
_cell_length_a 8.106337
_cell_length_b 24.186461
_cell_length_c 14.776043
_cell_angle_alpha 90.000000
_cell_angle_beta 130.072164
_cell_angle_gamma 90.000000
_cell_volume 2216.917461
_symmetry_space_group_name_H-M "C 2/M"
_symmetry_group_IT_number 12
_symmetry_cell_setting 'monoclinic'
loop_
_space_group_symop_operation_xyz
x,y,z
-x,y,-z
-x,-y,-z
x,-y,z
1/2+x,1/2+y,z
1/2-x,1/2+y,-z
1/2-x,1/2-y,-z
1/2+x,1/2-y,z
loop_
_atom_site_type_symbol
_atom_site_label
_atom_site_fract_x
_atom_site_fract_y
_atom_site_fract_z
Si Si1 0.132567 0.000000 0.682446
Si Si2 0.173124 0.500000 0.449812
Si Si3 0.799203 0.612433 0.754152
Si Si4 0.185034 0.711658 0.128731
Si Si5 0.507880 0.114424 0.645374
Si Si6 0.651978 0.296119 0.269534
Si Si7 0.900042 0.183266 0.552676
O O1 0.220027 0.000000 0.610894
O O2 0.231748 0.052820 0.769593
O O3 0.871630 0.000000 0.591228
O O4 0.020677 0.554014 0.411011
O O5 0.897912 0.652171 0.865628
O O6 0.985983 0.607326 0.745276
O O7 0.575495 0.636174 0.635512
O O8 0.402507 0.701232 0.148821
O O9 0.251886 0.749208 0.240062
O O10 0.000000 0.738073 0.000000
O O11 0.736111 0.143772 0.702790
O O12 0.326019 0.155310 0.546355
O O13 0.646307 0.278641 0.374895
O O14 0.000000 0.216237 0.500000
#
# Coordination Sequence:
#
# PCOD8084083 Si02
#       7
#     4   4   8   8   8   8   8
#     4   9  14  30  60  91 122 161 202 236 280 359
#     4   9  16  28  60  90 127 170 195 224 284 352
#     4   9  18  34  60  89 118 158 204 242 292 351
#     4  11  24  44  63  81 109 154 209 265 310 351
#     4  10  18  34  57  92 129 159 194 235 287 361
#     4  11  23  39  60  86 115 152 206 250 301 355
#     4   9  18  35  57  84 124 160 190 233 290 360
#
# _framework density 21.651686000000002
#
# number of rings (size 3 to 8) (size 9 to 14) (size 15 to 20)
#    0.000    2.167    1.667    2.000    0.000    0.000 
#    0.000   33.750    0.000    0.000    0.000    4.083 
#    0.000    0.000    0.000    0.000    0.000    0.083 
#
# Total GULP energy -297321.168218 kJ/mol
# GULP energy per Si atom -12388.382009 kJ/mol
# Density = 2.160241 g / cm^3
# Si number density = 21.651686 Si / 1000 Ang^3
#
#
#
# Elastic Constant Matrix: (Units=GPa)
#
#
# Indices 1 2 3 4 5 6 
#
# 1 109.5002 52.2216 39.4506 0.0000 14.4824 0.0000
# 2 52.2216 131.6038 29.3005 0.0000 -2.4207 0.0000
# 3 39.4506 29.3005 63.7461 0.0000 4.8929 0.0000
# 4 0.0000 0.0000 0.0000 19.9179 0.0000 8.1508
# 5 14.4824 -2.4207 4.8929 0.0000 29.1284 0.0000
# 6 0.0000 0.0000 0.0000 8.1508 0.0000 51.7229
#
#
#
# Elastic Compliance Matrix: (Units=1/GPa)
#
#
# Indices 1 2 3 4 5 6 
#
# 1 0.014386 -0.004406 -0.006383 0.000000 -0.006447 0.000000
# 2 -0.004406 0.009869 -0.002067 0.000000 0.003358 0.000000
# 3 -0.006383 -0.002067 0.020623 0.000000 -0.000462 0.000000
# 4 0.000000 0.000000 0.000000 0.053667 0.000000 -0.008457
# 5 -0.006447 0.003358 -0.000462 0.000000 0.037893 0.000000
# 6 0.000000 0.000000 0.000000 -0.008457 0.000000 0.020667
#
#
# Mechanical properties :
#
#
# Convention : Reuss Voigt Hill
#
# Bulk Modulus (GPa) = 52.17681 60.75508 56.46594
# Shear Modulus (GPa) = 26.42633 32.41232 29.41933
#
# Velocity S-wave (km/s) = 3.49739 3.87329 3.69013
# Velocity P-wave (km/s) = 6.36078 6.93717 6.65522
#
# Compressibility (1/GPa) = 0.01916560
#
# Stress axis : x y z
#
# Youngs Moduli (GPa) = 69.51241 101.32859 48.48900
#
# Poissons Ratio (x) = 0.44644 0.30951
# Poissons Ratio (y) = 0.30626 0.10024
# Poissons Ratio (z) = 0.44370 0.20947
#
# Static dielectric constant tensor:
#      x y z
#    x 4.187440 0.000000 -0.045610 
#    y 0.000000 3.974410 0.000000 
#    z -0.045610 0.000000 3.455940 
# 
# 
# High freq. dielectric constant tensor:
#      x y z
#    x 1.861590 0.000000 0.008420 
#    y 0.000000 1.842030 0.000000 
#    z 0.008420 0.000000 1.804380 
# 
# From -- ./inp_files/259044.got.cif
#   From: 2010.06.25/outbox.cif.g09.slc.cpg/sg12_130_cif.got.tgz:259044.got - 2010.06.28 00:19:55.
