data_PCOD8084501
_publ_section_title
;
Structure prediction by ZEFSAII (Michael W. Deem and Ramdas Pophale) SiO2 
 PCOD8084501
Probable space group: C 2/M
;
_chemical_formula_sum "Si O2"
_cell_formula_units_Z 64
_cell_length_a 9.273082
_cell_length_b 13.815209
_cell_length_c 24.949357
_cell_angle_alpha 90.000000
_cell_angle_beta 103.328218
_cell_angle_gamma 90.000000
_cell_volume 3110.161724
_symmetry_space_group_name_H-M "C 2/M"
_symmetry_group_IT_number 12
_symmetry_cell_setting 'monoclinic'
loop_
_space_group_symop_operation_xyz
x,y,z
-x,y,-z
-x,-y,-z
x,-y,z
1/2+x,1/2+y,z
1/2-x,1/2+y,-z
1/2-x,1/2-y,-z
1/2+x,1/2-y,z
loop_
_atom_site_type_symbol
_atom_site_label
_atom_site_fract_x
_atom_site_fract_y
_atom_site_fract_z
Si Si1 0.617606 0.608898 0.051516
Si Si2 0.445268 0.388452 0.676660
Si Si3 0.945285 0.608659 0.051041
Si Si4 0.557169 0.203807 0.393121
Si Si5 0.641179 0.285230 0.537667
Si Si6 0.637337 0.890275 0.709089
Si Si7 0.394600 0.243237 0.855944
Si Si8 0.100476 0.784244 0.780287
O O1 0.569962 0.500000 0.063403
O O2 0.769787 0.609804 0.032514
O O3 0.633932 0.667896 0.107204
O O4 0.500000 0.654766 0.000000
O O5 0.465907 0.500000 0.659926
O O6 0.449197 0.317097 0.625898
O O7 0.290419 0.370865 0.692411
O O8 0.575534 0.359740 0.729619
O O9 0.008446 0.500000 0.061845
O O10 0.997557 0.666836 0.107296
O O11 0.000000 0.655996 0.000000
O O12 0.450306 0.201324 0.437038
O O13 0.730040 0.166393 0.414439
O O14 0.495650 0.132134 0.343259
O O15 0.500000 0.347243 0.500000
O O16 0.750000 0.250000 0.500000
O O17 0.623029 0.824172 0.760013
O O18 0.623459 0.000000 0.727795
O O19 0.243438 0.187530 0.827678
O O20 0.460043 0.286249 0.807015
#
# Coordination Sequence:
#
# PCOD8084501 Si02
#       8
#     8   8   8   8   8   8   8   8
#     4  10  23  41  61  85 113 151 193 229 279 352
#     4  10  21  38  61  86 116 154 196 243 288 340
#     4  10  23  41  60  85 116 149 189 235 282 341
#     4  10  18  36  60  88 115 157 203 237 279 347
#     4   9  18  32  58  88 123 161 192 234 297 338
#     4  10  21  38  62  85 114 157 198 238 286 348
#     4  12  23  39  61  84 115 152 188 235 294 345
#     4  11  24  39  58  89 117 148 192 243 290 347
#
# _framework density 20.577708999999999
#
# number of rings (size 3 to 8) (size 9 to 14) (size 15 to 20)
#    0.000    1.750    3.750    0.375    1.750    3.000 
#    0.000    1.875    0.000   15.000    0.000    0.000 
#    0.000    0.000    0.000    0.000    0.000    0.000 
#
# Total GULP energy -396517.502534 kJ/mol
# GULP energy per Si atom -12391.171954 kJ/mol
# Density = 2.053087 g / cm^3
# Si number density = 20.577709 Si / 1000 Ang^3
#
#
#
# Elastic Constant Matrix: (Units=GPa)
#
#
# Indices 1 2 3 4 5 6 
#
# 1 113.2384 19.6695 36.0443 0.0000 17.1648 0.0000
# 2 19.6695 56.1051 20.2227 0.0000 0.6707 0.0000
# 3 36.0443 20.2227 92.1597 0.0000 13.0308 0.0000
# 4 0.0000 0.0000 0.0000 13.6671 0.0000 -0.0240
# 5 17.1648 0.6707 13.0308 0.0000 52.0350 0.0000
# 6 0.0000 0.0000 0.0000 -0.0240 0.0000 21.8544
#
#
#
# Elastic Compliance Matrix: (Units=1/GPa)
#
#
# Indices 1 2 3 4 5 6 
#
# 1 0.010717 -0.002553 -0.003251 0.000000 -0.002688 0.000000
# 2 -0.002553 0.019999 -0.003600 0.000000 0.001486 0.000000
# 3 -0.003251 -0.003600 0.013222 0.000000 -0.002192 0.000000
# 4 0.000000 0.000000 0.000000 0.073168 0.000000 0.000080
# 5 -0.002688 0.001486 -0.002192 0.000000 0.020634 0.000000
# 6 0.000000 0.000000 0.000000 0.000080 0.000000 0.045758
#
#
# Mechanical properties :
#
#
# Convention : Reuss Voigt Hill
#
# Bulk Modulus (GPa) = 39.79421 45.93070 42.86245
# Shear Modulus (GPa) = 23.73241 29.88241 26.80741
#
# Velocity S-wave (km/s) = 3.39972 3.81487 3.61327
# Velocity P-wave (km/s) = 5.89841 6.46324 6.18727
#
# Compressibility (1/GPa) = 0.02512929
#
# Stress axis : x y z
#
# Youngs Moduli (GPa) = 93.31233 50.00362 75.63075
#
# Poissons Ratio (x) = 0.12767 0.24588
# Poissons Ratio (y) = 0.23824 0.27226
# Poissons Ratio (z) = 0.30336 0.18001
#
# Static dielectric constant tensor:
#      x y z
#    x 4.087950 0.000000 0.271590 
#    y 0.000000 3.415060 0.000000 
#    z 0.271590 0.000000 3.944210 
# 
# 
# High freq. dielectric constant tensor:
#      x y z
#    x 1.821310 0.000000 0.009210 
#    y 0.000000 1.763740 0.000000 
#    z 0.009210 0.000000 1.820330 
# 
# From -- ./inp_files/356174.got.cif
#   From: 2010.06.25/outbox.cif.g09.slc.cpg/sg12_179_cif.got.tgz:356174.got - 2010.06.28 00:19:55.
