data_PCOD8084021
_publ_section_title
;
Structure prediction by ZEFSAII (Michael W. Deem and Ramdas Pophale) SiO2 
 PCOD8084021
Probable space group: C 2/M
;
_chemical_formula_sum "Si O2"
_cell_formula_units_Z 64
_cell_length_a 17.917661
_cell_length_b 20.274622
_cell_length_c 11.246411
_cell_angle_alpha 90.000000
_cell_angle_beta 59.007695
_cell_angle_gamma 90.000000
_cell_volume 3502.262295
_symmetry_space_group_name_H-M "C 2/M"
_symmetry_group_IT_number 12
_symmetry_cell_setting 'monoclinic'
loop_
_space_group_symop_operation_xyz
x,y,z
-x,y,-z
-x,-y,-z
x,-y,z
1/2+x,1/2+y,z
1/2-x,1/2+y,-z
1/2-x,1/2-y,-z
1/2+x,1/2-y,z
loop_
_atom_site_type_symbol
_atom_site_label
_atom_site_fract_x
_atom_site_fract_y
_atom_site_fract_z
Si Si1 0.828902 0.793028 0.799485
Si Si2 0.984492 0.763789 0.378989
Si Si3 0.870506 0.575016 0.669381
Si Si4 0.312329 0.073100 0.326699
Si Si5 0.546851 0.880885 0.626294
Si Si6 0.796539 0.198044 0.550653
Si Si7 0.089649 0.424696 0.983236
Si Si8 0.803725 0.650840 0.926078
O O1 0.790710 0.784941 0.696685
O O2 0.821008 0.724251 0.871996
O O3 0.932246 0.809257 0.722176
O O4 0.779759 0.849435 0.916898
O O5 0.975220 0.694376 0.317566
O O6 0.897876 0.807098 0.431085
O O7 0.000000 0.739329 0.500000
O O8 0.845925 0.500000 0.658405
O O9 0.881495 0.617576 0.539977
O O10 0.793636 0.605756 0.815624
O O11 0.962237 0.577384 0.662922
O O12 0.409109 0.082871 0.299393
O O13 0.245131 0.126285 0.434237
O O14 0.327829 0.080420 0.173537
O O15 0.276627 0.000000 0.387069
O O16 0.750000 0.250000 0.500000
O O17 0.079814 0.500000 0.035852
O O18 0.111447 0.377057 0.075155
O O19 0.000000 0.398999 0.000000
#
# Coordination Sequence:
#
# PCOD8084021 Si02
#       8
#     8   8   8   8   8   8   8   8
#     4  10  22  37  53  80 108 148 184 238 274 325
#     4  10  18  34  56  78 110 141 182 228 283 323
#     4  11  20  30  50  81 113 147 182 219 274 347
#     4  11  22  35  52  79 114 142 179 229 280 336
#     4  11  18  33  52  82 114 144 175 227 288 344
#     4  11  21  36  61  83 107 145 189 233 287 338
#     4  10  21  35  52  78 115 153 182 216 276 348
#     4  11  20  35  54  73 112 152 191 220 270 332
#
# _framework density 18.273903000000001
#
# number of rings (size 3 to 8) (size 9 to 14) (size 15 to 20)
#    0.000    1.375    5.000    3.375    0.000    1.000 
#    0.000    0.000    0.000    4.875    0.000    0.000 
#    0.000    2.000    0.000    0.000    0.000    0.000 
#
# Total GULP energy -396538.307147 kJ/mol
# GULP energy per Si atom -12391.822098 kJ/mol
# Density = 1.823231 g / cm^3
# Si number density = 18.273903 Si / 1000 Ang^3
#
#
#
# Elastic Constant Matrix: (Units=GPa)
#
#
# Indices 1 2 3 4 5 6 
#
# 1 66.8711 24.9737 23.3398 0.0000 -3.4805 0.0000
# 2 24.9737 78.9578 21.5624 0.0000 -3.5425 0.0000
# 3 23.3398 21.5624 92.6824 0.0000 -2.7668 0.0000
# 4 0.0000 0.0000 0.0000 25.9352 0.0000 -5.0065
# 5 -3.4805 -3.5425 -2.7668 0.0000 24.9066 0.0000
# 6 0.0000 0.0000 0.0000 -5.0065 0.0000 25.0281
#
#
#
# Elastic Compliance Matrix: (Units=1/GPa)
#
#
# Indices 1 2 3 4 5 6 
#
# 1 0.017965 -0.004691 -0.003389 0.000000 0.001467 0.000000
# 2 -0.004691 0.014811 -0.002229 0.000000 0.001204 0.000000
# 3 -0.003389 -0.002229 0.012178 0.000000 0.000562 0.000000
# 4 0.000000 0.000000 0.000000 0.040106 0.000000 0.008023
# 5 0.001467 0.001204 0.000562 0.000000 0.040589 0.000000
# 6 0.000000 0.000000 0.000000 0.008023 0.000000 0.041560
#
#
# Mechanical properties :
#
#
# Convention : Reuss Voigt Hill
#
# Bulk Modulus (GPa) = 41.08852 42.02925 41.55889
# Shear Modulus (GPa) = 25.51812 26.41634 25.96723
#
# Velocity S-wave (km/s) = 3.74093 3.80620 3.77371
# Velocity P-wave (km/s) = 6.41818 6.50890 6.46370
#
# Compressibility (1/GPa) = 0.02433770
#
# Stress axis : x y z
#
# Youngs Moduli (GPa) = 55.66314 67.51602 82.11369
#
# Poissons Ratio (x) = 0.31671 0.27828
# Poissons Ratio (y) = 0.26111 0.18300
# Poissons Ratio (z) = 0.18864 0.15047
#
# Static dielectric constant tensor:
#      x y z
#    x 3.350710 0.000000 -0.042000 
#    y 0.000000 3.201940 0.000000 
#    z -0.042000 0.000000 3.838720 
# 
# 
# High freq. dielectric constant tensor:
#      x y z
#    x 1.683290 0.000000 0.010940 
#    y 0.000000 1.688580 0.000000 
#    z 0.010940 0.000000 1.718360 
# 
# From -- ./inp_files/159226.got.cif
#   From: 2010.06.25/outbox.cif.g09.slc.cpg/sg12_80_cif.got.tgz:159226.got - 2010.06.28 00:19:55.
