data_PCOD8084543
_publ_section_title
;
Structure prediction by ZEFSAII (Michael W. Deem and Ramdas Pophale) SiO2 
 PCOD8084543
Probable space group: C 2/M
;
_chemical_formula_sum "Si O2"
_cell_formula_units_Z 64
_cell_length_a 22.396669
_cell_length_b 22.731667
_cell_length_c 8.802380
_cell_angle_alpha 90.000000
_cell_angle_beta 128.222897
_cell_angle_gamma 90.000000
_cell_volume 3520.640379
_symmetry_space_group_name_H-M "C 2/M"
_symmetry_group_IT_number 12
_symmetry_cell_setting 'monoclinic'
loop_
_space_group_symop_operation_xyz
x,y,z
-x,y,-z
-x,-y,-z
x,-y,z
1/2+x,1/2+y,z
1/2-x,1/2+y,-z
1/2-x,1/2-y,-z
1/2+x,1/2-y,z
loop_
_atom_site_type_symbol
_atom_site_label
_atom_site_fract_x
_atom_site_fract_y
_atom_site_fract_z
Si Si1 0.917605 0.639083 0.911915
Si Si2 0.176651 0.433717 0.448001
Si Si3 0.425198 0.734344 0.798920
Si Si4 0.630499 0.830035 0.848816
Si Si5 0.925739 0.229134 0.452801
Si Si6 0.087126 0.433890 0.604319
Si Si7 0.762095 0.214989 0.264511
Si Si8 0.728495 0.326430 0.393228
O O1 0.856920 0.590378 0.763292
O O2 0.896392 0.702548 0.808605
O O3 0.921763 0.647393 0.097799
O O4 0.000000 0.615826 0.000000
O O5 0.207325 0.500000 0.475165
O O6 0.107338 0.430923 0.458109
O O7 0.248588 0.393130 0.613698
O O8 0.445967 0.743830 0.657018
O O9 0.361610 0.685277 0.736934
O O10 0.500000 0.711641 0.000000
O O11 0.584102 0.786270 0.668099
O O12 0.646533 0.889604 0.779527
O O13 0.705273 0.798848 0.036913
O O14 0.844918 0.194689 0.330662
O O15 0.000000 0.194584 0.500000
O O16 0.100705 0.500000 0.687684
O O17 0.000000 0.414696 0.500000
O O18 0.765482 0.284206 0.320563
O O19 0.737970 0.183022 0.382906
#
# Coordination Sequence:
#
# PCOD8084543 Si02
#       8
#     8   8   8   8   8   8   8   8
#     4  11  20  32  53  80 109 142 183 220 264 322
#     4  11  22  37  55  76 105 150 192 225 264 315
#     4  10  20  36  57  80 110 145 182 221 280 330
#     4  12  20  33  52  83 109 144 183 219 274 326
#     4  11  22  32  49  77 114 141 174 219 267 336
#     4  10  22  38  52  72 111 155 191 228 265 308
#     4  10  20  34  55  78 110 146 175 220 284 330
#     4  10  18  37  56  77 109 140 182 233 269 321
#
# _framework density 18.178509999999999
#
# number of rings (size 3 to 8) (size 9 to 14) (size 15 to 20)
#    0.000    1.375    2.500    6.000    0.000    0.750 
#    0.000    0.000    0.000    0.375    0.000    0.000 
#    0.000    3.000    0.000    0.125    0.000    0.000 
#
# Total GULP energy -396439.642281 kJ/mol
# GULP energy per Si atom -12388.738821 kJ/mol
# Density = 1.813713 g / cm^3
# Si number density = 18.178510 Si / 1000 Ang^3
#
#
#
# Elastic Constant Matrix: (Units=GPa)
#
#
# Indices 1 2 3 4 5 6 
#
# 1 89.3912 26.3486 34.8187 0.0000 13.7156 0.0000
# 2 26.3486 99.1661 34.1412 0.0000 11.8662 0.0000
# 3 34.8187 34.1412 105.2731 0.0000 2.2784 0.0000
# 4 0.0000 0.0000 0.0000 15.6222 0.0000 5.5461
# 5 13.7156 11.8662 2.2784 0.0000 28.6669 0.0000
# 6 0.0000 0.0000 0.0000 5.5461 0.0000 14.7290
#
#
#
# Elastic Compliance Matrix: (Units=1/GPa)
#
#
# Indices 1 2 3 4 5 6 
#
# 1 0.014123 -0.001689 -0.003999 0.000000 -0.005740 0.000000
# 2 -0.001689 0.012140 -0.003293 0.000000 -0.003955 0.000000
# 3 -0.003999 -0.003293 0.011839 0.000000 0.002336 0.000000
# 4 0.000000 0.000000 0.000000 0.073889 0.000000 -0.027822
# 5 -0.005740 -0.003955 0.002336 0.000000 0.039082 0.000000
# 6 0.000000 0.000000 0.000000 -0.027822 0.000000 0.078369
#
#
# Mechanical properties :
#
#
# Convention : Reuss Voigt Hill
#
# Bulk Modulus (GPa) = 49.65183 53.82749 51.73966
# Shear Modulus (GPa) = 19.67598 25.03841 22.35719
#
# Velocity S-wave (km/s) = 3.29352 3.71531 3.51075
# Velocity P-wave (km/s) = 6.46806 6.93394 6.70505
#
# Compressibility (1/GPa) = 0.02014024
#
# Stress axis : x y z
#
# Youngs Moduli (GPa) = 70.80626 82.37371 84.46513
#
# Poissons Ratio (x) = 0.13911 0.33779
# Poissons Ratio (y) = 0.11958 0.27814
# Poissons Ratio (z) = 0.28317 0.27125
#
# Static dielectric constant tensor:
#      x y z
#    x 3.624440 0.000000 -0.093650 
#    y 0.000000 3.112980 0.000000 
#    z -0.093650 0.000000 3.403760 
# 
# 
# High freq. dielectric constant tensor:
#      x y z
#    x 1.717440 0.000000 -0.008010 
#    y 0.000000 1.656240 0.000000 
#    z -0.008010 0.000000 1.709130 
# 
# From -- ./inp_files/99671.got.cif
#   From: 2010.06.25/outbox.cif.g09.slc.cpg/sg12_50_cif.got.tgz:99671.got - 2010.06.28 00:19:55.
