data_PCOD8084680
_publ_section_title
;
Structure prediction by ZEFSAII (Michael W. Deem and Ramdas Pophale) SiO2 
 PCOD8084680
Probable space group: C 2/M
;
_chemical_formula_sum "Si O2"
_cell_formula_units_Z 56
_cell_length_a 25.721403
_cell_length_b 21.527434
_cell_length_c 20.148132
_cell_angle_alpha 90.000000
_cell_angle_beta 161.397304
_cell_angle_gamma 90.000000
_cell_volume 3558.915754
_symmetry_space_group_name_H-M "C 2/M"
_symmetry_group_IT_number 12
_symmetry_cell_setting 'monoclinic'
loop_
_space_group_symop_operation_xyz
x,y,z
-x,y,-z
-x,-y,-z
x,-y,z
1/2+x,1/2+y,z
1/2-x,1/2+y,-z
1/2-x,1/2-y,-z
1/2+x,1/2-y,z
loop_
_atom_site_type_symbol
_atom_site_label
_atom_site_fract_x
_atom_site_fract_y
_atom_site_fract_z
Si Si1 0.752691 0.257163 0.339004
Si Si2 0.540921 0.311403 0.741508
Si Si3 0.256201 0.500000 0.840322
Si Si4 0.324964 0.627828 0.978420
Si Si5 0.419970 0.742836 0.006295
Si Si6 0.981953 0.372171 0.635399
Si Si7 0.912046 0.500000 0.496161
Si Si8 0.639723 0.811400 0.939127
O O1 0.609022 0.266654 0.218029
O O2 0.854729 0.320286 0.458296
O O3 0.861773 0.198376 0.494500
O O4 0.684252 0.240269 0.184246
O O5 0.548564 0.365594 0.806695
O O6 0.597216 0.250002 0.847213
O O7 0.667614 0.326046 0.835217
O O8 0.233953 0.500000 0.733955
O O9 0.082811 0.500000 0.665616
O O10 0.356011 0.560891 0.983030
O O11 0.352455 0.679712 0.956039
O O12 0.140691 0.635949 0.781372
O O13 0.403728 0.801621 0.036471
O O14 0.898033 0.439108 0.525045
O O15 0.032282 0.365589 0.774137
#
# Coordination Sequence:
#
# PCOD8084680 Si02
#       8
#     8   8   4   8   8   8   4   8
#     4  10  19  28  40  61  86 110 137 171 210 247
#     4   8  15  27  42  60  81 106 137 171 206 244
#     4   9  16  26  43  65  86 111 140 166 195 235
#     4   9  17  29  44  62  84 111 142 170 198 240
#     4  10  19  28  40  61  86 110 137 171 210 247
#     4   9  17  29  44  62  84 111 142 170 198 240
#     4   9  16  26  43  65  86 111 140 166 195 235
#     4   8  15  27  42  60  81 106 137 171 206 244
#
# _framework density 15.73513
#
# number of rings (size 3 to 8) (size 9 to 14) (size 15 to 20)
#    0.000    3.000    0.000    3.429    0.000    8.571 
#    0.000    0.714    0.000    2.571    0.000    1.000 
#    0.000    8.000    0.000    0.000    0.000    0.000 
#
# Total GULP energy -347041.734792 kJ/mol
# GULP energy per Si atom -12394.347671 kJ/mol
# Density = 1.569932 g / cm^3
# Si number density = 15.735130 Si / 1000 Ang^3
#
#
#
# Elastic Constant Matrix: (Units=GPa)
#
#
# Indices 1 2 3 4 5 6 
#
# 1 89.8842 41.8188 44.5393 0.0004 -11.4981 0.0000
# 2 41.8188 86.1358 48.0423 0.0002 -17.2380 0.0001
# 3 44.5393 48.0423 97.2758 0.0002 -9.0366 -0.0002
# 4 0.0004 0.0002 0.0002 19.4854 0.0002 -11.2275
# 5 -11.4981 -17.2380 -9.0366 0.0002 17.9247 -0.0001
# 6 0.0000 0.0001 -0.0002 -11.2275 -0.0001 15.4294
#
#
#
# Elastic Compliance Matrix: (Units=1/GPa)
#
#
# Indices 1 2 3 4 5 6 
#
# 1 0.016015 -0.004338 -0.004851 -0.000001 0.003656 0.000000
# 2 -0.004338 0.020094 -0.006716 0.000000 0.013156 -0.000001
# 3 -0.004851 -0.006716 0.015662 0.000000 -0.001674 0.000001
# 4 -0.000001 0.000000 0.000000 0.088375 -0.000001 0.064307
# 5 0.003656 0.013156 -0.001674 -0.000001 0.069942 -0.000001
# 6 0.000000 -0.000001 0.000001 0.064307 -0.000001 0.111606
#
#
# Mechanical properties :
#
#
# Convention : Reuss Voigt Hill
#
# Bulk Modulus (GPa) = 50.09384 60.23296 55.16340
# Shear Modulus (GPa) = 13.88285 19.82760 16.85523
#
# Velocity S-wave (km/s) = 2.97355 3.55362 3.27645
# Velocity P-wave (km/s) = 6.61015 7.42967 7.03186
#
# Compressibility (1/GPa) = 0.01996254
#
# Stress axis : x y z
#
# Youngs Moduli (GPa) = 62.44146 49.76544 63.84818
#
# Poissons Ratio (x) = 0.21589 0.30970
# Poissons Ratio (y) = 0.27089 0.42878
# Poissons Ratio (z) = 0.30288 0.33421
#
# Static dielectric constant tensor:
#      x y z
#    x 3.056410 0.000000 -0.141530 
#    y 0.000000 3.078870 0.000000 
#    z -0.141530 0.000000 3.107550 
# 
# 
# High freq. dielectric constant tensor:
#      x y z
#    x 1.597070 0.000000 -0.004840 
#    y 0.000000 1.569350 0.000000 
#    z -0.004840 0.000000 1.598820 
# 
# From -- ./inp_files/291062.got.cif
#   From: 2010.06.25/outbox.cif.g09.slc.cpg/sg12_146_cif.got.tgz:291062.got - 2010.06.28 00:19:55.
