data_PCOD8084739
_publ_section_title
;
Structure prediction by ZEFSAII (Michael W. Deem and Ramdas Pophale) SiO2 
 PCOD8084739
Probable space group: C 2/M
;
_chemical_formula_sum "Si O2"
_cell_formula_units_Z 56
_cell_length_a 19.283675
_cell_length_b 9.003028
_cell_length_c 21.926343
_cell_angle_alpha 90.000000
_cell_angle_beta 54.905394
_cell_angle_gamma 90.000000
_cell_volume 3114.627579
_symmetry_space_group_name_H-M "C 2/M"
_symmetry_group_IT_number 12
_symmetry_cell_setting 'monoclinic'
loop_
_space_group_symop_operation_xyz
x,y,z
-x,y,-z
-x,-y,-z
x,-y,z
1/2+x,1/2+y,z
1/2-x,1/2+y,-z
1/2-x,1/2-y,-z
1/2+x,1/2-y,z
loop_
_atom_site_type_symbol
_atom_site_label
_atom_site_fract_x
_atom_site_fract_y
_atom_site_fract_z
Si Si1 0.786409 0.327659 0.803514
Si Si2 0.449898 0.332291 0.692109
Si Si3 0.305338 0.322363 0.919883
Si Si4 0.509128 0.331182 0.190349
Si Si5 0.762623 0.327538 0.397336
Si Si6 0.374155 0.328514 0.438904
Si Si7 0.171601 0.826410 0.750168
O O1 0.793382 0.500000 0.817818
O O2 0.871898 0.280178 0.724515
O O3 0.771462 0.230527 0.871350
O O4 0.706849 0.296983 0.799838
O O5 0.415235 0.500000 0.700911
O O6 0.493768 0.315517 0.735653
O O7 0.524926 0.295639 0.605953
O O8 0.299674 0.500000 0.925086
O O9 0.402232 0.263127 0.879443
O O10 0.250000 0.250000 0.000000
O O11 0.508931 0.500000 0.168919
O O12 0.423807 0.256468 0.205897
O O13 0.776768 0.500000 0.378794
O O14 0.670626 0.293878 0.473856
O O15 0.835784 0.272475 0.405371
O O16 0.766327 0.247635 0.330428
O O17 0.359316 0.500000 0.427610
O O18 0.169139 0.000000 0.735784
#
# Coordination Sequence:
#
# PCOD8084739 Si02
#       7
#     8   8   8   8   8   8   8
#     4  10  21  34  53  79 106 135 169 212 259 305
#     4   9  16  31  53  71  96 137 179 217 255 307
#     4  10  20  37  60  82 105 133 166 206 249 303
#     4   8  15  30  54  76  94 131 176 203 238 299
#     4  10  19  28  46  76 103 131 173 226 267 298
#     4   9  17  31  48  69 100 138 177 215 264 315
#     4  10  19  35  53  72 104 142 174 208 256 314
#
# _framework density 17.979678
#
# number of rings (size 3 to 8) (size 9 to 14) (size 15 to 20)
#    0.000    2.571    1.429    2.143    0.000    2.286 
#    0.000    2.143    0.000    8.571    0.000    0.000 
#    0.000    0.000    0.000    0.000    0.000    0.000 
#
# Total GULP energy -347066.644929 kJ/mol
# GULP energy per Si atom -12395.237319 kJ/mol
# Density = 1.793876 g / cm^3
# Si number density = 17.979678 Si / 1000 Ang^3
#
#
#
# Elastic Constant Matrix: (Units=GPa)
#
#
# Indices 1 2 3 4 5 6 
#
# 1 90.3640 34.2442 45.6138 0.0000 -6.3566 -0.0001
# 2 34.2442 66.5548 41.8303 -0.0001 1.0535 -0.0004
# 3 45.6138 41.8303 119.4935 0.0000 -14.2397 0.0000
# 4 0.0000 -0.0001 0.0000 30.8363 0.0000 -0.2314
# 5 -6.3566 1.0535 -14.2397 0.0000 21.1252 0.0000
# 6 -0.0001 -0.0004 0.0000 -0.2314 0.0000 23.2881
#
#
#
# Elastic Compliance Matrix: (Units=1/GPa)
#
#
# Indices 1 2 3 4 5 6 
#
# 1 0.015147 -0.005619 -0.003521 0.000000 0.002464 0.000000
# 2 -0.005619 0.022071 -0.006430 0.000000 -0.007126 0.000000
# 3 -0.003521 -0.006430 0.012913 0.000000 0.007965 0.000000
# 4 0.000000 0.000000 0.000000 0.032432 0.000000 0.000322
# 5 0.002464 -0.007126 0.007965 0.000000 0.053803 0.000000
# 6 0.000000 0.000000 0.000000 0.000322 0.000000 0.042944
#
#
# Mechanical properties :
#
#
# Convention : Reuss Voigt Hill
#
# Bulk Modulus (GPa) = 52.66213 57.75431 55.20822
# Shear Modulus (GPa) = 23.06491 25.36486 24.21488
#
# Velocity S-wave (km/s) = 3.58555 3.76007 3.67385
# Velocity P-wave (km/s) = 6.81872 7.14441 6.98346
#
# Compressibility (1/GPa) = 0.01898898
#
# Stress axis : x y z
#
# Youngs Moduli (GPa) = 66.02163 45.30874 77.44153
#
# Poissons Ratio (x) = 0.25460 0.27268
# Poissons Ratio (y) = 0.37100 0.49797
# Poissons Ratio (z) = 0.23247 0.29135
#
# Static dielectric constant tensor:
#      x y z
#    x 3.300790 0.000000 -0.285350 
#    y 0.000000 3.260200 0.000000 
#    z -0.285350 0.000000 3.370590 
# 
# 
# High freq. dielectric constant tensor:
#      x y z
#    x 1.680230 0.000000 -0.018430 
#    y 0.000000 1.685190 0.000000 
#    z -0.018430 0.000000 1.690000 
# 
# From -- ./inp_files/313802.got.cif
#   From: 2010.06.25/outbox.cif.g09.slc.cpg/sg12_157_cif.got.tgz:313802.got - 2010.06.28 00:19:55.
