data_PCOD8084004
_publ_section_title
;
Structure prediction by ZEFSAII (Michael W. Deem and Ramdas Pophale) SiO2 
 PCOD8084004
Probable space group: C 2/M
;
_chemical_formula_sum "Si O2"
_cell_formula_units_Z 56
_cell_length_a 26.849746
_cell_length_b 18.529933
_cell_length_c 17.759973
_cell_angle_alpha 90.000000
_cell_angle_beta 19.777076
_cell_angle_gamma 90.000000
_cell_volume 2989.766049
_symmetry_space_group_name_H-M "C 2/M"
_symmetry_group_IT_number 12
_symmetry_cell_setting 'monoclinic'
loop_
_space_group_symop_operation_xyz
x,y,z
-x,y,-z
-x,-y,-z
x,-y,z
1/2+x,1/2+y,z
1/2-x,1/2+y,-z
1/2-x,1/2-y,-z
1/2+x,1/2-y,z
loop_
_atom_site_type_symbol
_atom_site_label
_atom_site_fract_x
_atom_site_fract_y
_atom_site_fract_z
Si Si1 0.369598 0.707979 0.242350
Si Si2 0.811386 0.232635 0.628875
Si Si3 0.046732 0.305328 0.100939
Si Si4 0.891119 0.387921 0.550153
Si Si5 0.206419 0.579461 0.153264
Si Si6 0.379186 0.712212 0.861825
Si Si7 0.835588 0.581547 0.459104
O O1 0.243156 0.753213 0.378954
O O2 0.425460 0.755996 0.231827
O O3 0.303787 0.631690 0.364862
O O4 0.500000 0.688879 0.000000
O O5 0.824201 0.308290 0.654150
O O6 0.973596 0.197618 0.396972
O O7 0.693575 0.183612 0.841506
O O8 0.084310 0.268407 0.125376
O O9 0.980113 0.384150 0.213877
O O10 0.821608 0.432100 0.717865
O O11 0.850734 0.422531 0.527861
O O12 0.066932 0.386700 0.308637
O O13 0.243028 0.500000 0.068276
O O14 0.340105 0.633519 0.948801
O O15 0.250000 0.750000 0.000000
O O16 0.813093 0.500000 0.460671
#
# Coordination Sequence:
#
# PCOD8084004 Si02
#       7
#     8   8   8   8   8   8   8
#     4   9  20  37  60  83 108 145 188 232 286 331
#     4  10  20  36  59  86 105 147 196 238 266 332
#     4  11  21  38  60  80 115 151 191 233 279 338
#     4  10  18  34  55  81 113 146 186 234 282 342
#     4  11  21  33  52  80 119 153 180 228 294 341
#     4  12  22  35  57  86 114 149 195 233 274 339
#     4  11  21  35  57  87 116 146 186 232 290 342
#
# _framework density 18.730563
#
# number of rings (size 3 to 8) (size 9 to 14) (size 15 to 20)
#    0.000    1.429    5.714    2.143    0.000    0.857 
#    0.000    1.429    0.000    3.857    0.000    4.000 
#    0.000    0.000    0.000    0.000    0.000    0.000 
#
# Total GULP energy -347136.317660 kJ/mol
# GULP energy per Si atom -12397.725631 kJ/mol
# Density = 1.868793 g / cm^3
# Si number density = 18.730563 Si / 1000 Ang^3
#
#
#
# Elastic Constant Matrix: (Units=GPa)
#
#
# Indices 1 2 3 4 5 6 
#
# 1 77.4850 25.4813 29.6965 0.0031 -6.6345 -0.0019
# 2 25.4813 95.8200 49.3149 -0.0037 5.7244 0.0000
# 3 29.6965 49.3149 113.3696 -0.0049 -9.4347 -0.0016
# 4 0.0031 -0.0037 -0.0049 22.2218 -0.0014 2.4229
# 5 -6.6345 5.7244 -9.4347 -0.0014 20.6213 0.0017
# 6 -0.0019 0.0000 -0.0016 2.4229 0.0017 13.3845
#
#
#
# Elastic Compliance Matrix: (Units=1/GPa)
#
#
# Indices 1 2 3 4 5 6 
#
# 1 0.015208 -0.003201 -0.002194 -0.000003 0.004778 0.000002
# 2 -0.003201 0.015062 -0.006391 0.000001 -0.008135 0.000000
# 3 -0.002194 -0.006391 0.012750 0.000002 0.006901 0.000000
# 4 -0.000003 0.000001 0.000002 0.045907 0.000004 -0.008310
# 5 0.004778 -0.008135 0.006901 0.000004 0.055446 -0.000006
# 6 0.000002 0.000000 0.000000 -0.008310 -0.000006 0.076217
#
#
# Mechanical properties :
#
#
# Convention : Reuss Voigt Hill
#
# Bulk Modulus (GPa) = 51.41405 55.07333 53.24369
# Shear Modulus (GPa) = 19.94858 23.39098 21.66978
#
# Velocity S-wave (km/s) = 3.26702 3.53769 3.40504
# Velocity P-wave (km/s) = 6.46066 6.79366 6.62925
#
# Compressibility (1/GPa) = 0.01944994
#
# Stress axis : x y z
#
# Youngs Moduli (GPa) = 65.75423 66.39059 78.43395
#
# Poissons Ratio (x) = 0.21249 0.17207
# Poissons Ratio (y) = 0.21045 0.50124
# Poissons Ratio (z) = 0.14425 0.42428
#
# Static dielectric constant tensor:
#      x y z
#    x 3.478850 0.000000 -0.160470 
#    y 0.000000 3.228080 0.000000 
#    z -0.160470 0.000000 3.772790 
# 
# 
# High freq. dielectric constant tensor:
#      x y z
#    x 1.725970 0.000000 -0.005340 
#    y 0.000000 1.701700 0.000000 
#    z -0.005340 0.000000 1.731490 
# 
# From -- ./inp_files/293836.got.cif
#   From: 2010.06.25/outbox.cif.g09.slc.cpg/sg12_147_cif.got.tgz:293836.got - 2010.06.28 00:19:55.
