data_PCOD8084597
_publ_section_title
;
Structure prediction by ZEFSAII (Michael W. Deem and Ramdas Pophale) SiO2 
 PCOD8084597
Probable space group: C 2/M
;
_chemical_formula_sum "Si O2"
_cell_formula_units_Z 52
_cell_length_a 18.805186
_cell_length_b 17.571604
_cell_length_c 8.441278
_cell_angle_alpha 90.000000
_cell_angle_beta 57.111102
_cell_angle_gamma 90.000000
_cell_volume 2342.256094
_symmetry_space_group_name_H-M "C 2/M"
_symmetry_group_IT_number 12
_symmetry_cell_setting 'monoclinic'
loop_
_space_group_symop_operation_xyz
x,y,z
-x,y,-z
-x,-y,-z
x,-y,z
1/2+x,1/2+y,z
1/2-x,1/2+y,-z
1/2-x,1/2-y,-z
1/2+x,1/2-y,z
loop_
_atom_site_type_symbol
_atom_site_label
_atom_site_fract_x
_atom_site_fract_y
_atom_site_fract_z
Si Si1 0.826352 0.835985 0.353429
Si Si2 0.489708 0.298401 0.333227
Si Si3 0.314138 0.822128 0.251962
Si Si4 0.277584 0.086361 0.997073
Si Si5 0.108235 0.914034 0.011860
Si Si6 0.457409 0.123509 0.713466
Si Si7 0.500000 0.122722 0.000000
O O1 0.890859 0.802811 0.407889
O O2 0.738708 0.863124 0.541918
O O3 0.798389 0.767969 0.269791
O O4 0.871923 0.902308 0.198647
O O5 0.500000 0.328067 0.500000
O O6 0.539909 0.353788 0.154366
O O7 0.524627 0.212556 0.275710
O O8 0.415280 0.830449 0.140474
O O9 0.272840 0.856092 0.146724
O O10 0.359644 0.107503 0.794126
O O11 0.282954 0.000000 0.053513
O O12 0.195639 0.099799 0.993477
O O13 0.073877 0.000000 0.077011
O O14 0.500000 0.093318 0.500000
O O15 0.482763 0.079402 0.850468
#
# Coordination Sequence:
#
# PCOD8084597 Si02
#       7
#     8   8   8   8   8   8   4
#     4  11  23  38  66  96 126 163 206 267 319 375
#     4  11  23  40  65  94 125 165 211 262 320 381
#     4  10  22  39  66  92 128 161 210 261 322 376
#     4  10  23  42  60  87 127 171 211 258 315 377
#     4  11  25  41  61  90 128 170 212 259 317 382
#     4  10  22  37  67  93 128 164 215 268 323 381
#     4  10  18  38  61  92 131 160 200 270 308 380
#
# _framework density 22.200816
#
# number of rings (size 3 to 8) (size 9 to 14) (size 15 to 20)
#    0.000    1.538    1.538    3.231    2.154    6.154 
#    0.000    6.154    0.000    0.000    0.000    0.000 
#    0.000    0.000    0.000    0.000    0.000    0.000 
#
# Total GULP energy -322140.254353 kJ/mol
# GULP energy per Si atom -12390.009783 kJ/mol
# Density = 2.215029 g / cm^3
# Si number density = 22.200816 Si / 1000 Ang^3
#
#
#
# Elastic Constant Matrix: (Units=GPa)
#
#
# Indices 1 2 3 4 5 6 
#
# 1 101.1269 30.1258 37.3719 0.0000 -1.1513 0.0000
# 2 30.1258 56.4888 16.6369 0.0000 -0.2231 0.0000
# 3 37.3719 16.6369 151.4586 0.0000 1.7072 0.0000
# 4 0.0000 0.0000 0.0000 5.9592 0.0000 -3.9593
# 5 -1.1513 -0.2231 1.7072 0.0000 40.2789 0.0000
# 6 0.0000 0.0000 0.0000 -3.9593 0.0000 20.0690
#
#
#
# Elastic Compliance Matrix: (Units=1/GPa)
#
#
# Indices 1 2 3 4 5 6 
#
# 1 0.012583 -0.005987 -0.002452 0.000000 0.000430 0.000000
# 2 -0.005987 0.021144 -0.000845 0.000000 -0.000018 0.000000
# 3 -0.002452 -0.000845 0.007305 0.000000 -0.000384 0.000000
# 4 0.000000 0.000000 0.000000 0.193122 0.000000 0.038100
# 5 0.000430 -0.000018 -0.000384 0.000000 0.024855 0.000000
# 6 0.000000 0.000000 0.000000 0.038100 0.000000 0.057345
#
#
# Mechanical properties :
#
#
# Convention : Reuss Voigt Hill
#
# Bulk Modulus (GPa) = 44.51566 53.03819 48.77693
# Shear Modulus (GPa) = 14.60236 28.25740 21.42988
#
# Velocity S-wave (km/s) = 2.56743 3.57152 3.11026
# Velocity P-wave (km/s) = 5.37436 6.39919 5.90904
#
# Compressibility (1/GPa) = 0.02246400
#
# Stress axis : x y z
#
# Youngs Moduli (GPa) = 79.47167 47.29425 136.89866
#
# Poissons Ratio (x) = 0.28314 0.33569
# Poissons Ratio (y) = 0.47578 0.11570
# Poissons Ratio (z) = 0.19487 0.03997
#
# Static dielectric constant tensor:
#      x y z
#    x 4.154570 0.000000 0.048220 
#    y 0.000000 3.724990 0.000000 
#    z 0.048220 0.000000 4.390850 
# 
# 
# High freq. dielectric constant tensor:
#      x y z
#    x 1.886030 0.000000 -0.005370 
#    y 0.000000 1.844930 0.000000 
#    z -0.005370 0.000000 1.888970 
# 
# From -- ./inp_files/88377.got.cif
#   From: 2010.06.25/outbox.cif.g09.slc.cpg/sg12_45_cif.got.tgz:88377.got - 2010.06.28 00:19:55.
