data_PCOD8084263
_publ_section_title
;
Structure prediction by ZEFSAII (Michael W. Deem and Ramdas Pophale) SiO2 
 PCOD8084263
Probable space group: C 2/M
;
_chemical_formula_sum "Si O2"
_cell_formula_units_Z 64
_cell_length_a 23.375080
_cell_length_b 22.329078
_cell_length_c 9.924824
_cell_angle_alpha 90.000000
_cell_angle_beta 132.176202
_cell_angle_gamma 90.000000
_cell_volume 3838.962541
_symmetry_space_group_name_H-M "C 2/M"
_symmetry_group_IT_number 12
_symmetry_cell_setting 'monoclinic'
loop_
_space_group_symop_operation_xyz
x,y,z
-x,y,-z
-x,-y,-z
x,-y,z
1/2+x,1/2+y,z
1/2-x,1/2+y,-z
1/2-x,1/2-y,-z
1/2+x,1/2-y,z
loop_
_atom_site_type_symbol
_atom_site_label
_atom_site_fract_x
_atom_site_fract_y
_atom_site_fract_z
Si Si1 0.495424 0.755139 0.150051
Si Si2 0.990994 0.369106 0.332174
Si Si3 0.669354 0.068696 0.903355
Si Si4 0.273975 0.331020 0.161219
Si Si5 0.740862 0.827663 0.611720
Si Si6 0.654415 0.705676 0.451719
Si Si7 0.332649 0.279156 0.994459
Si Si8 0.353696 0.066892 0.444252
O O1 0.503849 0.814154 0.252704
O O2 0.562166 0.707592 0.293024
O O3 0.415983 0.721640 0.057838
O O4 0.500000 0.772813 0.000000
O O5 0.055711 0.418880 0.407660
O O6 0.000000 0.345139 0.500000
O O7 0.909695 0.400264 0.174426
O O8 0.677964 0.073105 0.756833
O O9 0.670120 0.000000 0.953495
O O10 0.742232 0.102122 0.086728
O O11 0.320585 0.327659 0.373249
O O12 0.334939 0.310527 0.143589
O O13 0.198751 0.288382 0.041306
O O14 0.683231 0.773877 0.484512
O O15 0.809668 0.832566 0.613194
O O16 0.693389 0.889109 0.532716
O O17 0.774368 0.817800 0.812899
O O18 0.341511 0.000000 0.479939
#
# Coordination Sequence:
#
# PCOD8084263 Si02
#       8
#     8   8   8   8   8   8   8   8
#     4  12  22  34  52  81 109 149 171 212 276 331
#     4  10  21  32  51  79 112 143 184 214 247 315
#     4  10  19  34  54  78 108 145 182 219 263 309
#     4  10  20  33  52  79 103 138 176 226 260 312
#     4  10  18  35  50  76 104 137 177 221 258 314
#     4  10  22  32  52  76 107 137 172 221 272 313
#     4  10  20  32  53  75 107 136 178 215 270 313
#     4  10  19  33  55  79 107 146 186 218 255 307
#
# _framework density 16.671171000000001
#
# number of rings (size 3 to 8) (size 9 to 14) (size 15 to 20)
#    0.000    1.750    5.000    0.375    1.750    1.500 
#    0.000    0.625    0.000    0.750    0.000    5.250 
#    0.000    0.000    0.000    0.000    0.000    0.000 
#
# Total GULP energy -396859.434295 kJ/mol
# GULP energy per Si atom -12401.857322 kJ/mol
# Density = 1.663323 g / cm^3
# Si number density = 16.671171 Si / 1000 Ang^3
#
#
#
# Elastic Constant Matrix: (Units=GPa)
#
#
# Indices 1 2 3 4 5 6 
#
# 1 106.6123 40.7994 27.8551 0.0000 0.8550 0.0000
# 2 40.7994 82.4853 35.8460 0.0000 -0.8093 0.0000
# 3 27.8551 35.8460 59.5194 0.0000 -4.3748 0.0000
# 4 0.0000 0.0000 0.0000 18.8735 0.0000 1.5917
# 5 0.8550 -0.8093 -4.3748 0.0000 26.1730 0.0000
# 6 0.0000 0.0000 0.0000 1.5917 0.0000 20.4737
#
#
#
# Elastic Compliance Matrix: (Units=1/GPa)
#
#
# Indices 1 2 3 4 5 6 
#
# 1 0.011917 -0.004671 -0.002838 0.000000 -0.001008 0.000000
# 2 -0.004671 0.018287 -0.008884 0.000000 -0.000767 0.000000
# 3 -0.002838 -0.008884 0.023758 0.000000 0.003789 0.000000
# 4 0.000000 0.000000 0.000000 0.053334 0.000000 -0.004146
# 5 -0.001008 -0.000767 0.003789 0.000000 0.038850 0.000000
# 6 0.000000 0.000000 0.000000 -0.004146 0.000000 0.049166
#
#
# Mechanical properties :
#
#
# Convention : Reuss Voigt Hill
#
# Bulk Modulus (GPa) = 47.22225 50.84645 49.03435
# Shear Modulus (GPa) = 21.26248 22.71180 21.98714
#
# Velocity S-wave (km/s) = 3.57515 3.69499 3.63557
# Velocity P-wave (km/s) = 6.74014 6.98354 6.86292
#
# Compressibility (1/GPa) = 0.02117646
#
# Stress axis : x y z
#
# Youngs Moduli (GPa) = 83.91442 54.68406 42.09055
#
# Poissons Ratio (x) = 0.25543 0.11946
# Poissons Ratio (y) = 0.39196 0.37392
# Poissons Ratio (z) = 0.23816 0.48580
#
# Static dielectric constant tensor:
#      x y z
#    x 3.168300 0.000000 -0.026580 
#    y 0.000000 2.930500 0.000000 
#    z -0.026580 0.000000 3.061370 
# 
# 
# High freq. dielectric constant tensor:
#      x y z
#    x 1.646050 0.000000 -0.002630 
#    y 0.000000 1.613940 0.000000 
#    z -0.002630 0.000000 1.637200 
# 
# From -- ./inp_files/89627.got.cif
#   From: 2010.06.25/outbox.cif.g09.slc.cpg/sg12_45_cif.got.tgz:89627.got - 2010.06.28 00:19:55.
