data_PCOD8084229
_publ_section_title
;
Structure prediction by ZEFSAII (Michael W. Deem and Ramdas Pophale) SiO2 
 PCOD8084229
Probable space group: C 2/M
;
_chemical_formula_sum "Si O2"
_cell_formula_units_Z 64
_cell_length_a 16.622836
_cell_length_b 19.575550
_cell_length_c 17.774859
_cell_angle_alpha 90.000000
_cell_angle_beta 32.985744
_cell_angle_gamma 90.000000
_cell_volume 3148.963169
_symmetry_space_group_name_H-M "C 2/M"
_symmetry_group_IT_number 12
_symmetry_cell_setting 'monoclinic'
loop_
_space_group_symop_operation_xyz
x,y,z
-x,y,-z
-x,-y,-z
x,-y,z
1/2+x,1/2+y,z
1/2-x,1/2+y,-z
1/2-x,1/2-y,-z
1/2+x,1/2-y,z
loop_
_atom_site_type_symbol
_atom_site_label
_atom_site_fract_x
_atom_site_fract_y
_atom_site_fract_z
Si Si1 0.616481 0.919779 0.465634
Si Si2 0.197338 0.165165 0.975952
Si Si3 0.375733 0.187620 0.984760
Si Si4 0.935984 0.919439 0.237122
Si Si5 0.356119 0.886710 0.274415
Si Si6 0.424595 0.579925 0.419400
Si Si7 0.956364 0.424819 0.737313
Si Si8 0.756323 0.423489 0.192463
O O1 0.500000 0.884250 0.500000
O O2 0.782099 0.894021 0.321327
O O3 0.579441 0.902195 0.580948
O O4 0.613456 0.000000 0.454766
O O5 0.256821 0.176506 0.012993
O O6 0.323777 0.127987 0.829459
O O7 0.149259 0.234180 0.969815
O O8 0.058037 0.116081 0.091087
O O9 0.547417 0.181103 0.822337
O O10 0.344161 0.132758 0.075209
O O11 0.940194 0.896929 0.320970
O O12 0.960016 0.000000 0.213013
O O13 0.201534 0.874302 0.440077
O O14 0.469162 0.928280 0.238907
O O15 0.321419 0.926824 0.225209
O O16 0.378170 0.500000 0.462552
O O17 0.582423 0.594261 0.334505
O O18 0.893618 0.500000 0.768256
O O19 0.776195 0.500000 0.141499
#
# Coordination Sequence:
#
# PCOD8084229 Si02
#       8
#     8   8   8   8   8   8   8   8
#     4   9  18  34  56  85 117 145 184 244 302 347
#     4  10  21  39  58  79 113 159 201 243 287 336
#     4  10  23  39  54  79 115 160 205 240 280 337
#     4  10  18  34  61  89 118 149 190 242 297 350
#     4  11  21  35  56  88 126 159 192 237 292 349
#     4  10  19  33  55  90 124 150 187 239 290 347
#     4  10  19  34  61  92 118 150 196 242 291 353
#     4  11  22  36  58  88 124 158 193 239 291 347
#
# _framework density 20.324149999999999
#
# number of rings (size 3 to 8) (size 9 to 14) (size 15 to 20)
#    0.000    1.875    2.500    2.250    0.000    4.500 
#    0.000    5.000    0.000    3.000    0.000    0.000 
#    0.000    0.000    0.000    0.000    0.000    0.000 
#
# Total GULP energy -396573.656414 kJ/mol
# GULP energy per Si atom -12392.926763 kJ/mol
# Density = 2.027789 g / cm^3
# Si number density = 20.324150 Si / 1000 Ang^3
#
#
#
# Elastic Constant Matrix: (Units=GPa)
#
#
# Indices 1 2 3 4 5 6 
#
# 1 92.8786 21.1975 23.0043 -0.0033 -16.5717 -0.0013
# 2 21.1975 82.1677 42.2076 -0.0010 -10.1339 0.0027
# 3 23.0043 42.2076 92.0721 0.0090 -31.8608 0.0011
# 4 -0.0033 -0.0010 0.0090 11.1624 0.0084 -4.3479
# 5 -16.5717 -10.1339 -31.8608 0.0084 33.2733 -0.0019
# 6 -0.0013 0.0027 0.0011 -4.3479 -0.0019 13.5274
#
#
#
# Elastic Compliance Matrix: (Units=1/GPa)
#
#
# Indices 1 2 3 4 5 6 
#
# 1 0.012297 -0.002459 -0.000127 0.000001 0.005254 0.000003
# 2 -0.002459 0.016642 -0.008501 0.000011 -0.004297 0.000000
# 3 -0.000127 -0.008501 0.020746 -0.000034 0.017213 -0.000008
# 4 0.000001 0.000011 -0.000034 0.102407 -0.000053 0.032915
# 5 0.005254 -0.004297 0.017213 -0.000053 0.047845 -0.000010
# 6 0.000003 0.000000 -0.000008 0.032915 -0.000010 0.084503
#
#
# Mechanical properties :
#
#
# Convention : Reuss Voigt Hill
#
# Bulk Modulus (GPa) = 36.35024 48.88188 42.61606
# Shear Modulus (GPa) = 15.83359 23.63990 19.73674
#
# Velocity S-wave (km/s) = 2.79418 3.41419 3.11963
# Velocity P-wave (km/s) = 5.32297 6.29647 5.83008
#
# Compressibility (1/GPa) = 0.02751013
#
# Stress axis : x y z
#
# Youngs Moduli (GPa) = 81.32167 60.09041 48.20112
#
# Poissons Ratio (x) = 0.14777 0.00612
# Poissons Ratio (y) = 0.19998 0.40977
# Poissons Ratio (z) = 0.01033 0.51084
#
# Static dielectric constant tensor:
#      x y z
#    x 3.817460 -0.000010 -0.229350 
#    y -0.000010 3.449360 0.000020 
#    z -0.229350 0.000020 3.737410 
# 
# 
# High freq. dielectric constant tensor:
#      x y z
#    x 1.795290 0.000000 -0.016190 
#    y 0.000000 1.750120 0.000000 
#    z -0.016190 0.000000 1.800150 
# 
# From -- ./inp_files/279077.got.cif
#   From: 2010.06.25/outbox.cif.g09.slc.cpg/sg12_140_cif.got.tgz:279077.got - 2010.06.28 00:19:55.
