data_PCOD8084233
_publ_section_title
;
Structure prediction by ZEFSAII (Michael W. Deem and Ramdas Pophale) SiO2 
 PCOD8084233
Probable space group: C 2/M
;
_chemical_formula_sum "Si O2"
_cell_formula_units_Z 48
_cell_length_a 14.152613
_cell_length_b 13.966979
_cell_length_c 11.723844
_cell_angle_alpha 90.000000
_cell_angle_beta 55.015865
_cell_angle_gamma 90.000000
_cell_volume 1898.706513
_symmetry_space_group_name_H-M "C 2/M"
_symmetry_group_IT_number 12
_symmetry_cell_setting 'monoclinic'
loop_
_space_group_symop_operation_xyz
x,y,z
-x,y,-z
-x,-y,-z
x,-y,z
1/2+x,1/2+y,z
1/2-x,1/2+y,-z
1/2-x,1/2-y,-z
1/2+x,1/2-y,z
loop_
_atom_site_type_symbol
_atom_site_label
_atom_site_fract_x
_atom_site_fract_y
_atom_site_fract_z
Si Si1 0.440785 0.896324 0.413158
Si Si2 0.456646 0.389140 0.158337
Si Si3 0.792660 0.292420 0.674412
Si Si4 0.761199 0.101844 0.616014
Si Si5 0.390690 0.764539 0.837328
Si Si6 0.126437 0.608882 0.944577
O O1 0.401494 0.863339 0.570743
O O2 0.316097 0.906073 0.441228
O O3 0.507032 0.827624 0.283206
O O4 0.501212 0.000000 0.377895
O O5 0.447155 0.500000 0.203738
O O6 0.332422 0.338757 0.261449
O O7 0.554406 0.338023 0.167864
O O8 0.500000 0.381663 0.000000
O O9 0.828042 0.202930 0.565131
O O10 0.795912 0.256299 0.802798
O O11 0.832134 0.000000 0.574531
O O12 0.694102 0.116299 0.781050
O O13 0.328378 0.820942 0.985283
O O14 0.124385 0.500000 0.993199
O O15 0.000000 0.646565 0.000000
#
# Coordination Sequence:
#
# PCOD8084233 Si02
#       6
#     8   8   8   8   8   8
#     4  11  23  42  67  96 132 172 219 277 333 388
#     4  11  26  47  68  97 139 181 221 272 336 402
#     4  12  25  43  66  96 134 179 222 268 329 400
#     4  10  21  38  65  93 121 164 218 271 324 383
#     4  12  24  40  68  99 133 173 220 273 331 398
#     4  10  18  34  61  92 123 156 206 272 329 373
#
# _framework density 25.280369
#
# number of rings (size 3 to 8) (size 9 to 14) (size 15 to 20)
#    0.000    1.000    3.333    3.500    0.000    6.667 
#    0.000    3.333    0.000    2.000    0.000    0.000 
#    0.000    0.000    0.000    0.000    0.000    0.000 
#
# Total GULP energy -297370.498829 kJ/mol
# GULP energy per Si atom -12390.437451 kJ/mol
# Density = 2.522283 g / cm^3
# Si number density = 25.280369 Si / 1000 Ang^3
#
#
#
# Elastic Constant Matrix: (Units=GPa)
#
#
# Indices 1 2 3 4 5 6 
#
# 1 38.7063 16.8355 -3.2904 0.0000 17.4207 0.0000
# 2 16.8355 161.6093 16.8142 0.0000 5.7634 0.0000
# 3 -3.2904 16.8142 97.1747 0.0000 5.4669 0.0000
# 4 0.0000 0.0000 0.0000 25.9399 0.0000 3.3157
# 5 17.4207 5.7634 5.4669 0.0000 42.5806 0.0000
# 6 0.0000 0.0000 0.0000 3.3157 0.0000 10.6016
#
#
#
# Elastic Compliance Matrix: (Units=1/GPa)
#
#
# Indices 1 2 3 4 5 6 
#
# 1 0.033599 -0.003271 0.002470 0.000000 -0.013620 0.000000
# 2 -0.003271 0.006642 -0.001294 0.000000 0.000606 0.000000
# 3 0.002470 -0.001294 0.010723 0.000000 -0.002212 0.000000
# 4 0.000000 0.000000 0.000000 0.040156 0.000000 -0.012559
# 5 -0.013620 0.000606 -0.002212 0.000000 0.029259 0.000000
# 6 0.000000 0.000000 0.000000 -0.012559 0.000000 0.098253
#
#
# Mechanical properties :
#
#
# Convention : Reuss Voigt Hill
#
# Bulk Modulus (GPa) = 21.38023 39.80098 30.59060
# Shear Modulus (GPa) = 20.97199 33.63314 27.30257
#
# Velocity S-wave (km/s) = 2.88336 3.65143 3.28989
# Velocity P-wave (km/s) = 4.42274 5.79269 5.15344
#
# Compressibility (1/GPa) = 0.04677217
#
# Stress axis : x y z
#
# Youngs Moduli (GPa) = 29.76309 150.56641 93.25982
#
# Poissons Ratio (x) = 0.49255 -0.23035
# Poissons Ratio (y) = 0.09737 0.12068
# Poissons Ratio (z) = -0.07351 0.19484
#
# Static dielectric constant tensor:
#      x y z
#    x 4.664420 0.000000 0.317540 
#    y 0.000000 5.456060 0.000000 
#    z 0.317540 0.000000 4.516280 
# 
# 
# High freq. dielectric constant tensor:
#      x y z
#    x 2.000240 0.000000 0.019120 
#    y 0.000000 2.034280 0.000000 
#    z 0.019120 0.000000 2.020700 
# 
# From -- ./inp_files/143546.got.cif
#   From: 2010.06.25/outbox.cif.g09.slc.cpg/sg12_72_cif.got.tgz:143546.got - 2010.06.28 00:19:55.
