data_PCOD8084753
_publ_section_title
;
Structure prediction by ZEFSAII (Michael W. Deem and Ramdas Pophale) SiO2 
 PCOD8084753
Probable space group: C 2/M
;
_chemical_formula_sum "Si O2"
_cell_formula_units_Z 64
_cell_length_a 27.528259
_cell_length_b 9.133942
_cell_length_c 18.502099
_cell_angle_alpha 90.000000
_cell_angle_beta 111.690884
_cell_angle_gamma 90.000000
_cell_volume 4322.780380
_symmetry_space_group_name_H-M "C 2/M"
_symmetry_group_IT_number 12
_symmetry_cell_setting 'monoclinic'
loop_
_space_group_symop_operation_xyz
x,y,z
-x,y,-z
-x,-y,-z
x,-y,z
1/2+x,1/2+y,z
1/2-x,1/2+y,-z
1/2-x,1/2-y,-z
1/2+x,1/2-y,z
loop_
_atom_site_type_symbol
_atom_site_label
_atom_site_fract_x
_atom_site_fract_y
_atom_site_fract_z
Si Si1 0.262148 0.669922 0.118403
Si Si2 0.828987 0.670317 0.043684
Si Si3 0.778763 0.832753 0.408027
Si Si4 0.685910 0.333180 0.425200
Si Si5 0.434007 0.826391 0.030773
Si Si6 0.244359 0.171220 0.258222
Si Si7 0.549044 0.173020 0.119882
Si Si8 0.630437 0.665499 0.257065
O O1 0.273064 0.500000 0.137660
O O2 0.311406 0.737780 0.103385
O O3 0.256109 0.749528 0.190524
O O4 0.209625 0.696784 0.044427
O O5 0.830750 0.500000 0.066217
O O6 0.885553 0.732890 0.051022
O O7 0.726525 0.789392 0.422232
O O8 0.825051 0.813438 0.494301
O O9 0.785381 0.730935 0.341164
O O10 0.774939 0.000000 0.379456
O O11 0.707584 0.500000 0.423198
O O12 0.634423 0.313817 0.346596
O O13 0.488667 0.777211 0.097244
O O14 0.430847 0.000000 0.025127
O O15 0.430633 0.767341 0.946503
O O16 0.185676 0.209845 0.251165
O O17 0.253460 0.000000 0.253449
O O18 0.583768 0.234745 0.203432
O O19 0.553240 0.000000 0.124866
O O20 0.616516 0.500000 0.228597
#
# Coordination Sequence:
#
# PCOD8084753 Si02
#       8
#     8   8   8   8   8   8   8   8
#     4  10  19  29  43  63  81 101 136 173 201 237
#     4   9  17  30  45  59  80 109 135 164 205 243
#     4   9  15  24  39  56  75 103 138 169 195 230
#     4   8  15  26  37  52  78 109 135 161 198 240
#     4   8  15  28  44  59  78 106 137 167 200 237
#     4  10  19  29  40  56  82 112 137 165 203 242
#     4   9  16  27  43  61  79 103 138 172 197 229
#     4   9  17  27  38  56  83 110 134 163 200 238
#
# _framework density 14.805286000000001
#
# number of rings (size 3 to 8) (size 9 to 14) (size 15 to 20)
#    0.000    3.000    0.000    3.375    0.000    4.500 
#    0.000    2.500    0.000    0.000    0.000    0.000 
#    0.000    1.000    0.000   11.500    0.000    3.750 
#
# Total GULP energy -396526.933990 kJ/mol
# GULP energy per Si atom -12391.466687 kJ/mol
# Density = 1.477159 g / cm^3
# Si number density = 14.805286 Si / 1000 Ang^3
#
#
#
# Elastic Constant Matrix: (Units=GPa)
#
#
# Indices 1 2 3 4 5 6 
#
# 1 80.1911 33.1811 44.2541 0.0000 0.7777 0.0000
# 2 33.1811 61.4117 50.1635 0.0000 -3.7532 0.0000
# 3 44.2541 50.1635 118.0286 0.0000 1.9780 0.0000
# 4 0.0000 0.0000 0.0000 26.6931 0.0000 -0.4286
# 5 0.7777 -3.7532 1.9780 0.0000 17.3374 0.0000
# 6 0.0000 0.0000 0.0000 -0.4286 0.0000 16.2956
#
#
#
# Elastic Compliance Matrix: (Units=1/GPa)
#
#
# Indices 1 2 3 4 5 6 
#
# 1 0.017159 -0.006349 -0.003707 0.000000 -0.001721 0.000000
# 2 -0.006349 0.028074 -0.009677 0.000000 0.007466 0.000000
# 3 -0.003707 -0.009677 0.014034 0.000000 -0.003530 0.000000
# 4 0.000000 0.000000 0.000000 0.037479 0.000000 0.000986
# 5 -0.001721 0.007466 -0.003530 0.000000 0.059775 0.000000
# 6 0.000000 0.000000 0.000000 0.000986 0.000000 0.061392
#
#
# Mechanical properties :
#
#
# Convention : Reuss Voigt Hill
#
# Bulk Modulus (GPa) = 50.49532 57.20319 53.84926
# Shear Modulus (GPa) = 18.94088 20.86741 19.90415
#
# Velocity S-wave (km/s) = 3.58066 3.75835 3.67058
# Velocity P-wave (km/s) = 7.16066 7.58646 7.37664
#
# Compressibility (1/GPa) = 0.01980382
#
# Stress axis : x y z
#
# Youngs Moduli (GPa) = 58.27700 35.61967 71.25482
#
# Poissons Ratio (x) = 0.22614 0.26412
# Poissons Ratio (y) = 0.36999 0.68951
# Poissons Ratio (z) = 0.21601 0.34468
#
# Static dielectric constant tensor:
#      x y z
#    x 2.687730 0.000000 0.013440 
#    y 0.000000 2.838010 0.000000 
#    z 0.013440 0.000000 3.097550 
# 
# 
# High freq. dielectric constant tensor:
#      x y z
#    x 1.516680 0.000000 0.000380 
#    y 0.000000 1.566850 0.000000 
#    z 0.000380 0.000000 1.573010 
# 
# From -- ./inp_files/294529.got.cif
#   From: 2010.06.25/outbox.cif.g09.slc.cpg/sg12_148_cif.got.tgz:294529.got - 2010.06.28 00:19:55.
