data_PCOD8084142
_publ_section_title
;
Structure prediction by ZEFSAII (Michael W. Deem and Ramdas Pophale) SiO2 
 PCOD8084142
Probable space group: C 2/M
;
_chemical_formula_sum "Si O2"
_cell_formula_units_Z 56
_cell_length_a 15.238556
_cell_length_b 8.780943
_cell_length_c 24.593806
_cell_angle_alpha 90.000000
_cell_angle_beta 61.741090
_cell_angle_gamma 90.000000
_cell_volume 2898.654574
_symmetry_space_group_name_H-M "C 2/M"
_symmetry_group_IT_number 12
_symmetry_cell_setting 'monoclinic'
loop_
_space_group_symop_operation_xyz
x,y,z
-x,y,-z
-x,-y,-z
x,-y,z
1/2+x,1/2+y,z
1/2-x,1/2+y,-z
1/2-x,1/2-y,-z
1/2+x,1/2-y,z
loop_
_atom_site_type_symbol
_atom_site_label
_atom_site_fract_x
_atom_site_fract_y
_atom_site_fract_z
Si Si1 0.251302 0.323344 0.633312
Si Si2 0.170623 0.680349 0.064051
Si Si3 0.061253 0.321408 0.624550
Si Si4 0.891069 0.672658 0.507251
Si Si5 0.518105 0.679508 0.932422
Si Si6 0.758618 0.180776 0.151414
Si Si7 0.342546 0.180654 0.710311
O O1 0.266074 0.500000 0.642446
O O2 0.137227 0.285947 0.650968
O O3 0.320455 0.281321 0.562402
O O4 0.274993 0.225503 0.679220
O O5 0.177318 0.500000 0.057618
O O6 0.059742 0.735291 0.083325
O O7 0.198045 0.737573 0.116513
O O8 0.250000 0.750000 0.000000
O O9 0.046850 0.500000 0.619338
O O10 0.103690 0.256831 0.555094
O O11 0.953680 0.249977 0.670822
O O12 0.848579 0.500000 0.520508
O O13 0.000000 0.674787 0.500000
O O14 0.504688 0.500000 0.928110
O O15 0.627513 0.738347 0.883785
O O16 0.500000 0.725381 0.000000
O O17 0.705591 0.248443 0.220598
O O18 0.759093 0.000000 0.152508
O O19 0.346746 0.000000 0.712663
#
# Coordination Sequence:
#
# PCOD8084142 Si02
#       7
#     8   8   8   8   8   8   8
#     4  11  22  35  54  84 116 142 176 234 294 323
#     4  11  21  36  58  88 115 147 187 231 283 339
#     4   9  19  35  56  80 109 145 183 225 275 328
#     4  10  18  34  59  82 104 143 192 226 266 334
#     4  10  19  36  58  83 116 149 181 229 283 333
#     4   9  20  37  59  82 109 148 190 228 277 332
#     4  10  20  40  61  76 104 153 197 222 261 340
#
# _framework density 19.319309000000001
#
# number of rings (size 3 to 8) (size 9 to 14) (size 15 to 20)
#    0.000    2.000    2.857    1.286    0.000    1.714 
#    0.000    5.714    0.000    0.000    0.000    0.000 
#    0.000    0.000    0.000    0.000    0.000    0.000 
#
# Total GULP energy -347230.870628 kJ/mol
# GULP energy per Si atom -12401.102522 kJ/mol
# Density = 1.927534 g / cm^3
# Si number density = 19.319309 Si / 1000 Ang^3
#
#
#
# Elastic Constant Matrix: (Units=GPa)
#
#
# Indices 1 2 3 4 5 6 
#
# 1 148.0887 23.9748 74.1399 0.0000 7.8437 0.0000
# 2 23.9748 26.6083 18.5339 0.0000 -1.3497 0.0000
# 3 74.1399 18.5339 162.4009 0.0000 8.8085 0.0000
# 4 0.0000 0.0000 0.0000 10.6139 0.0000 4.3794
# 5 7.8437 -1.3497 8.8085 0.0000 19.5312 0.0000
# 6 0.0000 0.0000 0.0000 4.3794 0.0000 30.1256
#
#
#
# Elastic Compliance Matrix: (Units=1/GPa)
#
#
# Indices 1 2 3 4 5 6 
#
# 1 0.009717 -0.006418 -0.003555 0.000000 -0.002743 0.000000
# 2 -0.006418 0.045558 -0.002645 0.000000 0.006918 0.000000
# 3 -0.003555 -0.002645 0.008216 0.000000 -0.002460 0.000000
# 4 0.000000 0.000000 0.000000 0.100228 0.000000 -0.014570
# 5 -0.002743 0.006918 -0.002460 0.000000 0.053889 0.000000
# 6 0.000000 0.000000 0.000000 -0.014570 0.000000 0.035313
#
#
# Mechanical properties :
#
#
# Convention : Reuss Voigt Hill
#
# Bulk Modulus (GPa) = 26.13985 63.37724 44.75854
# Shear Modulus (GPa) = 17.18767 26.75075 21.96921
#
# Velocity S-wave (km/s) = 2.98596 3.72514 3.37584
# Velocity P-wave (km/s) = 5.04457 7.16789 6.19784
#
# Compressibility (1/GPa) = 0.03825577
#
# Stress axis : x y z
#
# Youngs Moduli (GPa) = 102.91610 21.95003 121.71893
#
# Poissons Ratio (x) = 0.14088 0.43267
# Poissons Ratio (y) = 0.66052 0.32189
# Poissons Ratio (z) = 0.36583 0.05805
#
# Static dielectric constant tensor:
#      x y z
#    x 3.788850 0.000000 -0.055130 
#    y 0.000000 3.205180 0.000000 
#    z -0.055130 0.000000 3.778340 
# 
# 
# High freq. dielectric constant tensor:
#      x y z
#    x 1.767640 0.000000 0.001240 
#    y 0.000000 1.717790 0.000000 
#    z 0.001240 0.000000 1.754090 
# 
# From -- ./inp_files/338555.got.cif
#   From: 2010.06.25/outbox.cif.g09.slc.cpg/sg12_170_cif.got.tgz:338555.got - 2010.06.28 00:19:55.
