data_PCOD8084408
_publ_section_title
;
Structure prediction by ZEFSAII (Michael W. Deem and Ramdas Pophale) SiO2 
 PCOD8084408
Probable space group: C 2/M
;
_chemical_formula_sum "Si O2"
_cell_formula_units_Z 56
_cell_length_a 17.555566
_cell_length_b 15.005700
_cell_length_c 20.435430
_cell_angle_alpha 90.000000
_cell_angle_beta 32.490786
_cell_angle_gamma 90.000000
_cell_volume 2891.756712
_symmetry_space_group_name_H-M "C 2/M"
_symmetry_group_IT_number 12
_symmetry_cell_setting 'monoclinic'
loop_
_space_group_symop_operation_xyz
x,y,z
-x,y,-z
-x,-y,-z
x,-y,z
1/2+x,1/2+y,z
1/2-x,1/2+y,-z
1/2-x,1/2-y,-z
1/2+x,1/2-y,z
loop_
_atom_site_type_symbol
_atom_site_label
_atom_site_fract_x
_atom_site_fract_y
_atom_site_fract_z
Si Si1 0.844383 0.827660 0.120879
Si Si2 0.140453 0.635283 0.938627
Si Si3 0.492618 0.900259 0.834670
Si Si4 0.926630 0.400249 0.736943
Si Si5 0.749829 0.776896 0.687169
Si Si6 0.587201 0.600407 0.336216
Si Si7 0.876466 0.249774 0.459799
O O1 0.840875 0.741032 0.077399
O O2 0.733110 0.898555 0.174297
O O3 0.803654 0.799357 0.224481
O O4 0.000000 0.871398 0.000000
O O5 0.279654 0.589362 0.808764
O O6 0.128687 0.605432 0.022249
O O7 0.000000 0.605290 0.000000
O O8 0.424952 0.873581 0.814407
O O9 0.616503 0.833587 0.761883
O O10 0.555242 0.000000 0.786486
O O11 0.986952 0.500000 0.683091
O O12 0.018566 0.330814 0.629626
O O13 0.865289 0.843665 0.634674
O O14 0.818078 0.731185 0.574608
O O15 0.536057 0.500000 0.391603
O O16 0.457797 0.654665 0.396345
O O17 0.750000 0.250000 0.500000
#
# Coordination Sequence:
#
# PCOD8084408 Si02
#       7
#     8   8   8   8   8   8   8
#     4  10  20  41  64  94 117 160 210 253 310 361
#     4  10  18  35  61  96 131 159 190 244 311 383
#     4  11  21  35  61  97 127 163 203 245 314 385
#     4  11  25  44  64  88 123 169 215 258 307 359
#     4  11  21  37  65  92 123 159 205 251 310 376
#     4  11  23  38  64  98 128 158 198 252 315 377
#     4  12  25  43  60  86 126 167 209 256 304 361
#
# _framework density 19.365390999999999
#
# number of rings (size 3 to 8) (size 9 to 14) (size 15 to 20)
#    0.000    1.143    8.571    1.286    0.000    3.714 
#    2.571    1.429    0.000    0.000    0.000    0.000 
#    0.000    0.000    0.000    0.000    0.000    0.000 
#
# Total GULP energy -347192.876795 kJ/mol
# GULP energy per Si atom -12399.745600 kJ/mol
# Density = 1.932131 g / cm^3
# Si number density = 19.365391 Si / 1000 Ang^3
#
#
#
# Elastic Constant Matrix: (Units=GPa)
#
#
# Indices 1 2 3 4 5 6 
#
# 1 128.6427 45.2136 70.2219 0.0002 7.7234 0.0000
# 2 45.2136 57.0927 21.3663 0.0007 3.8919 -0.0004
# 3 70.2219 21.3663 100.3641 0.0002 11.3481 -0.0008
# 4 0.0002 0.0007 0.0002 8.8478 0.0002 2.2698
# 5 7.7234 3.8919 11.3481 0.0002 43.2066 0.0001
# 6 0.0000 -0.0004 -0.0008 2.2698 0.0001 20.1145
#
#
#
# Elastic Compliance Matrix: (Units=1/GPa)
#
#
# Indices 1 2 3 4 5 6 
#
# 1 0.016116 -0.009294 -0.009343 0.000001 0.000410 -0.000001
# 2 -0.009294 0.024410 0.001409 -0.000002 -0.000907 0.000001
# 3 -0.009343 0.001409 0.016517 0.000000 -0.002795 0.000001
# 4 0.000001 -0.000002 0.000000 0.116391 0.000000 -0.013134
# 5 0.000410 -0.000907 -0.002795 0.000000 0.023887 0.000000
# 6 -0.000001 0.000001 0.000001 -0.013134 0.000000 0.051197
#
#
# Mechanical properties :
#
#
# Convention : Reuss Voigt Hill
#
# Bulk Modulus (GPa) = 44.27603 62.18923 53.23263
# Shear Modulus (GPa) = 17.21145 24.38698 20.79921
#
# Velocity S-wave (km/s) = 2.98446 3.55252 3.28081
# Velocity P-wave (km/s) = 5.89823 7.00075 6.47301
#
# Compressibility (1/GPa) = 0.02258558
#
# Stress axis : x y z
#
# Youngs Moduli (GPa) = 62.05181 40.96658 60.54282
#
# Poissons Ratio (x) = 0.38073 0.56568
# Poissons Ratio (y) = 0.57669 -0.08528
# Poissons Ratio (z) = 0.57978 -0.05770
#
# Static dielectric constant tensor:
#      x y z
#    x 3.717000 0.000000 0.169870 
#    y 0.000000 3.352630 0.000000 
#    z 0.169870 0.000000 4.007260 
# 
# 
# High freq. dielectric constant tensor:
#      x y z
#    x 1.748450 0.000000 0.002680 
#    y 0.000000 1.738080 0.000000 
#    z 0.002680 0.000000 1.763970 
# 
# From -- ./inp_files/316703.got.cif
#   From: 2010.06.25/outbox.cif.g09.slc.cpg/sg12_159_cif.got.tgz:316703.got - 2010.06.28 00:19:55.
