data_PCOD8084990
_publ_section_title
;
Structure prediction by ZEFSAII (Michael W. Deem and Ramdas Pophale) SiO2 
 PCOD8084990
Probable space group: C 2/M
;
_chemical_formula_sum "Si O2"
_cell_formula_units_Z 56
_cell_length_a 19.370685
_cell_length_b 9.136302
_cell_length_c 28.832853
_cell_angle_alpha 90.000000
_cell_angle_beta 38.635553
_cell_angle_gamma 90.000000
_cell_volume 3185.966405
_symmetry_space_group_name_H-M "C 2/M"
_symmetry_group_IT_number 12
_symmetry_cell_setting 'monoclinic'
loop_
_space_group_symop_operation_xyz
x,y,z
-x,y,-z
-x,-y,-z
x,-y,z
1/2+x,1/2+y,z
1/2-x,1/2+y,-z
1/2-x,1/2-y,-z
1/2+x,1/2-y,z
loop_
_atom_site_type_symbol
_atom_site_label
_atom_site_fract_x
_atom_site_fract_y
_atom_site_fract_z
Si Si1 0.108376 0.666876 0.041758
Si Si2 0.957176 0.171902 0.749152
Si Si3 0.303887 0.830974 0.902252
Si Si4 0.873699 0.331254 0.192665
Si Si5 0.393360 0.325963 0.584470
Si Si6 0.130854 0.830537 0.299921
Si Si7 0.172245 0.828745 0.690518
O O1 0.135825 0.500000 0.014248
O O2 0.136209 0.698380 0.080637
O O3 0.977775 0.702183 0.104534
O O4 0.178691 0.769401 0.970769
O O5 0.871097 0.249280 0.827725
O O6 0.937464 0.235963 0.707425
O O7 0.083597 0.204474 0.696606
O O8 0.930995 0.000000 0.765290
O O9 0.297796 0.000000 0.892390
O O10 0.878157 0.500000 0.207611
O O11 0.761465 0.301385 0.223042
O O12 0.879064 0.229040 0.234739
O O13 0.500000 0.274997 0.500000
O O14 0.377260 0.500000 0.591722
O O15 0.405331 0.265494 0.631045
O O16 0.285384 0.253928 0.617892
O O17 0.103319 0.000000 0.316537
O O18 0.196338 0.000000 0.682742
#
# Coordination Sequence:
#
# PCOD8084990 Si02
#       7
#     8   8   8   8   8   8   8
#     4   9  17  29  46  69  94 123 165 212 251 285
#     4  10  19  32  48  70 100 132 162 194 240 295
#     4  10  19  29  45  69  97 128 163 208 250 285
#     4   9  16  31  52  71  92 125 171 212 239 277
#     4   9  18  35  58  78  96 124 163 201 233 275
#     4   8  16  31  52  73  95 125 162 200 237 283
#     4  10  19  29  48  75 101 128 157 194 240 289
#
# _framework density 17.577085
#
# number of rings (size 3 to 8) (size 9 to 14) (size 15 to 20)
#    0.000    2.714    1.429    1.714    0.000    2.000 
#    0.000    4.286    0.000    4.286    0.000    0.000 
#    0.000    0.000    0.000    0.000    0.000    0.000 
#
# Total GULP energy -347093.062366 kJ/mol
# GULP energy per Si atom -12396.180799 kJ/mol
# Density = 1.753708 g / cm^3
# Si number density = 17.577085 Si / 1000 Ang^3
#
#
#
# Elastic Constant Matrix: (Units=GPa)
#
#
# Indices 1 2 3 4 5 6 
#
# 1 113.5680 42.6536 62.7621 -0.0001 -8.3856 0.0003
# 2 42.6536 52.2643 47.4382 -0.0004 -4.6033 0.0001
# 3 62.7621 47.4382 142.3233 0.0000 -13.9514 0.0001
# 4 -0.0001 -0.0004 0.0000 26.0010 0.0000 -3.6688
# 5 -8.3856 -4.6033 -13.9514 0.0000 18.4955 -0.0001
# 6 0.0003 0.0001 0.0001 -3.6688 -0.0001 17.6307
#
#
#
# Elastic Compliance Matrix: (Units=1/GPa)
#
#
# Indices 1 2 3 4 5 6 
#
# 1 0.013768 -0.008211 -0.003156 0.000000 0.001818 0.000000
# 2 -0.008211 0.032330 -0.007269 0.000000 -0.001159 0.000000
# 3 -0.003156 -0.007269 0.011364 0.000000 0.005332 0.000000
# 4 0.000000 0.000000 0.000000 0.039624 0.000000 0.008245
# 5 0.001818 -0.001159 0.005332 0.000000 0.058625 0.000000
# 6 0.000000 0.000000 0.000000 0.008245 0.000000 0.058435
#
#
# Mechanical properties :
#
#
# Convention : Reuss Voigt Hill
#
# Bulk Modulus (GPa) = 49.53153 68.20705 58.86929
# Shear Modulus (GPa) = 19.36886 22.77888 21.07387
#
# Velocity S-wave (km/s) = 3.32315 3.60382 3.46633
# Velocity P-wave (km/s) = 6.55478 7.49703 7.04169
#
# Compressibility (1/GPa) = 0.02018916
#
# Stress axis : x y z
#
# Youngs Moduli (GPa) = 72.63378 30.93087 88.00101
#
# Poissons Ratio (x) = 0.25398 0.27776
# Poissons Ratio (y) = 0.59640 0.63965
# Poissons Ratio (z) = 0.22925 0.22483
#
# Static dielectric constant tensor:
#      x y z
#    x 3.375510 0.000000 -0.116030 
#    y 0.000000 3.149550 0.000000 
#    z -0.116030 0.000000 3.314730 
# 
# 
# High freq. dielectric constant tensor:
#      x y z
#    x 1.663430 0.000000 -0.015220 
#    y 0.000000 1.664860 0.000000 
#    z -0.015220 0.000000 1.674390 
# 
# From -- ./inp_files/342033.got.cif
#   From: 2010.06.25/outbox.cif.g09.slc.cpg/sg12_172_cif.got.tgz:342033.got - 2010.06.28 00:19:55.
