data_PCOD8084552
_publ_section_title
;
Structure prediction by ZEFSAII (Michael W. Deem and Ramdas Pophale) SiO2 
 PCOD8084552
Probable space group: C 2/M
;
_chemical_formula_sum "Si O2"
_cell_formula_units_Z 44
_cell_length_a 14.773562
_cell_length_b 30.019861
_cell_length_c 11.294890
_cell_angle_alpha 90.000000
_cell_angle_beta 152.454422
_cell_angle_gamma 90.000000
_cell_volume 2316.565102
_symmetry_space_group_name_H-M "C 2/M"
_symmetry_group_IT_number 12
_symmetry_cell_setting 'monoclinic'
loop_
_space_group_symop_operation_xyz
x,y,z
-x,y,-z
-x,-y,-z
x,-y,z
1/2+x,1/2+y,z
1/2-x,1/2+y,-z
1/2-x,1/2-y,-z
1/2+x,1/2-y,z
loop_
_atom_site_type_symbol
_atom_site_label
_atom_site_fract_x
_atom_site_fract_y
_atom_site_fract_z
Si Si1 0.035686 0.000000 0.677609
Si Si2 0.341298 0.925566 0.024907
Si Si3 0.500000 0.876465 0.000000
Si Si4 0.398835 0.000000 0.752039
Si Si5 0.622512 0.195043 0.319336
Si Si6 0.395516 0.156231 0.258734
Si Si7 0.976194 0.786643 0.105117
O O1 0.834794 0.000000 0.516789
O O2 0.000000 0.000000 0.500000
O O3 0.154335 0.044943 0.842157
O O4 0.339060 0.904805 0.888510
O O5 0.340578 0.888305 0.124765
O O6 0.535057 0.956716 0.246642
O O7 0.378016 0.847529 0.765881
O O8 0.500000 0.000000 0.000000
O O9 0.554064 0.184107 0.371628
O O10 0.849509 0.206832 0.597913
O O11 0.474391 0.232618 0.094544
O O12 0.500000 0.141403 0.500000
O O13 0.213301 0.189601 0.062007
O O14 0.000000 0.806092 0.000000
#
# Coordination Sequence:
#
# PCOD8084552 Si02
#       7
#     4   8   4   4   8   8   8
#     4  11  19  36  63  86 121 150 186 237 304 371
#     4  10  22  36  59  93 118 149 196 241 301 360
#     4  10  18  37  58  90 124 152 190 255 302 334
#     4  11  19  40  59  84 118 153 181 239 307 355
#     4  10  22  38  59  83 122 156 205 251 289 354
#     4  11  23  40  59  86 120 159 201 246 296 353
#     4  11  21  39  59  84 116 164 208 244 297 346
#
# _framework density 18.993639000000002
#
# number of rings (size 3 to 8) (size 9 to 14) (size 15 to 20)
#    0.000    1.455    5.455    0.545    0.000    4.364 
#    0.000    4.545    0.000    1.091    0.000    0.000 
#    0.000    0.000    0.000    0.000    0.000    0.000 
#
# Total GULP energy -272595.335067 kJ/mol
# GULP energy per Si atom -12390.697048 kJ/mol
# Density = 1.895041 g / cm^3
# Si number density = 18.993639 Si / 1000 Ang^3
#
#
#
# Elastic Constant Matrix: (Units=GPa)
#
#
# Indices 1 2 3 4 5 6 
#
# 1 92.6531 41.2015 42.2533 0.0000 3.4089 0.0000
# 2 41.2015 110.7825 42.5514 0.0000 10.7090 0.0001
# 3 42.2533 42.5514 86.9414 0.0001 14.3267 0.0001
# 4 0.0000 0.0000 0.0001 10.4543 0.0000 -2.6112
# 5 3.4089 10.7090 14.3267 0.0000 33.7102 0.0000
# 6 0.0000 0.0001 0.0001 -2.6112 0.0000 16.7520
#
#
#
# Elastic Compliance Matrix: (Units=1/GPa)
#
#
# Indices 1 2 3 4 5 6 
#
# 1 0.014966 -0.003501 -0.005908 0.000000 0.002109 0.000000
# 2 -0.003501 0.011990 -0.003868 0.000000 -0.001811 0.000000
# 3 -0.005908 -0.003868 0.017168 0.000000 -0.005470 0.000000
# 4 0.000000 0.000000 0.000000 0.099529 0.000000 0.015514
# 5 0.002109 -0.001811 -0.005470 0.000000 0.032351 0.000000
# 6 0.000000 0.000000 0.000000 0.015514 0.000000 0.062112
#
#
# Mechanical properties :
#
#
# Convention : Reuss Voigt Hill
#
# Bulk Modulus (GPa) = 56.91559 60.26548 58.59054
# Shear Modulus (GPa) = 18.48245 23.14136 20.81191
#
# Velocity S-wave (km/s) = 3.12282 3.49431 3.31377
# Velocity P-wave (km/s) = 6.55998 6.93386 6.74951
#
# Compressibility (1/GPa) = 0.01756988
#
# Stress axis : x y z
#
# Youngs Moduli (GPa) = 66.81671 83.40604 58.24893
#
# Poissons Ratio (x) = 0.29200 0.34412
# Poissons Ratio (y) = 0.23392 0.22532
# Poissons Ratio (z) = 0.39474 0.32263
#
# Static dielectric constant tensor:
#      x y z
#    x 3.457330 0.000000 -0.009390 
#    y 0.000000 3.606510 0.000000 
#    z -0.009390 0.000000 3.053490 
# 
# 
# High freq. dielectric constant tensor:
#      x y z
#    x 1.738530 0.000000 0.005390 
#    y 0.000000 1.754390 0.000000 
#    z 0.005390 0.000000 1.717260 
# 
# From -- ./inp_files/149573.got.cif
#   From: 2010.06.25/outbox.cif.g09.slc.cpg/sg12_75_cif.got.tgz:149573.got - 2010.06.28 00:19:55.
