data_PCOD8084810
_publ_section_title
;
Structure prediction by ZEFSAII (Michael W. Deem and Ramdas Pophale) SiO2 
 PCOD8084810
Probable space group: C 2/M
;
_chemical_formula_sum "Si O2"
_cell_formula_units_Z 56
_cell_length_a 28.203351
_cell_length_b 8.902762
_cell_length_c 12.872782
_cell_angle_alpha 90.000000
_cell_angle_beta 88.055803
_cell_angle_gamma 90.000000
_cell_volume 3230.336866
_symmetry_space_group_name_H-M "C 2/M"
_symmetry_group_IT_number 12
_symmetry_cell_setting 'monoclinic'
loop_
_space_group_symop_operation_xyz
x,y,z
-x,y,-z
-x,-y,-z
x,-y,z
1/2+x,1/2+y,z
1/2-x,1/2+y,-z
1/2-x,1/2-y,-z
1/2+x,1/2-y,z
loop_
_atom_site_type_symbol
_atom_site_label
_atom_site_fract_x
_atom_site_fract_y
_atom_site_fract_z
Si Si1 0.227031 0.164022 0.093603
Si Si2 0.315156 0.165131 0.226521
Si Si3 0.334639 0.175162 0.752224
Si Si4 0.988950 0.331636 0.121405
Si Si5 0.916728 0.823502 0.846388
Si Si6 0.748007 0.678056 0.612163
Si Si7 0.605143 0.677086 0.914630
O O1 0.265434 0.134148 0.177305
O O2 0.186853 0.275896 0.135918
O O3 0.205319 0.000000 0.062359
O O4 0.250000 0.250000 0.000000
O O5 0.300218 0.262133 0.328741
O O6 0.349003 0.252957 0.144585
O O7 0.336620 0.000000 0.255028
O O8 0.384721 0.263221 0.751991
O O9 0.298006 0.222352 0.664209
O O10 0.345294 0.000000 0.749562
O O11 0.983404 0.500000 0.166589
O O12 0.940480 0.240742 0.142893
O O13 0.031734 0.248302 0.176432
O O14 0.000000 0.336522 0.000000
O O15 0.921867 0.000000 0.835980
O O16 0.896340 0.779589 0.962777
O O17 0.743485 0.500000 0.606092
O O18 0.750000 0.750000 0.500000
O O19 0.606351 0.500000 0.899179
#
# Coordination Sequence:
#
# PCOD8084810 Si02
#       7
#     8   8   8   8   8   8   8
#     4  10  19  29  42  62  91 125 157 190 228 273
#     4  10  20  32  47  68  93 123 159 195 235 283
#     4  10  20  32  47  68  93 122 157 194 234 282
#     4   9  17  29  45  65  93 130 168 202 236 275
#     4  10  19  30  46  69  99 133 166 200 236 276
#     4  10  21  37  55  73  94 120 153 197 245 291
#     4  10  19  30  45  68  99 132 166 201 236 276
#
# _framework density 17.335653000000001
#
# number of rings (size 3 to 8) (size 9 to 14) (size 15 to 20)
#    0.000    2.143    0.000    3.857    0.000    9.143 
#    0.000    0.000    0.000    0.000    0.000    1.000 
#    0.000    8.000    0.000    0.000    0.000    0.000 
#
# Total GULP energy -346938.219058 kJ/mol
# GULP energy per Si atom -12390.650681 kJ/mol
# Density = 1.729620 g / cm^3
# Si number density = 17.335653 Si / 1000 Ang^3
#
#
#
# Elastic Constant Matrix: (Units=GPa)
#
#
# Indices 1 2 3 4 5 6 
#
# 1 93.5273 44.8373 11.6503 0.0000 8.1526 0.0000
# 2 44.8373 110.2839 30.4068 0.0000 5.6454 0.0000
# 3 11.6503 30.4068 45.7359 0.0000 6.1968 0.0000
# 4 0.0000 0.0000 0.0000 22.7897 0.0000 -2.0871
# 5 8.1526 5.6454 6.1968 0.0000 16.9687 0.0000
# 6 0.0000 0.0000 0.0000 -2.0871 0.0000 33.5683
#
#
#
# Elastic Compliance Matrix: (Units=1/GPa)
#
#
# Indices 1 2 3 4 5 6 
#
# 1 0.013682 -0.005549 0.000888 0.000000 -0.005052 0.000000
# 2 -0.005549 0.013371 -0.007611 0.000000 0.000997 0.000000
# 3 0.000888 -0.007611 0.027788 0.000000 -0.008043 0.000000
# 4 0.000000 0.000000 0.000000 0.044131 0.000000 0.002744
# 5 -0.005052 0.000997 -0.008043 0.000000 0.063964 0.000000
# 6 0.000000 0.000000 0.000000 0.002744 0.000000 0.029961
#
#
# Mechanical properties :
#
#
# Convention : Reuss Voigt Hill
#
# Bulk Modulus (GPa) = 33.00564 47.03731 40.02147
# Shear Modulus (GPa) = 21.97423 25.50886 23.74155
#
# Velocity S-wave (km/s) = 3.56416 3.84013 3.70472
# Velocity P-wave (km/s) = 6.00152 6.84502 6.43710
#
# Compressibility (1/GPa) = 0.03029785
#
# Stress axis : x y z
#
# Youngs Moduli (GPa) = 73.08919 74.78924 35.98652
#
# Poissons Ratio (x) = 0.41500 -0.03197
# Poissons Ratio (y) = 0.40556 0.27390
# Poissons Ratio (z) = -0.06493 0.56923
#
# Static dielectric constant tensor:
#      x y z
#    x 2.988440 0.000000 -0.268280 
#    y 0.000000 3.596930 0.000000 
#    z -0.268280 0.000000 2.610270 
# 
# 
# High freq. dielectric constant tensor:
#      x y z
#    x 1.672210 0.000000 -0.000370 
#    y 0.000000 1.692770 0.000000 
#    z -0.000370 0.000000 1.612710 
# 
# From -- ./inp_files/186384.got.cif
#   From: 2010.06.25/outbox.cif.g09.slc.cpg/sg12_94_cif.got.tgz:186384.got - 2010.06.28 00:19:55.
