data_PCOD8084888
_publ_section_title
;
Structure prediction by ZEFSAII (Michael W. Deem and Ramdas Pophale) SiO2 
 PCOD8084888
Probable space group: C 2/M
;
_chemical_formula_sum "Si O2"
_cell_formula_units_Z 56
_cell_length_a 28.724441
_cell_length_b 8.924227
_cell_length_c 17.379201
_cell_angle_alpha 90.000000
_cell_angle_beta 131.568820
_cell_angle_gamma 90.000000
_cell_volume 3333.082551
_symmetry_space_group_name_H-M "C 2/M"
_symmetry_group_IT_number 12
_symmetry_cell_setting 'monoclinic'
loop_
_space_group_symop_operation_xyz
x,y,z
-x,y,-z
-x,-y,-z
x,-y,z
1/2+x,1/2+y,z
1/2-x,1/2+y,-z
1/2-x,1/2-y,-z
1/2+x,1/2-y,z
loop_
_atom_site_type_symbol
_atom_site_label
_atom_site_fract_x
_atom_site_fract_y
_atom_site_fract_z
Si Si1 0.342871 0.826595 0.582123
Si Si2 0.078105 0.827456 0.708426
Si Si3 0.449749 0.327742 0.626895
Si Si4 0.759844 0.673989 0.632376
Si Si5 0.263609 0.829953 0.242607
Si Si6 0.717848 0.323900 0.892441
Si Si7 0.409137 0.169758 0.430378
O O1 0.413930 0.768916 0.652589
O O2 0.301479 0.738325 0.475274
O O3 0.319485 0.798525 0.643083
O O4 0.339143 0.000000 0.555215
O O5 0.144706 0.781502 0.816314
O O6 0.060154 0.725840 0.615383
O O7 0.024506 0.802413 0.714146
O O8 0.079661 0.000000 0.682711
O O9 0.432336 0.500000 0.620925
O O10 0.428321 0.279773 0.518969
O O11 0.748100 0.500000 0.635067
O O12 0.774384 0.755230 0.728833
O O13 0.250365 0.740502 0.149703
O O14 0.335507 0.820945 0.341945
O O15 0.240695 0.000000 0.206814
O O16 0.728933 0.500000 0.906628
O O17 0.750000 0.250000 0.000000
O O18 0.431095 0.000000 0.471044
#
# Coordination Sequence:
#
# PCOD8084888 Si02
#       7
#     8   8   8   8   8   8   8
#     4  10  20  31  44  66  96 130 168 205 238 276
#     4   9  20  34  47  66  93 126 160 195 236 290
#     4  11  20  30  45  65  93 131 167 195 234 281
#     4  10  19  31  47  67  94 130 167 202 241 281
#     4  10  19  31  49  72  99 128 162 199 240 287
#     4  10  20  36  55  74  98 123 156 200 246 292
#     4  10  19  29  43  66  95 127 162 199 233 274
#
# _framework density 16.801262999999999
#
# number of rings (size 3 to 8) (size 9 to 14) (size 15 to 20)
#    0.000    2.000    1.429    3.000    0.000    6.286 
#    0.000    0.000    0.000    0.000    0.000    1.000 
#    0.000    8.000    0.000    0.000    0.000    0.000 
#
# Total GULP energy -347217.177967 kJ/mol
# GULP energy per Si atom -12400.613499 kJ/mol
# Density = 1.676302 g / cm^3
# Si number density = 16.801263 Si / 1000 Ang^3
#
#
#
# Elastic Constant Matrix: (Units=GPa)
#
#
# Indices 1 2 3 4 5 6 
#
# 1 114.4956 51.1014 37.9751 0.0000 -16.6587 0.0000
# 2 51.1014 98.2351 39.4571 0.0000 -11.3474 0.0000
# 3 37.9751 39.4571 70.4137 0.0000 -16.0102 0.0000
# 4 0.0000 0.0000 0.0000 25.0928 0.0000 -5.6377
# 5 -16.6587 -11.3474 -16.0102 0.0000 18.2843 0.0000
# 6 0.0000 0.0000 0.0000 -5.6377 0.0000 29.4994
#
#
#
# Elastic Compliance Matrix: (Units=1/GPa)
#
#
# Indices 1 2 3 4 5 6 
#
# 1 0.012678 -0.004774 -0.002759 0.000000 0.006172 0.000000
# 2 -0.004774 0.015001 -0.005873 0.000000 -0.000182 0.000000
# 3 -0.002759 -0.005873 0.021950 0.000000 0.013062 0.000000
# 4 0.000000 0.000000 0.000000 0.041640 0.000000 0.007958
# 5 0.006172 -0.000182 0.013062 0.000000 0.071640 0.000000
# 6 0.000000 0.000000 0.000000 0.007958 0.000000 0.035420
#
#
# Mechanical properties :
#
#
# Convention : Reuss Voigt Hill
#
# Bulk Modulus (GPa) = 43.82427 60.02350 51.92388
# Shear Modulus (GPa) = 21.48271 24.88268 23.18269
#
# Velocity S-wave (km/s) = 3.57968 3.85255 3.71862
# Velocity P-wave (km/s) = 6.57465 7.45605 7.02918
#
# Compressibility (1/GPa) = 0.02281841
#
# Stress axis : x y z
#
# Youngs Moduli (GPa) = 78.87917 66.66338 45.55714
#
# Poissons Ratio (x) = 0.31824 0.12568
# Poissons Ratio (y) = 0.37655 0.26754
# Poissons Ratio (z) = 0.21761 0.39149
#
# Static dielectric constant tensor:
#      x y z
#    x 3.411800 0.000000 -0.087470 
#    y 0.000000 3.332170 0.000000 
#    z -0.087470 0.000000 2.790070 
# 
# 
# High freq. dielectric constant tensor:
#      x y z
#    x 1.652260 0.000000 -0.011820 
#    y 0.000000 1.666880 0.000000 
#    z -0.011820 0.000000 1.594810 
# 
# From -- ./inp_files/243659.got.cif
#   From: 2010.06.25/outbox.cif.g09.slc.cpg/sg12_122_cif.got.tgz:243659.got - 2010.06.28 00:19:55.
