data_PCOD8084567
_publ_section_title
;
Structure prediction by ZEFSAII (Michael W. Deem and Ramdas Pophale) SiO2 
 PCOD8084567
Probable space group: C 2/M
;
_chemical_formula_sum "Si O2"
_cell_formula_units_Z 56
_cell_length_a 21.058255
_cell_length_b 17.717622
_cell_length_c 9.265370
_cell_angle_alpha 90.000000
_cell_angle_beta 56.837751
_cell_angle_gamma 90.000000
_cell_volume 2893.882173
_symmetry_space_group_name_H-M "C 2/M"
_symmetry_group_IT_number 12
_symmetry_cell_setting 'monoclinic'
loop_
_space_group_symop_operation_xyz
x,y,z
-x,y,-z
-x,-y,-z
x,-y,z
1/2+x,1/2+y,z
1/2-x,1/2+y,-z
1/2-x,1/2-y,-z
1/2+x,1/2-y,z
loop_
_atom_site_type_symbol
_atom_site_label
_atom_site_fract_x
_atom_site_fract_y
_atom_site_fract_z
Si Si1 0.068333 0.416390 0.807830
Si Si2 0.737493 0.912256 0.297440
Si Si3 0.415400 0.322770 0.587456
Si Si4 0.569164 0.851798 0.509934
Si Si5 0.184209 0.830393 0.535425
Si Si6 0.664888 0.213293 0.777173
Si Si7 0.314530 0.302374 0.983571
O O1 0.098138 0.500000 0.725763
O O2 0.040959 0.366448 0.707432
O O3 0.135254 0.371842 0.805300
O O4 0.000000 0.425623 0.000000
O O5 0.647974 0.896775 0.394920
O O6 0.771898 0.886264 0.409929
O O7 0.779738 0.872966 0.111951
O O8 0.753616 0.000000 0.262554
O O9 0.500000 0.355491 0.500000
O O10 0.416884 0.234921 0.544121
O O11 0.374525 0.368313 0.505863
O O12 0.371035 0.334222 0.792523
O O13 0.500000 0.884711 0.500000
O O14 0.243802 0.787385 0.355687
O O15 0.135639 0.767691 0.684327
O O16 0.640013 0.249268 0.960234
O O17 0.250000 0.250000 0.000000
#
# Coordination Sequence:
#
# PCOD8084567 Si02
#       7
#     8   8   8   8   8   8   8
#     4  11  24  37  51  82 129 171 201 235 288 359
#     4  11  23  40  64  90 121 165 204 244 304 367
#     4  11  22  38  64  96 118 154 200 256 314 358
#     4  11  22  37  59  90 129 164 200 243 297 367
#     4  10  18  37  61  85 111 149 210 251 292 348
#     4  10  19  33  58  80 114 163 199 248 286 337
#     4  11  21  38  61  90 125 155 201 258 298 353
#
# _framework density 19.351168000000001
#
# number of rings (size 3 to 8) (size 9 to 14) (size 15 to 20)
#    0.000    1.286    5.714    1.286    4.000    1.143 
#    0.000    5.000    0.000    2.571    0.000    0.000 
#    0.000    0.000    0.000    0.000    0.000    0.000 
#
# Total GULP energy -347009.941201 kJ/mol
# GULP energy per Si atom -12393.212186 kJ/mol
# Density = 1.930712 g / cm^3
# Si number density = 19.351168 Si / 1000 Ang^3
#
#
#
# Elastic Constant Matrix: (Units=GPa)
#
#
# Indices 1 2 3 4 5 6 
#
# 1 144.0986 33.7276 59.4943 0.0000 10.6095 0.0000
# 2 33.7276 86.4616 25.9200 0.0000 3.9236 0.0000
# 3 59.4943 25.9200 121.0254 0.0000 7.4890 0.0000
# 4 0.0000 0.0000 0.0000 20.8781 0.0000 -0.6437
# 5 10.6095 3.9236 7.4890 0.0000 24.4976 0.0000
# 6 0.0000 0.0000 0.0000 -0.6437 0.0000 16.6251
#
#
#
# Elastic Compliance Matrix: (Units=1/GPa)
#
#
# Indices 1 2 3 4 5 6 
#
# 1 0.009282 -0.002337 -0.003911 0.000000 -0.002450 0.000000
# 2 -0.002337 0.012982 -0.001596 0.000000 -0.000579 0.000000
# 3 -0.003911 -0.001596 0.010607 0.000000 -0.001293 0.000000
# 4 0.000000 0.000000 0.000000 0.047954 0.000000 0.001857
# 5 -0.002450 -0.000579 -0.001293 0.000000 0.042370 0.000000
# 6 0.000000 0.000000 0.000000 0.001857 0.000000 0.060222
#
#
# Mechanical properties :
#
#
# Convention : Reuss Voigt Hill
#
# Bulk Modulus (GPa) = 58.19371 65.54104 61.86737
# Shear Modulus (GPa) = 24.41035 27.89641 26.15338
#
# Velocity S-wave (km/s) = 3.55553 3.80094 3.68028
# Velocity P-wave (km/s) = 6.85518 7.29423 7.07811
#
# Compressibility (1/GPa) = 0.01718399
#
# Stress axis : x y z
#
# Youngs Moduli (GPa) = 107.73918 77.02878 94.27840
#
# Poissons Ratio (x) = 0.18003 0.36868
# Poissons Ratio (y) = 0.25180 0.15043
# Poissons Ratio (z) = 0.42132 0.12291
#
# Static dielectric constant tensor:
#      x y z
#    x 3.994530 0.000000 0.232790 
#    y 0.000000 3.366730 0.000000 
#    z 0.232790 0.000000 3.777030 
# 
# 
# High freq. dielectric constant tensor:
#      x y z
#    x 1.753230 0.000000 0.013850 
#    y 0.000000 1.721370 0.000000 
#    z 0.013850 0.000000 1.762710 
# 
# From -- ./inp_files/75883.got.cif
#   From: 2010.06.25/outbox.cif.g09.slc.cpg/sg12_38_cif.got.tgz:75883.got - 2010.06.28 00:19:55.
