data_PCOD8084862
_publ_section_title
;
Structure prediction by ZEFSAII (Michael W. Deem and Ramdas Pophale) SiO2 
 PCOD8084862
Probable space group: C 2/M
;
_chemical_formula_sum "Si O2"
_cell_formula_units_Z 64
_cell_length_a 27.451939
_cell_length_b 8.822142
_cell_length_c 16.231346
_cell_angle_alpha 90.000000
_cell_angle_beta 86.000328
_cell_angle_gamma 90.000000
_cell_volume 3921.412856
_symmetry_space_group_name_H-M "C 2/M"
_symmetry_group_IT_number 12
_symmetry_cell_setting 'monoclinic'
loop_
_space_group_symop_operation_xyz
x,y,z
-x,y,-z
-x,-y,-z
x,-y,z
1/2+x,1/2+y,z
1/2-x,1/2+y,-z
1/2-x,1/2-y,-z
1/2+x,1/2-y,z
loop_
_atom_site_type_symbol
_atom_site_label
_atom_site_fract_x
_atom_site_fract_y
_atom_site_fract_z
Si Si1 0.290633 0.829360 0.102794
Si Si2 0.349417 0.824711 0.779803
Si Si3 0.422942 0.322810 0.647462
Si Si4 0.287494 0.821412 0.432303
Si Si5 0.517704 0.170363 0.591060
Si Si6 0.320044 0.329374 0.943362
Si Si7 0.239934 0.824654 0.734232
Si Si8 0.611803 0.322641 0.530122
O O1 0.236113 0.832518 0.075280
O O2 0.293111 0.732363 0.186058
O O3 0.309141 0.000000 0.117506
O O4 0.325779 0.750927 0.031359
O O5 0.388172 0.729041 0.724475
O O6 0.350769 0.765613 0.873249
O O7 0.296657 0.798340 0.746217
O O8 0.364185 0.000000 0.776842
O O9 0.432584 0.500000 0.652105
O O10 0.475106 0.241077 0.652222
O O11 0.397920 0.280409 0.563738
O O12 0.250000 0.750000 0.500000
O O13 0.273539 0.774106 0.342422
O O14 0.341660 0.769548 0.446460
O O15 0.283885 0.000000 0.441149
O O16 0.500000 0.171729 0.500000
O O17 0.566451 0.271252 0.592387
O O18 0.528879 0.000000 0.619929
O O19 0.340769 0.500000 0.946230
O O20 0.228149 0.000000 0.719095
O O21 0.620961 0.500000 0.541453
#
# Coordination Sequence:
#
# PCOD8084862 Si02
#       8
#     8   8   8   8   8   8   8   8
#     4   9  16  27  43  62  85 114 149 186 223 265
#     4  10  19  29  43  64  91 121 152 187 227 272
#     4  10  19  30  46  67  91 119 150 185 227 274
#     4  12  24  36  49  66  90 121 157 194 231 268
#     4   9  17  30  48  68  89 114 146 184 226 271
#     4   9  16  26  41  61  86 116 148 182 222 268
#     4  10  20  33  47  64  88 120 157 193 229 268
#     4  10  20  34  50  67  89 118 153 191 229 269
#
# _framework density 16.320649
#
# number of rings (size 3 to 8) (size 9 to 14) (size 15 to 20)
#    0.000    2.125    0.000    4.500    0.000    9.500 
#    0.000    0.000    0.000    0.000    0.000    0.000 
#    0.000    1.000    0.000   10.000    0.000    6.500 
#
# Total GULP energy -396855.547164 kJ/mol
# GULP energy per Si atom -12401.735849 kJ/mol
# Density = 1.628350 g / cm^3
# Si number density = 16.320649 Si / 1000 Ang^3
#
#
#
# Elastic Constant Matrix: (Units=GPa)
#
#
# Indices 1 2 3 4 5 6 
#
# 1 56.1070 33.3908 35.8715 0.0000 -8.7230 0.0000
# 2 33.3908 100.7567 36.6007 0.0000 -2.0281 0.0000
# 3 35.8715 36.6007 95.9104 0.0000 -14.0486 0.0000
# 4 0.0000 0.0000 0.0000 31.7831 0.0000 -5.3057
# 5 -8.7230 -2.0281 -14.0486 0.0000 13.8191 0.0000
# 6 0.0000 0.0000 0.0000 -5.3057 0.0000 25.9991
#
#
#
# Elastic Compliance Matrix: (Units=1/GPa)
#
#
# Indices 1 2 3 4 5 6 
#
# 1 0.027260 -0.006568 -0.006239 0.000000 0.009901 0.000000
# 2 -0.006568 0.013232 -0.003426 0.000000 -0.005687 0.000000
# 3 -0.006239 -0.003426 0.015764 0.000000 0.011585 0.000000
# 4 0.000000 0.000000 0.000000 0.032573 0.000000 0.006647
# 5 0.009901 -0.005687 0.011585 0.000000 0.089556 0.000000
# 6 0.000000 0.000000 0.000000 0.006647 0.000000 0.039819
#
#
# Mechanical properties :
#
#
# Convention : Reuss Voigt Hill
#
# Bulk Modulus (GPa) = 42.03441 51.61113 46.82277
# Shear Modulus (GPa) = 19.33490 24.11435 21.72462
#
# Velocity S-wave (km/s) = 3.44567 3.84804 3.65240
# Velocity P-wave (km/s) = 6.45302 7.17183 6.82190
#
# Compressibility (1/GPa) = 0.02379003
#
# Stress axis : x y z
#
# Youngs Moduli (GPa) = 36.68362 75.57652 63.43592
#
# Poissons Ratio (x) = 0.49642 0.39576
# Poissons Ratio (y) = 0.24096 0.21731
# Poissons Ratio (z) = 0.22886 0.25890
#
# Static dielectric constant tensor:
#      x y z
#    x 2.935820 0.000000 -0.137370 
#    y 0.000000 3.300330 0.000000 
#    z -0.137370 0.000000 3.120660 
# 
# 
# High freq. dielectric constant tensor:
#      x y z
#    x 1.586850 0.000000 -0.023460 
#    y 0.000000 1.651780 0.000000 
#    z -0.023460 0.000000 1.618150 
# 
# From -- ./inp_files/243929.got.cif
#   From: 2010.06.25/outbox.cif.g09.slc.cpg/sg12_122_cif.got.tgz:243929.got - 2010.06.28 00:19:55.
