data_PCOD8084580
_publ_section_title
;
Structure prediction by ZEFSAII (Michael W. Deem and Ramdas Pophale) SiO2 
 PCOD8084580
Probable space group: C 2/M
;
_chemical_formula_sum "Si O2"
_cell_formula_units_Z 44
_cell_length_a 14.019473
_cell_length_b 15.690409
_cell_length_c 11.125718
_cell_angle_alpha 90.000000
_cell_angle_beta 57.358520
_cell_angle_gamma 90.000000
_cell_volume 2060.810864
_symmetry_space_group_name_H-M "C 2/M"
_symmetry_group_IT_number 12
_symmetry_cell_setting 'monoclinic'
loop_
_space_group_symop_operation_xyz
x,y,z
-x,y,-z
-x,-y,-z
x,-y,z
1/2+x,1/2+y,z
1/2-x,1/2+y,-z
1/2-x,1/2-y,-z
1/2+x,1/2-y,z
loop_
_atom_site_type_symbol
_atom_site_label
_atom_site_fract_x
_atom_site_fract_y
_atom_site_fract_z
Si Si1 0.249376 0.278098 0.202163
Si Si2 0.195418 0.000000 0.332430
Si Si3 0.549387 0.329992 0.790526
Si Si4 0.881569 0.676950 0.927097
Si Si5 0.590440 0.500000 0.160604
Si Si6 0.655263 0.000000 0.980640
Si Si7 0.879066 0.830046 0.523262
O O1 0.354813 0.337318 0.171340
O O2 0.163176 0.332046 0.179379
O O3 0.188519 0.244240 0.362949
O O4 0.283113 0.199561 0.090866
O O5 0.189864 0.082155 0.420565
O O6 0.909578 0.000000 0.693291
O O7 0.315467 0.000000 0.181119
O O8 0.478855 0.246415 0.873437
O O9 0.473925 0.415321 0.842123
O O10 0.608941 0.308615 0.624385
O O11 0.921450 0.581839 0.934316
O O12 0.722690 0.500000 0.028944
O O13 0.000000 0.840912 0.500000
#
# Coordination Sequence:
#
# PCOD8084580 Si02
#       7
#     8   4   8   8   4   4   8
#     4  11  23  39  61  91 129 166 210 259 318 384
#     4  10  18  37  66  95 119 161 219 263 321 359
#     4  12  24  38  65  98 128 166 212 263 318 380
#     4  11  22  43  62  89 129 169 210 255 321 382
#     4  10  19  37  60  97 123 156 212 264 319 357
#     4  10  20  39  68  87 123 174 205 263 309 371
#     4  12  19  38  64  93 127 165 210 265 316 372
#
# _framework density 21.350819999999999
#
# number of rings (size 3 to 8) (size 9 to 14) (size 15 to 20)
#    0.545    0.364    5.455    4.091    0.000    0.727 
#    0.000    5.455    0.000    3.273    0.000    0.000 
#    0.000    0.000    0.000    0.000    0.000    0.000 
#
# Total GULP energy -272719.631994 kJ/mol
# GULP energy per Si atom -12396.346909 kJ/mol
# Density = 2.130222 g / cm^3
# Si number density = 21.350820 Si / 1000 Ang^3
#
#
#
# Elastic Constant Matrix: (Units=GPa)
#
#
# Indices 1 2 3 4 5 6 
#
# 1 56.4113 -5.3249 13.4700 0.0000 4.3471 0.0000
# 2 -5.3249 118.2268 45.5784 0.0000 -18.9020 0.0000
# 3 13.4700 45.5784 92.2158 0.0000 2.4389 0.0000
# 4 0.0000 0.0000 0.0000 21.8084 0.0000 -3.1891
# 5 4.3471 -18.9020 2.4389 0.0000 22.6904 0.0000
# 6 0.0000 0.0000 0.0000 -3.1891 0.0000 19.0134
#
#
#
# Elastic Compliance Matrix: (Units=1/GPa)
#
#
# Indices 1 2 3 4 5 6 
#
# 1 0.018930 0.002052 -0.003739 0.000000 -0.001516 0.000000
# 2 0.002052 0.013071 -0.007058 0.000000 0.011254 0.000000
# 3 -0.003739 -0.007058 0.015058 0.000000 -0.006782 0.000000
# 4 0.000000 0.000000 0.000000 0.047007 0.000000 0.007884
# 5 -0.001516 0.011254 -0.006782 0.000000 0.054466 0.000000
# 6 0.000000 0.000000 0.000000 0.007884 0.000000 0.053917
#
#
# Mechanical properties :
#
#
# Convention : Reuss Voigt Hill
#
# Bulk Modulus (GPa) = 33.81925 41.58898 37.70411
# Shear Modulus (GPa) = 21.75848 26.91114 24.33481
#
# Velocity S-wave (km/s) = 3.19579 3.55410 3.37970
# Velocity P-wave (km/s) = 5.43062 6.03020 5.73824
#
# Compressibility (1/GPa) = 0.02956896
#
# Stress axis : x y z
#
# Youngs Moduli (GPa) = 52.82548 76.50584 66.40985
#
# Poissons Ratio (x) = -0.15698 0.24832
# Poissons Ratio (y) = -0.10839 0.46870
# Poissons Ratio (z) = 0.19752 0.53996
#
# Static dielectric constant tensor:
#      x y z
#    x 3.644190 0.000000 0.113920 
#    y 0.000000 3.651560 0.000000 
#    z 0.113920 0.000000 4.082770 
# 
# 
# High freq. dielectric constant tensor:
#      x y z
#    x 1.820680 0.000000 0.006580 
#    y 0.000000 1.826480 0.000000 
#    z 0.006580 0.000000 1.836730 
# 
# From -- ./inp_files/142669.got.cif
#   From: 2010.06.25/outbox.cif.g09.slc.cpg/sg12_72_cif.got.tgz:142669.got - 2010.06.28 00:19:55.
