data_PCOD8084653
_publ_section_title
;
Structure prediction by ZEFSAII (Michael W. Deem and Ramdas Pophale) SiO2 
 PCOD8084653
Probable space group: C 2/M
;
_chemical_formula_sum "Si O2"
_cell_formula_units_Z 56
_cell_length_a 9.606578
_cell_length_b 25.425132
_cell_length_c 17.619629
_cell_angle_alpha 90.000000
_cell_angle_beta 125.822867
_cell_angle_gamma 90.000000
_cell_volume 3489.463470
_symmetry_space_group_name_H-M "C 2/M"
_symmetry_group_IT_number 12
_symmetry_cell_setting 'monoclinic'
loop_
_space_group_symop_operation_xyz
x,y,z
-x,y,-z
-x,-y,-z
x,-y,z
1/2+x,1/2+y,z
1/2-x,1/2+y,-z
1/2-x,1/2-y,-z
1/2+x,1/2-y,z
loop_
_atom_site_type_symbol
_atom_site_label
_atom_site_fract_x
_atom_site_fract_y
_atom_site_fract_z
Si Si1 0.317206 0.613919 0.652828
Si Si2 0.484375 0.439229 0.842537
Si Si3 0.667493 0.799816 0.511843
Si Si4 0.379675 0.441279 0.524666
Si Si5 0.469116 0.102284 0.617507
Si Si6 0.141471 0.439327 0.815871
Si Si7 0.859651 0.562246 0.014074
O O1 0.435565 0.604108 0.763383
O O2 0.293351 0.674158 0.616141
O O3 0.412221 0.583978 0.616135
O O4 0.125966 0.591000 0.609370
O O5 0.488475 0.500000 0.813031
O O6 0.345990 0.435544 0.866111
O O7 0.668821 0.420179 0.930384
O O8 0.500000 0.778521 0.500000
O O9 0.750000 0.750000 0.500000
O O10 0.618407 0.841727 0.430275
O O11 0.500000 0.412563 0.500000
O O12 0.446819 0.500000 0.553788
O O13 0.178606 0.440976 0.438931
O O14 0.538494 0.098867 0.725741
O O15 0.082110 0.500000 0.785923
O O16 0.101912 0.418392 0.888002
O O17 0.870077 0.500000 0.016658
O O18 0.000000 0.586003 0.000000
#
# Coordination Sequence:
#
# PCOD8084653 Si02
#       7
#     8   8   8   8   8   8   8
#     4   9  18  31  46  63  83 112 150 184 214 255
#     4   9  16  27  44  64  86 115 150 182 209 243
#     4   9  18  32  48  66  87 110 140 180 225 270
#     4  10  19  27  37  59  90 118 142 172 212 257
#     4   9  18  31  46  63  83 112 150 184 214 255
#     4   9  16  27  44  64  86 115 150 182 209 243
#     4   9  17  27  39  59  90 123 148 173 208 249
#
# _framework density 16.048313
#
# number of rings (size 3 to 8) (size 9 to 14) (size 15 to 20)
#    0.000    2.857    0.000    2.571    0.000    7.429 
#    0.000    2.857    0.000    0.000    0.000    1.000 
#    0.000    0.000    0.000    0.000    0.000    0.000 
#
# Total GULP energy -346925.970106 kJ/mol
# GULP energy per Si atom -12390.213218 kJ/mol
# Density = 1.601179 g / cm^3
# Si number density = 16.048313 Si / 1000 Ang^3
#
#
#
# Elastic Constant Matrix: (Units=GPa)
#
#
# Indices 1 2 3 4 5 6 
#
# 1 79.3704 26.2098 32.0457 0.0000 -22.9524 0.0000
# 2 26.2098 55.8249 26.4975 0.0000 -8.8676 0.0000
# 3 32.0457 26.4975 85.2787 0.0000 -15.0548 0.0000
# 4 0.0000 0.0000 0.0000 13.6413 0.0000 -3.4568
# 5 -22.9524 -8.8676 -15.0548 0.0000 27.2192 0.0000
# 6 0.0000 0.0000 0.0000 -3.4568 0.0000 20.4908
#
#
#
# Elastic Compliance Matrix: (Units=1/GPa)
#
#
# Indices 1 2 3 4 5 6 
#
# 1 0.019465 -0.005524 -0.003345 0.000000 0.012764 0.000000
# 2 -0.005524 0.022900 -0.005037 0.000000 0.000017 0.000000
# 3 -0.003345 -0.005037 0.015250 0.000000 0.003973 0.000000
# 4 0.000000 0.000000 0.000000 0.076581 0.000000 0.012919
# 5 0.012764 0.000017 0.003973 0.000000 0.049705 0.000000
# 6 0.000000 0.000000 0.000000 0.012919 0.000000 0.050982
#
#
# Mechanical properties :
#
#
# Convention : Reuss Voigt Hill
#
# Bulk Modulus (GPa) = 33.55266 43.33113 38.44189
# Shear Modulus (GPa) = 18.34011 21.31832 19.82922
#
# Velocity S-wave (km/s) = 3.38421 3.64865 3.51892
# Velocity P-wave (km/s) = 6.01857 6.69397 6.36524
#
# Compressibility (1/GPa) = 0.02980390
#
# Stress axis : x y z
#
# Youngs Moduli (GPa) = 51.37507 43.66841 65.57570
#
# Poissons Ratio (x) = 0.24120 0.21934
# Poissons Ratio (y) = 0.28377 0.33029
# Poissons Ratio (z) = 0.17184 0.21995
#
# Static dielectric constant tensor:
#      x y z
#    x 3.306590 0.000000 -0.088200 
#    y 0.000000 2.608640 0.000000 
#    z -0.088200 0.000000 3.081830 
# 
# 
# High freq. dielectric constant tensor:
#      x y z
#    x 1.630300 0.000000 -0.007310 
#    y 0.000000 1.559810 0.000000 
#    z -0.007310 0.000000 1.612490 
# 
# From -- ./inp_files/200646.got.cif
#   From: 2010.06.25/outbox.cif.g09.slc.cpg/sg12_101_cif.got.tgz:200646.got - 2010.06.28 00:19:55.
