data_PCOD8084531
_publ_section_title
;
Structure prediction by ZEFSAII (Michael W. Deem and Ramdas Pophale) SiO2 
 PCOD8084531
Probable space group: C 2/M
;
_chemical_formula_sum "Si O2"
_cell_formula_units_Z 56
_cell_length_a 9.578716
_cell_length_b 17.101423
_cell_length_c 20.933581
_cell_angle_alpha 90.000000
_cell_angle_beta 51.896608
_cell_angle_gamma 90.000000
_cell_volume 2698.371779
_symmetry_space_group_name_H-M "C 2/M"
_symmetry_group_IT_number 12
_symmetry_cell_setting 'monoclinic'
loop_
_space_group_symop_operation_xyz
x,y,z
-x,y,-z
-x,-y,-z
x,-y,z
1/2+x,1/2+y,z
1/2-x,1/2+y,-z
1/2-x,1/2-y,-z
1/2+x,1/2-y,z
loop_
_atom_site_type_symbol
_atom_site_label
_atom_site_fract_x
_atom_site_fract_y
_atom_site_fract_z
Si Si1 0.549992 0.590416 0.649639
Si Si2 0.048336 0.676149 0.315511
Si Si3 0.987717 0.590165 0.108369
Si Si4 0.613351 0.408331 0.773434
Si Si5 0.209262 0.673434 0.727883
Si Si6 0.131339 0.587799 0.521244
Si Si7 0.223656 0.088684 0.066294
O O1 0.594419 0.500000 0.643061
O O2 0.585926 0.628053 0.709852
O O3 0.348373 0.602077 0.682810
O O4 0.683881 0.623814 0.558044
O O5 0.189571 0.608947 0.256230
O O6 0.167176 0.753121 0.290262
O O7 0.897327 0.689510 0.306182
O O8 0.944774 0.650328 0.407870
O O9 0.010463 0.500000 0.126249
O O10 0.937697 0.650439 0.178195
O O11 0.833121 0.592090 0.100403
O O12 0.167964 0.624788 0.024307
O O13 0.578804 0.500000 0.780230
O O14 0.467038 0.371222 0.863823
O O15 0.154964 0.500000 0.544896
O O16 0.000000 0.580046 0.500000
O O17 0.192859 0.000000 0.054193
#
# Coordination Sequence:
#
# PCOD8084531 Si02
#       7
#     8   8   8   8   8   8   8
#     4  10  20  38  67  94 121 157 200 249 303 362
#     4  12  27  42  59  86 125 165 212 250 303 360
#     4   9  17  34  63  96 123 154 200 253 302 358
#     4  10  18  36  65  94 121 158 202 248 302 366
#     4  12  26  42  59  86 125 169 207 252 301 359
#     4  10  21  41  69  96 120 153 199 252 306 363
#     4   8  15  30  63  99 121 151 197 249 305 361
#
# _framework density 20.753257999999999
#
# number of rings (size 3 to 8) (size 9 to 14) (size 15 to 20)
#    0.000    1.857    2.857    2.571    0.000    3.429 
#    0.000    2.857    0.000    2.571    0.000    0.000 
#    0.000    0.000    0.000    0.000    0.000    0.000 
#
# Total GULP energy -346932.355657 kJ/mol
# GULP energy per Si atom -12390.441273 kJ/mol
# Density = 2.070602 g / cm^3
# Si number density = 20.753258 Si / 1000 Ang^3
#
#
#
# Elastic Constant Matrix: (Units=GPa)
#
#
# Indices 1 2 3 4 5 6 
#
# 1 105.5877 13.1543 38.4451 -0.0004 -9.6946 0.0001
# 2 13.1543 46.1186 42.4732 -0.0003 6.3637 0.0001
# 3 38.4451 42.4732 156.0709 -0.0009 -27.8779 0.0005
# 4 -0.0004 -0.0003 -0.0009 20.6440 0.0003 -1.5792
# 5 -9.6946 6.3637 -27.8779 0.0003 34.3560 -0.0001
# 6 0.0001 0.0001 0.0005 -1.5792 -0.0001 23.3304
#
#
#
# Elastic Compliance Matrix: (Units=1/GPa)
#
#
# Indices 1 2 3 4 5 6 
#
# 1 0.010497 -0.001516 -0.001864 0.000000 0.001730 0.000000
# 2 -0.001516 0.036016 -0.012509 0.000000 -0.017250 0.000000
# 3 -0.001864 -0.012509 0.012386 0.000000 0.011842 0.000000
# 4 0.000000 0.000000 0.000000 0.048692 0.000000 0.003296
# 5 0.001730 -0.017250 0.011842 0.000000 0.042399 0.000000
# 6 0.000000 0.000000 0.000000 0.003296 0.000000 0.043086
#
#
# Mechanical properties :
#
#
# Convention : Reuss Voigt Hill
#
# Bulk Modulus (GPa) = 36.87222 55.10247 45.98735
# Shear Modulus (GPa) = 21.37707 29.91306 25.64506
#
# Velocity S-wave (km/s) = 3.21293 3.80065 3.51908
# Velocity P-wave (km/s) = 5.61867 6.77265 6.22247
#
# Compressibility (1/GPa) = 0.02712069
#
# Stress axis : x y z
#
# Youngs Moduli (GPa) = 95.26265 27.76528 80.73651
#
# Poissons Ratio (x) = 0.04209 0.15051
# Poissons Ratio (y) = 0.14442 1.00995
# Poissons Ratio (z) = 0.17758 0.34732
#
# Static dielectric constant tensor:
#      x y z
#    x 3.843160 -0.000010 -0.520850 
#    y -0.000010 3.558130 0.000010 
#    z -0.520850 0.000010 4.690260 
# 
# 
# High freq. dielectric constant tensor:
#      x y z
#    x 1.793130 0.000000 -0.029670 
#    y 0.000000 1.784750 0.000000 
#    z -0.029670 0.000000 1.826980 
# 
# From -- ./inp_files/258001.got.cif
#   From: 2010.06.25/outbox.cif.g09.slc.cpg/sg12_130_cif.got.tgz:258001.got - 2010.06.28 00:19:55.
