data_PCOD8084765
_publ_section_title
;
Structure prediction by ZEFSAII (Michael W. Deem and Ramdas Pophale) SiO2 
 PCOD8084765
Probable space group: C 2/M
;
_chemical_formula_sum "Si O2"
_cell_formula_units_Z 56
_cell_length_a 27.962525
_cell_length_b 9.302524
_cell_length_c 14.476829
_cell_angle_alpha 90.000000
_cell_angle_beta 60.693781
_cell_angle_gamma 90.000000
_cell_volume 3283.788342
_symmetry_space_group_name_H-M "C 2/M"
_symmetry_group_IT_number 12
_symmetry_cell_setting 'monoclinic'
loop_
_space_group_symop_operation_xyz
x,y,z
-x,y,-z
-x,-y,-z
x,-y,z
1/2+x,1/2+y,z
1/2-x,1/2+y,-z
1/2-x,1/2-y,-z
1/2+x,1/2-y,z
loop_
_atom_site_type_symbol
_atom_site_label
_atom_site_fract_x
_atom_site_fract_y
_atom_site_fract_z
Si Si1 0.571031 0.668948 0.749515
Si Si2 0.826311 0.830767 0.864928
Si Si3 0.073268 0.829005 0.350361
Si Si4 0.452497 0.670542 0.425993
Si Si5 0.118840 0.334761 0.870799
Si Si6 0.205948 0.335420 0.930239
Si Si7 0.463845 0.655473 0.945191
O O1 0.581931 0.500000 0.754256
O O2 0.581029 0.719582 0.634110
O O3 0.611534 0.751700 0.781068
O O4 0.506618 0.706750 0.826490
O O5 0.876634 0.766216 0.757506
O O6 0.769757 0.790646 0.865783
O O7 0.832667 0.000000 0.872220
O O8 0.827187 0.760417 0.965065
O O9 0.079294 0.777387 0.451819
O O10 0.015184 0.770807 0.366564
O O11 0.075507 0.000000 0.344795
O O12 0.456878 0.500000 0.421254
O O13 0.103552 0.500000 0.867894
O O14 0.180641 0.315412 0.851202
O O15 0.081015 0.275494 0.990005
O O16 0.199902 0.500000 0.968370
O O17 0.436855 0.500000 0.943252
O O18 0.500000 0.628443 0.000000
#
# Coordination Sequence:
#
# PCOD8084765 Si02
#       7
#     8   8   8   8   8   8   8
#     4   9  17  28  43  63  89 115 141 178 218 256
#     4   9  17  30  50  69  85 112 150 184 218 262
#     4   8  14  25  45  70  90 110 139 179 226 266
#     4   8  14  25  42  69  96 110 133 180 228 262
#     4  10  19  29  41  58  87 121 148 176 212 256
#     4   9  19  32  43  64  93 118 146 182 220 256
#     4   8  15  26  39  58  83 110 143 177 209 248
#
# _framework density 17.053474000000001
#
# number of rings (size 3 to 8) (size 9 to 14) (size 15 to 20)
#    0.000    3.286    0.000    2.143    2.000    3.714 
#    0.000    0.000    0.000    1.714    0.000    2.000 
#    0.000    0.000    0.000    0.000    0.000    0.143 
#
# Total GULP energy -346885.556233 kJ/mol
# GULP energy per Si atom -12388.769865 kJ/mol
# Density = 1.701466 g / cm^3
# Si number density = 17.053474 Si / 1000 Ang^3
#
#
#
# Elastic Constant Matrix: (Units=GPa)
#
#
# Indices 1 2 3 4 5 6 
#
# 1 87.4651 28.7203 50.3223 0.0000 15.1775 0.0000
# 2 28.7203 42.3566 23.1003 0.0000 6.5012 0.0000
# 3 50.3223 23.1003 101.6187 0.0000 5.0611 0.0000
# 4 0.0000 0.0000 0.0000 11.9453 0.0000 1.0468
# 5 15.1775 6.5012 5.0611 0.0000 27.6724 0.0000
# 6 0.0000 0.0000 0.0000 1.0468 0.0000 18.3284
#
#
#
# Elastic Compliance Matrix: (Units=1/GPa)
#
#
# Indices 1 2 3 4 5 6 
#
# 1 0.019759 -0.008114 -0.007565 0.000000 -0.007548 0.000000
# 2 -0.008114 0.031063 -0.002928 0.000000 -0.002312 0.000000
# 3 -0.007565 -0.002928 0.014140 0.000000 0.002251 0.000000
# 4 0.000000 0.000000 0.000000 0.084136 0.000000 -0.004805
# 5 -0.007548 -0.002312 0.002251 0.000000 0.040408 0.000000
# 6 0.000000 0.000000 0.000000 -0.004805 0.000000 0.054835
#
#
# Mechanical properties :
#
#
# Convention : Reuss Voigt Hill
#
# Bulk Modulus (GPa) = 36.03732 48.41404 42.22568
# Shear Modulus (GPa) = 17.19370 20.20904 18.70137
#
# Velocity S-wave (km/s) = 3.17870 3.44618 3.31513
# Velocity P-wave (km/s) = 5.88642 6.65477 6.28236
#
# Compressibility (1/GPa) = 0.02774901
#
# Stress axis : x y z
#
# Youngs Moduli (GPa) = 50.60875 32.19310 70.72014
#
# Poissons Ratio (x) = 0.26122 0.53497
# Poissons Ratio (y) = 0.41064 0.20707
# Poissons Ratio (z) = 0.38283 0.09426
#
# Static dielectric constant tensor:
#      x y z
#    x 3.247420 0.000000 -0.025200 
#    y 0.000000 2.896610 0.000000 
#    z -0.025200 0.000000 3.703680 
# 
# 
# High freq. dielectric constant tensor:
#      x y z
#    x 1.650830 0.000000 0.016680 
#    y 0.000000 1.623550 0.000000 
#    z 0.016680 0.000000 1.641180 
# 
# From -- ./inp_files/248153.got.cif
#   From: 2010.06.25/outbox.cif.g09.slc.cpg/sg12_125_cif.got.tgz:248153.got - 2010.06.28 00:19:55.
