data_PCOD8084400
_publ_section_title
;
Structure prediction by ZEFSAII (Michael W. Deem and Ramdas Pophale) SiO2 
 PCOD8084400
Probable space group: C 2/M
;
_chemical_formula_sum "Si O2"
_cell_formula_units_Z 64
_cell_length_a 32.635647
_cell_length_b 8.867527
_cell_length_c 15.254094
_cell_angle_alpha 90.000000
_cell_angle_beta 133.079150
_cell_angle_gamma 90.000000
_cell_volume 3224.396150
_symmetry_space_group_name_H-M "C 2/M"
_symmetry_group_IT_number 12
_symmetry_cell_setting 'monoclinic'
loop_
_space_group_symop_operation_xyz
x,y,z
-x,y,-z
-x,-y,-z
x,-y,z
1/2+x,1/2+y,z
1/2-x,1/2+y,-z
1/2-x,1/2-y,-z
1/2+x,1/2-y,z
loop_
_atom_site_type_symbol
_atom_site_label
_atom_site_fract_x
_atom_site_fract_y
_atom_site_fract_z
Si Si1 0.543937 0.822427 0.893421
Si Si2 0.368916 0.821429 0.480256
Si Si3 0.214705 0.326740 0.023411
Si Si4 0.746582 0.327461 0.727001
Si Si5 0.365849 0.820232 0.834195
Si Si6 0.064875 0.678210 0.594042
Si Si7 0.600687 0.321612 0.823250
Si Si8 0.417729 0.822227 0.732286
O O1 0.549811 0.738053 0.808841
O O2 0.482815 0.782110 0.841376
O O3 0.550496 0.000000 0.885457
O O4 0.589666 0.760605 0.029125
O O5 0.304804 0.771173 0.381104
O O6 0.406140 0.763155 0.452991
O O7 0.394842 0.753259 0.607711
O O8 0.371023 0.000000 0.484667
O O9 0.202445 0.500000 0.981440
O O10 0.249870 0.313658 0.163457
O O11 0.250000 0.250000 0.000000
O O12 0.156632 0.240255 0.950729
O O13 0.736876 0.500000 0.684529
O O14 0.803471 0.263201 0.765989
O O15 0.382998 0.755837 0.763866
O O16 0.368078 0.000000 0.839759
O O17 0.071537 0.500000 0.615649
O O18 0.096562 0.759799 0.719149
O O19 0.000000 0.726755 0.500000
O O20 0.601640 0.500000 0.821555
O O21 0.409304 0.000000 0.717506
#
# Coordination Sequence:
#
# PCOD8084400 Si02
#       8
#     8   8   8   8   8   8   8   8
#     4  10  18  35  61  87 114 148 191 242 292 341
#     4  10  21  36  55  84 116 148 188 236 286 342
#     4  11  22  38  58  83 112 147 193 241 289 342
#     4  10  21  37  56  80 114 152 190 232 280 339
#     4   9  17  33  58  88 114 143 189 243 290 337
#     4  10  21  39  61  83 112 152 198 246 292 340
#     4  12  24  36  55  85 118 153 189 232 289 351
#     4   9  18  33  59  89 113 142 191 244 289 341
#
# _framework density 19.848676999999999
#
# number of rings (size 3 to 8) (size 9 to 14) (size 15 to 20)
#    0.000    1.875    1.250    3.375    0.000    7.750 
#    0.000    1.875    0.000    3.000    0.000    0.000 
#    0.000    0.000    0.000    0.000    0.000    0.000 
#
# Total GULP energy -396875.366696 kJ/mol
# GULP energy per Si atom -12402.355209 kJ/mol
# Density = 1.980350 g / cm^3
# Si number density = 19.848677 Si / 1000 Ang^3
#
#
#
# Elastic Constant Matrix: (Units=GPa)
#
#
# Indices 1 2 3 4 5 6 
#
# 1 164.9860 26.2198 63.3874 0.0000 -9.1715 0.0000
# 2 26.2198 40.2558 22.1890 0.0000 -5.4103 0.0000
# 3 63.3874 22.1890 117.8267 0.0000 -3.0749 0.0000
# 4 0.0000 0.0000 0.0000 22.2227 0.0000 7.4877
# 5 -9.1715 -5.4103 -3.0749 0.0000 38.0492 0.0000
# 6 0.0000 0.0000 0.0000 7.4877 0.0000 20.7153
#
#
#
# Elastic Compliance Matrix: (Units=1/GPa)
#
#
# Indices 1 2 3 4 5 6 
#
# 1 0.008039 -0.003021 -0.003724 0.000000 0.001207 0.000000
# 2 -0.003021 0.029334 -0.003817 0.000000 0.003134 0.000000
# 3 -0.003724 -0.003817 0.011196 0.000000 -0.000536 0.000000
# 4 0.000000 0.000000 0.000000 0.051239 0.000000 -0.018521
# 5 0.001207 0.003134 -0.000536 0.000000 0.026975 0.000000
# 6 0.000000 0.000000 0.000000 -0.018521 0.000000 0.054968
#
#
# Mechanical properties :
#
#
# Convention : Reuss Voigt Hill
#
# Bulk Modulus (GPa) = 36.43835 60.74010 48.58923
# Shear Modulus (GPa) = 23.58218 30.28227 26.93223
#
# Velocity S-wave (km/s) = 3.45062 3.91020 3.68758
# Velocity P-wave (km/s) = 5.85437 7.14523 6.53176
#
# Compressibility (1/GPa) = 0.02744361
#
# Stress axis : x y z
#
# Youngs Moduli (GPa) = 124.38930 34.09004 89.32107
#
# Poissons Ratio (x) = 0.10299 0.33267
# Poissons Ratio (y) = 0.37578 0.34095
# Poissons Ratio (z) = 0.46328 0.13013
#
# Static dielectric constant tensor:
#      x y z
#    x 3.907290 0.000000 -0.069900 
#    y 0.000000 3.266850 0.000000 
#    z -0.069900 0.000000 3.687200 
# 
# 
# High freq. dielectric constant tensor:
#      x y z
#    x 1.791600 0.000000 -0.001270 
#    y 0.000000 1.733540 0.000000 
#    z -0.001270 0.000000 1.779600 
# 
# From -- ./inp_files/250067.got.cif
#   From: 2010.06.25/outbox.cif.g09.slc.cpg/sg12_126_cif.got.tgz:250067.got - 2010.06.28 00:19:55.
