data_PCOD8084030
_publ_section_title
;
Structure prediction by ZEFSAII (Michael W. Deem and Ramdas Pophale) SiO2 
 PCOD8084030
Probable space group: C 2/M
;
_chemical_formula_sum "Si O2"
_cell_formula_units_Z 48
_cell_length_a 9.026051
_cell_length_b 19.600582
_cell_length_c 22.314219
_cell_angle_alpha 90.000000
_cell_angle_beta 45.008348
_cell_angle_gamma 90.000000
_cell_volume 2791.879764
_symmetry_space_group_name_H-M "C 2/M"
_symmetry_group_IT_number 12
_symmetry_cell_setting 'monoclinic'
loop_
_space_group_symop_operation_xyz
x,y,z
-x,y,-z
-x,-y,-z
x,-y,z
1/2+x,1/2+y,z
1/2-x,1/2+y,-z
1/2-x,1/2-y,-z
1/2+x,1/2-y,z
loop_
_atom_site_type_symbol
_atom_site_label
_atom_site_fract_x
_atom_site_fract_y
_atom_site_fract_z
Si Si1 0.311545 0.919048 0.013072
Si Si2 0.852303 0.080315 0.181836
Si Si3 0.437292 0.919891 0.847048
Si Si4 0.983900 0.227318 0.438696
Si Si5 0.177658 0.810159 0.715370
Si Si6 0.810756 0.821995 0.729821
O O1 0.335500 0.893085 0.938023
O O2 0.317374 0.000000 0.012428
O O3 0.500000 0.889157 0.000000
O O4 0.089025 0.894346 0.102102
O O5 0.714156 0.100330 0.163933
O O6 0.767447 0.120825 0.264060
O O7 0.839501 0.000000 0.199255
O O8 0.665263 0.887666 0.774130
O O9 0.474586 0.000000 0.838977
O O10 0.138240 0.293396 0.385617
O O11 0.044271 0.170919 0.371443
O O12 0.000000 0.194846 0.500000
O O13 0.750000 0.250000 0.500000
O O14 0.170108 0.746930 0.764849
O O15 0.954523 0.817982 0.747302
#
# Coordination Sequence:
#
# PCOD8084030 Si02
#       6
#     8   8   8   8   8   8
#     4   9  17  31  52  75 102 141 182 213 250 308
#     4  10  20  34  53  78 109 142 176 216 258 305
#     4  10  20  34  53  78 109 142 177 215 258 305
#     4  10  18  34  56  81 100 133 173 215 256 318
#     4  10  20  33  54  81 106 135 176 214 263 310
#     4  10  20  33  54  81 106 135 175 216 261 311
#
# _framework density 17.192716999999998
#
# number of rings (size 3 to 8) (size 9 to 14) (size 15 to 20)
#    1.000    1.167    1.667    2.500    2.333    4.000 
#    0.000    0.833    0.000    2.000    0.000    0.000 
#    0.000    0.000    0.000    0.000    0.000    0.000 
#
# Total GULP energy -297440.753483 kJ/mol
# GULP energy per Si atom -12393.364728 kJ/mol
# Density = 1.715359 g / cm^3
# Si number density = 17.192717 Si / 1000 Ang^3
#
#
#
# Elastic Constant Matrix: (Units=GPa)
#
#
# Indices 1 2 3 4 5 6 
#
# 1 135.5727 33.0944 27.3859 -0.0070 2.7175 0.0056
# 2 33.0944 39.3960 25.0670 -0.0016 5.5505 0.0017
# 3 27.3859 25.0670 75.3491 -0.0112 2.9639 0.0100
# 4 -0.0070 -0.0016 -0.0112 26.2256 0.0077 -2.7832
# 5 2.7175 5.5505 2.9639 0.0077 39.0098 -0.0066
# 6 0.0056 0.0017 0.0100 -2.7832 -0.0066 28.1079
#
#
#
# Elastic Compliance Matrix: (Units=1/GPa)
#
#
# Indices 1 2 3 4 5 6 
#
# 1 0.009345 -0.007285 -0.000991 0.000001 0.000461 -0.000001
# 2 -0.007285 0.038443 -0.009976 -0.000003 -0.004204 0.000001
# 3 -0.000991 -0.009976 0.016943 0.000006 0.000201 -0.000005
# 4 0.000001 -0.000003 0.000006 0.038536 -0.000007 0.003816
# 5 0.000461 -0.004204 0.000201 -0.000007 0.026185 0.000006
# 6 -0.000001 0.000001 -0.000005 0.003816 0.000006 0.035955
#
#
# Mechanical properties :
#
#
# Convention : Reuss Voigt Hill
#
# Bulk Modulus (GPa) = 35.42731 46.82360 41.12545
# Shear Modulus (GPa) = 23.66080 29.65336 26.65708
#
# Velocity S-wave (km/s) = 3.71376 4.15753 3.94189
# Velocity P-wave (km/s) = 6.24820 7.09510 6.68508
#
# Compressibility (1/GPa) = 0.02822681
#
# Stress axis : x y z
#
# Youngs Moduli (GPa) = 107.00474 26.01266 59.02230
#
# Poissons Ratio (x) = 0.18950 0.05851
# Poissons Ratio (y) = 0.77950 0.58881
# Poissons Ratio (z) = 0.10607 0.25950
#
# Static dielectric constant tensor:
#      x y z
#    x 3.393890 -0.000010 0.052140 
#    y -0.000010 2.837750 0.000010 
#    z 0.052140 0.000010 3.155130 
# 
# 
# High freq. dielectric constant tensor:
#      x y z
#    x 1.687890 0.000000 0.004160 
#    y 0.000000 1.622520 0.000000 
#    z 0.004160 0.000000 1.657910 
# 
# From -- ./inp_files/301366.got.cif
#   From: 2010.06.25/outbox.cif.g09.slc.cpg/sg12_151_cif.got.tgz:301366.got - 2010.06.28 00:19:55.
