data_PCOD8084519
_publ_section_title
;
Structure prediction by ZEFSAII (Michael W. Deem and Ramdas Pophale) SiO2 
 PCOD8084519
Probable space group: C 2/M
;
_chemical_formula_sum "Si O2"
_cell_formula_units_Z 32
_cell_length_a 8.935932
_cell_length_b 15.340226
_cell_length_c 13.402133
_cell_angle_alpha 90.000000
_cell_angle_beta 63.062789
_cell_angle_gamma 90.000000
_cell_volume 1637.829133
_symmetry_space_group_name_H-M "C 2/M"
_symmetry_group_IT_number 12
_symmetry_cell_setting 'monoclinic'
loop_
_space_group_symop_operation_xyz
x,y,z
-x,y,-z
-x,-y,-z
x,-y,z
1/2+x,1/2+y,z
1/2-x,1/2+y,-z
1/2-x,1/2-y,-z
1/2+x,1/2-y,z
loop_
_atom_site_type_symbol
_atom_site_label
_atom_site_fract_x
_atom_site_fract_y
_atom_site_fract_z
Si Si1 0.484837 0.340261 0.195259
Si Si2 0.986304 0.500000 0.840208
Si Si3 0.929318 0.786665 0.421032
Si Si4 0.276573 0.500000 0.903332
Si Si5 0.375974 0.827669 0.774203
O O1 0.427706 0.354653 0.328695
O O2 0.608746 0.415298 0.123565
O O3 0.580218 0.246994 0.156463
O O4 0.323558 0.341686 0.172049
O O5 0.969738 0.415761 0.775918
O O6 0.170759 0.500000 0.833221
O O7 0.843721 0.500000 0.966174
O O8 0.750000 0.750000 0.500000
O O9 0.949532 0.704929 0.645528
O O10 0.000000 0.832352 0.500000
#
# Coordination Sequence:
#
# PCOD8084519 Si02
#       5
#     8   4   8   4   8
#     4  10  21  38  64  91 122 156 203 242 298 360
#     4  11  25  43  61  87 121 157 204 255 300 351
#     4  10  18  36  63  90 121 159 193 242 296 353
#     4  11  25  43  61  87 121 158 202 256 300 353
#     4  10  21  38  64  91 122 157 201 244 296 361
#
# _framework density 19.538056000000001
#
# number of rings (size 3 to 8) (size 9 to 14) (size 15 to 20)
#    1.500    0.250    2.500    2.250    3.500    3.000 
#    0.000    2.500    0.000    0.000    0.000    0.000 
#    0.000    0.000    0.000    0.000    0.000    0.000 
#
# Total GULP energy -198294.480550 kJ/mol
# GULP energy per Si atom -12393.405034 kJ/mol
# Density = 1.949359 g / cm^3
# Si number density = 19.538056 Si / 1000 Ang^3
#
#
#
# Elastic Constant Matrix: (Units=GPa)
#
#
# Indices 1 2 3 4 5 6 
#
# 1 126.2142 26.2608 -3.2556 0.0000 -8.2974 0.0000
# 2 26.2608 111.9801 -0.0235 0.0000 -4.3809 0.0000
# 3 -3.2556 -0.0235 31.6379 0.0000 -5.2963 0.0000
# 4 0.0000 0.0000 0.0000 20.4094 0.0000 1.1656
# 5 -8.2974 -4.3809 -5.2963 0.0000 34.2240 0.0000
# 6 0.0000 0.0000 0.0000 1.1656 0.0000 -6.7697
#
#
#
# Elastic Compliance Matrix: (Units=1/GPa)
#
#
# Indices 1 2 3 4 5 6 
#
# 1 0.008483 -0.001911 0.001206 0.000000 0.001999 0.000000
# 2 -0.001911 0.009407 -0.000067 0.000000 0.000730 0.000000
# 3 0.001206 -0.000067 0.032624 0.000000 0.005333 0.000000
# 4 0.000000 0.000000 0.000000 0.048520 0.000000 0.008354
# 5 0.001999 0.000730 0.005333 0.000000 0.030623 0.000000
# 6 0.000000 0.000000 0.000000 0.008354 0.000000 -0.146279
#
#
# Mechanical properties :
#
#
# Convention : Reuss Voigt Hill
#
# Bulk Modulus (GPa) = 20.42066 35.08839 27.75452
# Shear Modulus (GPa) = 4013.51436 26.02945 2019.77190
#
# Velocity S-wave (km/s) = 45.37249 3.65395 32.18707
# Velocity P-wave (km/s) = 52.49151 5.98329 37.35745
#
# Compressibility (1/GPa) = 0.04897001
#
# Stress axis : x y z
#
# Youngs Moduli (GPa) = 117.88067 106.30537 30.65188
#
# Poissons Ratio (x) = 0.20315 -0.03697
# Poissons Ratio (y) = 0.22527 0.00206
# Poissons Ratio (z) = -0.14218 0.00716
#
# Static dielectric constant tensor:
#      x y z
#    x 3.421310 0.000000 -0.321420 
#    y 0.000000 3.296690 0.000000 
#    z -0.321420 0.000000 2.829160 
# 
# 
# High freq. dielectric constant tensor:
#      x y z
#    x 1.782100 0.000000 -0.000140 
#    y 0.000000 1.736640 0.000000 
#    z -0.000140 0.000000 1.749710 
# 
# From -- ./inp_files/128485.got.cif
#   From: 2010.06.25/outbox.cif.g09.slc.cpg/sg12_65_cif.got.tgz:128485.got - 2010.06.28 00:19:55.
