data_PCOD8084343
_publ_section_title
;
Structure prediction by ZEFSAII (Michael W. Deem and Ramdas Pophale) SiO2 
 PCOD8084343
Probable space group: C 2/M
;
_chemical_formula_sum "Si O2"
_cell_formula_units_Z 48
_cell_length_a 24.937698
_cell_length_b 9.037304
_cell_length_c 12.383117
_cell_angle_alpha 90.000000
_cell_angle_beta 108.558969
_cell_angle_gamma 90.000000
_cell_volume 2645.647629
_symmetry_space_group_name_H-M "C 2/M"
_symmetry_group_IT_number 12
_symmetry_cell_setting 'monoclinic'
loop_
_space_group_symop_operation_xyz
x,y,z
-x,y,-z
-x,-y,-z
x,-y,z
1/2+x,1/2+y,z
1/2-x,1/2+y,-z
1/2-x,1/2-y,-z
1/2+x,1/2-y,z
loop_
_atom_site_type_symbol
_atom_site_label
_atom_site_fract_x
_atom_site_fract_y
_atom_site_fract_z
Si Si1 0.492890 0.173666 0.120553
Si Si2 0.113725 0.674702 0.267702
Si Si3 0.806329 0.324867 0.492344
Si Si4 0.686570 0.174289 0.114885
Si Si5 0.309426 0.330609 0.272885
Si Si6 0.620543 0.670690 0.889123
O O1 0.548910 0.228797 0.219713
O O2 0.440796 0.258639 0.138673
O O3 0.481966 0.000000 0.127658
O O4 0.500000 0.214637 0.000000
O O5 0.115351 0.500000 0.257803
O O6 0.141708 0.725612 0.397871
O O7 0.149378 0.738367 0.189932
O O8 0.797663 0.500000 0.489534
O O9 0.750000 0.250000 0.500000
O O10 0.821541 0.273138 0.382373
O O11 0.751353 0.216578 0.177867
O O12 0.677931 0.000000 0.094225
O O13 0.667130 0.252396 0.993470
O O14 0.304588 0.500000 0.309807
O O15 0.360690 0.308923 0.222732
O O16 0.617519 0.500000 0.919808
#
# Coordination Sequence:
#
# PCOD8084343 Si02
#       6
#     8   8   8   8   8   8
#     4  10  19  36  60  80 104 148 191 224 270 331
#     4   9  18  34  57  84 109 139 185 230 269 322
#     4  11  21  36  59  85 114 146 185 231 276 327
#     4  10  18  35  59  80 111 149 183 224 273 334
#     4  10  22  39  56  79 116 153 185 226 277 331
#     4  11  23  36  53  84 119 146 180 232 285 330
#
# _framework density 18.143006
#
# number of rings (size 3 to 8) (size 9 to 14) (size 15 to 20)
#    0.000    1.833    3.333    1.500    0.000    2.333 
#    0.000    2.500    0.000    5.000    0.000    0.000 
#    0.000    0.000    0.000    0.000    0.000    0.000 
#
# Total GULP energy -297651.546231 kJ/mol
# GULP energy per Si atom -12402.147760 kJ/mol
# Density = 1.810171 g / cm^3
# Si number density = 18.143006 Si / 1000 Ang^3
#
#
#
# Elastic Constant Matrix: (Units=GPa)
#
#
# Indices 1 2 3 4 5 6 
#
# 1 125.3398 43.3640 61.0970 0.0000 7.5723 0.0000
# 2 43.3640 62.8464 52.5020 0.0000 1.5665 0.0000
# 3 61.0970 52.5020 128.7380 0.0000 12.8573 0.0000
# 4 0.0000 0.0000 0.0000 29.7800 0.0000 -1.5733
# 5 7.5723 1.5665 12.8573 0.0000 32.0662 0.0000
# 6 0.0000 0.0000 0.0000 -1.5733 0.0000 28.8820
#
#
#
# Elastic Compliance Matrix: (Units=1/GPa)
#
#
# Indices 1 2 3 4 5 6 
#
# 1 0.011388 -0.005173 -0.003179 0.000000 -0.001162 0.000000
# 2 -0.005173 0.026743 -0.008795 0.000000 0.003442 0.000000
# 3 -0.003179 -0.008795 0.013277 0.000000 -0.004143 0.000000
# 4 0.000000 0.000000 0.000000 0.033677 0.000000 0.001834
# 5 -0.001162 0.003442 -0.004143 0.000000 0.032953 0.000000
# 6 0.000000 0.000000 0.000000 0.001834 0.000000 0.034724
#
#
# Mechanical properties :
#
#
# Convention : Reuss Voigt Hill
#
# Bulk Modulus (GPa) = 58.43199 70.09445 64.26322
# Shear Modulus (GPa) = 25.93924 28.80973 27.37448
#
# Velocity S-wave (km/s) = 3.78525 3.98920 3.88856
# Velocity P-wave (km/s) = 7.16802 7.74187 7.46046
#
# Compressibility (1/GPa) = 0.01711391
#
# Stress axis : x y z
#
# Youngs Moduli (GPa) = 87.81414 37.39338 75.31932
#
# Poissons Ratio (x) = 0.19344 0.23942
# Poissons Ratio (y) = 0.45427 0.66243
# Poissons Ratio (z) = 0.27913 0.32887
#
# Static dielectric constant tensor:
#      x y z
#    x 3.447230 0.000000 0.150990 
#    y 0.000000 3.214210 0.000000 
#    z 0.150990 0.000000 3.495690 
# 
# 
# High freq. dielectric constant tensor:
#      x y z
#    x 1.706530 0.000000 0.004040 
#    y 0.000000 1.687980 0.000000 
#    z 0.004040 0.000000 1.704070 
# 
# From -- ./inp_files/172092.got.cif
#   From: 2010.06.25/outbox.cif.g09.slc.cpg/sg12_87_cif.got.tgz:172092.got - 2010.06.28 00:19:55.
