data_PCOD8084402
_publ_section_title
;
Structure prediction by ZEFSAII (Michael W. Deem and Ramdas Pophale) SiO2 
 PCOD8084402
Probable space group: C 2/M
;
_chemical_formula_sum "Si O2"
_cell_formula_units_Z 64
_cell_length_a 25.208763
_cell_length_b 8.806678
_cell_length_c 19.712857
_cell_angle_alpha 90.000000
_cell_angle_beta 131.164488
_cell_angle_gamma 90.000000
_cell_volume 3294.625954
_symmetry_space_group_name_H-M "C 2/M"
_symmetry_group_IT_number 12
_symmetry_cell_setting 'monoclinic'
loop_
_space_group_symop_operation_xyz
x,y,z
-x,y,-z
-x,-y,-z
x,-y,z
1/2+x,1/2+y,z
1/2-x,1/2+y,-z
1/2-x,1/2-y,-z
1/2+x,1/2-y,z
loop_
_atom_site_type_symbol
_atom_site_label
_atom_site_fract_x
_atom_site_fract_y
_atom_site_fract_z
Si Si1 0.492883 0.681126 0.290120
Si Si2 0.344813 0.320495 0.801472
Si Si3 0.279296 0.177823 0.958661
Si Si4 0.850628 0.175328 0.226953
Si Si5 0.807801 0.824438 0.335502
Si Si6 0.448297 0.320246 0.515964
Si Si7 0.542459 0.179831 0.190905
Si Si8 0.910701 0.679075 0.990846
O O1 0.497153 0.500000 0.284393
O O2 0.413503 0.746135 0.235029
O O3 0.532391 0.734475 0.391997
O O4 0.522969 0.759529 0.248588
O O5 0.349066 0.500000 0.804426
O O6 0.263014 0.273688 0.727303
O O7 0.383309 0.253350 0.767511
O O8 0.387664 0.261610 0.902906
O O9 0.226723 0.237707 0.856125
O O10 0.278268 0.000000 0.966901
O O11 0.250000 0.250000 0.000000
O O12 0.357297 0.231240 0.005194
O O13 0.858331 0.202464 0.312965
O O14 0.854203 0.000000 0.211790
O O15 0.864806 0.774585 0.440082
O O16 0.784051 0.000000 0.321277
O O17 0.500000 0.251527 0.500000
O O18 0.455693 0.500000 0.517246
O O19 0.486722 0.225463 0.084372
O O20 0.549081 0.000000 0.200887
O O21 0.906142 0.500000 0.971763
#
# Coordination Sequence:
#
# PCOD8084402 Si02
#       8
#     8   8   8   8   8   8   8   8
#     4  10  19  34  58  91 123 151 191 241 286 338
#     4  12  25  40  60  86 115 150 197 250 295 339
#     4  10  19  31  48  76 113 152 187 223 273 332
#     4   9  16  29  54  81 113 151 184 223 277 337
#     4  10  18  35  61  87 117 152 192 233 282 345
#     4   9  16  30  60  95 120 151 194 234 281 347
#     4  11  24  41  60  83 114 157 199 238 292 352
#     4  10  21  39  61  83 112 151 197 240 285 349
#
# _framework density 19.425573
#
# number of rings (size 3 to 8) (size 9 to 14) (size 15 to 20)
#    0.000    1.875    2.500    2.625    0.000    3.000 
#    0.000    1.875    0.000    0.750    0.000    0.000 
#    0.000    0.000    0.000    0.000    0.000    0.000 
#
# Total GULP energy -396444.026006 kJ/mol
# GULP energy per Si atom -12388.875813 kJ/mol
# Density = 1.938136 g / cm^3
# Si number density = 19.425573 Si / 1000 Ang^3
#
#
#
# Elastic Constant Matrix: (Units=GPa)
#
#
# Indices 1 2 3 4 5 6 
#
# 1 122.3837 34.3868 51.3955 0.0000 3.7103 0.0000
# 2 34.3868 52.0853 43.1143 0.0000 -5.4592 0.0000
# 3 51.3955 43.1143 92.8060 0.0000 9.0280 0.0000
# 4 0.0000 0.0000 0.0000 18.1004 0.0000 -5.0645
# 5 3.7103 -5.4592 9.0280 0.0000 18.8490 0.0000
# 6 0.0000 0.0000 0.0000 -5.0645 0.0000 24.8293
#
#
#
# Elastic Compliance Matrix: (Units=1/GPa)
#
#
# Indices 1 2 3 4 5 6 
#
# 1 0.011081 -0.004049 -0.004122 0.000000 -0.001380 0.000000
# 2 -0.004049 0.038695 -0.017728 0.000000 0.020495 0.000000
# 3 -0.004122 -0.017728 0.022775 0.000000 -0.015232 0.000000
# 4 0.000000 0.000000 0.000000 0.058591 0.000000 0.011951
# 5 -0.001380 0.020495 -0.015232 0.000000 0.066556 0.000000
# 6 0.000000 0.000000 0.000000 0.011951 0.000000 0.042713
#
#
# Mechanical properties :
#
#
# Convention : Reuss Voigt Hill
#
# Bulk Modulus (GPa) = 48.18138 58.34089 53.26114
# Shear Modulus (GPa) = 16.71536 21.58098 19.14817
#
# Velocity S-wave (km/s) = 2.93658 3.33672 3.14302
# Velocity P-wave (km/s) = 6.02950 6.70397 6.37566
#
# Compressibility (1/GPa) = 0.02075490
#
# Stress axis : x y z
#
# Youngs Moduli (GPa) = 90.24154 25.84324 43.90773
#
# Poissons Ratio (x) = 0.10464 0.18097
# Poissons Ratio (y) = 0.36537 0.77838
# Poissons Ratio (z) = 0.37194 0.45814
#
# Static dielectric constant tensor:
#      x y z
#    x 3.611230 0.000000 0.253700 
#    y 0.000000 3.185430 0.000000 
#    z 0.253700 0.000000 3.187700 
# 
# 
# High freq. dielectric constant tensor:
#      x y z
#    x 1.764430 0.000000 0.007800 
#    y 0.000000 1.718030 0.000000 
#    z 0.007800 0.000000 1.762790 
# 
# From -- ./inp_files/324236.got.cif
#   From: 2010.06.25/outbox.cif.g09.slc.cpg/sg12_163_cif.got.tgz:324236.got - 2010.06.28 00:19:55.
