data_PCOD8084438
_publ_section_title
;
Structure prediction by ZEFSAII (Michael W. Deem and Ramdas Pophale) SiO2 
 PCOD8084438
Probable space group: C 2/M
;
_chemical_formula_sum "Si O2"
_cell_formula_units_Z 36
_cell_length_a 20.279618
_cell_length_b 14.040114
_cell_length_c 18.974039
_cell_angle_alpha 90.000000
_cell_angle_beta 158.586488
_cell_angle_gamma 90.000000
_cell_volume 1972.412187
_symmetry_space_group_name_H-M "C 2/M"
_symmetry_group_IT_number 12
_symmetry_cell_setting 'monoclinic'
loop_
_space_group_symop_operation_xyz
x,y,z
-x,y,-z
-x,-y,-z
x,-y,z
1/2+x,1/2+y,z
1/2-x,1/2+y,-z
1/2-x,1/2-y,-z
1/2+x,1/2-y,z
loop_
_atom_site_type_symbol
_atom_site_label
_atom_site_fract_x
_atom_site_fract_y
_atom_site_fract_z
Si Si1 0.707684 0.000000 0.929463
Si Si2 0.187884 0.798276 0.510079
Si Si3 0.186639 0.293074 0.862282
Si Si4 0.834868 0.500000 0.957633
Si Si5 0.021964 0.299047 0.941592
Si Si6 0.034112 0.000000 0.344306
O O1 0.656271 0.093794 0.834955
O O2 0.596775 0.000000 0.892976
O O3 0.922890 0.000000 0.159970
O O4 0.250000 0.750000 0.500000
O O5 0.165574 0.910500 0.477069
O O6 0.999129 0.754082 0.347096
O O7 0.332135 0.782510 0.714640
O O8 0.333826 0.270764 0.950105
O O9 0.250000 0.250000 0.000000
O O10 0.910220 0.407716 0.993458
O O11 0.613885 0.500000 0.738732
O O12 0.000000 0.267568 0.000000
#
# Coordination Sequence:
#
# PCOD8084438 Si02
#       6
#     4   8   8   4   8   4
#     4  10  18  35  69  87 121 162 201 264 308 346
#     4  12  22  37  66  90 120 167 214 252 307 372
#     4  12  20  42  62  91 126 159 211 261 299 361
#     4  10  18  40  62  88 132 163 191 259 312 369
#     4  12  25  40  61  94 133 166 202 255 320 373
#     4  10  19  35  61  92 122 156 205 254 307 362
#
# _framework density 18.251763
#
# number of rings (size 3 to 8) (size 9 to 14) (size 15 to 20)
#    0.667    0.000    8.889    1.000    0.000    1.778 
#    0.000    2.778    0.000    1.333    0.000    0.000 
#    0.000    0.000    0.000    0.000    0.000    0.000 
#
# Total GULP energy -223220.205772 kJ/mol
# GULP energy per Si atom -12401.122543 kJ/mol
# Density = 1.821022 g / cm^3
# Si number density = 18.251763 Si / 1000 Ang^3
#
#
#
# Elastic Constant Matrix: (Units=GPa)
#
#
# Indices 1 2 3 4 5 6 
#
# 1 125.1179 45.0391 48.9887 0.0051 -2.8495 0.0017
# 2 45.0391 138.4627 35.6960 0.0042 1.6043 -0.0066
# 3 48.9887 35.6960 119.3645 0.0074 6.0523 -0.0039
# 4 0.0051 0.0042 0.0074 22.1829 -0.0017 7.8399
# 5 -2.8495 1.6043 6.0523 -0.0017 27.0957 -0.0062
# 6 0.0017 -0.0066 -0.0039 7.8399 -0.0062 30.0766
#
#
#
# Elastic Compliance Matrix: (Units=1/GPa)
#
#
# Indices 1 2 3 4 5 6 
#
# 1 0.010337 -0.002455 -0.003612 0.000000 0.002039 -0.000001
# 2 -0.002455 0.008409 -0.001486 -0.000001 -0.000424 0.000002
# 3 -0.003612 -0.001486 0.010437 -0.000003 -0.002623 0.000002
# 4 0.000000 -0.000001 -0.000003 0.049654 0.000001 -0.012943
# 5 0.002039 -0.000424 -0.002623 0.000001 0.037732 0.000007
# 6 -0.000001 0.000002 0.000002 -0.012943 0.000007 0.036622
#
#
# Mechanical properties :
#
#
# Convention : Reuss Voigt Hill
#
# Bulk Modulus (GPa) = 71.03059 71.37698 71.20378
# Shear Modulus (GPa) = 28.90385 32.75245 30.82815
#
# Velocity S-wave (km/s) = 3.98379 4.24073 4.11426
# Velocity P-wave (km/s) = 7.75644 7.94797 7.85279
#
# Compressibility (1/GPa) = 0.01407844
#
# Stress axis : x y z
#
# Youngs Moduli (GPa) = 96.74299 118.92615 95.81119
#
# Poissons Ratio (x) = 0.29195 0.34603
# Poissons Ratio (y) = 0.23749 0.14233
# Poissons Ratio (z) = 0.34939 0.17667
#
# Static dielectric constant tensor:
#      x y z
#    x 3.143980 -0.000040 0.218370 
#    y -0.000040 3.415960 -0.000090 
#    z 0.218370 -0.000090 3.433710 
# 
# 
# High freq. dielectric constant tensor:
#      x y z
#    x 1.686500 0.000000 0.025140 
#    y 0.000000 1.714300 0.000000 
#    z 0.025140 0.000000 1.703960 
# 
# From -- ./inp_files/284376.got.cif
#   From: 2010.06.25/outbox.cif.g09.slc.cpg/sg12_143_cif.got.tgz:284376.got - 2010.06.28 00:19:55.
