data_PCOD8084407
_publ_section_title
;
Structure prediction by ZEFSAII (Michael W. Deem and Ramdas Pophale) SiO2 
 PCOD8084407
Probable space group: C 2/M
;
_chemical_formula_sum "Si O2"
_cell_formula_units_Z 60
_cell_length_a 15.354829
_cell_length_b 23.487615
_cell_length_c 8.596460
_cell_angle_alpha 90.000000
_cell_angle_beta 68.898358
_cell_angle_gamma 90.000000
_cell_volume 2892.402726
_symmetry_space_group_name_H-M "C 2/M"
_symmetry_group_IT_number 12
_symmetry_cell_setting 'monoclinic'
loop_
_space_group_symop_operation_xyz
x,y,z
-x,y,-z
-x,-y,-z
x,-y,z
1/2+x,1/2+y,z
1/2-x,1/2+y,-z
1/2-x,1/2-y,-z
1/2+x,1/2-y,z
loop_
_atom_site_type_symbol
_atom_site_label
_atom_site_fract_x
_atom_site_fract_y
_atom_site_fract_z
Si Si1 0.274041 0.931318 0.016574
Si Si2 0.841390 0.286471 0.458113
Si Si3 0.055494 0.437001 0.606436
Si Si4 0.913161 0.361245 0.143858
Si Si5 0.000000 0.788716 0.500000
Si Si6 0.605922 0.564564 0.619605
Si Si7 0.408328 0.393178 0.711192
Si Si8 0.280451 0.894576 0.662533
O O1 0.347232 0.899694 0.079290
O O2 0.174012 0.901772 0.113038
O O3 0.273352 0.000000 0.043707
O O4 0.299083 0.916346 0.823782
O O5 0.750000 0.250000 0.500000
O O6 0.854815 0.315673 0.280509
O O7 0.823169 0.331622 0.608329
O O8 0.932381 0.249636 0.438889
O O9 0.017108 0.500000 0.657715
O O10 0.032630 0.403695 0.776324
O O11 0.165465 0.436330 0.492461
O O12 0.000000 0.407298 0.500000
O O13 0.000000 0.330929 0.000000
O O14 0.935385 0.827624 0.654834
O O15 0.629824 0.500000 0.645854
O O16 0.623781 0.575990 0.426371
O O17 0.498610 0.577199 0.729211
O O18 0.671643 0.604174 0.684458
#
# Coordination Sequence:
#
# PCOD8084407 Si02
#       8
#     8   8   8   8   4   8   8   8
#     4  12  24  40  62  96 140 172 200 261 332 396
#     4  11  24  46  69  91 122 174 226 278 328 376
#     4  10  20  36  59  85 121 166 208 248 307 379
#     4  11  25  40  63  93 131 160 219 263 320 384
#     4  10  22  42  73  86 121 168 220 282 332 366
#     4  10  18  35  61  89 124 167 210 260 319 390
#     4  10  21  39  63  95 121 161 219 265 324 396
#     4  11  24  37  61  90 129 165 219 256 312 397
#
# _framework density 20.743998000000001
#
# number of rings (size 3 to 8) (size 9 to 14) (size 15 to 20)
#    0.000    1.467    0.000    8.000    5.600    2.667 
#    2.400    2.667    0.000    0.000    0.000    0.000 
#    0.000    0.000    0.000    0.000    0.000    0.000 
#
# Total GULP energy -371908.161569 kJ/mol
# GULP energy per Si atom -12396.938719 kJ/mol
# Density = 2.069678 g / cm^3
# Si number density = 20.743998 Si / 1000 Ang^3
#
#
#
# Elastic Constant Matrix: (Units=GPa)
#
#
# Indices 1 2 3 4 5 6 
#
# 1 114.6761 47.1570 37.8011 0.0000 7.7431 0.0000
# 2 47.1570 124.5484 43.3257 0.0000 -3.5123 0.0000
# 3 37.8011 43.3257 94.2942 0.0000 -6.7390 0.0000
# 4 0.0000 0.0000 0.0000 19.1348 0.0000 6.3221
# 5 7.7431 -3.5123 -6.7390 0.0000 32.7650 0.0000
# 6 0.0000 0.0000 0.0000 6.3221 0.0000 31.7589
#
#
#
# Elastic Compliance Matrix: (Units=1/GPa)
#
#
# Indices 1 2 3 4 5 6 
#
# 1 0.011417 -0.003265 -0.003344 0.000000 -0.003736 0.000000
# 2 -0.003265 0.010491 -0.003426 0.000000 0.001191 0.000000
# 3 -0.003344 -0.003426 0.013752 0.000000 0.003251 0.000000
# 4 0.000000 0.000000 0.000000 0.055940 0.000000 -0.011136
# 5 -0.003736 0.001191 0.003251 0.000000 0.032200 0.000000
# 6 0.000000 0.000000 0.000000 -0.011136 0.000000 0.033704
#
#
# Mechanical properties :
#
#
# Convention : Reuss Voigt Hill
#
# Bulk Modulus (GPa) = 64.14287 65.56511 64.85399
# Shear Modulus (GPa) = 27.35672 30.41408 28.88540
#
# Velocity S-wave (km/s) = 3.63544 3.83320 3.73563
# Velocity P-wave (km/s) = 6.97210 7.16008 7.06671
#
# Compressibility (1/GPa) = 0.01559020
#
# Stress axis : x y z
#
# Youngs Moduli (GPa) = 87.58594 95.32304 72.71571
#
# Poissons Ratio (x) = 0.31123 0.24315
# Poissons Ratio (y) = 0.28597 0.24913
# Poissons Ratio (z) = 0.29287 0.32659
#
# Static dielectric constant tensor:
#      x y z
#    x 3.890080 0.000000 -0.092420 
#    y 0.000000 3.802450 0.000000 
#    z -0.092420 0.000000 3.662190 
# 
# 
# High freq. dielectric constant tensor:
#      x y z
#    x 1.832630 0.000000 -0.005760 
#    y 0.000000 1.806950 0.000000 
#    z -0.005760 0.000000 1.798720 
# 
# From -- ./inp_files/65832.got.cif
#   From: 2010.06.25/outbox.cif.g09.slc.cpg/sg12_33_cif.got.tgz:65832.got - 2010.06.28 00:19:55.
