data_PCOD8084014
_publ_section_title
;
Structure prediction by ZEFSAII (Michael W. Deem and Ramdas Pophale) SiO2 
 PCOD8084014
Probable space group: C 2/M
;
_chemical_formula_sum "Si O2"
_cell_formula_units_Z 44
_cell_length_a 28.047384
_cell_length_b 13.104115
_cell_length_c 17.779488
_cell_angle_alpha 90.000000
_cell_angle_beta 18.208555
_cell_angle_gamma 90.000000
_cell_volume 2041.912026
_symmetry_space_group_name_H-M "C 2/M"
_symmetry_group_IT_number 12
_symmetry_cell_setting 'monoclinic'
loop_
_space_group_symop_operation_xyz
x,y,z
-x,y,-z
-x,-y,-z
x,-y,z
1/2+x,1/2+y,z
1/2-x,1/2+y,-z
1/2-x,1/2-y,-z
1/2+x,1/2-y,z
loop_
_atom_site_type_symbol
_atom_site_label
_atom_site_fract_x
_atom_site_fract_y
_atom_site_fract_z
Si Si1 0.430893 0.383748 0.985388
Si Si2 0.333908 0.884248 0.875976
Si Si3 0.000000 0.737533 0.500000
Si Si4 0.737192 0.384310 0.611796
Si Si5 0.530510 0.384512 0.577104
Si Si6 0.505702 0.750512 0.239546
O O1 0.433336 0.500000 0.952037
O O2 0.301737 0.371635 0.241676
O O3 0.594785 0.353200 0.773929
O O4 0.390195 0.308548 0.977582
O O5 0.387805 0.833126 0.717169
O O6 0.395280 0.824262 0.856387
O O7 0.395257 0.000000 0.786916
O O8 0.152890 0.880057 0.150234
O O9 0.095067 0.814064 0.412746
O O10 0.784034 0.500000 0.524247
O O11 0.880812 0.313242 0.379403
O O12 0.592481 0.500000 0.475852
O O13 0.581639 0.335766 0.579719
#
# Coordination Sequence:
#
# PCOD8084014 Si02
#       6
#     8   8   4   8   8   8
#     4   9  19  36  55  77 106 136 168 212 261 309
#     4  10  22  37  52  76 108 138 173 215 257 301
#     4  10  18  34  56  72  94 136 178 212 250 298
#     4   9  19  35  55  79 105 134 171 213 258 307
#     4  10  22  37  51  74 108 141 173 212 257 305
#     4  11  19  31  55  82 102 134 176 215 254 304
#
# _framework density 21.548431000000001
#
# number of rings (size 3 to 8) (size 9 to 14) (size 15 to 20)
#    0.000    2.182    0.000    5.455    0.000    5.818 
#    0.000    3.636    0.000    3.273    0.000   12.727 
#    0.000    0.000    0.000    0.000    0.000    0.000 
#
# Total GULP energy -272735.961821 kJ/mol
# GULP energy per Si atom -12397.089174 kJ/mol
# Density = 2.149939 g / cm^3
# Si number density = 21.548431 Si / 1000 Ang^3
#
#
#
# Elastic Constant Matrix: (Units=GPa)
#
#
# Indices 1 2 3 4 5 6 
#
# 1 74.9485 52.5610 4.1041 -0.0002 20.1668 -0.0002
# 2 52.5610 149.7829 18.4693 -0.0008 12.0590 0.0005
# 3 4.1041 18.4693 28.5744 -0.0001 0.5902 0.0000
# 4 -0.0002 -0.0008 -0.0001 29.6883 0.0001 6.1508
# 5 20.1668 12.0590 0.5902 0.0001 27.2847 0.0001
# 6 -0.0002 0.0005 0.0000 6.1508 0.0001 37.8238
#
#
#
# Elastic Compliance Matrix: (Units=1/GPa)
#
#
# Indices 1 2 3 4 5 6 
#
# 1 0.021401 -0.006655 0.001494 0.000000 -0.012909 0.000000
# 2 -0.006655 0.009597 -0.005264 0.000000 0.000791 0.000000
# 3 0.001494 -0.005264 0.038176 0.000000 0.000396 0.000000
# 4 0.000000 0.000000 0.000000 0.034858 0.000000 -0.005668
# 5 -0.012909 0.000791 0.000396 0.000000 0.045834 0.000000
# 6 0.000000 0.000000 0.000000 -0.005668 0.000000 0.027360
#
#
# Mechanical properties :
#
#
# Convention : Reuss Voigt Hill
#
# Bulk Modulus (GPa) = 20.69301 44.84162 32.76731
# Shear Modulus (GPa) = 23.34455 30.83746 27.09101
#
# Velocity S-wave (km/s) = 3.29500 3.78706 3.54957
# Velocity P-wave (km/s) = 4.90917 6.32276 5.66027
#
# Compressibility (1/GPa) = 0.04832550
#
# Stress axis : x y z
#
# Youngs Moduli (GPa) = 46.72611 104.19928 26.19468
#
# Poissons Ratio (x) = 0.69344 -0.03914
# Poissons Ratio (y) = 0.31096 0.13788
# Poissons Ratio (z) = -0.06982 0.54846
#
# Static dielectric constant tensor:
#      x y z
#    x 3.904150 0.000000 0.119430 
#    y 0.000000 4.366170 0.000000 
#    z 0.119430 0.000000 3.476690 
# 
# 
# High freq. dielectric constant tensor:
#      x y z
#    x 1.845320 0.000000 0.008840 
#    y 0.000000 1.862990 0.000000 
#    z 0.008840 0.000000 1.812160 
# 
# From -- ./inp_files/293581.got.cif
#   From: 2010.06.25/outbox.cif.g09.slc.cpg/sg12_147_cif.got.tgz:293581.got - 2010.06.28 00:19:55.
