data_PCOD8084181
_publ_section_title
;
Structure prediction by ZEFSAII (Michael W. Deem and Ramdas Pophale) SiO2 
 PCOD8084181
Probable space group: C 2/M
;
_chemical_formula_sum "Si O2"
_cell_formula_units_Z 64
_cell_length_a 15.273297
_cell_length_b 9.166832
_cell_length_c 27.903686
_cell_angle_alpha 90.000000
_cell_angle_beta 58.712256
_cell_angle_gamma 90.000000
_cell_volume 3338.575925
_symmetry_space_group_name_H-M "C 2/M"
_symmetry_group_IT_number 12
_symmetry_cell_setting 'monoclinic'
loop_
_space_group_symop_operation_xyz
x,y,z
-x,y,-z
-x,-y,-z
x,-y,z
1/2+x,1/2+y,z
1/2-x,1/2+y,-z
1/2-x,1/2-y,-z
1/2+x,1/2-y,z
loop_
_atom_site_type_symbol
_atom_site_label
_atom_site_fract_x
_atom_site_fract_y
_atom_site_fract_z
Si Si1 0.249818 0.669120 0.393228
Si Si2 0.539229 0.331626 0.624089
Si Si3 0.668516 0.827574 0.314407
Si Si4 0.737212 0.170939 0.111306
Si Si5 0.178394 0.173343 0.812285
Si Si6 0.401286 0.329042 0.498281
Si Si7 0.904951 0.834704 0.991728
Si Si8 0.967626 0.328485 0.879856
O O1 0.222700 0.500000 0.406252
O O2 0.372261 0.693486 0.361563
O O3 0.209321 0.730647 0.354040
O O4 0.197712 0.750488 0.452311
O O5 0.506312 0.500000 0.629972
O O6 0.440876 0.239984 0.667463
O O7 0.582240 0.277826 0.560759
O O8 0.748458 0.777156 0.251533
O O9 0.656419 0.000000 0.318166
O O10 0.772347 0.235360 0.152496
O O11 0.807227 0.231444 0.047977
O O12 0.618462 0.207119 0.135678
O O13 0.757665 0.000000 0.107221
O O14 0.069074 0.246287 0.834351
O O15 0.163289 0.000000 0.817959
O O16 0.500000 0.279389 0.500000
O O17 0.381498 0.500000 0.507738
O O18 0.885315 0.000000 0.978468
O O19 0.926928 0.727408 0.942056
O O20 0.000000 0.835082 0.000000
O O21 0.988937 0.500000 0.877740
#
# Coordination Sequence:
#
# PCOD8084181 Si02
#       8
#     8   8   8   8   8   8   8   8
#     4  10  21  36  55  83 113 142 176 225 279 321
#     4  10  21  37  56  79 113 146 176 221 277 328
#     4  10  22  38  58  81 105 140 188 230 266 315
#     4   9  19  36  57  80 109 145 181 217 266 325
#     4  10  21  41  60  75 105 149 189 221 261 329
#     4  10  19  33  55  82 109 145 183 217 266 332
#     4  10  18  34  60  82 107 151 186 208 262 336
#     4  11  22  35  55  86 115 137 174 232 278 310
#
# _framework density 19.169851000000001
#
# number of rings (size 3 to 8) (size 9 to 14) (size 15 to 20)
#    0.000    2.000    2.500    1.125    0.000    3.000 
#    0.000    1.875    0.000    0.000    0.000    0.000 
#    0.000    0.000    0.000    0.000    0.000    0.000 
#
# Total GULP energy -396868.154669 kJ/mol
# GULP energy per Si atom -12402.129833 kJ/mol
# Density = 1.912622 g / cm^3
# Si number density = 19.169851 Si / 1000 Ang^3
#
#
#
# Elastic Constant Matrix: (Units=GPa)
#
#
# Indices 1 2 3 4 5 6 
#
# 1 94.7190 28.2864 46.3777 0.0000 -22.6138 0.0000
# 2 28.2864 38.5132 38.2888 0.0000 -9.8127 0.0000
# 3 46.3777 38.2888 136.3914 0.0000 -22.6239 0.0000
# 4 0.0000 0.0000 0.0000 19.3293 0.0000 -13.0233
# 5 -22.6138 -9.8127 -22.6239 0.0000 23.7888 0.0000
# 6 0.0000 0.0000 0.0000 -13.0233 0.0000 24.9402
#
#
#
# Elastic Compliance Matrix: (Units=1/GPa)
#
#
# Indices 1 2 3 4 5 6 
#
# 1 0.016152 -0.007544 -0.001595 0.000000 0.010725 0.000000
# 2 -0.007544 0.040334 -0.008534 0.000000 0.001350 0.000000
# 3 -0.001595 -0.008534 0.011202 0.000000 0.005616 0.000000
# 4 0.000000 0.000000 0.000000 0.079816 0.000000 0.041678
# 5 0.010725 0.001350 0.005616 0.000000 0.058130 0.000000
# 6 0.000000 0.000000 0.000000 0.041678 0.000000 0.061860
#
#
# Mechanical properties :
#
#
# Convention : Reuss Voigt Hill
#
# Bulk Modulus (GPa) = 30.92039 55.05881 42.98960
# Shear Modulus (GPa) = 15.94281 24.05638 19.99959
#
# Velocity S-wave (km/s) = 2.88698 3.54631 3.23349
# Velocity P-wave (km/s) = 5.22280 6.74925 6.03448
#
# Compressibility (1/GPa) = 0.03234112
#
# Stress axis : x y z
#
# Youngs Moduli (GPa) = 61.91058 24.79298 89.27360
#
# Poissons Ratio (x) = 0.18705 0.14242
# Poissons Ratio (y) = 0.46708 0.76182
# Poissons Ratio (z) = 0.09877 0.21157
#
# Static dielectric constant tensor:
#      x y z
#    x 3.702150 0.000000 0.052690 
#    y 0.000000 3.282570 0.000000 
#    z 0.052690 0.000000 3.535260 
# 
# 
# High freq. dielectric constant tensor:
#      x y z
#    x 1.758420 0.000000 -0.004700 
#    y 0.000000 1.723390 0.000000 
#    z -0.004700 0.000000 1.744150 
# 
# From -- ./inp_files/375518.got.cif
#   From: 2010.06.25/outbox.cif.g09.slc.cpg/sg12_188_cif.got.tgz:375518.got - 2010.06.28 00:19:55.
