data_PCOD8084819
_publ_section_title
;
Structure prediction by ZEFSAII (Michael W. Deem and Ramdas Pophale) SiO2 
 PCOD8084819
Probable space group: C 2/M
;
_chemical_formula_sum "Si O2"
_cell_formula_units_Z 56
_cell_length_a 27.765905
_cell_length_b 9.317083
_cell_length_c 13.825256
_cell_angle_alpha 90.000000
_cell_angle_beta 82.831894
_cell_angle_gamma 90.000000
_cell_volume 3548.602358
_symmetry_space_group_name_H-M "C 2/M"
_symmetry_group_IT_number 12
_symmetry_cell_setting 'monoclinic'
loop_
_space_group_symop_operation_xyz
x,y,z
-x,y,-z
-x,-y,-z
x,-y,z
1/2+x,1/2+y,z
1/2-x,1/2+y,-z
1/2-x,1/2-y,-z
1/2+x,1/2-y,z
loop_
_atom_site_type_symbol
_atom_site_label
_atom_site_fract_x
_atom_site_fract_y
_atom_site_fract_z
Si Si1 0.086149 0.666468 0.846431
Si Si2 0.761965 0.162448 0.589742
Si Si3 0.053887 0.837773 0.027968
Si Si4 0.659903 0.832810 0.666209
Si Si5 0.543957 0.833062 0.419462
Si Si6 0.481058 0.165224 0.792802
Si Si7 0.634701 0.331399 0.476696
O O1 0.089458 0.500000 0.873982
O O2 0.130762 0.716116 0.768237
O O3 0.037075 0.699882 0.800196
O O4 0.089352 0.757091 0.944376
O O5 0.750000 0.250000 0.500000
O O6 0.717729 0.191661 0.676347
O O7 0.817825 0.196288 0.605323
O O8 0.759523 0.000000 0.555745
O O9 0.054632 0.759339 0.131388
O O10 0.072279 0.000000 0.036830
O O11 0.000000 0.831400 0.000000
O O12 0.642432 0.739986 0.579450
O O13 0.648649 0.000000 0.646101
O O14 0.500000 0.789470 0.500000
O O15 0.528279 0.794305 0.315271
O O16 0.590159 0.738738 0.433153
O O17 0.557191 0.000000 0.428203
O O18 0.469282 0.000000 0.817742
O O19 0.624879 0.500000 0.494087
#
# Coordination Sequence:
#
# PCOD8084819 Si02
#       7
#     8   8   8   8   8   8   8
#     4   9  16  27  45  66  85 108 140 177 214 250
#     4   8  15  27  42  61  85 113 144 176 212 255
#     4   9  17  28  42  61  86 113 138 168 211 260
#     4   9  16  28  46  65  87 116 147 178 213 254
#     4  10  20  33  47  63  85 116 153 184 209 245
#     4   9  17  29  44  61  83 112 146 179 206 242
#     4  10  19  29  42  63  91 119 146 178 216 256
#
# _framework density 15.780862000000001
#
# number of rings (size 3 to 8) (size 9 to 14) (size 15 to 20)
#    0.000    2.857    0.000    1.714    0.000    6.000 
#    0.000    2.857    0.000    0.000    0.000    1.000 
#    0.000    0.000    0.000    0.000    0.000    0.000 
#
# Total GULP energy -346969.844491 kJ/mol
# GULP energy per Si atom -12391.780160 kJ/mol
# Density = 1.574494 g / cm^3
# Si number density = 15.780862 Si / 1000 Ang^3
#
#
#
# Elastic Constant Matrix: (Units=GPa)
#
#
# Indices 1 2 3 4 5 6 
#
# 1 94.3666 48.7875 59.4392 0.0000 -21.0476 0.0000
# 2 48.7875 75.3840 57.5851 0.0000 -10.8865 0.0000
# 3 59.4392 57.5851 124.0209 0.0000 -21.2754 0.0000
# 4 0.0000 0.0000 0.0000 19.6536 0.0000 -0.6776
# 5 -21.0476 -10.8865 -21.2754 0.0000 23.7746 0.0000
# 6 0.0000 0.0000 0.0000 -0.6776 0.0000 19.2907
#
#
#
# Elastic Compliance Matrix: (Units=1/GPa)
#
#
# Indices 1 2 3 4 5 6 
#
# 1 0.019509 -0.008288 -0.003768 0.000000 0.010104 0.000000
# 2 -0.008288 0.024099 -0.007777 0.000000 -0.003262 0.000000
# 3 -0.003768 -0.007777 0.014527 0.000000 0.006103 0.000000
# 4 0.000000 0.000000 0.000000 0.050943 0.000000 0.001789
# 5 0.010104 -0.003262 0.006103 0.000000 0.054974 0.000000
# 6 0.000000 0.000000 0.000000 0.001789 0.000000 0.051901
#
#
# Mechanical properties :
#
#
# Convention : Reuss Voigt Hill
#
# Bulk Modulus (GPa) = 54.14721 69.48835 61.81778
# Shear Modulus (GPa) = 19.10020 21.07443 20.08731
#
# Velocity S-wave (km/s) = 3.48277 3.65833 3.57163
# Velocity P-wave (km/s) = 7.11051 7.87232 7.50109
#
# Compressibility (1/GPa) = 0.01846817
#
# Stress axis : x y z
#
# Youngs Moduli (GPa) = 51.25766 41.49526 68.83674
#
# Poissons Ratio (x) = 0.34393 0.25941
# Poissons Ratio (y) = 0.42484 0.53534
# Poissons Ratio (z) = 0.19316 0.32270
#
# Static dielectric constant tensor:
#      x y z
#    x 3.243190 0.000000 -0.375010 
#    y 0.000000 3.076550 0.000000 
#    z -0.375010 0.000000 2.949540 
# 
# 
# High freq. dielectric constant tensor:
#      x y z
#    x 1.587640 0.000000 -0.025630 
#    y 0.000000 1.612500 0.000000 
#    z -0.025630 0.000000 1.587700 
# 
# From -- ./inp_files/247799.got.cif
#   From: 2010.06.25/outbox.cif.g09.slc.cpg/sg12_124_cif.got.tgz:247799.got - 2010.06.28 00:19:55.
