data_PCOD8084442
_publ_section_title
;
Structure prediction by ZEFSAII (Michael W. Deem and Ramdas Pophale) SiO2 
 PCOD8084442
Probable space group: C 2/M
;
_chemical_formula_sum "Si O2"
_cell_formula_units_Z 44
_cell_length_a 18.878708
_cell_length_b 18.822450
_cell_length_c 16.770578
_cell_angle_alpha 90.000000
_cell_angle_beta 22.859140
_cell_angle_gamma 90.000000
_cell_volume 2314.997304
_symmetry_space_group_name_H-M "C 2/M"
_symmetry_group_IT_number 12
_symmetry_cell_setting 'monoclinic'
loop_
_space_group_symop_operation_xyz
x,y,z
-x,y,-z
-x,-y,-z
x,-y,z
1/2+x,1/2+y,z
1/2-x,1/2+y,-z
1/2-x,1/2-y,-z
1/2+x,1/2-y,z
loop_
_atom_site_type_symbol
_atom_site_label
_atom_site_fract_x
_atom_site_fract_y
_atom_site_fract_z
Si Si1 0.324080 0.000000 0.125803
Si Si2 0.673506 0.775310 0.972587
Si Si3 0.685186 0.846977 0.629360
Si Si4 0.405518 0.500000 0.790505
Si Si5 0.684842 0.000000 0.667052
Si Si6 0.292454 0.346993 0.698444
Si Si7 0.569844 0.653371 0.174475
O O1 0.260588 0.000000 0.099244
O O2 0.244587 0.929854 0.249315
O O3 0.551305 0.000000 0.885148
O O4 0.495382 0.803895 0.204965
O O5 0.665354 0.689873 0.997582
O O6 0.669413 0.796929 0.884019
O O7 0.850588 0.810998 0.827856
O O8 0.742547 0.829297 0.660302
O O9 0.853162 0.829381 0.396775
O O10 0.635017 0.930002 0.669385
O O11 0.596202 0.500000 0.542083
O O12 0.394516 0.568884 0.859325
O O13 0.500000 0.327693 0.500000
#
# Coordination Sequence:
#
# PCOD8084442 Si02
#       7
#     4   8   8   4   4   8   8
#     4  12  20  33  46  76 108 142 165 194 237 301
#     4  11  21  34  51  72 103 135 172 208 251 293
#     4  11  20  34  49  75 103 138 168 203 249 299
#     4  10  18  36  52  73 100 136 170 205 251 294
#     4  10  19  29  49  72 102 138 166 192 233 302
#     4  12  21  33  49  75 108 137 170 204 246 303
#     4  10  21  36  52  72 101 133 173 212 247 301
#
# _framework density 19.006501
#
# number of rings (size 3 to 8) (size 9 to 14) (size 15 to 20)
#    0.000    1.091    5.455    3.000    0.000    0.727 
#    0.000    0.000    0.000    0.000    0.000    3.182 
#    0.000    0.000    0.000    0.000    0.000    0.000 
#
# Total GULP energy -272708.956998 kJ/mol
# GULP energy per Si atom -12395.861682 kJ/mol
# Density = 1.896324 g / cm^3
# Si number density = 19.006501 Si / 1000 Ang^3
#
#
#
# Elastic Constant Matrix: (Units=GPa)
#
#
# Indices 1 2 3 4 5 6 
#
# 1 28.5555 14.8964 4.1695 0.0266 1.6309 -0.0082
# 2 14.8964 100.3868 37.8739 -0.0109 14.5488 -0.0121
# 3 4.1695 37.8739 72.5281 -0.0393 -6.9513 0.0057
# 4 0.0266 -0.0109 -0.0393 27.7238 -0.0074 4.0746
# 5 1.6309 14.5488 -6.9513 -0.0074 31.0202 0.0105
# 6 -0.0082 -0.0121 0.0057 4.0746 0.0105 15.7804
#
#
#
# Elastic Compliance Matrix: (Units=1/GPa)
#
#
# Indices 1 2 3 4 5 6 
#
# 1 0.038049 -0.006277 0.001207 -0.000040 0.001214 0.000024
# 2 -0.006277 0.015378 -0.008512 -0.000005 -0.008790 0.000019
# 3 0.001207 -0.008512 0.018947 0.000028 0.008175 -0.000026
# 4 -0.000040 -0.000005 0.000028 0.037493 0.000023 -0.009681
# 5 0.001214 -0.008790 0.008175 0.000023 0.038128 -0.000041
# 6 0.000024 0.000019 -0.000026 -0.009681 -0.000041 0.065869
#
#
# Mechanical properties :
#
#
# Convention : Reuss Voigt Hill
#
# Bulk Modulus (GPa) = 22.11951 35.03888 28.57919
# Shear Modulus (GPa) = 19.52371 24.54025 22.03198
#
# Velocity S-wave (km/s) = 3.20849 3.59716 3.40837
# Velocity P-wave (km/s) = 5.03875 5.97729 5.52797
#
# Compressibility (1/GPa) = 0.04520897
#
# Stress axis : x y z
#
# Youngs Moduli (GPa) = 26.28209 65.02635 52.77910
#
# Poissons Ratio (x) = 0.40820 -0.06371
# Poissons Ratio (y) = 0.16498 0.44926
# Poissons Ratio (z) = -0.03172 0.55351
#
# Static dielectric constant tensor:
#      x y z
#    x 3.197820 -0.000030 -0.292030 
#    y -0.000030 3.527160 0.000120 
#    z -0.292030 0.000120 3.739440 
# 
# 
# High freq. dielectric constant tensor:
#      x y z
#    x 1.700400 0.000000 -0.033250 
#    y 0.000000 1.730610 0.000010 
#    z -0.033250 0.000010 1.754620 
# 
# From -- ./inp_files/62739.got.cif
#   From: 2010.06.25/outbox.cif.g09.slc.cpg/sg12_32_cif.got.tgz:62739.got - 2010.06.28 00:19:55.
