data_PCOD8084340
_publ_section_title
;
Structure prediction by ZEFSAII (Michael W. Deem and Ramdas Pophale) SiO2 
 PCOD8084340
Probable space group: C 2/M
;
_chemical_formula_sum "Si O2"
_cell_formula_units_Z 56
_cell_length_a 34.026273
_cell_length_b 9.170559
_cell_length_c 22.004389
_cell_angle_alpha 90.000000
_cell_angle_beta 25.057068
_cell_angle_gamma 90.000000
_cell_volume 2907.998682
_symmetry_space_group_name_H-M "C 2/M"
_symmetry_group_IT_number 12
_symmetry_cell_setting 'monoclinic'
loop_
_space_group_symop_operation_xyz
x,y,z
-x,y,-z
-x,-y,-z
x,-y,z
1/2+x,1/2+y,z
1/2-x,1/2+y,-z
1/2-x,1/2-y,-z
1/2+x,1/2-y,z
loop_
_atom_site_type_symbol
_atom_site_label
_atom_site_fract_x
_atom_site_fract_y
_atom_site_fract_z
Si Si1 0.580278 0.671476 0.341296
Si Si2 0.562462 0.669020 0.227379
Si Si3 0.092951 0.827005 0.746333
Si Si4 0.795167 0.168886 0.295520
Si Si5 0.098183 0.330978 0.616922
Si Si6 0.227352 0.829911 0.911653
Si Si7 0.881424 0.172762 0.053209
O O1 0.500000 0.725255 0.500000
O O2 0.595613 0.500000 0.325719
O O3 0.552760 0.714612 0.311172
O O4 0.676130 0.746993 0.223169
O O5 0.537322 0.500000 0.252297
O O6 0.492125 0.762787 0.286564
O O7 0.667009 0.700016 0.057114
O O8 0.154291 0.764993 0.716028
O O9 0.127915 0.747706 0.637091
O O10 0.103187 0.000000 0.723039
O O11 0.987569 0.778235 0.905254
O O12 0.684858 0.191743 0.450509
O O13 0.832983 0.241946 0.180713
O O14 0.822671 0.000000 0.256382
O O15 0.079030 0.500000 0.656782
O O16 0.169056 0.768037 0.936285
O O17 0.249610 0.000000 0.873676
O O18 0.873360 0.000000 0.064703
#
# Coordination Sequence:
#
# PCOD8084340 Si02
#       7
#     8   8   8   8   8   8   8
#     4  10  23  40  59  85 117 146 175 218 275 338
#     4  10  21  40  60  80 109 147 189 223 265 329
#     4  10  18  35  59  79 107 148 189 228 274 324
#     4   9  19  32  52  82 112 145 186 232 275 319
#     4  11  22  34  53  83 115 144 182 230 277 324
#     4  10  20  36  60  85 109 143 188 231 266 314
#     4   9  17  32  55  83 110 140 186 233 269 315
#
# _framework density 19.25723
#
# number of rings (size 3 to 8) (size 9 to 14) (size 15 to 20)
#    0.000    2.143    1.429    1.714    2.000    3.143 
#    0.000    0.714    0.000    4.286    0.000    0.000 
#    0.000    0.000    0.000    0.000    0.000    0.000 
#
# Total GULP energy -347212.714558 kJ/mol
# GULP energy per Si atom -12400.454091 kJ/mol
# Density = 1.921340 g / cm^3
# Si number density = 19.257230 Si / 1000 Ang^3
#
#
#
# Elastic Constant Matrix: (Units=GPa)
#
#
# Indices 1 2 3 4 5 6 
#
# 1 107.1784 26.4752 49.8732 -0.0055 9.6806 0.0017
# 2 26.4752 35.7558 30.3181 -0.0024 -1.1763 0.0061
# 3 49.8732 30.3181 107.5371 -0.0123 7.8113 0.0109
# 4 -0.0055 -0.0024 -0.0123 24.0165 -0.0026 -7.4466
# 5 9.6806 -1.1763 7.8113 -0.0026 38.5621 0.0004
# 6 0.0017 0.0061 0.0109 -7.4466 0.0004 16.2561
#
#
#
# Elastic Compliance Matrix: (Units=1/GPa)
#
#
# Indices 1 2 3 4 5 6 
#
# 1 0.013013 -0.006264 -0.004078 0.000001 -0.002632 0.000004
# 2 -0.006264 0.040180 -0.008755 -0.000005 0.004572 -0.000011
# 3 -0.004078 -0.008755 0.013807 0.000004 -0.002040 -0.000004
# 4 0.000001 -0.000005 0.000004 0.048531 0.000002 0.022231
# 5 -0.002632 0.004572 -0.002040 0.000002 0.027146 0.000000
# 6 0.000004 -0.000011 -0.000004 0.022231 0.000000 0.071699
#
#
# Mechanical properties :
#
#
# Convention : Reuss Voigt Hill
#
# Bulk Modulus (GPa) = 34.71550 51.53381 43.12465
# Shear Modulus (GPa) = 19.07158 25.35393 22.21276
#
# Velocity S-wave (km/s) = 3.15041 3.63242 3.39997
# Velocity P-wave (km/s) = 5.59463 6.66420 6.15270
#
# Compressibility (1/GPa) = 0.02880558
#
# Stress axis : x y z
#
# Youngs Moduli (GPa) = 76.84700 24.88826 72.42845
#
# Poissons Ratio (x) = 0.15591 0.29535
# Poissons Ratio (y) = 0.48139 0.63409
# Poissons Ratio (z) = 0.31337 0.21789
#
# Static dielectric constant tensor:
#      x y z
#    x 3.761400 0.000000 0.226940 
#    y 0.000000 3.170070 0.000020 
#    z 0.226940 0.000020 3.639930 
# 
# 
# High freq. dielectric constant tensor:
#      x y z
#    x 1.760830 0.000000 0.004680 
#    y 0.000000 1.710750 0.000000 
#    z 0.004680 0.000000 1.762890 
# 
# From -- ./inp_files/329520.got.cif
#   From: 2010.06.25/outbox.cif.g09.slc.cpg/sg12_165_cif.got.tgz:329520.got - 2010.06.28 00:19:55.
