data_PCOD8084397
_publ_section_title
;
Structure prediction by ZEFSAII (Michael W. Deem and Ramdas Pophale) SiO2 
 PCOD8084397
Probable space group: C 2/M
;
_chemical_formula_sum "Si O2"
_cell_formula_units_Z 56
_cell_length_a 15.279523
_cell_length_b 8.578885
_cell_length_c 24.416100
_cell_angle_alpha 90.000000
_cell_angle_beta 61.384016
_cell_angle_gamma 90.000000
_cell_volume 2809.551219
_symmetry_space_group_name_H-M "C 2/M"
_symmetry_group_IT_number 12
_symmetry_cell_setting 'monoclinic'
loop_
_space_group_symop_operation_xyz
x,y,z
-x,y,-z
-x,-y,-z
x,-y,z
1/2+x,1/2+y,z
1/2-x,1/2+y,-z
1/2-x,1/2-y,-z
1/2+x,1/2-y,z
loop_
_atom_site_type_symbol
_atom_site_label
_atom_site_fract_x
_atom_site_fract_y
_atom_site_fract_z
Si Si1 0.044755 0.680044 0.131618
Si Si2 0.242736 0.682146 0.129846
Si Si3 0.976083 0.185054 0.567332
Si Si4 0.745161 0.317202 0.348850
Si Si5 0.327880 0.683812 0.433613
Si Si6 0.834548 0.817823 0.214039
Si Si7 0.600952 0.321644 0.003290
O O1 0.011621 0.500000 0.144172
O O2 0.126747 0.717336 0.153831
O O3 0.951770 0.791926 0.169958
O O4 0.094798 0.713928 0.058328
O O5 0.267010 0.500000 0.123601
O O6 0.274500 0.749114 0.179487
O O7 0.311164 0.751209 0.060633
O O8 0.868163 0.247679 0.618817
O O9 0.000000 0.252836 0.500000
O O10 0.061144 0.243387 0.583757
O O11 0.974515 0.000000 0.565515
O O12 0.746289 0.500000 0.359621
O O13 0.806447 0.237129 0.378817
O O14 0.798284 0.279984 0.276349
O O15 0.321956 0.500000 0.439239
O O16 0.250000 0.750000 0.500000
O O17 0.814596 0.000000 0.230029
O O18 0.622471 0.500000 0.014584
O O19 0.500000 0.311056 0.000000
#
# Coordination Sequence:
#
# PCOD8084397 Si02
#       7
#     8   8   8   8   8   8   8
#     4  11  22  37  59  90 121 151 195 250 298 343
#     4   9  20  38  60  84 117 157 197 243 294 351
#     4   9  18  36  61  87 119 155 188 232 290 346
#     4  11  23  41  62  88 120 154 196 246 295 347
#     4  11  21  37  62  92 122 156 193 235 288 347
#     4  11  23  43  62  81 115 161 201 237 292 359
#     4  10  18  35  61  86 116 157 197 239 297 354
#
# _framework density 19.932009999999998
#
# number of rings (size 3 to 8) (size 9 to 14) (size 15 to 20)
#    0.000    1.714    2.857    2.143    0.000    1.429 
#    0.000   10.000    0.000    0.000    0.000    0.000 
#    0.000    0.000    0.000    0.000    0.000    0.000 
#
# Total GULP energy -347258.540446 kJ/mol
# GULP energy per Si atom -12402.090730 kJ/mol
# Density = 1.988664 g / cm^3
# Si number density = 19.932010 Si / 1000 Ang^3
#
#
#
# Elastic Constant Matrix: (Units=GPa)
#
#
# Indices 1 2 3 4 5 6 
#
# 1 161.7096 27.4457 57.7458 0.0000 7.9935 0.0000
# 2 27.4457 40.4736 6.4682 0.0000 1.3724 0.0001
# 3 57.7458 6.4682 109.8032 0.0000 18.8362 0.0000
# 4 0.0000 0.0000 0.0000 31.8461 0.0000 0.6964
# 5 7.9935 1.3724 18.8362 0.0000 18.5411 0.0000
# 6 0.0000 0.0001 0.0000 0.6964 0.0000 23.6032
#
#
#
# Elastic Compliance Matrix: (Units=1/GPa)
#
#
# Indices 1 2 3 4 5 6 
#
# 1 0.008573 -0.005149 -0.004404 0.000000 0.001159 0.000000
# 2 -0.005149 0.028038 0.001249 0.000000 -0.001124 0.000000
# 3 -0.004404 0.001249 0.013370 0.000000 -0.011776 0.000000
# 4 0.000000 0.000000 0.000000 0.031421 0.000000 -0.000927
# 5 0.001159 -0.001124 -0.011776 0.000000 0.065481 0.000000
# 6 0.000000 0.000000 0.000000 -0.000927 0.000000 0.042395
#
#
# Mechanical properties :
#
#
# Convention : Reuss Voigt Hill
#
# Bulk Modulus (GPa) = 29.96474 55.03400 42.49937
# Shear Modulus (GPa) = 23.04032 29.48651 26.26342
#
# Velocity S-wave (km/s) = 3.40361 3.85041 3.63388
# Velocity P-wave (km/s) = 5.52378 6.88755 6.24302
#
# Compressibility (1/GPa) = 0.03337256
#
# Stress axis : x y z
#
# Youngs Moduli (GPa) = 116.64138 35.66638 74.79414
#
# Poissons Ratio (x) = 0.18365 0.32941
# Poissons Ratio (y) = 0.60060 -0.09343
# Poissons Ratio (z) = 0.51372 -0.04455
#
# Static dielectric constant tensor:
#      x y z
#    x 3.966580 0.000000 0.073740 
#    y 0.000000 3.379800 0.000000 
#    z 0.073740 0.000000 3.528470 
# 
# 
# High freq. dielectric constant tensor:
#      x y z
#    x 1.794960 0.000000 -0.000610 
#    y 0.000000 1.754080 0.000000 
#    z -0.000610 0.000000 1.775740 
# 
# From -- ./inp_files/362505.got.cif
#   From: 2010.06.25/outbox.cif.g09.slc.cpg/sg12_182_cif.got.tgz:362505.got - 2010.06.28 00:19:55.
