data_PCOD8084007
_publ_section_title
;
Structure prediction by ZEFSAII (Michael W. Deem and Ramdas Pophale) SiO2 
 PCOD8084007
Probable space group: C 2/M
;
_chemical_formula_sum "Si O2"
_cell_formula_units_Z 64
_cell_length_a 21.963521
_cell_length_b 25.753972
_cell_length_c 12.178705
_cell_angle_alpha 90.000000
_cell_angle_beta 150.237601
_cell_angle_gamma 90.000000
_cell_volume 3419.659718
_symmetry_space_group_name_H-M "C 2/M"
_symmetry_group_IT_number 12
_symmetry_cell_setting 'monoclinic'
loop_
_space_group_symop_operation_xyz
x,y,z
-x,y,-z
-x,-y,-z
x,-y,z
1/2+x,1/2+y,z
1/2-x,1/2+y,-z
1/2-x,1/2-y,-z
1/2+x,1/2-y,z
loop_
_atom_site_type_symbol
_atom_site_label
_atom_site_fract_x
_atom_site_fract_y
_atom_site_fract_z
Si Si1 0.557548 0.090995 0.926618
Si Si2 0.326396 0.197308 0.837999
Si Si3 0.945606 0.440702 0.534122
Si Si4 0.919966 0.242959 0.480406
Si Si5 0.956378 0.204282 0.108867
Si Si6 0.203889 0.156269 0.434157
Si Si7 0.784274 0.344382 0.315575
Si Si8 0.685228 0.058436 0.330313
O O1 0.550167 0.070338 0.790196
O O2 0.425456 0.084331 0.775526
O O3 0.597352 0.151004 0.986774
O O4 0.655416 0.058690 0.152974
O O5 0.204507 0.208853 0.719016
O O6 0.289420 0.185748 0.655241
O O7 0.411038 0.247838 0.963959
O O8 0.899688 0.500000 0.473287
O O9 0.829503 0.403095 0.368895
O O10 0.000000 0.430009 0.500000
O O11 0.887455 0.304016 0.435999
O O12 0.000000 0.231181 0.500000
O O13 0.003835 0.225486 0.711852
O O14 0.065302 0.175874 0.215578
O O15 0.844017 0.163668 0.949350
O O16 0.264105 0.167128 0.411918
O O17 0.199121 0.094877 0.459885
O O18 0.711228 0.000000 0.410159
#
# Coordination Sequence:
#
# PCOD8084007 Si02
#       8
#     8   8   8   8   8   8   8   8
#     4  10  18  34  55  83 106 135 175 222 274 317
#     4   9  21  36  55  83 110 139 176 221 267 322
#     4  11  23  37  54  78 109 143 182 227 271 317
#     4  10  22  39  55  76 106 143 183 223 262 310
#     4  10  22  37  54  78 112 146 177 213 268 324
#     4  10  21  36  52  83 111 139 176 218 270 323
#     4  11  22  36  55  79 107 144 181 221 262 325
#     4  10  19  33  57  82 107 137 175 225 272 316
#
# _framework density 18.715312000000001
#
# number of rings (size 3 to 8) (size 9 to 14) (size 15 to 20)
#    0.000    1.875    1.250    3.000    0.000    8.500 
#   11.250    0.625    0.000    1.500    0.000    0.000 
#    0.000   15.000    0.000    0.000    0.000    0.000 
#
# Total GULP energy -396776.247573 kJ/mol
# GULP energy per Si atom -12399.257737 kJ/mol
# Density = 1.867272 g / cm^3
# Si number density = 18.715312 Si / 1000 Ang^3
#
#
#
# Elastic Constant Matrix: (Units=GPa)
#
#
# Indices 1 2 3 4 5 6 
#
# 1 102.9068 48.8994 42.0351 0.0000 -0.7061 0.0000
# 2 48.8994 142.3525 65.6292 0.0000 16.0990 0.0000
# 3 42.0351 65.6292 92.7812 0.0000 1.3689 0.0000
# 4 0.0000 0.0000 0.0000 21.7317 0.0000 2.1468
# 5 -0.7061 16.0990 1.3689 0.0000 22.4133 0.0000
# 6 0.0000 0.0000 0.0000 2.1468 0.0000 23.3327
#
#
#
# Elastic Compliance Matrix: (Units=1/GPa)
#
#
# Indices 1 2 3 4 5 6 
#
# 1 0.012644 -0.002960 -0.003675 0.000000 0.002749 0.000000
# 2 -0.002960 0.012361 -0.007277 0.000000 -0.008527 0.000000
# 3 -0.003675 -0.007277 0.017531 0.000000 0.004040 0.000000
# 4 0.000000 0.000000 0.000000 0.046438 0.000000 -0.004273
# 5 0.002749 -0.008527 0.004040 0.000000 0.050581 0.000000
# 6 0.000000 0.000000 0.000000 -0.004273 0.000000 0.043252
#
#
# Mechanical properties :
#
#
# Convention : Reuss Voigt Hill
#
# Bulk Modulus (GPa) = 67.97215 72.35199 70.16207
# Shear Modulus (GPa) = 23.19822 25.59398 24.39610
#
# Velocity S-wave (km/s) = 3.52452 3.70204 3.61437
# Velocity P-wave (km/s) = 7.27742 7.55094 7.41544
#
# Compressibility (1/GPa) = 0.01471191
#
# Stress axis : x y z
#
# Youngs Moduli (GPa) = 79.08794 80.90196 57.04242
#
# Poissons Ratio (x) = 0.23945 0.20966
# Poissons Ratio (y) = 0.23408 0.41508
# Poissons Ratio (z) = 0.29069 0.58869
#
# Static dielectric constant tensor:
#      x y z
#    x 3.321990 0.000000 -0.123020 
#    y 0.000000 3.564060 0.000000 
#    z -0.123020 0.000000 3.680120 
# 
# 
# High freq. dielectric constant tensor:
#      x y z
#    x 1.711770 0.000000 -0.015310 
#    y 0.000000 1.730690 0.000000 
#    z -0.015310 0.000000 1.724080 
# 
# From -- ./inp_files/170605.got.cif
#   From: 2010.06.25/outbox.cif.g09.slc.cpg/sg12_86_cif.got.tgz:170605.got - 2010.06.28 00:19:55.
