data_PCOD8084609
_publ_section_title
;
Structure prediction by ZEFSAII (Michael W. Deem and Ramdas Pophale) SiO2 
 PCOD8084609
Probable space group: C 2/M
;
_chemical_formula_sum "Si O2"
_cell_formula_units_Z 40
_cell_length_a 13.925628
_cell_length_b 13.341162
_cell_length_c 11.677848
_cell_angle_alpha 90.000000
_cell_angle_beta 106.800236
_cell_angle_gamma 90.000000
_cell_volume 2076.957594
_symmetry_space_group_name_H-M "C 2/M"
_symmetry_group_IT_number 12
_symmetry_cell_setting 'monoclinic'
loop_
_space_group_symop_operation_xyz
x,y,z
-x,y,-z
-x,-y,-z
x,-y,z
1/2+x,1/2+y,z
1/2-x,1/2+y,-z
1/2-x,1/2-y,-z
1/2+x,1/2-y,z
loop_
_atom_site_type_symbol
_atom_site_label
_atom_site_fract_x
_atom_site_fract_y
_atom_site_fract_z
Si Si1 0.922060 0.000000 0.072567
Si Si2 0.519914 0.500000 0.341065
Si Si3 0.500000 0.164991 0.500000
Si Si4 0.373957 0.332182 0.361432
Si Si5 0.729420 0.659851 0.908453
Si Si6 0.566377 0.000000 0.362770
Si Si7 0.394346 0.000000 0.896896
Si Si8 0.282645 0.500000 0.469750
O O1 0.850057 0.904929 0.048073
O O2 0.999073 0.000000 0.202221
O O3 0.000000 0.000000 0.000000
O O4 0.473555 0.400354 0.381611
O O5 0.639465 0.500000 0.398879
O O6 0.402183 0.233840 0.443663
O O7 0.509919 0.099525 0.387386
O O8 0.324172 0.299707 0.224415
O O9 0.292540 0.399934 0.397228
O O10 0.830082 0.598097 0.910043
O O11 0.750000 0.750000 0.000000
O O12 0.582099 0.000000 0.231395
O O13 0.669079 0.000000 0.472665
O O14 0.500000 0.000000 0.000000
#
# Coordination Sequence:
#
# PCOD8084609 Si02
#       8
#     4   4   4   8   8   4   4   4
#     4   9  20  41  58  88 128 148 190 261 305 349
#     4   9  17  34  65  88 115 151 185 244 313 350
#     4  11  24  41  60  90 126 165 192 255 310 360
#     4  10  18  38  65  86 117 151 199 249 299 356
#     4  10  22  41  63  90 117 160 210 251 295 362
#     4  11  26  43  55  88 134 160 200 247 306 367
#     4  11  24  45  63  84 127 173 202 248 311 367
#     4  11  17  39  63  89 113 154 197 245 306 360
#
# _framework density 19.258939999999999
#
# number of rings (size 3 to 8) (size 9 to 14) (size 15 to 20)
#    0.000    1.800    4.000    1.800    2.800    1.600 
#    7.200    0.000    0.000    0.000    0.000    0.000 
#    0.000    0.000    0.000    0.000    0.000    0.000 
#
# Total GULP energy -247876.119734 kJ/mol
# GULP energy per Si atom -12393.805987 kJ/mol
# Density = 1.921511 g / cm^3
# Si number density = 19.258940 Si / 1000 Ang^3
#
#
#
# Elastic Constant Matrix: (Units=GPa)
#
#
# Indices 1 2 3 4 5 6 
#
# 1 87.4565 29.7769 44.8697 0.0000 -2.6984 0.0000
# 2 29.7769 126.1678 69.5550 0.0000 -5.5467 0.0000
# 3 44.8697 69.5550 119.1788 0.0000 3.8303 0.0000
# 4 0.0000 0.0000 0.0000 30.3182 0.0000 4.0232
# 5 -2.6984 -5.5467 3.8303 0.0000 40.7988 0.0000
# 6 0.0000 0.0000 0.0000 4.0232 0.0000 4.2483
#
#
#
# Elastic Compliance Matrix: (Units=1/GPa)
#
#
# Indices 1 2 3 4 5 6 
#
# 1 0.014276 -0.000475 -0.005141 0.000000 0.001362 0.000000
# 2 -0.000475 0.011908 -0.006843 0.000000 0.002230 0.000000
# 3 -0.005141 -0.006843 0.014404 0.000000 -0.002623 0.000000
# 4 0.000000 0.000000 0.000000 0.037724 0.000000 -0.035725
# 5 0.001362 0.002230 -0.002623 0.000000 0.025150 0.000000
# 6 0.000000 0.000000 0.000000 -0.035725 0.000000 0.269218
#
#
# Mechanical properties :
#
#
# Convention : Reuss Voigt Hill
#
# Bulk Modulus (GPa) = 63.81495 69.02292 66.41893
# Shear Modulus (GPa) = 12.41243 27.64650 20.02946
#
# Velocity S-wave (km/s) = 2.54146 3.79293 3.22842
# Velocity P-wave (km/s) = 6.46678 7.42287 6.96126
#
# Compressibility (1/GPa) = 0.01567031
#
# Stress axis : x y z
#
# Youngs Moduli (GPa) = 70.04893 83.97374 69.42382
#
# Poissons Ratio (x) = 0.03989 0.35692
# Poissons Ratio (y) = 0.03327 0.47506
# Poissons Ratio (z) = 0.36014 0.57462
#
# Static dielectric constant tensor:
#      x y z
#    x 3.405490 0.000000 0.151910 
#    y 0.000000 3.494090 0.000000 
#    z 0.151910 0.000000 2.973430 
# 
# 
# High freq. dielectric constant tensor:
#      x y z
#    x 1.739680 0.000000 0.011890 
#    y 0.000000 1.747360 0.000000 
#    z 0.011890 0.000000 1.755930 
# 
# From -- ./inp_files/141186.got.cif
#   From: 2010.06.25/outbox.cif.g09.slc.cpg/sg12_71_cif.got.tgz:141186.got - 2010.06.28 00:19:55.
