data_PCOD8084683
_publ_section_title
;
Structure prediction by ZEFSAII (Michael W. Deem and Ramdas Pophale) SiO2 
 PCOD8084683
Probable space group: C 2/M
;
_chemical_formula_sum "Si O2"
_cell_formula_units_Z 56
_cell_length_a 35.584685
_cell_length_b 7.736189
_cell_length_c 17.754355
_cell_angle_alpha 90.000000
_cell_angle_beta 134.962418
_cell_angle_gamma 90.000000
_cell_volume 3458.316832
_symmetry_space_group_name_H-M "C 2/M"
_symmetry_group_IT_number 12
_symmetry_cell_setting 'monoclinic'
loop_
_space_group_symop_operation_xyz
x,y,z
-x,y,-z
-x,-y,-z
x,-y,z
1/2+x,1/2+y,z
1/2-x,1/2+y,-z
1/2-x,1/2-y,-z
1/2+x,1/2-y,z
loop_
_atom_site_type_symbol
_atom_site_label
_atom_site_fract_x
_atom_site_fract_y
_atom_site_fract_z
Si Si1 0.493053 0.295444 0.607972
Si Si2 0.303787 0.302667 0.981132
Si Si3 0.081054 0.500000 0.072387
Si Si4 0.495383 0.698597 0.781427
Si Si5 0.583663 0.295643 0.627742
Si Si6 0.034866 0.500000 0.161439
Si Si7 0.188767 0.301762 0.845910
Si Si8 0.610806 0.699484 0.013841
O O1 0.496949 0.500000 0.612748
O O2 0.489551 0.229260 0.688187
O O3 0.545843 0.223827 0.641130
O O4 0.440869 0.236041 0.487205
O O5 0.300791 0.500000 0.953434
O O6 0.244381 0.219242 0.894285
O O7 0.343242 0.221609 0.975159
O O8 0.328267 0.286334 0.099692
O O9 0.080784 0.500000 0.162982
O O10 0.109853 0.324406 0.085186
O O11 0.021781 0.500000 0.957972
O O12 0.475266 0.500000 0.761437
O O13 0.459262 0.824854 0.781147
O O14 0.556662 0.712623 0.890313
O O15 0.587708 0.500000 0.637590
O O16 0.642554 0.218551 0.719041
O O17 0.200143 0.500000 0.880094
O O18 0.620027 0.500000 0.052643
#
# Coordination Sequence:
#
# PCOD8084683 Si02
#       8
#     8   8   4   8   8   4   8   8
#     4   8  15  28  45  60  80 117 154 181 211 251
#     4   9  18  31  43  57  82 117 151 180 211 254
#     4   9  18  30  44  64  92 114 142 175 214 270
#     4   9  16  28  45  64  86 116 150 179 211 260
#     4   9  16  29  44  58  83 117 150 184 215 251
#     4   9  18  30  42  65  92 116 138 175 222 260
#     4  10  19  28  40  61  87 114 145 183 221 250
#     4   9  17  29  46  64  85 117 148 179 214 254
#
# _framework density 16.192848999999999
#
# number of rings (size 3 to 8) (size 9 to 14) (size 15 to 20)
#    0.000    3.000    0.000    2.143    1.000    3.429 
#    5.143    3.571    0.000    0.000    0.000    0.000 
#    0.000    1.143    0.571    0.000    0.000    0.000 
#
# Total GULP energy -346990.443919 kJ/mol
# GULP energy per Si atom -12392.515854 kJ/mol
# Density = 1.615599 g / cm^3
# Si number density = 16.192849 Si / 1000 Ang^3
#
#
#
# Elastic Constant Matrix: (Units=GPa)
#
#
# Indices 1 2 3 4 5 6 
#
# 1 115.8151 45.2351 44.0811 0.0000 -20.3885 0.0000
# 2 45.2351 64.6383 22.4601 0.0000 -11.8390 0.0000
# 3 44.0811 22.4601 75.0245 0.0000 -3.7173 0.0000
# 4 0.0000 0.0000 0.0000 16.3308 0.0000 -3.0391
# 5 -20.3885 -11.8390 -3.7173 0.0000 26.8644 0.0000
# 6 0.0000 0.0000 0.0000 -3.0391 0.0000 19.7424
#
#
#
# Elastic Compliance Matrix: (Units=1/GPa)
#
#
# Indices 1 2 3 4 5 6 
#
# 1 0.015130 -0.006978 -0.006428 0.000000 0.007518 0.000000
# 2 -0.006978 0.021874 -0.002249 0.000000 0.004033 0.000000
# 3 -0.006428 -0.002249 0.017609 0.000000 -0.003433 0.000000
# 4 0.000000 0.000000 0.000000 0.063040 0.000000 0.009704
# 5 0.007518 0.004033 -0.003433 0.000000 0.044232 0.000000
# 6 0.000000 0.000000 0.000000 0.009704 0.000000 0.052146
#
#
# Mechanical properties :
#
#
# Convention : Reuss Voigt Hill
#
# Bulk Modulus (GPa) = 42.91209 53.22561 48.06885
# Shear Modulus (GPa) = 19.75436 22.16762 20.96099
#
# Velocity S-wave (km/s) = 3.49656 3.70398 3.60176
# Velocity P-wave (km/s) = 6.54671 7.15778 6.85905
#
# Compressibility (1/GPa) = 0.02330346
#
# Stress axis : x y z
#
# Youngs Moduli (GPa) = 66.09365 45.71678 56.78880
#
# Poissons Ratio (x) = 0.31899 0.36506
# Poissons Ratio (y) = 0.46117 0.12771
# Poissons Ratio (z) = 0.42487 0.10281
#
# Static dielectric constant tensor:
#      x y z
#    x 3.195820 0.000000 -0.055230 
#    y 0.000000 3.041110 0.000000 
#    z -0.055230 0.000000 3.012070 
# 
# 
# High freq. dielectric constant tensor:
#      x y z
#    x 1.600630 0.000000 -0.003110 
#    y 0.000000 1.624080 0.000000 
#    z -0.003110 0.000000 1.590810 
# 
# From -- ./inp_files/249316.got.cif
#   From: 2010.06.25/outbox.cif.g09.slc.cpg/sg12_125_cif.got.tgz:249316.got - 2010.06.28 00:19:55.
