data_PCOD8084495
_publ_section_title
;
Structure prediction by ZEFSAII (Michael W. Deem and Ramdas Pophale) SiO2 
 PCOD8084495
Probable space group: C 2/M
;
_chemical_formula_sum "Si O2"
_cell_formula_units_Z 36
_cell_length_a 18.489430
_cell_length_b 13.611347
_cell_length_c 14.052312
_cell_angle_alpha 90.000000
_cell_angle_beta 152.656834
_cell_angle_gamma 90.000000
_cell_volume 1624.376609
_symmetry_space_group_name_H-M "C 2/M"
_symmetry_group_IT_number 12
_symmetry_cell_setting 'monoclinic'
loop_
_space_group_symop_operation_xyz
x,y,z
-x,y,-z
-x,-y,-z
x,-y,z
1/2+x,1/2+y,z
1/2-x,1/2+y,-z
1/2-x,1/2-y,-z
1/2+x,1/2-y,z
loop_
_atom_site_type_symbol
_atom_site_label
_atom_site_fract_x
_atom_site_fract_y
_atom_site_fract_z
Si Si1 0.414162 0.388550 0.228172
Si Si2 0.943718 0.392088 0.163158
Si Si3 0.000000 0.748317 0.500000
Si Si4 0.203986 0.611744 0.630895
Si Si5 0.409580 0.288087 0.731361
O O1 0.454133 0.500000 0.304863
O O2 0.475038 0.316048 0.379968
O O3 0.503225 0.365524 0.234519
O O4 0.228544 0.374135 0.995102
O O5 0.956597 0.500000 0.130178
O O6 0.063899 0.382886 0.390615
O O7 0.981140 0.309166 0.127084
O O8 0.151853 0.678206 0.659607
O O9 0.233196 0.500000 0.698702
O O10 0.367392 0.655996 0.780006
O O11 0.250000 0.250000 0.500000
#
# Coordination Sequence:
#
# PCOD8084495 Si02
#       5
#     8   8   4   8   8
#     4  11  22  37  59  85 114 148 189 232 276 331
#     4   9  19  36  61  86 108 145 194 233 270 326
#     4  12  22  36  56  84 120 150 176 228 294 340
#     4  10  21  38  61  85 110 147 191 233 279 327
#     4  10  18  36  60  84 108 145 193 234 269 325
#
# _framework density 22.162348999999999
#
# number of rings (size 3 to 8) (size 9 to 14) (size 15 to 20)
#    0.000    1.778    4.444    2.000    0.000    0.889 
#    0.000    1.111    0.000    4.000    0.000    0.000 
#    0.000    0.000    0.000    0.000    0.000    0.000 
#
# Total GULP energy -223127.489377 kJ/mol
# GULP energy per Si atom -12395.971632 kJ/mol
# Density = 2.211191 g / cm^3
# Si number density = 22.162349 Si / 1000 Ang^3
#
#
#
# Elastic Constant Matrix: (Units=GPa)
#
#
# Indices 1 2 3 4 5 6 
#
# 1 137.0255 82.0141 13.2968 -0.0001 43.5552 -0.0002
# 2 82.0141 199.9093 22.3627 -0.0001 31.4151 -0.0001
# 3 13.2968 22.3627 39.0964 -0.0002 23.2289 -0.0003
# 4 -0.0001 -0.0001 -0.0002 27.0902 -0.0002 17.0980
# 5 43.5552 31.4151 23.2289 -0.0002 32.0796 -0.0002
# 6 -0.0002 -0.0001 -0.0003 17.0980 -0.0002 30.6908
#
#
#
# Elastic Compliance Matrix: (Units=1/GPa)
#
#
# Indices 1 2 3 4 5 6 
#
# 1 0.018540 -0.004280 0.015108 0.000000 -0.031920 0.000000
# 2 -0.004280 0.006900 -0.003385 0.000000 0.001505 0.000000
# 3 0.015108 -0.003385 0.057203 0.000000 -0.058618 0.000000
# 4 0.000000 0.000000 0.000000 0.056932 0.000000 -0.031717
# 5 -0.031920 0.001505 -0.058618 0.000000 0.115482 0.000000
# 6 0.000000 0.000000 0.000000 -0.031717 0.000000 0.050253
#
#
# Mechanical properties :
#
#
# Convention : Reuss Voigt Hill
#
# Bulk Modulus (GPa) = 10.25347 67.93094 39.09220
# Shear Modulus (GPa) = 15.48299 35.19596 25.33947
#
# Velocity S-wave (km/s) = 2.64600 3.98942 3.38502
# Velocity P-wave (km/s) = 3.73787 7.20685 5.74066
#
# Compressibility (1/GPa) = 0.09752798
#
# Stress axis : x y z
#
# Youngs Moduli (GPa) = 53.93843 144.92028 17.48148
#
# Poissons Ratio (x) = 0.62025 -0.26410
# Poissons Ratio (y) = 0.23085 0.05918
# Poissons Ratio (z) = -0.81488 0.49062
#
# Static dielectric constant tensor:
#      x y z
#    x 4.131570 0.000000 0.558830 
#    y 0.000000 4.796830 0.000000 
#    z 0.558830 0.000000 3.883540 
# 
# 
# High freq. dielectric constant tensor:
#      x y z
#    x 1.856200 0.000000 0.038530 
#    y 0.000000 1.902360 0.000000 
#    z 0.038530 0.000000 1.848680 
# 
# From -- ./inp_files/59232.got.cif
#   From: 2010.06.25/outbox.cif.g09.slc.cpg/sg12_30_cif.got.tgz:59232.got - 2010.06.28 00:19:55.
