data_PCOD8084345
_publ_section_title
;
Structure prediction by ZEFSAII (Michael W. Deem and Ramdas Pophale) SiO2 
 PCOD8084345
Probable space group: C 2/M
;
_chemical_formula_sum "Si O2"
_cell_formula_units_Z 56
_cell_length_a 20.568466
_cell_length_b 9.069102
_cell_length_c 17.225851
_cell_angle_alpha 90.000000
_cell_angle_beta 105.825195
_cell_angle_gamma 90.000000
_cell_volume 3091.478739
_symmetry_space_group_name_H-M "C 2/M"
_symmetry_group_IT_number 12
_symmetry_cell_setting 'monoclinic'
loop_
_space_group_symop_operation_xyz
x,y,z
-x,y,-z
-x,-y,-z
x,-y,z
1/2+x,1/2+y,z
1/2-x,1/2+y,-z
1/2-x,1/2-y,-z
1/2+x,1/2-y,z
loop_
_atom_site_type_symbol
_atom_site_label
_atom_site_fract_x
_atom_site_fract_y
_atom_site_fract_z
Si Si1 0.934956 0.671343 0.238965
Si Si2 0.698768 0.327926 0.090619
Si Si3 0.924381 0.326042 0.500176
Si Si4 0.151625 0.825794 0.659219
Si Si5 0.083216 0.674211 0.327537
Si Si6 0.802634 0.674457 0.750291
Si Si7 0.842537 0.330902 0.068859
O O1 0.926945 0.500000 0.260617
O O2 0.893962 0.767910 0.286105
O O3 0.907734 0.698708 0.143331
O O4 0.012567 0.722813 0.265668
O O5 0.686636 0.500000 0.097219
O O6 0.677493 0.247199 0.161998
O O7 0.776469 0.288759 0.097267
O O8 0.651543 0.270076 0.005286
O O9 0.912785 0.500000 0.488828
O O10 0.870585 0.244271 0.429051
O O11 0.912043 0.266048 0.583121
O O12 0.000000 0.283304 0.500000
O O13 0.228456 0.776934 0.699234
O O14 0.144161 0.000000 0.651648
O O15 0.087287 0.500000 0.331987
O O16 0.144824 0.736352 0.296516
O O17 0.808389 0.500000 0.762278
O O18 0.838086 0.500000 0.040231
#
# Coordination Sequence:
#
# PCOD8084345 Si02
#       7
#     8   8   8   8   8   8   8
#     4  10  18  35  59  81 103 137 187 227 257 308
#     4  10  19  32  53  80 110 141 176 221 267 316
#     4  10  19  35  59  81 103 138 184 228 263 306
#     4  11  22  33  52  81 113 141 171 218 273 323
#     4   9  19  36  58  79 103 140 184 224 263 311
#     4  10  21  37  54  77 111 146 177 215 268 324
#     4   9  18  31  53  82 107 134 177 227 267 309
#
# _framework density 18.114308999999999
#
# number of rings (size 3 to 8) (size 9 to 14) (size 15 to 20)
#    0.000    2.143    2.857    0.857    0.000    2.571 
#    0.000    2.143    0.000    4.286    0.000    0.000 
#    0.000    0.000    0.000    0.000    0.000    0.000 
#
# Total GULP energy -347266.366505 kJ/mol
# GULP energy per Si atom -12402.370232 kJ/mol
# Density = 1.807308 g / cm^3
# Si number density = 18.114309 Si / 1000 Ang^3
#
#
#
# Elastic Constant Matrix: (Units=GPa)
#
#
# Indices 1 2 3 4 5 6 
#
# 1 102.1965 23.9285 64.1440 0.0000 -2.9684 0.0000
# 2 23.9285 34.9649 38.2712 0.0000 0.2931 0.0000
# 3 64.1440 38.2712 147.5820 0.0000 -0.2564 0.0000
# 4 0.0000 0.0000 0.0000 33.1785 0.0000 2.8917
# 5 -2.9684 0.2931 -0.2564 0.0000 32.5380 0.0000
# 6 0.0000 0.0000 0.0000 2.8917 0.0000 19.3050
#
#
#
# Elastic Compliance Matrix: (Units=1/GPa)
#
#
# Indices 1 2 3 4 5 6 
#
# 1 0.013904 -0.004069 -0.004986 0.000000 0.001266 0.000000
# 2 -0.004069 0.041132 -0.008900 0.000000 -0.000812 0.000000
# 3 -0.004986 -0.008900 0.011250 0.000000 -0.000286 0.000000
# 4 0.000000 0.000000 0.000000 0.030539 0.000000 -0.004574
# 5 0.001266 -0.000812 -0.000286 0.000000 0.030854 0.000000
# 6 0.000000 0.000000 0.000000 -0.004574 0.000000 0.052485
#
#
# Mechanical properties :
#
#
# Convention : Reuss Voigt Hill
#
# Bulk Modulus (GPa) = 32.91790 59.71452 46.31621
# Shear Modulus (GPa) = 22.10448 27.56427 24.83437
#
# Velocity S-wave (km/s) = 3.49704 3.90511 3.70669
# Velocity P-wave (km/s) = 5.87516 7.30549 6.62901
#
# Compressibility (1/GPa) = 0.03037861
#
# Stress axis : x y z
#
# Youngs Moduli (GPa) = 71.92274 24.31169 88.88691
#
# Poissons Ratio (x) = 0.09891 0.44317
# Poissons Ratio (y) = 0.29262 0.79106
# Poissons Ratio (z) = 0.35859 0.21636
#
# Static dielectric constant tensor:
#      x y z
#    x 3.406960 0.000000 0.066670 
#    y 0.000000 3.161830 0.000000 
#    z 0.066670 0.000000 3.493790 
# 
# 
# High freq. dielectric constant tensor:
#      x y z
#    x 1.689030 0.000000 0.010140 
#    y 0.000000 1.685020 0.000000 
#    z 0.010140 0.000000 1.714060 
# 
# From -- ./inp_files/230941.got.cif
#   From: 2010.06.25/outbox.cif.g09.slc.cpg/sg12_116_cif.got.tgz:230941.got - 2010.06.28 00:19:55.
