data_PCOD8084175
_publ_section_title
;
Structure prediction by ZEFSAII (Michael W. Deem and Ramdas Pophale) SiO2 
 PCOD8084175
Probable space group: C 2/M
;
_chemical_formula_sum "Si O2"
_cell_formula_units_Z 56
_cell_length_a 15.301892
_cell_length_b 9.094212
_cell_length_c 22.671739
_cell_angle_alpha 90.000000
_cell_angle_beta 109.244469
_cell_angle_gamma 90.000000
_cell_volume 2978.671602
_symmetry_space_group_name_H-M "C 2/M"
_symmetry_group_IT_number 12
_symmetry_cell_setting 'monoclinic'
loop_
_space_group_symop_operation_xyz
x,y,z
-x,y,-z
-x,-y,-z
x,-y,z
1/2+x,1/2+y,z
1/2-x,1/2+y,-z
1/2-x,1/2-y,-z
1/2+x,1/2-y,z
loop_
_atom_site_type_symbol
_atom_site_label
_atom_site_fract_x
_atom_site_fract_y
_atom_site_fract_z
Si Si1 0.898203 0.826905 0.791477
Si Si2 0.417959 0.827163 0.133981
Si Si3 0.363932 0.174148 0.436950
Si Si4 0.098435 0.166302 0.991195
Si Si5 0.717882 0.327008 0.124562
Si Si6 0.333525 0.672912 0.648091
Si Si7 0.551844 0.825941 0.422665
O O1 0.833864 0.761995 0.829520
O O2 0.847808 0.787944 0.719439
O O3 0.997702 0.750956 0.814741
O O4 0.914184 0.000000 0.802166
O O5 0.403529 0.772804 0.064602
O O6 0.326185 0.787421 0.151159
O O7 0.436196 0.000000 0.136476
O O8 0.266170 0.239013 0.393257
O O9 0.383171 0.224581 0.508315
O O10 0.446924 0.227262 0.412610
O O11 0.362135 0.000000 0.434110
O O12 0.124174 0.000000 0.976988
O O13 0.172746 0.233262 0.053962
O O14 0.000000 0.165801 0.000000
O O15 0.701590 0.500000 0.120922
O O16 0.338036 0.500000 0.637554
O O17 0.414681 0.747851 0.628983
O O18 0.556339 0.000000 0.414625
#
# Coordination Sequence:
#
# PCOD8084175 Si02
#       7
#     8   8   8   8   8   8   8
#     4  10  21  39  55  70 101 146 183 209 248 314
#     4  11  22  35  55  83 108 129 169 226 267 297
#     4   8  16  32  53  79 106 139 174 206 255 317
#     4  10  18  34  60  80 103 139 172 203 253 324
#     4   9  19  36  56  77 102 138 176 206 253 317
#     4  10  20  33  53  77 103 137 179 217 253 302
#     4   9  17  32  55  79 107 136 169 213 261 312
#
# _framework density 18.800326999999999
#
# number of rings (size 3 to 8) (size 9 to 14) (size 15 to 20)
#    0.000    2.429    1.429    2.143    0.000    2.000 
#    0.000    7.143    0.000    0.000    0.000    0.000 
#    0.000    0.000    0.000    0.000    0.000    0.000 
#
# Total GULP energy -347178.628036 kJ/mol
# GULP energy per Si atom -12399.236716 kJ/mol
# Density = 1.875754 g / cm^3
# Si number density = 18.800327 Si / 1000 Ang^3
#
#
#
# Elastic Constant Matrix: (Units=GPa)
#
#
# Indices 1 2 3 4 5 6 
#
# 1 108.3604 30.8830 45.2408 0.0000 6.0034 0.0000
# 2 30.8830 34.5629 34.8287 0.0000 -0.1368 0.0000
# 3 45.2408 34.8287 84.4221 0.0000 4.5503 0.0000
# 4 0.0000 0.0000 0.0000 18.5930 0.0000 0.7726
# 5 6.0034 -0.1368 4.5503 0.0000 20.7618 0.0000
# 6 0.0000 0.0000 0.0000 0.7726 0.0000 26.9185
#
#
#
# Elastic Compliance Matrix: (Units=1/GPa)
#
#
# Indices 1 2 3 4 5 6 
#
# 1 0.013228 -0.008314 -0.003491 0.000000 -0.003115 0.000000
# 2 -0.008314 0.055235 -0.018702 0.000000 0.006867 0.000000
# 3 -0.003491 -0.018702 0.021639 0.000000 -0.003857 0.000000
# 4 0.000000 0.000000 0.000000 0.053848 0.000000 -0.001546
# 5 -0.003115 0.006867 -0.003857 0.000000 0.049957 0.000000
# 6 0.000000 0.000000 0.000000 -0.001546 0.000000 0.037194
#
#
# Mechanical properties :
#
#
# Convention : Reuss Voigt Hill
#
# Bulk Modulus (GPa) = 34.37832 49.91670 42.14751
# Shear Modulus (GPa) = 16.56670 21.01419 18.79044
#
# Velocity S-wave (km/s) = 2.97171 3.34691 3.16488
# Velocity P-wave (km/s) = 5.48639 6.44549 5.98518
#
# Compressibility (1/GPa) = 0.02908810
#
# Stress axis : x y z
#
# Youngs Moduli (GPa) = 75.59692 18.10449 46.21225
#
# Poissons Ratio (x) = 0.15053 0.16131
# Poissons Ratio (y) = 0.62855 0.86426
# Poissons Ratio (z) = 0.26389 0.33859
#
# Static dielectric constant tensor:
#      x y z
#    x 3.803840 0.000000 0.084630 
#    y 0.000000 3.123940 0.000000 
#    z 0.084630 0.000000 3.555880 
# 
# 
# High freq. dielectric constant tensor:
#      x y z
#    x 1.743940 0.000000 0.003090 
#    y 0.000000 1.694400 0.000000 
#    z 0.003090 0.000000 1.730250 
# 
# From -- ./inp_files/338165.got.cif
#   From: 2010.06.25/outbox.cif.g09.slc.cpg/sg12_170_cif.got.tgz:338165.got - 2010.06.28 00:19:55.
