data_PCOD8084327
_publ_section_title
;
Structure prediction by ZEFSAII (Michael W. Deem and Ramdas Pophale) SiO2 
 PCOD8084327
Probable space group: C 2/M
;
_chemical_formula_sum "Si O2"
_cell_formula_units_Z 64
_cell_length_a 33.097413
_cell_length_b 17.165009
_cell_length_c 9.064517
_cell_angle_alpha 90.000000
_cell_angle_beta 38.027086
_cell_angle_gamma 90.000000
_cell_volume 3172.395944
_symmetry_space_group_name_H-M "C 2/M"
_symmetry_group_IT_number 12
_symmetry_cell_setting 'monoclinic'
loop_
_space_group_symop_operation_xyz
x,y,z
-x,y,-z
-x,-y,-z
x,-y,z
1/2+x,1/2+y,z
1/2-x,1/2+y,-z
1/2-x,1/2-y,-z
1/2+x,1/2-y,z
loop_
_atom_site_type_symbol
_atom_site_label
_atom_site_fract_x
_atom_site_fract_y
_atom_site_fract_z
Si Si1 0.074939 0.338473 0.549298
Si Si2 0.482541 0.363300 0.707468
Si Si3 0.065279 0.818627 0.720165
Si Si4 0.868097 0.912945 0.233328
Si Si5 0.432170 0.088722 0.958984
Si Si6 0.335197 0.912598 0.504536
Si Si7 0.776577 0.188026 0.309432
Si Si8 0.602618 0.222308 0.146382
O O1 0.081481 0.271821 0.655587
O O2 0.134696 0.396494 0.419019
O O3 0.083975 0.299966 0.364730
O O4 0.006771 0.383623 0.757311
O O5 0.500000 0.402550 0.500000
O O6 0.550943 0.356767 0.600918
O O7 0.453556 0.276050 0.766414
O O8 0.431614 0.415173 0.944678
O O9 0.122970 0.861326 0.644175
O O10 0.000000 0.829098 0.000000
O O11 0.807300 0.881404 0.316290
O O12 0.852519 0.000000 0.330556
O O13 0.391963 0.142605 0.961130
O O14 0.431174 0.000000 0.902431
O O15 0.396555 0.094945 0.217565
O O16 0.279215 0.849588 0.631352
O O17 0.305596 0.000000 0.585950
O O18 0.750000 0.250000 0.500000
O O19 0.829213 0.230323 0.052051
#
# Coordination Sequence:
#
# PCOD8084327 Si02
#       8
#     8   8   8   8   8   8   8   8
#     4  12  22  36  62  93 131 159 201 255 313 370
#     4  10  18  35  58  89 123 156 198 246 297 361
#     4  10  19  32  59  85 122 160 201 245 291 363
#     4  10  23  38  59  88 117 157 202 253 309 357
#     4  11  22  38  62  94 130 165 200 250 316 379
#     4  11  24  40  62  91 125 168 214 257 307 367
#     4  11  22  43  69  84 114 160 216 257 300 360
#     4  11  22  38  62  92 121 161 207 250 306 367
#
# _framework density 20.174026999999999
#
# number of rings (size 3 to 8) (size 9 to 14) (size 15 to 20)
#    0.000    1.250    3.750    3.000    1.750    5.500 
#    0.000    0.000    0.000    1.500    0.000    0.000 
#    0.000    0.000    0.000    0.000    0.000    0.000 
#
# Total GULP energy -396780.283512 kJ/mol
# GULP energy per Si atom -12399.383860 kJ/mol
# Density = 2.012811 g / cm^3
# Si number density = 20.174027 Si / 1000 Ang^3
#
#
#
# Elastic Constant Matrix: (Units=GPa)
#
#
# Indices 1 2 3 4 5 6 
#
# 1 102.9646 38.7842 25.9549 0.0000 -6.3026 0.0000
# 2 38.7842 125.0906 23.3449 0.0000 -7.5844 0.0000
# 3 25.9549 23.3449 52.2976 0.0000 -6.5818 0.0000
# 4 0.0000 0.0000 0.0000 18.5011 0.0000 -0.5880
# 5 -6.3026 -7.5844 -6.5818 0.0000 29.5758 0.0000
# 6 0.0000 0.0000 0.0000 -0.5880 0.0000 24.0522
#
#
#
# Elastic Compliance Matrix: (Units=1/GPa)
#
#
# Indices 1 2 3 4 5 6 
#
# 1 0.011976 -0.002808 -0.004588 0.000000 0.000811 0.000000
# 2 -0.002808 0.009436 -0.002664 0.000000 0.001229 0.000000
# 3 -0.004588 -0.002664 0.023023 0.000000 0.003463 0.000000
# 4 0.000000 0.000000 0.000000 0.054093 0.000000 0.001322
# 5 0.000811 0.001229 0.003463 0.000000 0.035070 0.000000
# 6 0.000000 0.000000 0.000000 0.001322 0.000000 0.041609
#
#
# Mechanical properties :
#
#
# Convention : Reuss Voigt Hill
#
# Bulk Modulus (GPa) = 41.12580 50.72454 45.92517
# Shear Modulus (GPa) = 24.57819 27.24374 25.91097
#
# Velocity S-wave (km/s) = 3.49421 3.67882 3.58770
# Velocity P-wave (km/s) = 6.05881 6.57594 6.32266
#
# Compressibility (1/GPa) = 0.02431563
#
# Stress axis : x y z
#
# Youngs Moduli (GPa) = 83.50127 105.97232 43.43390
#
# Poissons Ratio (x) = 0.29754 0.19928
# Poissons Ratio (y) = 0.23444 0.11572
# Poissons Ratio (z) = 0.38312 0.28234
#
# Static dielectric constant tensor:
#      x y z
#    x 3.865140 0.000000 0.067200 
#    y 0.000000 3.743150 0.000000 
#    z 0.067200 0.000000 3.548330 
# 
# 
# High freq. dielectric constant tensor:
#      x y z
#    x 1.791690 0.000000 0.002120 
#    y 0.000000 1.793080 0.000000 
#    z 0.002120 0.000000 1.763260 
# 
# From -- ./inp_files/112820.got.cif
#   From: 2010.06.25/outbox.cif.g09.slc.cpg/sg12_57_cif.got.tgz:112820.got - 2010.06.28 00:19:55.
