data_PCOD8084665
_publ_section_title
;
Structure prediction by ZEFSAII (Michael W. Deem and Ramdas Pophale) SiO2 
 PCOD8084665
Probable space group: C 2/M
;
_chemical_formula_sum "Si O2"
_cell_formula_units_Z 64
_cell_length_a 32.459681
_cell_length_b 9.014302
_cell_length_c 14.103165
_cell_angle_alpha 90.000000
_cell_angle_beta 93.836895
_cell_angle_gamma 90.000000
_cell_volume 4117.355928
_symmetry_space_group_name_H-M "C 2/M"
_symmetry_group_IT_number 12
_symmetry_cell_setting 'monoclinic'
loop_
_space_group_symop_operation_xyz
x,y,z
-x,y,-z
-x,-y,-z
x,-y,z
1/2+x,1/2+y,z
1/2-x,1/2+y,-z
1/2-x,1/2-y,-z
1/2+x,1/2-y,z
loop_
_atom_site_type_symbol
_atom_site_label
_atom_site_fract_x
_atom_site_fract_y
_atom_site_fract_z
Si Si1 0.455716 0.825740 0.030904
Si Si2 0.038638 0.328258 0.573757
Si Si3 0.643447 0.325613 0.304260
Si Si4 0.380738 0.325973 0.487549
Si Si5 0.576946 0.823358 0.165635
Si Si6 0.698540 0.832827 0.577352
Si Si7 0.223681 0.332655 0.363013
Si Si8 0.987684 0.676546 0.225510
O O1 0.454678 0.764952 0.139681
O O2 0.451450 0.000000 0.034919
O O3 0.500000 0.778680 0.000000
O O4 0.422942 0.771315 0.946190
O O5 0.052264 0.500000 0.580578
O O6 0.075317 0.230810 0.539111
O O7 0.026650 0.263185 0.675026
O O8 0.000000 0.307062 0.500000
O O9 0.647781 0.500000 0.291572
O O10 0.624167 0.283929 0.402967
O O11 0.614851 0.259533 0.218634
O O12 0.688675 0.254527 0.299590
O O13 0.376989 0.500000 0.470629
O O14 0.345284 0.248782 0.419378
O O15 0.534339 0.771252 0.209322
O O16 0.582577 0.000000 0.176393
O O17 0.732444 0.747968 0.646201
O O18 0.712776 0.831917 0.471476
O O19 0.694086 0.000000 0.614969
O O20 0.226745 0.500000 0.324675
O O21 0.987977 0.500000 0.226742
#
# Coordination Sequence:
#
# PCOD8084665 Si02
#       8
#     8   8   8   8   8   8   8   8
#     4   7  11  21  39  61  79  98 129 168 208 249
#     4  10  19  29  42  60  82 109 142 178 211 241
#     4  10  19  28  38  56  84 113 138 167 205 245
#     4  10  20  31  41  55  79 112 146 175 203 239
#     4   9  15  25  43  62  79 103 136 171 207 249
#     4   9  16  27  43  60  79 104 135 170 205 240
#     4   9  16  26  41  60  81 106 135 165 199 242
#     4   8  14  25  41  60  81 105 136 174 211 246
#
# _framework density 15.543955
#
# number of rings (size 3 to 8) (size 9 to 14) (size 15 to 20)
#    0.000    3.000    0.000    3.750    0.000    5.750 
#    0.000    0.625    0.000    4.125    0.000    0.000 
#    0.000    1.000    0.000    2.750    0.000    4.000 
#
# Total GULP energy -396508.005202 kJ/mol
# GULP energy per Si atom -12390.875163 kJ/mol
# Density = 1.550858 g / cm^3
# Si number density = 15.543955 Si / 1000 Ang^3
#
#
#
# Elastic Constant Matrix: (Units=GPa)
#
#
# Indices 1 2 3 4 5 6 
#
# 1 85.6040 39.4858 38.3023 0.0000 26.3077 0.0000
# 2 39.4858 66.5640 29.7929 0.0000 13.8424 0.0000
# 3 38.3023 29.7929 91.1412 0.0000 22.3701 0.0000
# 4 0.0000 0.0000 0.0000 10.3694 0.0000 2.0350
# 5 26.3077 13.8424 22.3701 0.0000 23.2576 0.0000
# 6 0.0000 0.0000 0.0000 2.0350 0.0000 25.4268
#
#
#
# Elastic Compliance Matrix: (Units=1/GPa)
#
#
# Indices 1 2 3 4 5 6 
#
# 1 0.021975 -0.008379 -0.002119 0.000000 -0.017831 0.000000
# 2 -0.008379 0.021568 -0.003541 0.000000 0.000046 0.000000
# 3 -0.002119 -0.003541 0.015596 0.000000 -0.010497 0.000000
# 4 0.000000 0.000000 0.000000 0.097977 0.000000 -0.007841
# 5 -0.017831 0.000046 -0.010497 0.000000 0.073235 0.000000
# 6 0.000000 0.000000 0.000000 -0.007841 0.000000 0.039956
#
#
# Mechanical properties :
#
#
# Convention : Reuss Voigt Hill
#
# Bulk Modulus (GPa) = 32.19347 50.94124 41.56735
# Shear Modulus (GPa) = 16.19492 20.85930 18.52711
#
# Velocity S-wave (km/s) = 3.23132 3.66725 3.45616
# Velocity P-wave (km/s) = 5.88881 7.12567 6.53656
#
# Compressibility (1/GPa) = 0.03106220
#
# Stress axis : x y z
#
# Youngs Moduli (GPa) = 45.50713 46.36396 64.11742
#
# Poissons Ratio (x) = 0.38846 0.13589
# Poissons Ratio (y) = 0.38129 0.22701
# Poissons Ratio (z) = 0.09645 0.16415
#
# Static dielectric constant tensor:
#      x y z
#    x 2.899360 0.000000 0.220680 
#    y 0.000000 2.840370 0.000000 
#    z 0.220680 0.000000 3.130060 
# 
# 
# High freq. dielectric constant tensor:
#      x y z
#    x 1.582080 0.000000 0.028110 
#    y 0.000000 1.583400 0.000000 
#    z 0.028110 0.000000 1.568260 
# 
# From -- ./inp_files/248376.got.cif
#   From: 2010.06.25/outbox.cif.g09.slc.cpg/sg12_125_cif.got.tgz:248376.got - 2010.06.28 00:19:55.
