data_PCOD8084612
_publ_section_title
;
Structure prediction by ZEFSAII (Michael W. Deem and Ramdas Pophale) SiO2 
 PCOD8084612
Probable space group: C 2/M
;
_chemical_formula_sum "Si O2"
_cell_formula_units_Z 64
_cell_length_a 28.967095
_cell_length_b 22.400252
_cell_length_c 8.279828
_cell_angle_alpha 90.000000
_cell_angle_beta 146.017346
_cell_angle_gamma 90.000000
_cell_volume 3002.934246
_symmetry_space_group_name_H-M "C 2/M"
_symmetry_group_IT_number 12
_symmetry_cell_setting 'monoclinic'
loop_
_space_group_symop_operation_xyz
x,y,z
-x,y,-z
-x,-y,-z
x,-y,z
1/2+x,1/2+y,z
1/2-x,1/2+y,-z
1/2-x,1/2-y,-z
1/2+x,1/2-y,z
loop_
_atom_site_type_symbol
_atom_site_label
_atom_site_fract_x
_atom_site_fract_y
_atom_site_fract_z
Si Si1 0.044968 0.658015 0.959271
Si Si2 0.629854 0.732724 0.316448
Si Si3 0.617324 0.354226 0.690145
Si Si4 0.401604 0.773679 0.418716
Si Si5 0.668463 0.931272 0.189139
Si Si6 0.743595 0.841104 0.164416
Si Si7 0.176003 0.066310 0.147107
Si Si8 0.037961 0.117594 0.945282
O O1 0.981661 0.683616 0.639657
O O2 0.121531 0.705216 0.194028
O O3 0.081923 0.596807 0.997257
O O4 0.000000 0.645879 0.000000
O O5 0.596476 0.746800 0.397050
O O6 0.723345 0.706515 0.603541
O O7 0.569067 0.685232 0.057923
O O8 0.599758 0.285706 0.696360
O O9 0.676899 0.361028 0.707611
O O10 0.530335 0.384654 0.394222
O O11 0.660456 0.385720 0.964585
O O12 0.320327 0.811434 0.144035
O O13 0.702133 0.897783 0.128342
O O14 0.731648 0.925447 0.520504
O O15 0.653136 0.000000 0.096964
O O16 0.164298 0.000000 0.042096
O O17 0.113456 0.075318 0.114641
O O18 0.000000 0.091771 0.000000
#
# Coordination Sequence:
#
# PCOD8084612 Si02
#       8
#     8   8   8   8   8   8   8   8
#     4  10  22  40  68  96 133 168 212 273 338 392
#     4  10  18  38  65  99 132 164 203 263 331 406
#     4  11  22  39  67  97 137 168 210 266 333 386
#     4  10  21  38  63 102 132 159 211 272 336 401
#     4  11  26  47  66  92 130 177 235 274 311 388
#     4  11  23  40  68  96 131 171 214 268 337 390
#     4  11  27  44  61  93 132 176 230 272 310 384
#     4  12  19  40  66  94 132 174 206 260 326 395
#
# _framework density 21.312487999999998
#
# number of rings (size 3 to 8) (size 9 to 14) (size 15 to 20)
#    0.000    1.250    5.000    2.250    5.250    4.000 
#    2.250    1.250    0.000    0.000    0.000    0.000 
#    0.000    0.000    0.000    0.000    0.000    0.000 
#
# Total GULP energy -396743.921453 kJ/mol
# GULP energy per Si atom -12398.247545 kJ/mol
# Density = 2.126398 g / cm^3
# Si number density = 21.312488 Si / 1000 Ang^3
#
#
#
# Elastic Constant Matrix: (Units=GPa)
#
#
# Indices 1 2 3 4 5 6 
#
# 1 63.3104 41.0817 26.4943 0.0000 10.9395 0.0000
# 2 41.0817 117.4818 49.2618 0.0000 11.7186 0.0000
# 3 26.4943 49.2618 93.0795 0.0000 10.1050 0.0000
# 4 0.0000 0.0000 0.0000 27.1410 0.0000 0.9165
# 5 10.9395 11.7186 10.1050 0.0000 29.0966 0.0000
# 6 0.0000 0.0000 0.0000 0.9165 0.0000 27.6020
#
#
#
# Elastic Compliance Matrix: (Units=1/GPa)
#
#
# Indices 1 2 3 4 5 6 
#
# 1 0.021564 -0.006047 -0.002413 0.000000 -0.004834 0.000000
# 2 -0.006047 0.012811 -0.004932 0.000000 -0.001174 0.000000
# 3 -0.002413 -0.004932 0.014264 0.000000 -0.002060 0.000000
# 4 0.000000 0.000000 0.000000 0.036886 0.000000 -0.001225
# 5 -0.004834 -0.001174 -0.002060 0.000000 0.037374 0.000000
# 6 0.000000 0.000000 0.000000 -0.001225 0.000000 0.036270
#
#
# Mechanical properties :
#
#
# Convention : Reuss Voigt Hill
#
# Bulk Modulus (GPa) = 45.75287 56.39416 51.07351
# Shear Modulus (GPa) = 25.87484 27.23684 26.55584
#
# Velocity S-wave (km/s) = 3.48813 3.57876 3.53373
# Velocity P-wave (km/s) = 6.14304 6.60263 6.37698
#
# Compressibility (1/GPa) = 0.02185655
#
# Stress axis : x y z
#
# Youngs Moduli (GPa) = 46.37384 78.05530 70.10560
#
# Poissons Ratio (x) = 0.47197 0.16917
# Poissons Ratio (y) = 0.28040 0.34575
# Poissons Ratio (z) = 0.11190 0.38496
#
# Static dielectric constant tensor:
#      x y z
#    x 3.608060 0.000000 -0.017620 
#    y 0.000000 3.862600 0.000000 
#    z -0.017620 0.000000 4.080820 
# 
# 
# High freq. dielectric constant tensor:
#      x y z
#    x 1.816650 0.000000 0.001400 
#    y 0.000000 1.820870 0.000000 
#    z 0.001400 0.000000 1.850430 
# 
# From -- ./inp_files/113640.got.cif
#   From: 2010.06.25/outbox.cif.g09.slc.cpg/sg12_57_cif.got.tgz:113640.got - 2010.06.28 00:19:55.
