data_PCOD8084676
_publ_section_title
;
Structure prediction by ZEFSAII (Michael W. Deem and Ramdas Pophale) SiO2 
 PCOD8084676
Probable space group: C 2/M
;
_chemical_formula_sum "Si O2"
_cell_formula_units_Z 56
_cell_length_a 25.145874
_cell_length_b 9.178197
_cell_length_c 20.304807
_cell_angle_alpha 90.000000
_cell_angle_beta 49.184261
_cell_angle_gamma 90.000000
_cell_volume 3546.606565
_symmetry_space_group_name_H-M "C 2/M"
_symmetry_group_IT_number 12
_symmetry_cell_setting 'monoclinic'
loop_
_space_group_symop_operation_xyz
x,y,z
-x,y,-z
-x,-y,-z
x,-y,z
1/2+x,1/2+y,z
1/2-x,1/2+y,-z
1/2-x,1/2-y,-z
1/2+x,1/2-y,z
loop_
_atom_site_type_symbol
_atom_site_label
_atom_site_fract_x
_atom_site_fract_y
_atom_site_fract_z
Si Si1 0.153318 0.332369 0.406652
Si Si2 0.684851 0.330023 0.728390
Si Si3 0.954045 0.329554 0.393967
Si Si4 0.071830 0.325670 0.733354
Si Si5 0.475786 0.161981 0.919527
Si Si6 0.614325 0.164835 0.894689
Si Si7 0.556335 0.335698 0.396549
O O1 0.139410 0.500000 0.400372
O O2 0.234470 0.300715 0.354623
O O3 0.111435 0.287816 0.506517
O O4 0.127344 0.240347 0.364732
O O5 0.665796 0.500000 0.743581
O O6 0.640583 0.248919 0.708140
O O7 0.671170 0.267515 0.813172
O O8 0.970496 0.500000 0.382504
O O9 0.934326 0.276775 0.336936
O O10 0.024836 0.247674 0.359039
O O11 0.079757 0.500000 0.734840
O O12 0.000557 0.269245 0.829458
O O13 0.546305 0.158456 0.904572
O O14 0.448290 0.000000 0.928718
O O15 0.411603 0.234935 0.013468
O O16 0.644255 0.000000 0.878828
O O17 0.500000 0.328560 0.500000
O O18 0.574196 0.500000 0.361288
#
# Coordination Sequence:
#
# PCOD8084676 Si02
#       7
#     8   8   8   8   8   8   8
#     4   9  18  31  44  60  85 115 143 171 206 247
#     4  10  19  28  39  60  90 117 141 172 207 242
#     4   9  17  30  47  63  82 112 144 171 204 249
#     4   9  17  29  44  62  85 114 145 170 200 250
#     4   7  11  22  40  59  78 103 137 174 205 239
#     4   8  13  24  41  57  77 107 140 172 206 245
#     4   9  17  29  46  66  83 102 136 181 218 244
#
# _framework density 15.789740999999999
#
# number of rings (size 3 to 8) (size 9 to 14) (size 15 to 20)
#    0.000    3.286    0.000    2.571    0.000    4.000 
#    0.000    5.714    0.000    0.000    0.000    1.000 
#    0.000    0.000    0.000    0.000    0.000    0.000 
#
# Total GULP energy -346866.743005 kJ/mol
# GULP energy per Si atom -12388.097964 kJ/mol
# Density = 1.575380 g / cm^3
# Si number density = 15.789741 Si / 1000 Ang^3
#
#
#
# Elastic Constant Matrix: (Units=GPa)
#
#
# Indices 1 2 3 4 5 6 
#
# 1 84.5982 43.1606 53.2002 -0.0013 11.6325 0.0004
# 2 43.1606 61.1116 36.3065 -0.0038 6.7203 0.0016
# 3 53.2002 36.3065 96.9715 -0.0019 16.1589 0.0013
# 4 -0.0013 -0.0038 -0.0019 18.1599 0.0018 -3.5110
# 5 11.6325 6.7203 16.1589 0.0018 4.8272 -0.0009
# 6 0.0004 0.0016 0.0013 -3.5110 -0.0009 20.2150
#
#
#
# Elastic Compliance Matrix: (Units=1/GPa)
#
#
# Indices 1 2 3 4 5 6 
#
# 1 0.024247 -0.011467 -0.004370 0.000002 -0.027836 0.000000
# 2 -0.011467 0.026561 -0.004741 0.000003 0.006526 -0.000001
# 3 -0.004370 -0.004741 0.026301 0.000008 -0.070911 -0.000003
# 4 0.000002 0.000003 0.000008 0.056980 -0.000054 0.009896
# 5 -0.027836 0.006526 -0.070911 -0.000054 0.502528 0.000019
# 6 0.000000 -0.000001 -0.000003 0.009896 0.000019 0.051187
#
#
# Mechanical properties :
#
#
# Convention : Reuss Voigt Hill
#
# Bulk Modulus (GPa) = 27.81461 56.44622 42.13042
# Shear Modulus (GPa) = 6.74814 15.97470 11.36142
#
# Velocity S-wave (km/s) = 2.06955 3.18420 2.68534
# Velocity P-wave (km/s) = 4.83369 7.02460 6.02950
#
# Compressibility (1/GPa) = 0.03595233
#
# Stress axis : x y z
#
# Youngs Moduli (GPa) = 41.24268 37.64888 38.02073
#
# Poissons Ratio (x) = 0.43172 0.16617
# Poissons Ratio (y) = 0.47293 0.18026
# Poissons Ratio (z) = 0.18025 0.17850
#
# Static dielectric constant tensor:
#      x y z
#    x 2.753890 0.000000 0.179860 
#    y 0.000000 2.950030 0.000000 
#    z 0.179860 0.000000 3.445020 
# 
# 
# High freq. dielectric constant tensor:
#      x y z
#    x 1.569510 0.000000 0.007620 
#    y 0.000000 1.593560 0.000000 
#    z 0.007620 0.000000 1.604630 
# 
# From -- ./inp_files/323545.got.cif
#   From: 2010.06.25/outbox.cif.g09.slc.cpg/sg12_162_cif.got.tgz:323545.got - 2010.06.28 00:19:55.
