data_PCOD8084296
_publ_section_title
;
Structure prediction by ZEFSAII (Michael W. Deem and Ramdas Pophale) SiO2 
 PCOD8084296
Probable space group: C 2/M
;
_chemical_formula_sum "Si O2"
_cell_formula_units_Z 48
_cell_length_a 5.279582
_cell_length_b 15.232481
_cell_length_c 28.342679
_cell_angle_alpha 90.000000
_cell_angle_beta 106.433438
_cell_angle_gamma 90.000000
_cell_volume 2186.236684
_symmetry_space_group_name_H-M "C 2/M"
_symmetry_group_IT_number 12
_symmetry_cell_setting 'monoclinic'
loop_
_space_group_symop_operation_xyz
x,y,z
-x,y,-z
-x,-y,-z
x,-y,z
1/2+x,1/2+y,z
1/2-x,1/2+y,-z
1/2-x,1/2-y,-z
1/2+x,1/2-y,z
loop_
_atom_site_type_symbol
_atom_site_label
_atom_site_fract_x
_atom_site_fract_y
_atom_site_fract_z
Si Si1 0.795636 0.897281 0.530032
Si Si2 0.086562 0.395206 0.055853
Si Si3 0.332574 0.396651 0.890856
Si Si4 0.534220 0.653314 0.361370
Si Si5 0.712870 0.194002 0.789809
Si Si6 0.029057 0.649935 0.680338
O O1 0.500000 0.870963 0.500000
O O2 0.870662 0.841242 0.579837
O O3 0.000000 0.870881 0.500000
O O4 0.816069 0.000000 0.543337
O O5 0.089261 0.500000 0.057538
O O6 0.377563 0.357293 0.082754
O O7 0.880054 0.357360 0.083417
O O8 0.000000 0.361147 0.000000
O O9 0.342362 0.500000 0.897320
O O10 0.244347 0.374615 0.833516
O O11 0.253428 0.602801 0.342789
O O12 0.489602 0.749471 0.337543
O O13 0.751454 0.602679 0.340902
O O14 0.498653 0.266493 0.792957
O O15 0.608685 0.141425 0.738987
#
# Coordination Sequence:
#
# PCOD8084296 Si02
#       6
#     8   8   8   8   8   8
#     4  10  21  37  55  78 111 146 175 213 273 333
#     4   9  17  33  57  83 113 149 189 237 288 335
#     4  10  21  35  56  88 115 143 193 243 280 336
#     4  10  18  35  56  78 102 136 178 225 250 317
#     4  12  21  38  60  80 115 158 191 226 293 354
#     4  10  19  35  55  76 103 136 180 225 265 314
#
# _framework density 21.955538000000001
#
# number of rings (size 3 to 8) (size 9 to 14) (size 15 to 20)
#    0.000    1.833    3.333    2.500    0.000    2.000 
#    0.000   11.667    0.000   10.000    0.000    0.000 
#    0.000    0.000    0.000    0.000    0.000    0.000 
#
# Total GULP energy -297563.951811 kJ/mol
# GULP energy per Si atom -12398.497992 kJ/mol
# Density = 2.190557 g / cm^3
# Si number density = 21.955538 Si / 1000 Ang^3
#
#
#
# Elastic Constant Matrix: (Units=GPa)
#
#
# Indices 1 2 3 4 5 6 
#
# 1 230.5265 6.3203 91.9204 0.0000 -9.7546 0.0000
# 2 6.3203 8.6482 11.9365 0.0000 1.5636 0.0000
# 3 91.9204 11.9365 214.5191 0.0000 -0.2080 0.0000
# 4 0.0000 0.0000 0.0000 23.8365 0.0000 1.8871
# 5 -9.7546 1.5636 -0.2080 0.0000 47.9208 0.0000
# 6 0.0000 0.0000 0.0000 1.8871 0.0000 2.1447
#
#
#
# Elastic Compliance Matrix: (Units=1/GPa)
#
#
# Indices 1 2 3 4 5 6 
#
# 1 0.005294 -0.001017 -0.002211 0.000000 0.001101 0.000000
# 2 -0.001017 0.126263 -0.006594 0.000000 -0.004356 0.000000
# 3 -0.002211 -0.006594 0.005976 0.000000 -0.000209 0.000000
# 4 0.000000 0.000000 0.000000 0.045094 0.000000 -0.039678
# 5 0.001101 -0.004356 -0.000209 0.000000 0.021233 0.000000
# 6 0.000000 0.000000 0.000000 -0.039678 0.000000 0.501187
#
#
# Mechanical properties :
#
#
# Convention : Reuss Voigt Hill
#
# Bulk Modulus (GPa) = 8.48252 74.89424 41.68838
# Shear Modulus (GPa) = 6.54462 37.68151 22.11306
#
# Velocity S-wave (km/s) = 1.72839 4.14728 3.17704
# Velocity P-wave (km/s) = 2.80267 7.55771 5.69974
#
# Compressibility (1/GPa) = 0.11788955
#
# Stress axis : x y z
#
# Youngs Moduli (GPa) = 188.89707 7.91995 167.34676
#
# Poissons Ratio (x) = 0.00805 0.36997
# Poissons Ratio (y) = 0.19204 1.10353
# Poissons Ratio (z) = 0.41761 0.05223
#
# Static dielectric constant tensor:
#      x y z
#    x 7.177270 0.000000 -0.355890 
#    y 0.000000 3.220880 0.000000 
#    z -0.355890 0.000000 4.073260 
# 
# 
# High freq. dielectric constant tensor:
#      x y z
#    x 1.899540 0.000000 -0.003270 
#    y 0.000000 1.805320 0.000000 
#    z -0.003270 0.000000 1.876590 
# 
# From -- ./inp_files/297785.got.cif
#   From: 2010.06.25/outbox.cif.g09.slc.cpg/sg12_149_cif.got.tgz:297785.got - 2010.06.28 00:19:55.
