data_PCOD8084618
_publ_section_title
;
Structure prediction by ZEFSAII (Michael W. Deem and Ramdas Pophale) SiO2 
 PCOD8084618
Probable space group: C 2/M
;
_chemical_formula_sum "Si O2"
_cell_formula_units_Z 48
_cell_length_a 16.076372
_cell_length_b 32.617148
_cell_length_c 8.843477
_cell_angle_alpha 90.000000
_cell_angle_beta 153.285649
_cell_angle_gamma 90.000000
_cell_volume 2084.625659
_symmetry_space_group_name_H-M "C 2/M"
_symmetry_group_IT_number 12
_symmetry_cell_setting 'monoclinic'
loop_
_space_group_symop_operation_xyz
x,y,z
-x,y,-z
-x,-y,-z
x,-y,z
1/2+x,1/2+y,z
1/2-x,1/2+y,-z
1/2-x,1/2-y,-z
1/2+x,1/2-y,z
loop_
_atom_site_type_symbol
_atom_site_label
_atom_site_fract_x
_atom_site_fract_y
_atom_site_fract_z
Si Si1 0.923975 0.586426 0.026584
Si Si2 0.132093 0.732352 0.947853
Si Si3 0.727510 0.694914 0.278054
Si Si4 0.211150 0.668664 0.299770
Si Si5 0.189271 0.046497 0.889474
Si Si6 0.675408 0.885475 0.681700
O O1 0.104000 0.607379 0.395021
O O2 0.773839 0.621301 0.733461
O O3 0.846242 0.553680 0.018578
O O4 0.000000 0.563498 0.000000
O O5 0.937100 0.711589 0.590052
O O6 0.250000 0.750000 0.000000
O O7 0.090856 0.769653 0.998158
O O8 0.262875 0.698622 0.244666
O O9 0.673081 0.680919 0.361164
O O10 0.699082 0.655213 0.122186
O O11 0.000000 0.677626 0.000000
O O12 0.000000 0.056002 0.500000
O O13 0.203621 0.000000 0.972000
O O14 0.209380 0.076077 0.066250
O O15 0.500000 0.876547 0.500000
#
# Coordination Sequence:
#
# PCOD8084618 Si02
#       6
#     8   8   8   8   8   8
#     4  10  18  38  70  93 123 166 216 262 302 375
#     4  11  21  33  54  82 116 158 213 256 303 354
#     4  11  21  38  56  83 121 169 205 262 312 362
#     4   9  18  36  57  78 120 162 202 254 318 343
#     4  10  24  44  65  95 134 162 194 260 336 389
#     4  10  19  36  66  89 120 165 217 254 308 377
#
# _framework density 23.025717
#
# number of rings (size 3 to 8) (size 9 to 14) (size 15 to 20)
#    0.000    1.833    5.000    2.000    2.333    3.333 
#    3.000    0.833    0.000    2.000    0.000    0.000 
#    0.000    0.000    0.000    0.000    0.000    0.000 
#
# Total GULP energy -297456.436881 kJ/mol
# GULP energy per Si atom -12394.018203 kJ/mol
# Density = 2.297331 g / cm^3
# Si number density = 23.025717 Si / 1000 Ang^3
#
#
#
# Elastic Constant Matrix: (Units=GPa)
#
#
# Indices 1 2 3 4 5 6 
#
# 1 66.8091 25.4173 15.4902 0.0000 -19.5348 0.0000
# 2 25.4173 126.6912 48.6165 0.0000 -12.5350 0.0000
# 3 15.4902 48.6165 45.9064 0.0000 -26.4008 0.0000
# 4 0.0000 0.0000 0.0000 38.6234 0.0000 -4.7752
# 5 -19.5348 -12.5350 -26.4008 0.0000 29.5518 0.0000
# 6 0.0000 0.0000 0.0000 -4.7752 0.0000 27.3935
#
#
#
# Elastic Compliance Matrix: (Units=1/GPa)
#
#
# Indices 1 2 3 4 5 6 
#
# 1 0.021453 -0.007469 0.014407 0.000000 0.023884 0.000000
# 2 -0.007469 0.019652 -0.033600 0.000000 -0.026620 0.000000
# 3 0.014407 -0.033600 0.102395 0.000000 0.086748 0.000000
# 4 0.000000 0.000000 0.000000 0.026461 0.000000 0.004613
# 5 0.023884 -0.026620 0.086748 0.000000 0.115834 0.000000
# 6 0.000000 0.000000 0.000000 0.004613 0.000000 0.037309
#
#
# Mechanical properties :
#
#
# Convention : Reuss Voigt Hill
#
# Bulk Modulus (GPa) = 11.08968 46.49495 28.79232
# Shear Modulus (GPa) = 12.30051 29.10593 20.70322
#
# Velocity S-wave (km/s) = 2.31380 3.55922 3.00181
# Velocity P-wave (km/s) = 3.45903 6.09321 4.95440
#
# Compressibility (1/GPa) = 0.09017393
#
# Stress axis : x y z
#
# Youngs Moduli (GPa) = 46.61377 50.88591 9.76612
#
# Poissons Ratio (x) = 0.38009 -0.14070
# Poissons Ratio (y) = 0.34818 0.32815
# Poissons Ratio (z) = -0.67157 1.70979
#
# Static dielectric constant tensor:
#      x y z
#    x 4.034580 0.000000 -0.460120 
#    y 0.000000 4.143310 0.000000 
#    z -0.460120 0.000000 4.299360 
# 
# 
# High freq. dielectric constant tensor:
#      x y z
#    x 1.900930 0.000000 -0.023740 
#    y 0.000000 1.903200 0.000000 
#    z -0.023740 0.000000 1.901070 
# 
# From -- ./inp_files/80817.got.cif
#   From: 2010.06.25/outbox.cif.g09.slc.cpg/sg12_41_cif.got.tgz:80817.got - 2010.06.28 00:19:55.
