data_PCOD8084731
_publ_section_title
;
Structure prediction by ZEFSAII (Michael W. Deem and Ramdas Pophale) SiO2 
 PCOD8084731
Probable space group: C 2/M
;
_chemical_formula_sum "Si O2"
_cell_formula_units_Z 48
_cell_length_a 20.255071
_cell_length_b 9.193709
_cell_length_c 15.124191
_cell_angle_alpha 90.000000
_cell_angle_beta 77.732961
_cell_angle_gamma 90.000000
_cell_volume 2752.110689
_symmetry_space_group_name_H-M "C 2/M"
_symmetry_group_IT_number 12
_symmetry_cell_setting 'monoclinic'
loop_
_space_group_symop_operation_xyz
x,y,z
-x,y,-z
-x,-y,-z
x,-y,z
1/2+x,1/2+y,z
1/2-x,1/2+y,-z
1/2-x,1/2-y,-z
1/2+x,1/2-y,z
loop_
_atom_site_type_symbol
_atom_site_label
_atom_site_fract_x
_atom_site_fract_y
_atom_site_fract_z
Si Si1 0.818117 0.669891 0.456035
Si Si2 0.069175 0.337030 0.091095
Si Si3 0.089761 0.336347 0.892562
Si Si4 0.449737 0.331992 0.736270
Si Si5 0.567441 0.831757 0.433719
Si Si6 0.607427 0.668927 0.719492
O O1 0.804792 0.500000 0.443501
O O2 0.750000 0.750000 0.500000
O O3 0.869692 0.695409 0.520937
O O4 0.846765 0.738952 0.358928
O O5 0.092551 0.500000 0.109182
O O6 0.087926 0.230395 0.166157
O O7 0.989772 0.334538 0.098696
O O8 0.105617 0.287018 0.989242
O O9 0.117128 0.500000 0.868338
O O10 0.123796 0.224916 0.814028
O O11 0.432066 0.500000 0.735767
O O12 0.418665 0.255130 0.659702
O O13 0.529673 0.302974 0.717043
O O14 0.500000 0.771273 0.500000
O O15 0.557469 0.000000 0.411909
O O16 0.626666 0.500000 0.707760
#
# Coordination Sequence:
#
# PCOD8084731 Si02
#       6
#     8   8   8   8   8   8
#     4  11  23  38  55  74 100 133 170 213 254 300
#     4   8  14  25  41  63  95 131 166 203 245 297
#     4   8  14  25  42  64  92 130 169 204 245 293
#     4  10  19  28  45  73 103 132 164 208 254 295
#     4  10  20  35  54  74  97 132 173 208 249 302
#     4  10  19  30  46  71 101 133 167 206 253 300
#
# _framework density 17.44116
#
# number of rings (size 3 to 8) (size 9 to 14) (size 15 to 20)
#    0.000    2.500    1.667    2.500    0.000    3.667 
#    0.000    3.333    0.000    0.000    0.000    1.167 
#    0.000    0.000    0.000    0.000    0.000    0.000 
#
# Total GULP energy -297547.312390 kJ/mol
# GULP energy per Si atom -12397.804683 kJ/mol
# Density = 1.740146 g / cm^3
# Si number density = 17.441160 Si / 1000 Ang^3
#
#
#
# Elastic Constant Matrix: (Units=GPa)
#
#
# Indices 1 2 3 4 5 6 
#
# 1 44.4665 42.4328 36.4725 0.0000 0.7325 0.0000
# 2 42.4328 118.1545 91.8982 0.0000 2.7809 0.0000
# 3 36.4725 91.8982 163.9517 0.0000 14.1571 0.0000
# 4 0.0000 0.0000 0.0000 30.8271 0.0000 -1.6915
# 5 0.7325 2.7809 14.1571 0.0000 12.8967 0.0000
# 6 0.0000 0.0000 0.0000 -1.6915 0.0000 18.8566
#
#
#
# Elastic Compliance Matrix: (Units=1/GPa)
#
#
# Indices 1 2 3 4 5 6 
#
# 1 0.034421 -0.011188 -0.001575 0.000000 0.002186 0.000000
# 2 -0.011188 0.019172 -0.008788 0.000000 0.006149 0.000000
# 3 -0.001575 -0.008788 0.012378 0.000000 -0.011603 0.000000
# 4 0.000000 0.000000 0.000000 0.032599 0.000000 0.002924
# 5 0.002186 0.006149 -0.011603 0.000000 0.088826 0.000000
# 6 0.000000 0.000000 0.000000 0.002924 0.000000 0.053294
#
#
# Mechanical properties :
#
#
# Convention : Reuss Voigt Hill
#
# Bulk Modulus (GPa) = 43.72924 74.24218 58.98571
# Shear Modulus (GPa) = 17.15759 22.90069 20.02914
#
# Velocity S-wave (km/s) = 3.13987 3.62750 3.39246
# Velocity P-wave (km/s) = 6.18643 7.75917 7.01700
#
# Compressibility (1/GPa) = 0.02286800
#
# Stress axis : x y z
#
# Youngs Moduli (GPa) = 29.05205 52.15869 80.79040
#
# Poissons Ratio (x) = 0.58356 0.12723
# Poissons Ratio (y) = 0.32504 0.71002
# Poissons Ratio (z) = 0.04575 0.45839
#
# Static dielectric constant tensor:
#      x y z
#    x 2.755860 0.000000 0.108130 
#    y 0.000000 3.332290 0.000000 
#    z 0.108130 0.000000 3.588750 
# 
# 
# High freq. dielectric constant tensor:
#      x y z
#    x 1.611260 0.000000 0.012160 
#    y 0.000000 1.679790 0.000000 
#    z 0.012160 0.000000 1.691890 
# 
# From -- ./inp_files/229277.got.cif
#   From: 2010.06.25/outbox.cif.g09.slc.cpg/sg12_115_cif.got.tgz:229277.got - 2010.06.28 00:19:55.
