data_PCOD8084079
_publ_section_title
;
Structure prediction by ZEFSAII (Michael W. Deem and Ramdas Pophale) SiO2 
 PCOD8084079
Probable space group: C 2/M
;
_chemical_formula_sum "Si O2"
_cell_formula_units_Z 56
_cell_length_a 9.648416
_cell_length_b 30.900670
_cell_length_c 24.172059
_cell_angle_alpha 90.000000
_cell_angle_beta 154.573516
_cell_angle_gamma 90.000000
_cell_volume 3094.223630
_symmetry_space_group_name_H-M "C 2/M"
_symmetry_group_IT_number 12
_symmetry_cell_setting 'monoclinic'
loop_
_space_group_symop_operation_xyz
x,y,z
-x,y,-z
-x,-y,-z
x,-y,z
1/2+x,1/2+y,z
1/2-x,1/2+y,-z
1/2-x,1/2-y,-z
1/2+x,1/2-y,z
loop_
_atom_site_type_symbol
_atom_site_label
_atom_site_fract_x
_atom_site_fract_y
_atom_site_fract_z
Si Si1 0.190616 0.347227 0.924739
Si Si2 0.734807 0.000000 0.951918
Si Si3 0.764190 0.925620 0.246910
Si Si4 0.872911 0.000000 0.121772
Si Si5 0.134792 0.839076 0.887286
Si Si6 0.136179 0.949544 0.488686
Si Si7 0.173783 0.082064 0.287203
Si Si8 0.663704 0.245974 0.906712
O O1 0.005301 0.301599 0.842571
O O2 0.899725 0.379341 0.808358
O O3 0.500000 0.358452 0.000000
O O4 0.346945 0.351053 0.041942
O O5 0.507788 0.958349 0.871744
O O6 0.000000 0.000000 0.000000
O O7 0.947380 0.000000 0.083756
O O8 0.871175 0.941127 0.346120
O O9 0.062358 0.922501 0.311032
O O10 0.022465 0.043097 0.199368
O O11 0.500000 0.000000 0.000000
O O12 0.979902 0.790296 0.821535
O O13 0.931524 0.872519 0.777666
O O14 0.500000 0.838627 0.000000
O O15 0.441481 0.920722 0.580640
O O16 0.000000 0.935573 0.500000
O O17 0.234089 0.000000 0.525075
O O18 0.750000 0.250000 0.000000
O O19 0.000000 0.241291 0.000000
#
# Coordination Sequence:
#
# PCOD8084079 Si02
#       8
#     8   4   8   4   8   8   8   8
#     4  10  20  33  55  89 121 151 184 231 286 338
#     4  12  26  35  56  87 121 150 177 232 292 336
#     4  12  23  40  58  82 115 151 197 234 276 339
#     4  12  22  37  56  87 119 144 181 224 292 346
#     4  10  18  34  57  87 121 148 186 227 286 346
#     4  11  27  45  61  78 105 153 202 243 285 329
#     4  12  23  38  61  82 113 153 192 237 276 341
#     4   8  16  30  51  81 119 153 180 220 276 345
#
# _framework density 18.098239
#
# number of rings (size 3 to 8) (size 9 to 14) (size 15 to 20)
#    0.000    1.286    4.286    2.143    4.000    0.571 
#    0.000    0.000    0.000    0.857    0.000    0.000 
#    0.000    0.000    0.000    0.000    0.000    0.000 
#
# Total GULP energy -346888.694010 kJ/mol
# GULP energy per Si atom -12388.881929 kJ/mol
# Density = 1.805705 g / cm^3
# Si number density = 18.098239 Si / 1000 Ang^3
#
#
#
# Elastic Constant Matrix: (Units=GPa)
#
#
# Indices 1 2 3 4 5 6 
#
# 1 145.4751 26.2902 26.0903 -0.1017 -7.6638 0.0006
# 2 26.2902 136.1394 27.3099 -0.1032 1.2476 -0.0036
# 3 26.0903 27.3099 49.9268 -0.5794 -5.0187 -0.0246
# 4 -0.1017 -0.1032 -0.5794 114.0228 -0.1882 -1.2852
# 5 -7.6638 1.2476 -5.0187 -0.1882 32.5230 -0.0049
# 6 0.0006 -0.0036 -0.0246 -1.2852 -0.0049 24.7767
#
#
#
# Elastic Compliance Matrix: (Units=1/GPa)
#
#
# Indices 1 2 3 4 5 6 
#
# 1 0.007709 -0.000808 -0.003455 -0.000009 0.001314 -0.000004
# 2 -0.000808 0.008369 -0.004274 -0.000017 -0.001171 -0.000004
# 3 -0.003455 -0.004274 0.024488 0.000123 0.003130 0.000031
# 4 -0.000009 -0.000017 0.000123 0.008776 0.000068 0.000455
# 5 0.001314 -0.001171 0.003130 0.000068 0.031585 0.000013
# 6 -0.000004 -0.000004 0.000031 0.000455 0.000013 0.040384
#
#
# Mechanical properties :
#
#
# Convention : Reuss Voigt Hill
#
# Bulk Modulus (GPa) = 42.56349 54.54691 48.55520
# Shear Modulus (GPa) = 34.19596 51.05455 42.62525
#
# Velocity S-wave (km/s) = 4.35151 5.31704 4.85832
# Velocity P-wave (km/s) = 6.98689 8.24011 7.63924
#
# Compressibility (1/GPa) = 0.02349431
#
# Stress axis : x y z
#
# Youngs Moduli (GPa) = 129.72193 119.48194 40.83563
#
# Poissons Ratio (x) = 0.09651 0.14107
# Poissons Ratio (y) = 0.10478 0.17453
# Poissons Ratio (z) = 0.44813 0.51065
#
# Static dielectric constant tensor:
#      x y z
#    x 3.633620 -0.000030 0.097920 
#    y -0.000030 4.125280 -0.000230 
#    z 0.097920 -0.000230 4.078370 
# 
# 
# High freq. dielectric constant tensor:
#      x y z
#    x 1.729630 0.000000 -0.009450 
#    y 0.000000 1.717790 0.000000 
#    z -0.009450 0.000000 1.655690 
# 
# From -- ./inp_files/125667.got.cif
#   From: 2010.06.25/outbox.cif.g09.slc.cpg/sg12_63_cif.got.tgz:125667.got - 2010.06.28 00:19:55.
