data_PCOD8084088
_publ_section_title
;
Structure prediction by ZEFSAII (Michael W. Deem and Ramdas Pophale) SiO2 
 PCOD8084088
Probable space group: C 2/M
;
_chemical_formula_sum "Si O2"
_cell_formula_units_Z 64
_cell_length_a 14.572429
_cell_length_b 8.840210
_cell_length_c 30.454038
_cell_angle_alpha 90.000000
_cell_angle_beta 59.815909
_cell_angle_gamma 90.000000
_cell_volume 3391.262660
_symmetry_space_group_name_H-M "C 2/M"
_symmetry_group_IT_number 12
_symmetry_cell_setting 'monoclinic'
loop_
_space_group_symop_operation_xyz
x,y,z
-x,y,-z
-x,-y,-z
x,-y,z
1/2+x,1/2+y,z
1/2-x,1/2+y,-z
1/2-x,1/2-y,-z
1/2+x,1/2-y,z
loop_
_atom_site_type_symbol
_atom_site_label
_atom_site_fract_x
_atom_site_fract_y
_atom_site_fract_z
Si Si1 0.276306 0.320112 0.210448
Si Si2 0.548966 0.825584 0.598479
Si Si3 0.679712 0.179037 0.324314
Si Si4 0.935194 0.821395 0.058213
Si Si5 0.510626 0.322311 0.133753
Si Si6 0.237313 0.327540 0.613442
Si Si7 0.282199 0.680357 0.865564
Si Si8 0.616711 0.831389 0.490438
O O1 0.267101 0.500000 0.207077
O O2 0.221117 0.258494 0.267909
O O3 0.400066 0.270401 0.182916
O O4 0.215799 0.243712 0.184354
O O5 0.435387 0.749680 0.636266
O O6 0.617890 0.806717 0.625384
O O7 0.608854 0.756972 0.541288
O O8 0.529081 0.000000 0.590822
O O9 0.758371 0.226962 0.344105
O O10 0.674562 0.000000 0.322866
O O11 0.822190 0.737988 0.084071
O O12 0.004477 0.772114 0.084085
O O13 0.912648 0.000000 0.064624
O O14 0.000000 0.770636 0.000000
O O15 0.521879 0.500000 0.134148
O O16 0.613675 0.254229 0.133796
O O17 0.263066 0.500000 0.619206
O O18 0.316136 0.278126 0.556122
O O19 0.281482 0.500000 0.864374
O O20 0.500000 0.842850 0.500000
O O21 0.668332 0.000000 0.478653
#
# Coordination Sequence:
#
# PCOD8084088 Si02
#       8
#     8   8   8   8   8   8   8   8
#     4   9  19  36  57  75  97 134 178 216 249 305
#     4   9  19  35  53  75 103 134 166 206 254 302
#     4  10  20  38  58  74  98 136 175 206 250 312
#     4   9  18  34  54  76 107 145 182 215 247 296
#     4   8  16  32  51  75 105 137 171 212 262 300
#     4  11  22  34  51  78 108 130 160 212 262 301
#     4  10  19  32  52  76 107 139 169 214 266 308
#     4  10  18  34  58  74  96 137 174 201 241 307
#
# _framework density 18.872025000000001
#
# number of rings (size 3 to 8) (size 9 to 14) (size 15 to 20)
#    0.000    2.500    1.250    1.875    0.000    2.500 
#    0.000    6.875    0.000    0.000    0.000    0.000 
#    0.000    0.000    0.000    0.000    0.000    0.000 
#
# Total GULP energy -396694.095516 kJ/mol
# GULP energy per Si atom -12396.690485 kJ/mol
# Density = 1.882907 g / cm^3
# Si number density = 18.872025 Si / 1000 Ang^3
#
#
#
# Elastic Constant Matrix: (Units=GPa)
#
#
# Indices 1 2 3 4 5 6 
#
# 1 129.7291 23.7439 57.3340 0.0000 12.6788 0.0000
# 2 23.7439 25.0446 23.1155 0.0000 -0.7052 0.0000
# 3 57.3340 23.1155 155.6426 0.0000 15.3538 0.0000
# 4 0.0000 0.0000 0.0000 6.0315 0.0000 13.2374
# 5 12.6788 -0.7052 15.3538 0.0000 17.0552 0.0000
# 6 0.0000 0.0000 0.0000 13.2374 0.0000 19.5114
#
#
#
# Elastic Compliance Matrix: (Units=1/GPa)
#
#
# Indices 1 2 3 4 5 6 
#
# 1 0.010826 -0.008531 -0.002077 0.000000 -0.006531 0.000000
# 2 -0.008531 0.054255 -0.006324 0.000000 0.014278 0.000000
# 3 -0.002077 -0.006324 0.008783 0.000000 -0.006624 0.000000
# 4 0.000000 0.000000 0.000000 -0.339055 0.000000 0.230030
# 5 -0.006531 0.014278 -0.006624 0.000000 0.070042 0.000000
# 6 0.000000 0.000000 0.000000 0.230030 0.000000 -0.104810
#
#
# Mechanical properties :
#
#
# Convention : Reuss Voigt Hill
#
# Bulk Modulus (GPa) = 24.99927 57.64478 41.32202
# Shear Modulus (GPa) = -19.78137 22.26781 1.24322
#
# Velocity S-wave (km/s) = -3.24108 3.43875 0.81252
# Velocity P-wave (km/s) = 0.85478 6.81014 4.77742
#
# Compressibility (1/GPa) = 0.04000117
#
# Stress axis : x y z
#
# Youngs Moduli (GPa) = 92.37178 18.43141 113.86146
#
# Poissons Ratio (x) = 0.15723 0.23645
# Poissons Ratio (y) = 0.78800 0.72004
# Poissons Ratio (z) = 0.19183 0.11656
#
# Static dielectric constant tensor:
#      x y z
#    x 3.671650 0.000000 0.009170 
#    y 0.000000 3.189810 0.000000 
#    z 0.009170 0.000000 3.628010 
# 
# 
# High freq. dielectric constant tensor:
#      x y z
#    x 1.739940 0.000000 0.005370 
#    y 0.000000 1.702460 0.000000 
#    z 0.005370 0.000000 1.735740 
# 
# From -- ./inp_files/374992.got.cif
#   From: 2010.06.25/outbox.cif.g09.slc.cpg/sg12_188_cif.got.tgz:374992.got - 2010.06.28 00:19:55.
