data_PCOD8084330
_publ_section_title
;
Structure prediction by ZEFSAII (Michael W. Deem and Ramdas Pophale) SiO2 
 PCOD8084330
Probable space group: C 2/M
;
_chemical_formula_sum "Si O2"
_cell_formula_units_Z 64
_cell_length_a 14.455249
_cell_length_b 9.149268
_cell_length_c 26.712633
_cell_angle_alpha 90.000000
_cell_angle_beta 103.849243
_cell_angle_gamma 90.000000
_cell_volume 3430.173265
_symmetry_space_group_name_H-M "C 2/M"
_symmetry_group_IT_number 12
_symmetry_cell_setting 'monoclinic'
loop_
_space_group_symop_operation_xyz
x,y,z
-x,y,-z
-x,-y,-z
x,-y,z
1/2+x,1/2+y,z
1/2-x,1/2+y,-z
1/2-x,1/2-y,-z
1/2+x,1/2-y,z
loop_
_atom_site_type_symbol
_atom_site_label
_atom_site_fract_x
_atom_site_fract_y
_atom_site_fract_z
Si Si1 0.695681 0.832043 0.597489
Si Si2 0.461449 0.329185 0.134957
Si Si3 0.418449 0.174065 0.322983
Si Si4 0.843251 0.329876 0.865479
Si Si5 0.773918 0.827253 0.054367
Si Si6 0.898511 0.662956 0.511846
Si Si7 0.408849 0.331767 0.615126
Si Si8 0.846000 0.169506 0.217709
O O1 0.635063 0.762697 0.634753
O O2 0.672395 0.765883 0.539364
O O3 0.805289 0.813861 0.626090
O O4 0.664533 0.000000 0.588974
O O5 0.479805 0.500000 0.132166
O O6 0.560369 0.251140 0.136490
O O7 0.379767 0.279088 0.085332
O O8 0.423986 0.291011 0.185585
O O9 0.524173 0.239619 0.339295
O O10 0.363956 0.228681 0.267251
O O11 0.422365 0.000000 0.322169
O O12 0.866856 0.500000 0.869411
O O13 0.804685 0.279034 0.914767
O O14 0.760710 0.295860 0.814651
O O15 0.770511 0.000000 0.046774
O O16 0.750000 0.750000 0.000000
O O17 0.865342 0.500000 0.525250
O O18 0.905414 0.772118 0.558673
O O19 0.000000 0.649438 0.500000
O O20 0.441567 0.500000 0.617908
O O21 0.855545 0.000000 0.233869
#
# Coordination Sequence:
#
# PCOD8084330 Si02
#       8
#     8   8   8   8   8   8   8   8
#     4   9  20  37  55  76 106 141 171 208 262 318
#     4   9  19  36  57  79 109 146 184 222 272 324
#     4  11  22  39  58  78 105 140 178 215 265 324
#     4   9  19  36  57  80 110 144 184 227 271 317
#     4   9  19  35  53  79 115 153 185 226 272 318
#     4  10  18  35  59  77 104 142 174 210 259 315
#     4  11  22  36  55  81 109 136 173 218 263 314
#     4   9  20  39  57  77 107 140 174 223 275 317
#
# _framework density 18.65795
#
# number of rings (size 3 to 8) (size 9 to 14) (size 15 to 20)
#    0.000    2.375    1.250    2.625    0.000    3.750 
#    0.000   11.875    0.000    0.000    0.000    0.000 
#    0.000    0.000    0.000    0.000    0.000    0.000 
#
# Total GULP energy -396730.064474 kJ/mol
# GULP energy per Si atom -12397.814515 kJ/mol
# Density = 1.861548 g / cm^3
# Si number density = 18.657950 Si / 1000 Ang^3
#
#
#
# Elastic Constant Matrix: (Units=GPa)
#
#
# Indices 1 2 3 4 5 6 
#
# 1 119.6310 44.0832 41.7040 0.0000 8.3983 0.0000
# 2 44.0832 68.5576 46.1070 0.0000 5.8569 0.0000
# 3 41.7040 46.1070 113.7533 0.0000 14.0947 0.0000
# 4 0.0000 0.0000 0.0000 30.3910 0.0000 10.5500
# 5 8.3983 5.8569 14.0947 0.0000 18.6547 0.0000
# 6 0.0000 0.0000 0.0000 10.5500 0.0000 24.9087
#
#
#
# Elastic Compliance Matrix: (Units=1/GPa)
#
#
# Indices 1 2 3 4 5 6 
#
# 1 0.011243 -0.006122 -0.001381 0.000000 -0.002096 0.000000
# 2 -0.006122 0.023386 -0.007355 0.000000 0.000971 0.000000
# 3 -0.001381 -0.007355 0.013146 0.000000 -0.007002 0.000000
# 4 0.000000 0.000000 0.000000 0.038576 0.000000 -0.016339
# 5 -0.002096 0.000971 -0.007002 0.000000 0.059535 0.000000
# 6 0.000000 0.000000 0.000000 -0.016339 0.000000 0.047067
#
#
# Mechanical properties :
#
#
# Convention : Reuss Voigt Hill
#
# Bulk Modulus (GPa) = 55.37057 62.85893 59.11475
# Shear Modulus (GPa) = 21.86375 26.12740 23.99558
#
# Velocity S-wave (km/s) = 3.42690 3.74617 3.59008
# Velocity P-wave (km/s) = 6.73790 7.24396 6.99551
#
# Compressibility (1/GPa) = 0.01806014
#
# Stress axis : x y z
#
# Youngs Moduli (GPa) = 88.94051 42.76040 76.06944
#
# Poissons Ratio (x) = 0.26177 0.10505
# Poissons Ratio (y) = 0.54448 0.55948
# Poissons Ratio (z) = 0.12283 0.31450
#
# Static dielectric constant tensor:
#      x y z
#    x 3.543700 0.000000 0.050680 
#    y 0.000000 3.277520 0.000000 
#    z 0.050680 0.000000 3.529550 
# 
# 
# High freq. dielectric constant tensor:
#      x y z
#    x 1.732290 0.000000 0.006770 
#    y 0.000000 1.710560 0.000000 
#    z 0.006770 0.000000 1.724970 
# 
# From -- ./inp_files/359879.got.cif
#   From: 2010.06.25/outbox.cif.g09.slc.cpg/sg12_180_cif.got.tgz:359879.got - 2010.06.28 00:19:55.
