data_PCOD8084467
_publ_section_title
;
Structure prediction by ZEFSAII (Michael W. Deem and Ramdas Pophale) SiO2 
 PCOD8084467
Probable space group: C 2/M
;
_chemical_formula_sum "Si O2"
_cell_formula_units_Z 60
_cell_length_a 21.796596
_cell_length_b 27.621212
_cell_length_c 13.193584
_cell_angle_alpha 90.000000
_cell_angle_beta 21.932503
_cell_angle_gamma 90.000000
_cell_volume 2966.888039
_symmetry_space_group_name_H-M "C 2/M"
_symmetry_group_IT_number 12
_symmetry_cell_setting 'monoclinic'
loop_
_space_group_symop_operation_xyz
x,y,z
-x,y,-z
-x,-y,-z
x,-y,z
1/2+x,1/2+y,z
1/2-x,1/2+y,-z
1/2-x,1/2-y,-z
1/2+x,1/2-y,z
loop_
_atom_site_type_symbol
_atom_site_label
_atom_site_fract_x
_atom_site_fract_y
_atom_site_fract_z
Si Si1 0.813175 0.674271 0.370757
Si Si2 0.829267 0.637839 0.964665
Si Si3 0.192366 0.200409 0.351699
Si Si4 0.640495 0.194753 0.482204
Si Si5 0.500000 0.089795 0.000000
Si Si6 0.043246 0.885491 0.254774
Si Si7 0.243279 0.445244 0.782448
Si Si8 0.964442 0.864663 0.947921
O O1 0.831568 0.698129 0.229160
O O2 0.882571 0.704783 0.360380
O O3 0.908395 0.622996 0.224052
O O4 0.621329 0.668028 0.684401
O O5 0.757938 0.681263 0.143661
O O6 0.714410 0.621688 0.048383
O O7 0.853813 0.588609 0.990370
O O8 0.000317 0.657636 0.658113
O O9 0.126655 0.255002 0.442303
O O10 0.042348 0.166554 0.613017
O O11 0.813658 0.171401 0.192485
O O12 0.360467 0.056639 0.162577
O O13 0.070660 0.900162 0.094147
O O14 0.929246 0.925776 0.482721
O O15 0.252914 0.500000 0.807885
O O16 0.000000 0.893295 0.000000
#
# Coordination Sequence:
#
# PCOD8084467 Si02
#       8
#     8   8   8   8   4   8   8   8
#     4  10  18  36  57  81 121 157 196 255 299 349
#     4  11  23  39  58  86 126 160 205 253 299 359
#     4  10  20  35  55  81 119 162 202 250 302 345
#     4  11  22  34  57  85 118 167 210 244 291 351
#     4  12  17  38  64  92 124 152 186 262 321 354
#     4  10  22  42  57  84 124 159 197 254 300 362
#     4  11  22  39  68  96 119 150 195 258 325 367
#     4   9  20  38  57  81 114 157 201 241 294 356
#
# _framework density 20.223210000000002
#
# number of rings (size 3 to 8) (size 9 to 14) (size 15 to 20)
#    0.000    1.600    5.333    2.200    3.733    2.133 
#    8.400    0.000    0.000    1.200    0.000    1.867 
#    0.000    0.000    0.000    0.000    0.000    0.000 
#
# Total GULP energy -371748.153769 kJ/mol
# GULP energy per Si atom -12391.605126 kJ/mol
# Density = 2.017718 g / cm^3
# Si number density = 20.223210 Si / 1000 Ang^3
#
#
#
# Elastic Constant Matrix: (Units=GPa)
#
#
# Indices 1 2 3 4 5 6 
#
# 1 98.8655 22.7378 26.4748 0.0731 -10.7721 -0.0789
# 2 22.7378 124.1766 39.3604 -0.0545 -2.8670 -0.0036
# 3 26.4748 39.3604 78.5428 -0.1794 -8.5027 0.0189
# 4 0.0731 -0.0545 -0.1794 13.3171 0.0516 -2.9814
# 5 -10.7721 -2.8670 -8.5027 0.0516 31.3878 0.0195
# 6 -0.0789 -0.0036 0.0189 -2.9814 0.0195 9.4092
#
#
#
# Elastic Compliance Matrix: (Units=1/GPa)
#
#
# Indices 1 2 3 4 5 6 
#
# 1 0.011499 -0.001083 -0.003005 -0.000106 0.003034 0.000062
# 2 -0.001083 0.009682 -0.004565 -0.000013 -0.000724 0.000001
# 3 -0.003005 -0.004565 0.016356 0.000207 0.002982 -0.000001
# 4 -0.000106 -0.000013 0.000207 0.080829 -0.000130 0.025610
# 5 0.003034 -0.000724 0.002982 -0.000130 0.033643 -0.000092
# 6 0.000062 0.000001 -0.000001 0.025610 -0.000092 0.114395
#
#
# Mechanical properties :
#
#
# Convention : Reuss Voigt Hill
#
# Bulk Modulus (GPa) = 49.43144 53.19234 51.31189
# Shear Modulus (GPa) = 17.21450 25.02362 21.11906
#
# Velocity S-wave (km/s) = 2.92074 3.52144 3.23507
# Velocity P-wave (km/s) = 5.98918 6.54934 6.27551
#
# Compressibility (1/GPa) = 0.02023004
#
# Stress axis : x y z
#
# Youngs Moduli (GPa) = 86.96215 103.28816 61.13995
#
# Poissons Ratio (x) = 0.11187 0.18374
# Poissons Ratio (y) = 0.09418 0.27911
# Poissons Ratio (z) = 0.26134 0.47152
#
# Static dielectric constant tensor:
#      x y z
#    x 4.198230 -0.000070 0.044110 
#    y -0.000070 3.238570 0.000210 
#    z 0.044110 0.000210 3.741920 
# 
# 
# High freq. dielectric constant tensor:
#      x y z
#    x 1.799530 -0.000010 -0.011240 
#    y -0.000010 1.736670 0.000020 
#    z -0.011240 0.000020 1.789350 
# 
# From -- ./inp_files/242342.got.cif
#   From: 2010.06.25/outbox.cif.g09.slc.cpg/sg12_122_cif.got.tgz:242342.got - 2010.06.28 00:19:55.
