data_PCOD8084716
_publ_section_title
;
Structure prediction by ZEFSAII (Michael W. Deem and Ramdas Pophale) SiO2 
 PCOD8084716
Probable space group: C 2/M
;
_chemical_formula_sum "Si O2"
_cell_formula_units_Z 52
_cell_length_a 8.199708
_cell_length_b 31.279321
_cell_length_c 19.112663
_cell_angle_alpha 90.000000
_cell_angle_beta 141.845971
_cell_angle_gamma 90.000000
_cell_volume 3028.371226
_symmetry_space_group_name_H-M "C 2/M"
_symmetry_group_IT_number 12
_symmetry_cell_setting 'monoclinic'
loop_
_space_group_symop_operation_xyz
x,y,z
-x,y,-z
-x,-y,-z
x,-y,z
1/2+x,1/2+y,z
1/2-x,1/2+y,-z
1/2-x,1/2-y,-z
1/2+x,1/2-y,z
loop_
_atom_site_type_symbol
_atom_site_label
_atom_site_fract_x
_atom_site_fract_y
_atom_site_fract_z
Si Si1 0.916694 0.368500 0.804707
Si Si2 0.704393 0.952348 0.168795
Si Si3 0.783492 0.298586 0.867610
Si Si4 0.751220 0.267501 0.262798
Si Si5 0.610523 0.547143 0.916091
Si Si6 0.248288 0.307375 0.369712
Si Si7 0.000000 0.106299 0.000000
O O1 0.791498 0.416247 0.769130
O O2 0.807916 0.342163 0.833427
O O3 0.821122 0.348618 0.699969
O O4 0.235884 0.365618 0.917596
O O5 0.898561 0.939888 0.169363
O O6 0.778428 0.000000 0.222812
O O7 0.410750 0.953310 0.041078
O O8 0.490935 0.298427 0.800989
O O9 0.824543 0.256975 0.833672
O O10 0.000000 0.296593 0.000000
O O11 0.813738 0.233940 0.345135
O O12 0.005461 0.297324 0.339135
O O13 0.485947 0.500000 0.882914
O O14 0.449605 0.578613 0.912496
O O15 0.500000 0.319875 0.500000
#
# Coordination Sequence:
#
# PCOD8084716 Si02
#       7
#     8   8   8   8   8   8   4
#     4  10  22  30  47  76 101 136 170 203 260 295
#     4   8  15  29  45  65  97 134 170 202 244 300
#     4  10  20  32  51  72 108 133 161 199 247 317
#     4   9  20  36  53  76  93 133 172 204 258 297
#     4   8  14  25  44  65  92 132 167 201 243 293
#     4  10  20  37  55  74 100 128 174 220 251 294
#     4  10  19  28  42  70 110 128 162 204 250 308
#
# _framework density 17.170947999999999
#
# number of rings (size 3 to 8) (size 9 to 14) (size 15 to 20)
#    0.000    2.769    0.000    2.077    6.462    0.615 
#    2.769    0.000    0.000    0.462    0.000    0.000 
#    0.000    3.692    0.000    0.000    0.000    0.000 
#
# Total GULP energy -322291.677813 kJ/mol
# GULP energy per Si atom -12395.833762 kJ/mol
# Density = 1.713187 g / cm^3
# Si number density = 17.170948 Si / 1000 Ang^3
#
#
#
# Elastic Constant Matrix: (Units=GPa)
#
#
# Indices 1 2 3 4 5 6 
#
# 1 107.6393 53.1688 41.2837 0.0000 13.1050 0.0000
# 2 53.1688 98.6087 44.3259 0.0000 7.1011 0.0000
# 3 41.2837 44.3259 86.4991 -0.0001 0.3197 0.0000
# 4 0.0000 0.0000 -0.0001 11.4919 0.0000 -3.8858
# 5 13.1050 7.1011 0.3197 0.0000 16.0680 0.0000
# 6 0.0000 0.0000 0.0000 -3.8858 0.0000 24.8533
#
#
#
# Elastic Compliance Matrix: (Units=1/GPa)
#
#
# Indices 1 2 3 4 5 6 
#
# 1 0.014724 -0.005336 -0.004257 0.000000 -0.009565 0.000000
# 2 -0.005336 0.015652 -0.005465 0.000000 -0.002456 0.000000
# 3 -0.004257 -0.005465 0.016372 0.000000 0.005562 0.000000
# 4 0.000000 0.000000 0.000000 0.091875 0.000000 0.014365
# 5 -0.009565 -0.002456 0.005562 0.000000 0.071012 0.000000
# 6 0.000000 0.000000 0.000000 0.014365 0.000000 0.042482
#
#
# Mechanical properties :
#
#
# Convention : Reuss Voigt Hill
#
# Bulk Modulus (GPa) = 60.12760 63.36712 61.74736
# Shear Modulus (GPa) = 17.37454 20.74719 19.06086
#
# Velocity S-wave (km/s) = 3.18442 3.47979 3.33538
# Velocity P-wave (km/s) = 6.97236 7.28897 7.13242
#
# Compressibility (1/GPa) = 0.01663130
#
# Stress axis : x y z
#
# Youngs Moduli (GPa) = 67.91838 63.89093 61.07805
#
# Poissons Ratio (x) = 0.34094 0.26003
# Poissons Ratio (y) = 0.36243 0.33377
# Poissons Ratio (z) = 0.28915 0.34914
#
# Static dielectric constant tensor:
#      x y z
#    x 3.617080 0.000000 -0.002830 
#    y 0.000000 3.396490 0.000000 
#    z -0.002830 0.000000 2.744760 
# 
# 
# High freq. dielectric constant tensor:
#      x y z
#    x 1.682560 0.000000 0.001440 
#    y 0.000000 1.659930 0.000000 
#    z 0.001440 0.000000 1.606390 
# 
# From -- ./inp_files/124813.got.cif
#   From: 2010.06.25/outbox.cif.g09.slc.cpg/sg12_63_cif.got.tgz:124813.got - 2010.06.28 00:19:55.
