data_PCOD8084261
_publ_section_title
;
Structure prediction by ZEFSAII (Michael W. Deem and Ramdas Pophale) SiO2 
 PCOD8084261
Probable space group: C 2/M
;
_chemical_formula_sum "Si O2"
_cell_formula_units_Z 64
_cell_length_a 29.324928
_cell_length_b 27.308068
_cell_length_c 9.771558
_cell_angle_alpha 90.000000
_cell_angle_beta 28.642347
_cell_angle_gamma 90.000000
_cell_volume 3750.904400
_symmetry_space_group_name_H-M "C 2/M"
_symmetry_group_IT_number 12
_symmetry_cell_setting 'monoclinic'
loop_
_space_group_symop_operation_xyz
x,y,z
-x,y,-z
-x,-y,-z
x,-y,z
1/2+x,1/2+y,z
1/2-x,1/2+y,-z
1/2-x,1/2-y,-z
1/2+x,1/2-y,z
loop_
_atom_site_type_symbol
_atom_site_label
_atom_site_fract_x
_atom_site_fract_y
_atom_site_fract_z
Si Si1 0.598819 0.197353 0.288340
Si Si2 0.295183 0.846134 0.238337
Si Si3 0.107429 0.690176 0.753404
Si Si4 0.885028 0.444531 0.949556
Si Si5 0.895082 0.198461 0.318228
Si Si6 0.337227 0.711276 0.777265
Si Si7 0.100375 0.554890 0.410609
Si Si8 0.693416 0.145671 0.276337
O O1 0.500000 0.174627 0.500000
O O2 0.590165 0.256956 0.320222
O O3 0.615460 0.176229 0.395860
O O4 0.681393 0.177864 0.971010
O O5 0.363862 0.819887 0.166205
O O6 0.182704 0.835983 0.552995
O O7 0.312275 0.904613 0.202058
O O8 0.122911 0.747145 0.687323
O O9 0.179482 0.658291 0.471733
O O10 0.000000 0.674236 0.000000
O O11 0.851346 0.500000 0.073533
O O12 0.886073 0.436372 0.785174
O O13 0.989658 0.435212 0.737674
O O14 0.885415 0.196935 0.507624
O O15 0.000000 0.179657 0.000000
O O16 0.250000 0.750000 0.000000
O O17 0.300193 0.661624 0.948502
O O18 0.128008 0.500000 0.379201
O O19 0.173191 0.588483 0.304208
#
# Coordination Sequence:
#
# PCOD8084261 Si02
#       8
#     8   8   8   8   8   8   8   8
#     4  11  19  29  53  74  96 133 173 202 247 310
#     4  12  21  34  52  75 102 141 175 202 257 317
#     4  11  22  32  48  75 109 136 166 206 255 305
#     4   9  17  29  48  75 102 125 164 216 256 300
#     4  11  22  36  51  73 107 139 170 219 257 291
#     4  10  18  35  50  70  99 135 169 211 254 290
#     4   9  16  27  48  77 100 125 166 211 253 304
#     4  11  18  34  50  67 105 136 167 208 248 300
#
# _framework density 17.062552
#
# number of rings (size 3 to 8) (size 9 to 14) (size 15 to 20)
#    0.000    1.500    6.250    3.375    1.750    0.000 
#    0.000    0.625    0.000    2.625    0.000    0.000 
#    0.000    0.500    0.000    0.250    0.000    0.000 
#
# Total GULP energy -396634.365669 kJ/mol
# GULP energy per Si atom -12394.823927 kJ/mol
# Density = 1.702372 g / cm^3
# Si number density = 17.062552 Si / 1000 Ang^3
#
#
#
# Elastic Constant Matrix: (Units=GPa)
#
#
# Indices 1 2 3 4 5 6 
#
# 1 39.6642 22.4565 17.8879 0.0000 -3.3307 0.0000
# 2 22.4565 111.1347 35.4638 0.0000 -6.2727 0.0000
# 3 17.8879 35.4638 84.8172 0.0000 -4.2506 0.0000
# 4 0.0000 0.0000 0.0000 18.9614 0.0000 -9.1873
# 5 -3.3307 -6.2727 -4.2506 0.0000 21.1920 0.0000
# 6 0.0000 0.0000 0.0000 -9.1873 0.0000 18.6365
#
#
#
# Elastic Compliance Matrix: (Units=1/GPa)
#
#
# Indices 1 2 3 4 5 6 
#
# 1 0.029924 -0.004537 -0.004289 0.000000 0.002500 0.000000
# 2 -0.004537 0.011176 -0.003623 0.000000 0.001868 0.000000
# 3 -0.004289 -0.003623 0.014265 0.000000 0.001115 0.000000
# 4 0.000000 0.000000 0.000000 0.069289 0.000000 0.034158
# 5 0.002500 0.001868 0.001115 0.000000 0.048357 0.000000
# 6 0.000000 0.000000 0.000000 0.034158 0.000000 0.070497
#
#
# Mechanical properties :
#
#
# Convention : Reuss Voigt Hill
#
# Bulk Modulus (GPa) = 32.82002 43.02583 37.92293
# Shear Modulus (GPa) = 17.94931 22.41184 20.18057
#
# Velocity S-wave (km/s) = 3.24693 3.62817 3.44283
# Velocity P-wave (km/s) = 5.77353 6.54391 6.17075
#
# Compressibility (1/GPa) = 0.03046920
#
# Stress axis : x y z
#
# Youngs Moduli (GPa) = 33.41751 89.47498 70.10116
#
# Poissons Ratio (x) = 0.40595 0.30065
# Poissons Ratio (y) = 0.15162 0.25395
# Poissons Ratio (z) = 0.14332 0.32413
#
# Static dielectric constant tensor:
#      x y z
#    x 3.194120 0.000000 -0.102010 
#    y 0.000000 3.355470 0.000000 
#    z -0.102010 0.000000 3.222740 
# 
# 
# High freq. dielectric constant tensor:
#      x y z
#    x 1.639630 0.000000 0.008840 
#    y 0.000000 1.642460 0.000000 
#    z 0.008840 0.000000 1.641790 
# 
# From -- ./inp_files/113737.got.cif
#   From: 2010.06.25/outbox.cif.g09.slc.cpg/sg12_57_cif.got.tgz:113737.got - 2010.06.28 00:19:55.
