data_PCOD8084268
_publ_section_title
;
Structure prediction by ZEFSAII (Michael W. Deem and Ramdas Pophale) SiO2 
 PCOD8084268
Probable space group: C 2/M
;
_chemical_formula_sum "Si O2"
_cell_formula_units_Z 56
_cell_length_a 20.142777
_cell_length_b 17.726906
_cell_length_c 12.592842
_cell_angle_alpha 90.000000
_cell_angle_beta 132.521646
_cell_angle_gamma 90.000000
_cell_volume 3314.030661
_symmetry_space_group_name_H-M "C 2/M"
_symmetry_group_IT_number 12
_symmetry_cell_setting 'monoclinic'
loop_
_space_group_symop_operation_xyz
x,y,z
-x,y,-z
-x,-y,-z
x,-y,z
1/2+x,1/2+y,z
1/2-x,1/2+y,-z
1/2-x,1/2-y,-z
1/2+x,1/2-y,z
loop_
_atom_site_type_symbol
_atom_site_label
_atom_site_fract_x
_atom_site_fract_y
_atom_site_fract_z
Si Si1 0.026801 0.825710 0.365184
Si Si2 0.296463 0.669198 0.545421
Si Si3 0.685661 0.836528 0.828773
Si Si4 0.323064 0.339048 0.154289
Si Si5 0.828380 0.911950 0.377333
Si Si6 0.489516 0.155392 0.606695
Si Si7 0.690496 0.088528 0.604481
O O1 0.925936 0.850258 0.225958
O O2 0.093559 0.824241 0.334225
O O3 0.067813 0.883730 0.496669
O O4 0.031995 0.743537 0.422780
O O5 0.250000 0.750000 0.500000
O O6 0.267776 0.629547 0.402400
O O7 0.270848 0.617278 0.617078
O O8 0.695254 0.746525 0.830651
O O9 0.586095 0.858402 0.768581
O O10 0.700036 0.870439 0.727899
O O11 0.760411 0.867349 0.990255
O O12 0.296524 0.391026 0.224992
O O13 0.820514 0.000000 0.387530
O O14 0.500000 0.123538 0.500000
O O15 0.403407 0.109750 0.558802
O O16 0.698466 0.000000 0.630435
#
# Coordination Sequence:
#
# PCOD8084268 Si02
#       7
#     8   8   8   8   8   8   8
#     4   9  18  30  52  76  99 130 171 206 244 292
#     4  10  19  33  53  75  98 132 173 209 240 290
#     4   9  20  33  54  75 101 132 171 204 249 298
#     4  10  18  35  53  75 104 131 166 211 247 292
#     4  10  20  31  50  78 104 130 162 204 254 298
#     4   9  16  31  52  76  97 127 168 210 250 291
#     4  11  20  33  51  76 106 132 163 208 254 297
#
# _framework density 16.897853000000001
#
# number of rings (size 3 to 8) (size 9 to 14) (size 15 to 20)
#    0.857    1.429    1.429    4.286    0.000    4.286 
#    0.000    0.714    0.000    1.714    0.000    2.000 
#    0.000    0.000    0.000    0.000    0.000    0.000 
#
# Total GULP energy -346896.535150 kJ/mol
# GULP energy per Si atom -12389.161970 kJ/mol
# Density = 1.685939 g / cm^3
# Si number density = 16.897853 Si / 1000 Ang^3
#
#
#
# Elastic Constant Matrix: (Units=GPa)
#
#
# Indices 1 2 3 4 5 6 
#
# 1 103.9887 36.2728 53.5922 0.0000 -7.0590 0.0000
# 2 36.2728 80.6030 35.0127 0.0000 -2.1769 0.0000
# 3 53.5922 35.0127 106.3050 0.0000 6.8604 0.0000
# 4 0.0000 0.0000 0.0000 7.6091 0.0000 -6.8544
# 5 -7.0590 -2.1769 6.8604 0.0000 15.4572 0.0000
# 6 0.0000 0.0000 0.0000 -6.8544 0.0000 20.0152
#
#
#
# Elastic Compliance Matrix: (Units=1/GPa)
#
#
# Indices 1 2 3 4 5 6 
#
# 1 0.015140 -0.003466 -0.007109 0.000000 0.009581 0.000000
# 2 -0.003466 0.015552 -0.003514 0.000000 0.002167 0.000000
# 3 -0.007109 -0.003514 0.014814 0.000000 -0.010317 0.000000
# 4 0.000000 0.000000 0.000000 0.190053 0.000000 0.065086
# 5 0.009581 0.002167 -0.010317 0.000000 0.073954 0.000000
# 6 0.000000 0.000000 0.000000 0.065086 0.000000 0.072251
#
#
# Mechanical properties :
#
#
# Convention : Reuss Voigt Hill
#
# Bulk Modulus (GPa) = 57.71773 60.07245 58.89509
# Shear Modulus (GPa) = 12.02735 19.68421 15.85578
#
# Velocity S-wave (km/s) = 2.67079 3.41676 3.06654
# Velocity P-wave (km/s) = 6.61376 7.15494 6.88967
#
# Compressibility (1/GPa) = 0.01732570
#
# Stress axis : x y z
#
# Youngs Moduli (GPa) = 66.05150 64.30238 67.50307
#
# Poissons Ratio (x) = 0.22289 0.47989
# Poissons Ratio (y) = 0.22895 0.23723
# Poissons Ratio (z) = 0.46957 0.22599
#
# Static dielectric constant tensor:
#      x y z
#    x 3.414760 0.000000 0.217450 
#    y 0.000000 3.036240 0.000000 
#    z 0.217450 0.000000 3.066640 
# 
# 
# High freq. dielectric constant tensor:
#      x y z
#    x 1.652440 0.000000 0.007380 
#    y 0.000000 1.647960 0.000000 
#    z 0.007380 0.000000 1.620530 
# 
# From -- ./inp_files/168526.got.cif
#   From: 2010.06.25/outbox.cif.g09.slc.cpg/sg12_85_cif.got.tgz:168526.got - 2010.06.28 00:19:55.
