data_PCOD8084666
_publ_section_title
;
Structure prediction by ZEFSAII (Michael W. Deem and Ramdas Pophale) SiO2 
 PCOD8084666
Probable space group: C 2/M
;
_chemical_formula_sum "Si O2"
_cell_formula_units_Z 64
_cell_length_a 27.466023
_cell_length_b 9.169445
_cell_length_c 18.309855
_cell_angle_alpha 90.000000
_cell_angle_beta 69.235450
_cell_angle_gamma 90.000000
_cell_volume 4311.777517
_symmetry_space_group_name_H-M "C 2/M"
_symmetry_group_IT_number 12
_symmetry_cell_setting 'monoclinic'
loop_
_space_group_symop_operation_xyz
x,y,z
-x,y,-z
-x,-y,-z
x,-y,z
1/2+x,1/2+y,z
1/2-x,1/2+y,-z
1/2-x,1/2-y,-z
1/2+x,1/2-y,z
loop_
_atom_site_type_symbol
_atom_site_label
_atom_site_fract_x
_atom_site_fract_y
_atom_site_fract_z
Si Si1 0.372280 0.169398 0.766063
Si Si2 0.673818 0.333511 0.085284
Si Si3 0.772235 0.165547 0.080864
Si Si4 0.237739 0.335548 0.251236
Si Si5 0.328897 0.329235 0.455948
Si Si6 0.933808 0.827949 0.469293
Si Si7 0.548899 0.327695 0.377652
Si Si8 0.760919 0.669788 0.383351
O O1 0.368299 0.233620 0.850675
O O2 0.319208 0.202347 0.750567
O O3 0.420411 0.245552 0.701441
O O4 0.384292 0.000000 0.765754
O O5 0.662859 0.500000 0.113499
O O6 0.731629 0.288903 0.079056
O O7 0.674654 0.314469 0.995665
O O8 0.780828 0.181953 0.163577
O O9 0.749969 0.000000 0.078879
O O10 0.238141 0.500000 0.282475
O O11 0.252229 0.223588 0.306237
O O12 0.330514 0.500000 0.437857
O O13 0.385445 0.265927 0.448449
O O14 0.290397 0.293082 0.543067
O O15 0.310782 0.248330 0.392341
O O16 0.931872 0.769476 0.553539
O O17 0.987917 0.786456 0.401425
O O18 0.928605 0.000000 0.477922
O O19 0.557735 0.500000 0.364966
O O20 0.772876 0.500000 0.375075
#
# Coordination Sequence:
#
# PCOD8084666 Si02
#       8
#     8   8   8   8   8   8   8   8
#     4  10  19  28  38  57  85 112 138 168 202 239
#     4   9  15  24  39  56  76 106 139 166 195 234
#     4   8  15  26  38  55  79 105 134 166 200 238
#     4   9  17  28  40  55  80 111 136 163 200 238
#     4   9  17  30  44  57  79 109 135 163 203 241
#     4   8  15  28  46  63  79 104 137 170 202 240
#     4   9  16  28  45  63  81 103 136 172 202 236
#     4  10  19  28  41  62  81 101 136 173 200 234
#
# _framework density 14.843067
#
# number of rings (size 3 to 8) (size 9 to 14) (size 15 to 20)
#    0.000    3.000    0.000    3.375    0.000    4.500 
#    0.000    2.500    0.000    0.000    0.000    0.000 
#    0.000    1.000    0.000   11.500    0.000    4.750 
#
# Total GULP energy -396550.240865 kJ/mol
# GULP energy per Si atom -12392.195027 kJ/mol
# Density = 1.480928 g / cm^3
# Si number density = 14.843067 Si / 1000 Ang^3
#
#
#
# Elastic Constant Matrix: (Units=GPa)
#
#
# Indices 1 2 3 4 5 6 
#
# 1 75.3669 29.8035 36.5763 0.0000 -3.5429 0.0000
# 2 29.8035 59.0953 44.4441 0.0000 -3.9272 0.0000
# 3 36.5763 44.4441 107.9345 0.0000 -12.5480 0.0000
# 4 0.0000 0.0000 0.0000 23.4464 0.0000 -0.1243
# 5 -3.5429 -3.9272 -12.5480 0.0000 18.2994 0.0000
# 6 0.0000 0.0000 0.0000 -0.1243 0.0000 15.8078
#
#
#
# Elastic Compliance Matrix: (Units=1/GPa)
#
#
# Indices 1 2 3 4 5 6 
#
# 1 0.017349 -0.006261 -0.003332 0.000000 -0.000270 0.000000
# 2 -0.006261 0.026828 -0.009124 0.000000 -0.001711 0.000000
# 3 -0.003332 -0.009124 0.015048 0.000000 0.007715 0.000000
# 4 0.000000 0.000000 0.000000 0.042652 0.000000 0.000335
# 5 -0.000270 -0.001711 0.007715 0.000000 0.059518 0.000000
# 6 0.000000 0.000000 0.000000 0.000335 0.000000 0.063262
#
#
# Mechanical properties :
#
#
# Convention : Reuss Voigt Hill
#
# Bulk Modulus (GPa) = 45.89358 51.56049 48.72703
# Shear Modulus (GPa) = 18.56283 20.28225 19.42254
#
# Velocity S-wave (km/s) = 3.54023 3.70056 3.62128
# Velocity P-wave (km/s) = 6.90632 7.28501 7.09819
#
# Compressibility (1/GPa) = 0.02178954
#
# Stress axis : x y z
#
# Youngs Moduli (GPa) = 57.64037 37.27474 66.45407
#
# Poissons Ratio (x) = 0.23339 0.22144
# Poissons Ratio (y) = 0.36091 0.60632
# Poissons Ratio (z) = 0.19207 0.34009
#
# Static dielectric constant tensor:
#      x y z
#    x 2.725480 0.000000 -0.044490 
#    y 0.000000 2.821020 0.000000 
#    z -0.044490 0.000000 3.074540 
# 
# 
# High freq. dielectric constant tensor:
#      x y z
#    x 1.518730 0.000000 -0.006750 
#    y 0.000000 1.568060 0.000000 
#    z -0.006750 0.000000 1.572580 
# 
# From -- ./inp_files/294530.got.cif
#   From: 2010.06.25/outbox.cif.g09.slc.cpg/sg12_148_cif.got.tgz:294530.got - 2010.06.28 00:19:55.
