data_PCOD8084818
_publ_section_title
;
Structure prediction by ZEFSAII (Michael W. Deem and Ramdas Pophale) SiO2 
 PCOD8084818
Probable space group: C 2/M
;
_chemical_formula_sum "Si O2"
_cell_formula_units_Z 48
_cell_length_a 25.083692
_cell_length_b 9.046601
_cell_length_c 17.141018
_cell_angle_alpha 90.000000
_cell_angle_beta 47.374956
_cell_angle_gamma 90.000000
_cell_volume 2862.028614
_symmetry_space_group_name_H-M "C 2/M"
_symmetry_group_IT_number 12
_symmetry_cell_setting 'monoclinic'
loop_
_space_group_symop_operation_xyz
x,y,z
-x,y,-z
-x,-y,-z
x,-y,z
1/2+x,1/2+y,z
1/2-x,1/2+y,-z
1/2-x,1/2-y,-z
1/2+x,1/2-y,z
loop_
_atom_site_type_symbol
_atom_site_label
_atom_site_fract_x
_atom_site_fract_y
_atom_site_fract_z
Si Si1 0.924315 0.823070 0.901662
Si Si2 0.327552 0.676591 0.140129
Si Si3 0.051603 0.833271 0.523090
Si Si4 0.551344 0.338857 0.875253
Si Si5 0.164432 0.673004 0.316023
Si Si6 0.436082 0.827008 0.730079
O O1 0.906437 0.745971 0.838104
O O2 0.002979 0.762074 0.855327
O O3 0.925954 0.000000 0.890620
O O4 0.861211 0.773310 0.024050
O O5 0.330553 0.500000 0.141609
O O6 0.375494 0.742620 0.165671
O O7 0.245858 0.735211 0.227774
O O8 0.127100 0.755989 0.425531
O O9 0.000000 0.829951 0.500000
O O10 0.013320 0.744149 0.630775
O O11 0.066796 0.000000 0.536094
O O12 0.573908 0.500000 0.820948
O O13 0.500000 0.359823 0.000000
O O14 0.162609 0.500000 0.336507
O O15 0.123842 0.707917 0.275684
O O16 0.447780 0.000000 0.730210
#
# Coordination Sequence:
#
# PCOD8084818 Si02
#       6
#     8   8   8   8   8   8
#     4   9  16  27  45  67  89 115 147 179 209 247
#     4   8  14  26  45  67  89 114 144 177 214 255
#     4   9  17  30  47  64  82 109 147 185 216 250
#     4   7  11  22  42  65  84 107 145 184 210 240
#     4   9  17  29  45  65  89 116 143 173 214 261
#     4  10  19  29  42  63  91 119 144 173 213 259
#
# _framework density 16.771319999999999
#
# number of rings (size 3 to 8) (size 9 to 14) (size 15 to 20)
#    0.000    3.333    0.000    3.000    0.000    3.333 
#    0.000    0.833    0.000    6.500    0.000    0.000 
#    0.000    0.000    0.000    0.000    0.000    0.000 
#
# Total GULP energy -297339.185967 kJ/mol
# GULP energy per Si atom -12389.132749 kJ/mol
# Density = 1.673315 g / cm^3
# Si number density = 16.771320 Si / 1000 Ang^3
#
#
#
# Elastic Constant Matrix: (Units=GPa)
#
#
# Indices 1 2 3 4 5 6 
#
# 1 68.3839 23.6854 41.7992 0.0364 -26.4703 -0.0098
# 2 23.6854 45.6828 26.4550 0.0804 -10.5343 -0.0450
# 3 41.7992 26.4550 89.6511 0.0501 -32.0439 -0.0202
# 4 0.0364 0.0804 0.0501 23.8533 0.0032 2.6439
# 5 -26.4703 -10.5343 -32.0439 0.0032 20.1301 0.0031
# 6 -0.0098 -0.0450 -0.0202 2.6439 0.0031 9.2804
#
#
#
# Elastic Compliance Matrix: (Units=1/GPa)
#
#
# Indices 1 2 3 4 5 6 
#
# 1 0.032292 -0.008486 0.002409 -0.000031 0.041857 -0.000007
# 2 -0.008486 0.028726 -0.007274 -0.000083 -0.007705 0.000141
# 3 0.002409 -0.007274 0.027723 -0.000046 0.043491 0.000026
# 4 -0.000031 -0.000083 -0.000046 0.043290 -0.000162 -0.012334
# 5 0.041857 -0.007705 0.043491 -0.000162 0.169915 0.000091
# 6 -0.000007 0.000141 0.000026 -0.012334 0.000091 0.111268
#
#
# Mechanical properties :
#
#
# Convention : Reuss Voigt Hill
#
# Bulk Modulus (GPa) = 16.11904 43.06633 29.59269
# Shear Modulus (GPa) = 10.85551 18.10465 14.48008
#
# Velocity S-wave (km/s) = 2.54690 3.28914 2.94153
# Velocity P-wave (km/s) = 4.27562 6.33710 5.40554
#
# Compressibility (1/GPa) = 0.06203844
#
# Stress axis : x y z
#
# Youngs Moduli (GPa) = 30.96749 34.81204 36.07136
#
# Poissons Ratio (x) = 0.29540 -0.08689
# Poissons Ratio (y) = 0.26278 0.26240
# Poissons Ratio (z) = -0.07460 0.25323
#
# Static dielectric constant tensor:
#      x y z
#    x 3.340100 -0.000010 -0.162690 
#    y -0.000010 2.858180 0.000000 
#    z -0.162690 0.000000 3.118800 
# 
# 
# High freq. dielectric constant tensor:
#      x y z
#    x 1.635050 0.000000 -0.007550 
#    y 0.000000 1.613680 0.000000 
#    z -0.007550 0.000000 1.633370 
# 
# From -- ./inp_files/287272.got.cif
#   From: 2010.06.25/outbox.cif.g09.slc.cpg/sg12_144_cif.got.tgz:287272.got - 2010.06.28 00:19:55.
