data_PCOD8084927
_publ_section_title
;
Structure prediction by ZEFSAII (Michael W. Deem and Ramdas Pophale) SiO2 
 PCOD8084927
Probable space group: C 2/M
;
_chemical_formula_sum "Si O2"
_cell_formula_units_Z 56
_cell_length_a 21.050042
_cell_length_b 17.497176
_cell_length_c 12.155795
_cell_angle_alpha 90.000000
_cell_angle_beta 131.714696
_cell_angle_gamma 90.000000
_cell_volume 3342.067492
_symmetry_space_group_name_H-M "C 2/M"
_symmetry_group_IT_number 12
_symmetry_cell_setting 'monoclinic'
loop_
_space_group_symop_operation_xyz
x,y,z
-x,y,-z
-x,-y,-z
x,-y,z
1/2+x,1/2+y,z
1/2-x,1/2+y,-z
1/2-x,1/2-y,-z
1/2+x,1/2-y,z
loop_
_atom_site_type_symbol
_atom_site_label
_atom_site_fract_x
_atom_site_fract_y
_atom_site_fract_z
Si Si1 0.089443 0.089305 0.541909
Si Si2 0.727891 0.310085 0.826239
Si Si3 0.783325 0.774041 0.688921
Si Si4 0.684277 0.914522 0.649432
Si Si5 0.121865 0.795435 0.403356
Si Si6 0.479763 0.166728 0.596493
Si Si7 0.664406 0.156778 0.850314
O O1 0.163991 0.131244 0.695127
O O2 0.087407 0.124698 0.415186
O O3 0.000000 0.102219 0.500000
O O4 0.111033 0.000000 0.557012
O O5 0.794520 0.266626 0.820719
O O6 0.671547 0.245234 0.820844
O O7 0.783455 0.357590 0.978009
O O8 0.743631 0.858207 0.649889
O O9 0.871596 0.788122 0.722913
O O10 0.718618 0.716697 0.553745
O O11 0.585926 0.902454 0.500532
O O12 0.698798 0.899663 0.795860
O O13 0.711819 0.000000 0.652272
O O14 0.059883 0.730161 0.372417
O O15 0.500000 0.203650 0.500000
O O16 0.564908 0.137290 0.754677
#
# Coordination Sequence:
#
# PCOD8084927 Si02
#       7
#     8   8   8   8   8   8   8
#     4  10  19  29  44  67  92 118 148 184 225 266
#     4   9  17  31  45  63  89 114 149 188 220 264
#     4   8  16  28  45  64  84 114 148 183 221 258
#     4   9  17  28  43  67  95 118 146 183 221 265
#     4   9  15  28  46  63  84 113 149 185 221 260
#     4   9  16  27  45  67  89 116 148 186 226 260
#     4   9  17  28  46  65  85 118 149 181 227 265
#
# _framework density 16.756094000000001
#
# number of rings (size 3 to 8) (size 9 to 14) (size 15 to 20)
#    0.000    3.000    0.000    3.857    0.000    3.714 
#    0.000    0.714    0.000    0.000    0.000    0.000 
#    0.000   26.286    0.000    0.000    0.000    0.000 
#
# Total GULP energy -346902.601786 kJ/mol
# GULP energy per Si atom -12389.378635 kJ/mol
# Density = 1.671796 g / cm^3
# Si number density = 16.756094 Si / 1000 Ang^3
#
#
#
# Elastic Constant Matrix: (Units=GPa)
#
#
# Indices 1 2 3 4 5 6 
#
# 1 104.0537 34.4177 22.6552 0.0000 -14.1151 0.0000
# 2 34.4177 93.7082 20.5992 0.0000 -6.6989 0.0000
# 3 22.6552 20.5992 64.7524 0.0000 -2.3197 0.0000
# 4 0.0000 0.0000 0.0000 8.7739 0.0000 4.1706
# 5 -14.1151 -6.6989 -2.3197 0.0000 14.9597 0.0000
# 6 0.0000 0.0000 0.0000 4.1706 0.0000 10.9740
#
#
#
# Elastic Compliance Matrix: (Units=1/GPa)
#
#
# Indices 1 2 3 4 5 6 
#
# 1 0.012725 -0.003285 -0.003047 0.000000 0.010064 0.000000
# 2 -0.003285 0.012645 -0.002797 0.000000 0.002129 0.000000
# 3 -0.003047 -0.002797 0.017348 0.000000 -0.001437 0.000000
# 4 0.000000 0.000000 0.000000 0.139103 0.000000 -0.052864
# 5 0.010064 0.002129 -0.001437 0.000000 0.077072 0.000000
# 6 0.000000 0.000000 0.000000 -0.052864 0.000000 0.111215
#
#
# Mechanical properties :
#
#
# Convention : Reuss Voigt Hill
#
# Bulk Modulus (GPa) = 40.88166 46.42873 43.65519
# Shear Modulus (GPa) = 12.60975 19.26434 15.93705
#
# Velocity S-wave (km/s) = 2.74623 3.39439 3.08737
# Velocity P-wave (km/s) = 5.87425 6.56744 6.23049
#
# Compressibility (1/GPa) = 0.02446085
#
# Stress axis : x y z
#
# Youngs Moduli (GPa) = 78.58283 79.08301 57.64423
#
# Poissons Ratio (x) = 0.25976 0.17563
# Poissons Ratio (y) = 0.25812 0.16124
# Poissons Ratio (z) = 0.23943 0.22121
#
# Static dielectric constant tensor:
#      x y z
#    x 3.355210 0.000000 -0.150520 
#    y 0.000000 2.962110 0.000000 
#    z -0.150520 0.000000 3.080450 
# 
# 
# High freq. dielectric constant tensor:
#      x y z
#    x 1.644200 0.000000 -0.008770 
#    y 0.000000 1.629040 0.000000 
#    z -0.008770 0.000000 1.617160 
# 
# From -- ./inp_files/157952.got.cif
#   From: 2010.06.25/outbox.cif.g09.slc.cpg/sg12_79_cif.got.tgz:157952.got - 2010.06.28 00:19:55.
