data_PCOD8084980
_publ_section_title
;
Structure prediction by ZEFSAII (Michael W. Deem and Ramdas Pophale) SiO2 
 PCOD8084980
Probable space group: C 2/M
;
_chemical_formula_sum "Si O2"
_cell_formula_units_Z 56
_cell_length_a 19.186373
_cell_length_b 9.082781
_cell_length_c 24.842670
_cell_angle_alpha 90.000000
_cell_angle_beta 48.207721
_cell_angle_gamma 90.000000
_cell_volume 3227.720958
_symmetry_space_group_name_H-M "C 2/M"
_symmetry_group_IT_number 12
_symmetry_cell_setting 'monoclinic'
loop_
_space_group_symop_operation_xyz
x,y,z
-x,y,-z
-x,-y,-z
x,-y,z
1/2+x,1/2+y,z
1/2-x,1/2+y,-z
1/2-x,1/2-y,-z
1/2+x,1/2-y,z
loop_
_atom_site_type_symbol
_atom_site_label
_atom_site_fract_x
_atom_site_fract_y
_atom_site_fract_z
Si Si1 0.844555 0.826454 0.433770
Si Si2 0.699778 0.831464 0.955888
Si Si3 0.918512 0.669748 0.078741
Si Si4 0.423868 0.173075 0.195380
Si Si5 0.893213 0.172856 0.902787
Si Si6 0.412453 0.327527 0.511463
Si Si7 0.203921 0.326867 0.642349
O O1 0.750000 0.750000 0.500000
O O2 0.920661 0.795223 0.442488
O O3 0.865845 0.753799 0.364720
O O4 0.830249 0.000000 0.434231
O O5 0.678689 0.811057 0.903463
O O6 0.805896 0.781511 0.910320
O O7 0.685477 0.000000 0.981740
O O8 0.625941 0.735207 0.027676
O O9 0.945295 0.500000 0.073596
O O10 0.905719 0.738841 0.144652
O O11 0.000000 0.743116 0.000000
O O12 0.516420 0.252280 0.170311
O O13 0.335482 0.211453 0.278304
O O14 0.441701 0.000000 0.186277
O O15 0.908821 0.000000 0.898027
O O16 0.500000 0.256156 0.500000
O O17 0.413994 0.500000 0.521752
O O18 0.311322 0.268034 0.584444
O O19 0.200501 0.500000 0.631254
#
# Coordination Sequence:
#
# PCOD8084980 Si02
#       7
#     8   8   8   8   8   8   8
#     4   9  16  28  49  73  97 125 155 188 226 272
#     4   9  17  31  48  66  89 117 154 198 239 283
#     4   9  15  27  49  69  85 116 163 204 235 276
#     4  10  19  32  49  67  91 125 162 199 239 284
#     4  10  19  29  45  69  93 117 149 193 243 289
#     4   8  14  27  48  74  98 119 150 191 230 270
#     4   9  18  31  48  70  95 126 161 194 234 284
#
# _framework density 17.349702000000001
#
# number of rings (size 3 to 8) (size 9 to 14) (size 15 to 20)
#    0.000    2.857    1.429    1.714    0.000    1.143 
#    0.000    2.857    0.000   15.857    0.000    0.000 
#    0.000    0.000    0.000    0.000    0.000    0.000 
#
# Total GULP energy -346890.666143 kJ/mol
# GULP energy per Si atom -12388.952362 kJ/mol
# Density = 1.731021 g / cm^3
# Si number density = 17.349702 Si / 1000 Ang^3
#
#
#
# Elastic Constant Matrix: (Units=GPa)
#
#
# Indices 1 2 3 4 5 6 
#
# 1 119.5973 24.2211 62.3947 0.0000 10.1254 0.0001
# 2 24.2211 37.2707 27.4066 0.0000 2.3432 0.0000
# 3 62.3947 27.4066 111.7220 0.0000 10.5465 0.0000
# 4 0.0000 0.0000 0.0000 20.8134 0.0000 0.1967
# 5 10.1254 2.3432 10.5465 0.0000 25.6411 0.0000
# 6 0.0001 0.0000 0.0000 0.1967 0.0000 20.5861
#
#
#
# Elastic Compliance Matrix: (Units=1/GPa)
#
#
# Indices 1 2 3 4 5 6 
#
# 1 0.012286 -0.003603 -0.005775 0.000000 -0.002147 0.000000
# 2 -0.003603 0.033795 -0.006368 0.000000 0.000954 0.000000
# 3 -0.005775 -0.006368 0.014012 0.000000 -0.002901 0.000000
# 4 0.000000 0.000000 0.000000 0.048050 0.000000 -0.000459
# 5 -0.002147 0.000954 -0.002901 0.000000 0.040954 0.000000
# 6 0.000000 0.000000 0.000000 -0.000459 0.000000 0.048581
#
#
# Mechanical properties :
#
#
# Convention : Reuss Voigt Hill
#
# Bulk Modulus (GPa) = 34.96383 55.18164 45.07273
# Shear Modulus (GPa) = 20.94660 23.71262 22.32961
#
# Velocity S-wave (km/s) = 3.47842 3.70096 3.59141
# Velocity P-wave (km/s) = 6.02733 7.08078 6.57518
#
# Compressibility (1/GPa) = 0.02860099
#
# Stress axis : x y z
#
# Youngs Moduli (GPa) = 81.39666 29.59033 71.36750
#
# Poissons Ratio (x) = 0.10660 0.41213
# Poissons Ratio (y) = 0.29324 0.45449
# Poissons Ratio (z) = 0.47005 0.18844
#
# Static dielectric constant tensor:
#      x y z
#    x 3.579470 0.000000 0.133880 
#    y 0.000000 3.098550 0.000000 
#    z 0.133880 0.000000 3.012850 
# 
# 
# High freq. dielectric constant tensor:
#      x y z
#    x 1.675140 0.000000 0.012840 
#    y 0.000000 1.641410 0.000000 
#    z 0.012840 0.000000 1.646550 
# 
# From -- ./inp_files/345497.got.cif
#   From: 2010.06.25/outbox.cif.g09.slc.cpg/sg12_173_cif.got.tgz:345497.got - 2010.06.28 00:19:55.
