data_PCOD8084905
_publ_section_title
;
Structure prediction by ZEFSAII (Michael W. Deem and Ramdas Pophale) SiO2 
 PCOD8084905
Probable space group: C 2/M
;
_chemical_formula_sum "Si O2"
_cell_formula_units_Z 48
_cell_length_a 19.192058
_cell_length_b 9.601049
_cell_length_c 15.743876
_cell_angle_alpha 90.000000
_cell_angle_beta 75.051676
_cell_angle_gamma 90.000000
_cell_volume 2802.853754
_symmetry_space_group_name_H-M "C 2/M"
_symmetry_group_IT_number 12
_symmetry_cell_setting 'monoclinic'
loop_
_space_group_symop_operation_xyz
x,y,z
-x,y,-z
-x,-y,-z
x,-y,z
1/2+x,1/2+y,z
1/2-x,1/2+y,-z
1/2-x,1/2-y,-z
1/2+x,1/2-y,z
loop_
_atom_site_type_symbol
_atom_site_label
_atom_site_fract_x
_atom_site_fract_y
_atom_site_fract_z
Si Si1 0.948714 0.836484 0.775149
Si Si2 0.197048 0.834883 0.263890
Si Si3 0.573660 0.338000 0.022891
Si Si4 0.267376 0.837968 0.412400
Si Si5 0.663635 0.162086 0.873885
Si Si6 0.584892 0.158474 0.724888
O O1 0.881858 0.783918 0.738965
O O2 0.931790 0.797574 0.877237
O O3 0.019440 0.758483 0.719760
O O4 0.962251 0.000000 0.760214
O O5 0.215372 0.782689 0.353050
O O6 0.257071 0.782783 0.177696
O O7 0.203278 0.000000 0.262045
O O8 0.591085 0.500000 0.004481
O O9 0.500000 0.295423 0.000000
O O10 0.638937 0.250452 0.962655
O O11 0.250000 0.750000 0.500000
O O12 0.350054 0.812824 0.360276
O O13 0.253122 0.000000 0.435889
O O14 0.609434 0.189576 0.813023
O O15 0.664551 0.000000 0.898788
O O16 0.558334 0.000000 0.725285
#
# Coordination Sequence:
#
# PCOD8084905 Si02
#       6
#     8   8   8   8   8   8
#     4  10  19  32  50  70  98 134 164 196 240 284
#     4   8  17  34  52  71  97 128 162 199 239 285
#     4  10  19  29  43  70 103 129 162 206 242 273
#     4   9  18  35  57  77  96 121 157 199 240 289
#     4   9  17  31  50  68  91 130 172 202 233 280
#     4   9  18  32  50  72  98 126 159 199 240 284
#
# _framework density 17.125404
#
# number of rings (size 3 to 8) (size 9 to 14) (size 15 to 20)
#    0.000    2.833    1.667    2.000    0.000    2.333 
#    0.000    5.000    0.000    5.000    0.000    0.000 
#    0.000    0.000    0.000    0.000    0.000    0.000 
#
# Total GULP energy -297577.216410 kJ/mol
# GULP energy per Si atom -12399.050684 kJ/mol
# Density = 1.708643 g / cm^3
# Si number density = 17.125404 Si / 1000 Ang^3
#
#
#
# Elastic Constant Matrix: (Units=GPa)
#
#
# Indices 1 2 3 4 5 6 
#
# 1 128.7134 48.0107 54.7629 0.0000 1.7404 0.0000
# 2 48.0107 54.5955 47.5535 0.0000 -7.2227 0.0000
# 3 54.7629 47.5535 102.1632 0.0000 -2.2357 0.0000
# 4 0.0000 0.0000 0.0000 33.3937 0.0000 -7.1103
# 5 1.7404 -7.2227 -2.2357 0.0000 19.0238 0.0000
# 6 0.0000 0.0000 0.0000 -7.1103 0.0000 25.0965
#
#
#
# Elastic Compliance Matrix: (Units=1/GPa)
#
#
# Indices 1 2 3 4 5 6 
#
# 1 0.012376 -0.009544 -0.002302 0.000000 -0.005026 0.000000
# 2 -0.009544 0.040203 -0.013279 0.000000 0.014576 0.000000
# 3 -0.002302 -0.013279 0.017141 0.000000 -0.002816 0.000000
# 4 0.000000 0.000000 0.000000 0.031868 0.000000 0.009029
# 5 -0.005026 0.014576 -0.002816 0.000000 0.058229 0.000000
# 6 0.000000 0.000000 0.000000 0.009029 0.000000 0.042404
#
#
# Mechanical properties :
#
#
# Convention : Reuss Voigt Hill
#
# Bulk Modulus (GPa) = 51.35388 65.12513 58.23951
# Shear Modulus (GPa) = 19.30792 24.51247 21.91020
#
# Velocity S-wave (km/s) = 3.36139 3.78743 3.58075
# Velocity P-wave (km/s) = 6.71694 7.56552 7.15382
#
# Compressibility (1/GPa) = 0.01947273
#
# Stress axis : x y z
#
# Youngs Moduli (GPa) = 80.79936 24.87358 58.33863
#
# Poissons Ratio (x) = 0.23738 0.13429
# Poissons Ratio (y) = 0.77111 0.77466
# Poissons Ratio (z) = 0.18599 0.33029
#
# Static dielectric constant tensor:
#      x y z
#    x 3.331860 0.000000 0.042120 
#    y 0.000000 2.966400 0.000000 
#    z 0.042120 0.000000 3.061580 
# 
# 
# High freq. dielectric constant tensor:
#      x y z
#    x 1.660720 0.000000 -0.005170 
#    y 0.000000 1.641800 0.000000 
#    z -0.005170 0.000000 1.651310 
# 
# From -- ./inp_files/222419.got.cif
#   From: 2010.06.25/outbox.cif.g09.slc.cpg/sg12_112_cif.got.tgz:222419.got - 2010.06.28 00:19:55.
