data_PCOD8084768
_publ_section_title
;
Structure prediction by ZEFSAII (Michael W. Deem and Ramdas Pophale) SiO2 
 PCOD8084768
Probable space group: C 2/M
;
_chemical_formula_sum "Si O2"
_cell_formula_units_Z 64
_cell_length_a 25.863442
_cell_length_b 8.938945
_cell_length_c 21.539534
_cell_angle_alpha 90.000000
_cell_angle_beta 126.867319
_cell_angle_gamma 90.000000
_cell_volume 3983.946851
_symmetry_space_group_name_H-M "C 2/M"
_symmetry_group_IT_number 12
_symmetry_cell_setting 'monoclinic'
loop_
_space_group_symop_operation_xyz
x,y,z
-x,y,-z
-x,-y,-z
x,-y,z
1/2+x,1/2+y,z
1/2-x,1/2+y,-z
1/2-x,1/2-y,-z
1/2+x,1/2-y,z
loop_
_atom_site_type_symbol
_atom_site_label
_atom_site_fract_x
_atom_site_fract_y
_atom_site_fract_z
Si Si1 0.950852 0.824916 0.624838
Si Si2 0.225482 0.667641 0.074163
Si Si3 0.696143 0.823060 0.766846
Si Si4 0.151178 0.167412 0.923448
Si Si5 0.323707 0.676936 0.372472
Si Si6 0.694611 0.325037 0.499311
Si Si7 0.424418 0.177025 0.235590
Si Si8 0.440768 0.839000 0.496986
O O1 0.875193 0.779581 0.580487
O O2 0.965063 0.778554 0.565074
O O3 0.002503 0.736606 0.703537
O O4 0.961992 0.000000 0.642717
O O5 0.206770 0.500000 0.082847
O O6 0.246612 0.769123 0.147171
O O7 0.282708 0.657267 0.066312
O O8 0.163711 0.745522 0.997092
O O9 0.713579 0.744960 0.713498
O O10 0.626068 0.775648 0.745817
O O11 0.699800 0.000000 0.761211
O O12 0.098087 0.257154 0.846179
O O13 0.125538 0.000000 0.919081
O O14 0.327994 0.500000 0.368694
O O15 0.297628 0.722770 0.422493
O O16 0.392884 0.754193 0.416307
O O17 0.703540 0.500000 0.500546
O O18 0.750000 0.250000 0.500000
O O19 0.426651 0.000000 0.232273
O O20 0.500000 0.889259 0.500000
O O21 0.412972 0.000000 0.503350
#
# Coordination Sequence:
#
# PCOD8084768 Si02
#       8
#     8   8   8   8   8   8   8   8
#     4  10  20  32  45  64  87 111 143 180 219 263
#     4   9  16  26  40  58  83 118 156 190 222 255
#     4  10  19  29  42  63  91 122 155 187 218 256
#     4   9  16  26  40  58  83 118 156 190 222 255
#     4  10  20  32  45  64  87 111 143 180 219 263
#     4   9  20  36  52  68  85 108 140 180 225 272
#     4  10  19  29  42  63  91 122 155 187 218 256
#     4  10  19  29  41  59  84 114 146 176 208 251
#
# _framework density 16.064471000000001
#
# number of rings (size 3 to 8) (size 9 to 14) (size 15 to 20)
#    0.000    2.375    0.000    4.125    0.000   11.500 
#    0.000    0.000    0.000    0.000    0.000    0.000 
#    0.000    1.000    0.000   10.500    0.000    6.250 
#
# Total GULP energy -396453.653131 kJ/mol
# GULP energy per Si atom -12389.176660 kJ/mol
# Density = 1.602791 g / cm^3
# Si number density = 16.064471 Si / 1000 Ang^3
#
#
#
# Elastic Constant Matrix: (Units=GPa)
#
#
# Indices 1 2 3 4 5 6 
#
# 1 60.3156 30.7617 34.2806 0.0000 -0.4913 0.0000
# 2 30.7617 83.0059 34.4457 0.0000 -0.9016 0.0000
# 3 34.2806 34.4457 104.6966 0.0000 -0.0813 0.0000
# 4 0.0000 0.0000 0.0000 64.9566 0.0000 6.3541
# 5 -0.4913 -0.9016 -0.0813 0.0000 13.0317 0.0000
# 6 0.0000 0.0000 0.0000 6.3541 0.0000 20.0314
#
#
#
# Elastic Compliance Matrix: (Units=1/GPa)
#
#
# Indices 1 2 3 4 5 6 
#
# 1 0.022836 -0.006203 -0.005436 0.000000 0.000398 0.000000
# 2 -0.006203 0.015648 -0.003117 0.000000 0.000829 0.000000
# 3 -0.005436 -0.003117 0.012357 0.000000 -0.000343 0.000000
# 4 0.000000 0.000000 0.000000 0.015888 0.000000 -0.005040
# 5 0.000398 0.000829 -0.000343 0.000000 0.076806 0.000000
# 6 0.000000 0.000000 0.000000 -0.005040 0.000000 0.051520
#
#
# Mechanical properties :
#
#
# Convention : Reuss Voigt Hill
#
# Bulk Modulus (GPa) = 46.88325 49.66601 48.27463
# Shear Modulus (GPa) = 21.58185 29.50594 25.54389
#
# Velocity S-wave (km/s) = 3.66929 4.29035 3.99191
# Velocity P-wave (km/s) = 6.87018 7.45161 7.16680
#
# Compressibility (1/GPa) = 0.02132958
#
# Stress axis : x y z
#
# Youngs Moduli (GPa) = 43.79105 63.90406 80.92898
#
# Poissons Ratio (x) = 0.39638 0.43993
# Poissons Ratio (y) = 0.27162 0.25224
# Poissons Ratio (z) = 0.23805 0.19918
#
# Static dielectric constant tensor:
#      x y z
#    x 2.685020 0.000000 -0.025220 
#    y 0.000000 3.220750 0.000000 
#    z -0.025220 0.000000 3.183810 
# 
# 
# High freq. dielectric constant tensor:
#      x y z
#    x 1.548080 0.000000 -0.000060 
#    y 0.000000 1.641760 0.000000 
#    z -0.000060 0.000000 1.624640 
# 
# From -- ./inp_files/326943.got.cif
#   From: 2010.06.25/outbox.cif.g09.slc.cpg/sg12_164_cif.got.tgz:326943.got - 2010.06.28 00:19:55.
