data_PCOD8084005
_publ_section_title
;
Structure prediction by ZEFSAII (Michael W. Deem and Ramdas Pophale) SiO2 
 PCOD8084005
Probable space group: C 2/M
;
_chemical_formula_sum "Si O2"
_cell_formula_units_Z 52
_cell_length_a 15.342519
_cell_length_b 19.069163
_cell_length_c 14.613566
_cell_angle_alpha 90.000000
_cell_angle_beta 141.760924
_cell_angle_gamma 90.000000
_cell_volume 2646.281317
_symmetry_space_group_name_H-M "C 2/M"
_symmetry_group_IT_number 12
_symmetry_cell_setting 'monoclinic'
loop_
_space_group_symop_operation_xyz
x,y,z
-x,y,-z
-x,-y,-z
x,-y,z
1/2+x,1/2+y,z
1/2-x,1/2+y,-z
1/2-x,1/2-y,-z
1/2+x,1/2-y,z
loop_
_atom_site_type_symbol
_atom_site_label
_atom_site_fract_x
_atom_site_fract_y
_atom_site_fract_z
Si Si1 0.000000 0.294189 0.500000
Si Si2 0.608097 0.709903 0.304215
Si Si3 0.604059 0.661535 0.008689
Si Si4 0.656983 0.921776 0.092850
Si Si5 0.735748 0.221382 0.231071
Si Si6 0.641037 0.919066 0.867600
Si Si7 0.391161 0.159451 0.586029
O O1 0.895971 0.245353 0.356065
O O2 0.921846 0.346765 0.503851
O O3 0.679960 0.757909 0.285189
O O4 0.551537 0.765140 0.331413
O O5 0.719504 0.657771 0.448222
O O6 0.479630 0.665605 0.156394
O O7 0.643324 0.739291 0.077227
O O8 0.747626 0.619181 0.108051
O O9 0.500000 0.626204 0.000000
O O10 0.736869 0.862333 0.216613
O O11 0.722899 0.000000 0.161903
O O12 0.500000 0.922742 0.000000
O O13 0.665631 0.900287 0.993540
O O14 0.477622 0.900703 0.709770
O O15 0.663033 0.000000 0.866893
#
# Coordination Sequence:
#
# PCOD8084005 Si02
#       7
#     4   8   8   8   8   8   8
#     4  10  20  30  54  82 108 138 180 234 266 330
#     4   9  20  33  58  85 110 141 183 237 285 335
#     4  10  20  36  58  83 112 145 191 242 280 325
#     4  10  21  36  56  83 113 143 183 231 279 340
#     4  10  18  34  55  82 109 141 183 226 282 330
#     4  11  23  37  58  83 113 154 195 228 280 341
#     4  10  19  36  53  82 115 141 186 236 279 334
#
# _framework density 19.650217999999999
#
# number of rings (size 3 to 8) (size 9 to 14) (size 15 to 20)
#    0.000    2.000    1.538    3.231    2.154    1.538 
#    0.000    1.538    0.000    0.000    0.000    0.000 
#    0.000    0.000    0.000    0.000    0.000    0.000 
#
# Total GULP energy -322161.073971 kJ/mol
# GULP energy per Si atom -12390.810537 kJ/mol
# Density = 1.960549 g / cm^3
# Si number density = 19.650218 Si / 1000 Ang^3
#
#
#
# Elastic Constant Matrix: (Units=GPa)
#
#
# Indices 1 2 3 4 5 6 
#
# 1 66.7148 15.3070 -0.8879 0.0000 -0.5445 0.0000
# 2 15.3070 68.7603 19.6933 0.0000 1.9673 0.0000
# 3 -0.8879 19.6933 94.9078 0.0000 7.6621 0.0000
# 4 0.0000 0.0000 0.0000 35.2692 0.0000 -1.7791
# 5 -0.5445 1.9673 7.6621 0.0000 19.5549 0.0000
# 6 0.0000 0.0000 0.0000 -1.7791 0.0000 18.0476
#
#
#
# Elastic Compliance Matrix: (Units=1/GPa)
#
#
# Indices 1 2 3 4 5 6 
#
# 1 0.015878 -0.003806 0.000900 0.000000 0.000472 0.000000
# 2 -0.003806 0.016376 -0.003400 0.000000 -0.000421 0.000000
# 3 0.000900 -0.003400 0.011587 0.000000 -0.004173 0.000000
# 4 0.000000 0.000000 0.000000 0.028495 0.000000 0.002809
# 5 0.000472 -0.000421 -0.004173 0.000000 0.052829 0.000000
# 6 0.000000 0.000000 0.000000 0.002809 0.000000 0.055686
#
#
# Mechanical properties :
#
#
# Convention : Reuss Voigt Hill
#
# Bulk Modulus (GPa) = 32.01970 33.17865 32.59918
# Shear Modulus (GPa) = 24.52507 27.65903 26.09205
#
# Velocity S-wave (km/s) = 3.53665 3.75583 3.64789
# Velocity P-wave (km/s) = 5.74521 5.97742 5.86247
#
# Compressibility (1/GPa) = 0.03123077
#
# Stress axis : x y z
#
# Youngs Moduli (GPa) = 62.97914 61.06392 86.30140
#
# Poissons Ratio (x) = 0.23241 -0.07769
# Poissons Ratio (y) = 0.23970 0.29339
# Poissons Ratio (z) = -0.05669 0.20760
#
# Static dielectric constant tensor:
#      x y z
#    x 3.707510 0.000000 -0.054580 
#    y 0.000000 3.324230 0.000000 
#    z -0.054580 0.000000 3.692280 
# 
# 
# High freq. dielectric constant tensor:
#      x y z
#    x 1.776020 0.000000 -0.006370 
#    y 0.000000 1.722940 0.000000 
#    z -0.006370 0.000000 1.768110 
# 
# From -- ./inp_files/216863.got.cif
#   From: 2010.06.25/outbox.cif.g09.slc.cpg/sg12_109_cif.got.tgz:216863.got - 2010.06.28 00:19:55.
