data_PCOD8084133
_publ_section_title
;
Structure prediction by ZEFSAII (Michael W. Deem and Ramdas Pophale) SiO2 
 PCOD8084133
Probable space group: C 2/M
;
_chemical_formula_sum "Si O2"
_cell_formula_units_Z 56
_cell_length_a 21.897975
_cell_length_b 22.437782
_cell_length_c 18.675421
_cell_angle_alpha 90.000000
_cell_angle_beta 160.942534
_cell_angle_gamma 90.000000
_cell_volume 2996.119778
_symmetry_space_group_name_H-M "C 2/M"
_symmetry_group_IT_number 12
_symmetry_cell_setting 'monoclinic'
loop_
_space_group_symop_operation_xyz
x,y,z
-x,y,-z
-x,-y,-z
x,-y,z
1/2+x,1/2+y,z
1/2-x,1/2+y,-z
1/2-x,1/2-y,-z
1/2+x,1/2-y,z
loop_
_atom_site_type_symbol
_atom_site_label
_atom_site_fract_x
_atom_site_fract_y
_atom_site_fract_z
Si Si1 0.905561 0.343598 0.181667
Si Si2 0.989024 0.772737 0.909105
Si Si3 0.326043 0.932178 0.591955
Si Si4 0.088465 0.229312 0.440002
Si Si5 0.990346 0.148132 0.202165
Si Si6 0.569759 0.068024 0.998045
Si Si7 0.258645 0.679607 0.150521
O O1 0.046592 0.397268 0.323541
O O2 0.003789 0.295681 0.341770
O O3 0.723370 0.369574 0.019440
O O4 0.845213 0.312707 0.040703
O O5 0.806368 0.731059 0.699594
O O6 0.987728 0.827865 0.853736
O O7 0.000000 0.801261 0.000000
O O8 0.168784 0.729920 0.100797
O O9 0.112971 0.910661 0.350381
O O10 0.333954 0.000000 0.576691
O O11 0.396716 0.923512 0.751840
O O12 0.066786 0.199304 0.338868
O O13 0.979060 0.192460 0.381198
O O14 0.734926 0.113424 0.157803
O O15 0.646993 0.000000 0.080094
O O16 0.500000 0.083882 0.000000
#
# Coordination Sequence:
#
# PCOD8084133 Si02
#       7
#     8   8   8   8   8   8   8
#     4  10  18  34  59  79 106 143 183 230 272 324
#     4  12  23  33  52  84 115 142 173 224 286 340
#     4  10  21  35  57  85 108 145 192 230 267 319
#     4  11  19  35  58  79 106 147 182 224 282 326
#     4  11  20  36  58  81 108 143 183 227 277 328
#     4   9  18  34  55  79 116 158 188 223 269 316
#     4  10  19  33  53  84 109 140 194 225 265 322
#
# _framework density 18.690840999999999
#
# number of rings (size 3 to 8) (size 9 to 14) (size 15 to 20)
#    0.000    1.571    4.286    3.429    0.000    1.143 
#    0.000    3.571    0.000    3.857    0.000   44.000 
#    0.000    0.000    0.000    0.000    0.000    0.000 
#
# Total GULP energy -347274.272762 kJ/mol
# GULP energy per Si atom -12402.652599 kJ/mol
# Density = 1.864830 g / cm^3
# Si number density = 18.690841 Si / 1000 Ang^3
#
#
#
# Elastic Constant Matrix: (Units=GPa)
#
#
# Indices 1 2 3 4 5 6 
#
# 1 118.8083 42.4707 30.8446 0.0011 5.4948 0.0006
# 2 42.4707 86.6941 12.1780 0.0000 2.7706 0.0000
# 3 30.8446 12.1780 42.3457 0.0033 14.6151 0.0021
# 4 0.0011 0.0000 0.0033 21.6835 0.0017 4.6486
# 5 5.4948 2.7706 14.6151 0.0017 23.6276 0.0010
# 6 0.0006 0.0000 0.0021 4.6486 0.0010 23.7884
#
#
#
# Elastic Compliance Matrix: (Units=1/GPa)
#
#
# Indices 1 2 3 4 5 6 
#
# 1 0.012248 -0.004895 -0.008555 0.000000 0.003018 0.000000
# 2 -0.004895 0.013993 -0.000363 0.000000 -0.000278 0.000000
# 3 -0.008555 -0.000363 0.037189 -0.000003 -0.020972 -0.000001
# 4 0.000000 0.000000 -0.000003 0.048135 -0.000001 -0.009406
# 5 0.003018 -0.000278 -0.020972 -0.000001 0.054626 0.000000
# 6 0.000000 0.000000 -0.000001 -0.009406 0.000000 0.043875
#
#
# Mechanical properties :
#
#
# Convention : Reuss Voigt Hill
#
# Bulk Modulus (GPa) = 27.92961 46.53718 37.23340
# Shear Modulus (GPa) = 20.02984 24.64355 22.33670
#
# Velocity S-wave (km/s) = 3.27714 3.63503 3.46072
# Velocity P-wave (km/s) = 5.41248 6.52460 5.99438
#
# Compressibility (1/GPa) = 0.03580429
#
# Stress axis : x y z
#
# Youngs Moduli (GPa) = 81.64384 71.46612 26.88944
#
# Poissons Ratio (x) = 0.34983 0.23005
# Poissons Ratio (y) = 0.39965 0.00975
# Poissons Ratio (z) = 0.69850 0.02591
#
# Static dielectric constant tensor:
#      x y z
#    x 3.531360 0.000000 0.205370 
#    y 0.000000 3.301970 0.000000 
#    z 0.205370 0.000000 3.414400 
# 
# 
# High freq. dielectric constant tensor:
#      x y z
#    x 1.725530 0.000000 0.015990 
#    y 0.000000 1.705480 0.000000 
#    z 0.015990 0.000000 1.714510 
# 
# From -- ./inp_files/218649.got.cif
#   From: 2010.06.25/outbox.cif.g09.slc.cpg/sg12_110_cif.got.tgz:218649.got - 2010.06.28 00:19:55.
