data_PCOD8084861
_publ_section_title
;
Structure prediction by ZEFSAII (Michael W. Deem and Ramdas Pophale) SiO2 
 PCOD8084861
Probable space group: C 2/M
;
_chemical_formula_sum "Si O2"
_cell_formula_units_Z 64
_cell_length_a 27.787071
_cell_length_b 8.919444
_cell_length_c 20.492710
_cell_angle_alpha 90.000000
_cell_angle_beta 51.398199
_cell_angle_gamma 90.000000
_cell_volume 3969.258735
_symmetry_space_group_name_H-M "C 2/M"
_symmetry_group_IT_number 12
_symmetry_cell_setting 'monoclinic'
loop_
_space_group_symop_operation_xyz
x,y,z
-x,y,-z
-x,-y,-z
x,-y,z
1/2+x,1/2+y,z
1/2-x,1/2+y,-z
1/2-x,1/2-y,-z
1/2+x,1/2-y,z
loop_
_atom_site_type_symbol
_atom_site_label
_atom_site_fract_x
_atom_site_fract_y
_atom_site_fract_z
Si Si1 0.378103 0.674225 0.968134
Si Si2 0.309820 0.174557 0.920585
Si Si3 0.159863 0.334255 0.604043
Si Si4 0.886554 0.177312 0.233457
Si Si5 0.269862 0.176668 0.270651
Si Si6 0.996130 0.325298 0.926901
Si Si7 0.794770 0.165420 0.548972
Si Si8 0.253349 0.330757 0.153305
O O1 0.396131 0.500000 0.948003
O O2 0.368267 0.740288 0.903019
O O3 0.430538 0.768727 0.958367
O O4 0.316732 0.700395 0.061948
O O5 0.304961 0.193291 0.846086
O O6 0.311503 0.000000 0.938529
O O7 0.250000 0.250000 0.000000
O O8 0.130281 0.500000 0.628159
O O9 0.121114 0.229771 0.685331
O O10 0.158456 0.269693 0.531318
O O11 0.229629 0.342849 0.568225
O O12 0.834566 0.243437 0.229833
O O13 0.952323 0.230655 0.153261
O O14 0.882377 0.000000 0.234245
O O15 0.217928 0.228004 0.367204
O O16 0.245626 0.217352 0.219677
O O17 0.281427 0.000000 0.267325
O O18 0.004434 0.500000 0.903537
O O19 0.000000 0.293887 0.000000
O O20 0.824347 0.000000 0.527121
O O21 0.253363 0.500000 0.180532
#
# Coordination Sequence:
#
# PCOD8084861 Si02
#       8
#     8   8   8   8   8   8   8   8
#     4  10  20  33  48  66  88 116 150 187 226 266
#     4   9  17  30  47  66  87 113 146 184 224 266
#     4   9  16  27  43  61  82 110 146 183 217 258
#     4  11  21  32  46  62  86 119 152 187 223 261
#     4  10  19  29  43  64  91 120 150 183 219 264
#     4  11  23  36  49  65  87 117 153 190 224 259
#     4   8  15  26  39  59  85 113 144 177 216 260
#     4   9  18  30  45  66  91 117 146 181 222 267
#
# _framework density 16.123916999999999
#
# number of rings (size 3 to 8) (size 9 to 14) (size 15 to 20)
#    0.000    2.375    0.000    5.250    0.000    9.500 
#    0.000    0.000    0.000    0.000    0.000    0.000 
#    0.000    1.000    0.000   10.500    0.000    6.000 
#
# Total GULP energy -396680.487181 kJ/mol
# GULP energy per Si atom -12396.265224 kJ/mol
# Density = 1.608722 g / cm^3
# Si number density = 16.123917 Si / 1000 Ang^3
#
#
#
# Elastic Constant Matrix: (Units=GPa)
#
#
# Indices 1 2 3 4 5 6 
#
# 1 80.7292 36.4122 32.7568 0.0040 14.4566 -0.0016
# 2 36.4122 94.1505 41.1143 0.0138 10.5706 -0.0043
# 3 32.7568 41.1143 72.9091 0.0011 18.5212 -0.0050
# 4 0.0040 0.0138 0.0011 26.3192 0.0011 4.8075
# 5 14.4566 10.5706 18.5212 0.0011 16.9971 -0.0012
# 6 -0.0016 -0.0043 -0.0050 4.8075 -0.0012 24.4820
#
#
#
# Elastic Compliance Matrix: (Units=1/GPa)
#
#
# Indices 1 2 3 4 5 6 
#
# 1 0.017110 -0.004310 -0.003098 0.000000 -0.008496 -0.000001
# 2 -0.004310 0.015177 -0.007129 -0.000008 0.001996 0.000002
# 3 -0.003098 -0.007129 0.023966 0.000004 -0.019046 0.000002
# 4 0.000000 -0.000008 0.000004 0.039409 -0.000003 -0.007739
# 5 -0.008496 0.001996 -0.019046 -0.000003 0.085573 0.000001
# 6 -0.000001 0.000002 0.000002 -0.007739 0.000001 0.042366
#
#
# Mechanical properties :
#
#
# Convention : Reuss Voigt Hill
#
# Bulk Modulus (GPa) = 36.79437 52.03951 44.41694
# Shear Modulus (GPa) = 19.10321 22.72667 20.91494
#
# Velocity S-wave (km/s) = 3.44579 3.75840 3.60549
# Velocity P-wave (km/s) = 6.22098 7.15395 6.70371
#
# Compressibility (1/GPa) = 0.02717807
#
# Stress axis : x y z
#
# Youngs Moduli (GPa) = 58.44609 65.88731 41.72521
#
# Poissons Ratio (x) = 0.28399 0.12928
# Poissons Ratio (y) = 0.25192 0.29746
# Poissons Ratio (z) = 0.18109 0.46972
#
# Static dielectric constant tensor:
#      x y z
#    x 3.002630 0.000000 0.312630 
#    y 0.000000 3.273160 0.000010 
#    z 0.312630 0.000010 3.056440 
# 
# 
# High freq. dielectric constant tensor:
#      x y z
#    x 1.586080 0.000000 0.027100 
#    y 0.000000 1.637880 0.000000 
#    z 0.027100 0.000000 1.600970 
# 
# From -- ./inp_files/326804.got.cif
#   From: 2010.06.25/outbox.cif.g09.slc.cpg/sg12_164_cif.got.tgz:326804.got - 2010.06.28 00:19:55.
