data_PCOD8084745
_publ_section_title
;
Structure prediction by ZEFSAII (Michael W. Deem and Ramdas Pophale) SiO2 
 PCOD8084745
Probable space group: C 2/M
;
_chemical_formula_sum "Si O2"
_cell_formula_units_Z 56
_cell_length_a 21.728778
_cell_length_b 21.057183
_cell_length_c 8.064723
_cell_angle_alpha 90.000000
_cell_angle_beta 125.199394
_cell_angle_gamma 90.000000
_cell_volume 3015.277891
_symmetry_space_group_name_H-M "C 2/M"
_symmetry_group_IT_number 12
_symmetry_cell_setting 'monoclinic'
loop_
_space_group_symop_operation_xyz
x,y,z
-x,y,-z
-x,-y,-z
x,-y,z
1/2+x,1/2+y,z
1/2-x,1/2+y,-z
1/2-x,1/2-y,-z
1/2+x,1/2-y,z
loop_
_atom_site_type_symbol
_atom_site_label
_atom_site_fract_x
_atom_site_fract_y
_atom_site_fract_z
Si Si1 0.736055 0.427866 0.331912
Si Si2 0.580224 0.381344 0.678018
Si Si3 0.147410 0.245493 0.684602
Si Si4 0.686670 0.187974 0.060792
Si Si5 0.073506 0.072569 0.014828
Si Si6 0.186766 0.696787 0.421105
Si Si7 0.261627 0.429921 0.054951
O O1 0.764722 0.500000 0.417104
O O2 0.781211 0.374313 0.500762
O O3 0.647741 0.421503 0.245288
O O4 0.741135 0.413784 0.144040
O O5 0.500000 0.411620 0.500000
O O6 0.589329 0.312546 0.607078
O O7 0.579259 0.376977 0.875413
O O8 0.652939 0.423302 0.741581
O O9 0.234069 0.224692 0.817323
O O10 0.131726 0.284510 0.489062
O O11 0.133991 0.287695 0.829145
O O12 0.645587 0.195670 0.176623
O O13 0.703331 0.113990 0.060460
O O14 0.068508 0.000000 0.937622
O O15 0.000000 0.091728 0.000000
O O16 0.250000 0.750000 0.500000
O O17 0.233050 0.500000 0.047338
#
# Coordination Sequence:
#
# PCOD8084745 Si02
#       7
#     8   8   8   8   8   8   8
#     4   9  17  31  47  66  99 134 163 207 252 293
#     4  10  20  32  46  66  93 135 173 204 244 284
#     4   9  18  33  45  64  97 119 158 208 246 291
#     4   9  17  29  48  69  89 124 154 198 250 289
#     4   9  19  32  46  64  94 136 173 207 242 279
#     4  10  19  28  48  73  91 122 166 201 252 309
#     4   9  17  30  49  69  98 133 164 200 247 293
#
# _framework density 18.572085999999999
#
# number of rings (size 3 to 8) (size 9 to 14) (size 15 to 20)
#    0.000    2.714    1.429    1.286    6.000    5.143 
#    0.000    1.429    0.000    0.000    0.000    0.000 
#    0.000    2.286    0.000    2.571    0.000    0.000 
#
# Total GULP energy -346874.358480 kJ/mol
# GULP energy per Si atom -12388.369946 kJ/mol
# Density = 1.852982 g / cm^3
# Si number density = 18.572086 Si / 1000 Ang^3
#
#
#
# Elastic Constant Matrix: (Units=GPa)
#
#
# Indices 1 2 3 4 5 6 
#
# 1 51.7246 25.0238 20.2042 0.0000 -27.2922 0.0000
# 2 25.0238 86.6456 23.1553 0.0000 -22.7681 0.0000
# 3 20.2042 23.1553 54.3251 0.0000 -29.4491 0.0000
# 4 0.0000 0.0000 0.0000 20.4277 0.0000 -9.0325
# 5 -27.2922 -22.7681 -29.4491 0.0000 26.9920 0.0000
# 6 0.0000 0.0000 0.0000 -9.0325 0.0000 23.9029
#
#
#
# Elastic Compliance Matrix: (Units=1/GPa)
#
#
# Indices 1 2 3 4 5 6 
#
# 1 0.050059 -0.000949 0.021518 0.000000 0.073292 0.000000
# 2 -0.000949 0.014874 0.000720 0.000000 0.012373 0.000000
# 3 0.021518 0.000720 0.054390 0.000000 0.081705 0.000000
# 4 0.000000 0.000000 0.000000 0.058773 0.000000 0.022210
# 5 0.073292 0.012373 0.081705 0.000000 0.210735 0.000000
# 6 0.000000 0.000000 0.000000 0.022210 0.000000 0.050229
#
#
# Mechanical properties :
#
#
# Convention : Reuss Voigt Hill
#
# Bulk Modulus (GPa) = 6.17660 36.60688 21.39174
# Shear Modulus (GPa) = 11.10004 22.55199 16.82602
#
# Velocity S-wave (km/s) = 2.44739 3.48845 3.01322
# Velocity P-wave (km/s) = 3.36441 5.99827 4.86305
#
# Compressibility (1/GPa) = 0.16190148
#
# Stress axis : x y z
#
# Youngs Moduli (GPa) = 19.97634 67.23105 18.38586
#
# Poissons Ratio (x) = 0.06378 -0.39562
# Poissons Ratio (y) = 0.01895 -0.01324
# Poissons Ratio (z) = -0.42984 -0.04843
#
# Static dielectric constant tensor:
#      x y z
#    x 3.281410 0.000000 -0.463730 
#    y 0.000000 3.417500 0.000000 
#    z -0.463730 0.000000 3.300830 
# 
# 
# High freq. dielectric constant tensor:
#      x y z
#    x 1.683400 0.000000 -0.042040 
#    y 0.000000 1.719310 0.000000 
#    z -0.042040 0.000000 1.689530 
# 
# From -- ./inp_files/98909.got.cif
#   From: 2010.06.25/outbox.cif.g09.slc.cpg/sg12_50_cif.got.tgz:98909.got - 2010.06.28 00:19:55.
