data_PCOD8084389
_publ_section_title
;
Structure prediction by ZEFSAII (Michael W. Deem and Ramdas Pophale) SiO2 
 PCOD8084389
Probable space group: C 2/M
;
_chemical_formula_sum "Si O2"
_cell_formula_units_Z 52
_cell_length_a 9.349751
_cell_length_b 33.063430
_cell_length_c 15.760331
_cell_angle_alpha 90.000000
_cell_angle_beta 145.512130
_cell_angle_gamma 90.000000
_cell_volume 2758.719230
_symmetry_space_group_name_H-M "C 2/M"
_symmetry_group_IT_number 12
_symmetry_cell_setting 'monoclinic'
loop_
_space_group_symop_operation_xyz
x,y,z
-x,y,-z
-x,-y,-z
x,-y,z
1/2+x,1/2+y,z
1/2-x,1/2+y,-z
1/2-x,1/2-y,-z
1/2+x,1/2-y,z
loop_
_atom_site_type_symbol
_atom_site_label
_atom_site_fract_x
_atom_site_fract_y
_atom_site_fract_z
Si Si1 0.690029 0.818517 0.207894
Si Si2 0.173985 0.915969 0.254107
Si Si3 0.634286 0.341075 0.885323
Si Si4 0.736161 0.085679 0.506243
Si Si5 0.016110 0.766921 0.103782
Si Si6 0.732979 0.500000 0.549190
Si Si7 0.682299 0.500000 0.168886
Si Si8 0.000000 0.858125 0.500000
O O1 0.842415 0.839928 0.205633
O O2 0.717653 0.769640 0.212892
O O3 0.795975 0.830390 0.352031
O O4 0.400452 0.832440 0.060556
O O5 0.181890 0.908677 0.357945
O O6 0.443542 0.904173 0.346905
O O7 0.112839 0.961397 0.193747
O O8 0.958437 0.884046 0.121573
O O9 0.429257 0.306484 0.811847
O O10 0.802670 0.039102 0.524854
O O11 0.882814 0.113978 0.514239
O O12 0.000000 0.781937 0.000000
O O13 0.750000 0.750000 0.000000
O O14 0.500000 0.500000 0.500000
O O15 0.028072 0.500000 0.725722
O O16 0.500000 0.500000 0.000000
#
# Coordination Sequence:
#
# PCOD8084389 Si02
#       8
#     8   8   8   8   8   4   4   4
#     4  10  21  38  58  89 120 161 194 257 309 355
#     4  10  21  40  61  89 122 159 198 252 306 359
#     4  10  20  38  65  85 120 160 208 244 304 370
#     4  10  21  37  61  89 118 157 204 246 303 363
#     4  10  18  35  61  84 111 152 207 247 293 364
#     4  10  19  37  63  83 114 167 206 241 298 379
#     4  10  23  39  61  92 131 155 204 268 304 352
#     4  12  22  37  60  88 124 154 198 255 300 364
#
# _framework density 18.849325
#
# number of rings (size 3 to 8) (size 9 to 14) (size 15 to 20)
#    0.000    1.846    5.385    0.462    0.000    7.385 
#    0.000    2.308    0.000    2.769    0.000    0.000 
#    0.000    0.000    0.000    0.000    0.000    0.000 
#
# Total GULP energy -322145.508588 kJ/mol
# GULP energy per Si atom -12390.211869 kJ/mol
# Density = 1.880642 g / cm^3
# Si number density = 18.849325 Si / 1000 Ang^3
#
#
#
# Elastic Constant Matrix: (Units=GPa)
#
#
# Indices 1 2 3 4 5 6 
#
# 1 87.9945 37.7089 9.4527 0.0000 5.7198 0.0000
# 2 37.7089 134.1738 28.7157 0.0000 11.3597 0.0000
# 3 9.4527 28.7157 63.7553 0.0000 -3.4690 0.0000
# 4 0.0000 0.0000 0.0000 31.6940 0.0000 -2.8562
# 5 5.7198 11.3597 -3.4690 0.0000 20.1497 0.0000
# 6 0.0000 0.0000 0.0000 -2.8562 0.0000 41.2042
#
#
#
# Elastic Compliance Matrix: (Units=1/GPa)
#
#
# Indices 1 2 3 4 5 6 
#
# 1 0.012990 -0.003385 -0.000503 0.000000 -0.001866 0.000000
# 2 -0.003385 0.009742 -0.004171 0.000000 -0.005249 0.000000
# 3 -0.000503 -0.004171 0.017942 0.000000 0.005583 0.000000
# 4 0.000000 0.000000 0.000000 0.031750 0.000000 0.002201
# 5 -0.001866 -0.005249 0.005583 0.000000 0.054078 0.000000
# 6 0.000000 0.000000 0.000000 0.002201 0.000000 0.024422
#
#
# Mechanical properties :
#
#
# Convention : Reuss Voigt Hill
#
# Bulk Modulus (GPa) = 40.72461 48.63091 44.67776
# Shear Modulus (GPa) = 28.53419 32.61268 30.57343
#
# Velocity S-wave (km/s) = 3.89498 4.16405 4.03176
# Velocity P-wave (km/s) = 6.47149 6.99821 6.73999
#
# Compressibility (1/GPa) = 0.02455518
#
# Stress axis : x y z
#
# Youngs Moduli (GPa) = 76.98022 102.65251 55.73489
#
# Poissons Ratio (x) = 0.34751 0.02802
# Poissons Ratio (y) = 0.26060 0.23249
# Poissons Ratio (z) = 0.03870 0.42820
#
# Static dielectric constant tensor:
#      x y z
#    x 3.603050 0.000000 -0.006310 
#    y 0.000000 3.774260 0.000000 
#    z -0.006310 0.000000 3.219610 
# 
# 
# High freq. dielectric constant tensor:
#      x y z
#    x 1.741310 0.000000 -0.004510 
#    y 0.000000 1.746190 0.000000 
#    z -0.004510 0.000000 1.702790 
# 
# From -- ./inp_files/201396.got.cif
#   From: 2010.06.25/outbox.cif.g09.slc.cpg/sg12_101_cif.got.tgz:201396.got - 2010.06.28 00:19:55.
