data_PCOD8084843
_publ_section_title
;
Structure prediction by ZEFSAII (Michael W. Deem and Ramdas Pophale) SiO2 
 PCOD8084843
Probable space group: C 2/M
;
_chemical_formula_sum "Si O2"
_cell_formula_units_Z 64
_cell_length_a 31.780013
_cell_length_b 8.892599
_cell_length_c 16.058076
_cell_angle_alpha 90.000000
_cell_angle_beta 69.243301
_cell_angle_gamma 90.000000
_cell_volume 4243.570840
_symmetry_space_group_name_H-M "C 2/M"
_symmetry_group_IT_number 12
_symmetry_cell_setting 'monoclinic'
loop_
_space_group_symop_operation_xyz
x,y,z
-x,y,-z
-x,-y,-z
x,-y,z
1/2+x,1/2+y,z
1/2-x,1/2+y,-z
1/2-x,1/2-y,-z
1/2+x,1/2-y,z
loop_
_atom_site_type_symbol
_atom_site_label
_atom_site_fract_x
_atom_site_fract_y
_atom_site_fract_z
Si Si1 0.992514 0.834470 0.407518
Si Si2 0.596245 0.176878 0.509422
Si Si3 0.265571 0.176030 0.364611
Si Si4 0.208569 0.674458 0.984277
Si Si5 0.179905 0.175813 0.533103
Si Si6 0.260835 0.324363 0.190423
Si Si7 0.336177 0.829339 0.819953
Si Si8 0.590550 0.323405 0.335791
O O1 0.952050 0.720369 0.416466
O O2 0.000000 0.846168 0.500000
O O3 0.040585 0.777843 0.337294
O O4 0.979985 0.000000 0.380962
O O5 0.634128 0.240977 0.543007
O O6 0.603137 0.240448 0.412191
O O7 0.600424 0.000000 0.502180
O O8 0.216490 0.211576 0.436297
O O9 0.303474 0.261943 0.390290
O O10 0.267443 0.235671 0.270399
O O11 0.276183 0.000000 0.359609
O O12 0.218991 0.500000 0.960102
O O13 0.201909 0.760133 0.901039
O O14 0.250000 0.750000 0.000000
O O15 0.166680 0.692055 0.077570
O O16 0.170544 0.000000 0.547898
O O17 0.269357 0.500000 0.198408
O O18 0.211144 0.290767 0.190447
O O19 0.374157 0.717973 0.760197
O O20 0.349831 0.000000 0.788768
O O21 0.592376 0.500000 0.353414
#
# Coordination Sequence:
#
# PCOD8084843 Si02
#       8
#     8   8   8   8   8   8   8   8
#     4   8  16  30  43  58  82 110 141 175 210 250
#     4  11  20  29  44  63  84 112 145 178 212 252
#     4  10  20  32  46  64  85 111 144 180 215 250
#     4   9  17  29  43  60  83 111 142 177 214 251
#     4  10  20  33  47  62  84 113 143 178 216 251
#     4  10  19  30  44  62  85 115 147 177 212 253
#     4   9  18  29  42  62  87 113 143 178 212 250
#     4  10  19  29  43  62  85 114 145 176 211 253
#
# _framework density 15.081638
#
# number of rings (size 3 to 8) (size 9 to 14) (size 15 to 20)
#    0.000    2.375    0.000    5.250    0.000    9.250 
#    0.000    0.000    0.000    0.000    0.000    0.000 
#    0.000    1.000    0.000   10.500    0.000    5.750 
#
# Total GULP energy -396701.474335 kJ/mol
# GULP energy per Si atom -12396.921073 kJ/mol
# Density = 1.504731 g / cm^3
# Si number density = 15.081638 Si / 1000 Ang^3
#
#
#
# Elastic Constant Matrix: (Units=GPa)
#
#
# Indices 1 2 3 4 5 6 
#
# 1 80.2027 41.8258 31.8447 0.0000 -6.5410 0.0000
# 2 41.8258 81.8444 28.0397 0.0000 -4.7031 0.0000
# 3 31.8447 28.0397 78.8273 0.0000 -1.2751 0.0000
# 4 0.0000 0.0000 0.0000 27.1190 0.0000 0.6016
# 5 -6.5410 -4.7031 -1.2751 0.0000 16.1900 0.0000
# 6 0.0000 0.0000 0.0000 0.6016 0.0000 23.1111
#
#
#
# Elastic Compliance Matrix: (Units=1/GPa)
#
#
# Indices 1 2 3 4 5 6 
#
# 1 0.018770 -0.007671 -0.004774 0.000000 0.004979 0.000000
# 2 -0.007671 0.017268 -0.003017 0.000000 0.001680 0.000000
# 3 -0.004774 -0.003017 0.015662 0.000000 -0.001571 0.000000
# 4 0.000000 0.000000 0.000000 0.036896 0.000000 -0.000960
# 5 0.004979 0.001680 -0.001571 0.000000 0.064142 0.000000
# 6 0.000000 0.000000 0.000000 -0.000960 0.000000 0.043294
#
#
# Mechanical properties :
#
#
# Convention : Reuss Voigt Hill
#
# Bulk Modulus (GPa) = 48.12633 49.36607 48.74620
# Shear Modulus (GPa) = 21.37838 22.56164 21.97001
#
# Velocity S-wave (km/s) = 3.76907 3.87197 3.82087
# Velocity P-wave (km/s) = 7.13589 7.26589 7.20119
#
# Compressibility (1/GPa) = 0.02077865
#
# Stress axis : x y z
#
# Youngs Moduli (GPa) = 53.27596 57.90950 63.84865
#
# Poissons Ratio (x) = 0.44421 0.30479
# Poissons Ratio (y) = 0.40867 0.19260
# Poissons Ratio (z) = 0.25432 0.17469
#
# Static dielectric constant tensor:
#      x y z
#    x 2.903130 0.000000 -0.213480 
#    y 0.000000 3.062030 0.000000 
#    z -0.213480 0.000000 3.016960 
# 
# 
# High freq. dielectric constant tensor:
#      x y z
#    x 1.550210 0.000000 -0.010390 
#    y 0.000000 1.595030 0.000000 
#    z -0.010390 0.000000 1.559720 
# 
# From -- ./inp_files/243968.got.cif
#   From: 2010.06.25/outbox.cif.g09.slc.cpg/sg12_122_cif.got.tgz:243968.got - 2010.06.28 00:19:55.
