data_PCOD8084141
_publ_section_title
;
Structure prediction by ZEFSAII (Michael W. Deem and Ramdas Pophale) SiO2 
 PCOD8084141
Probable space group: C 2/M
;
_chemical_formula_sum "Si O2"
_cell_formula_units_Z 32
_cell_length_a 10.965611
_cell_length_b 18.853212
_cell_length_c 8.517108
_cell_angle_alpha 90.000000
_cell_angle_beta 65.240807
_cell_angle_gamma 90.000000
_cell_volume 1598.941347
_symmetry_space_group_name_H-M "C 2/M"
_symmetry_group_IT_number 12
_symmetry_cell_setting 'monoclinic'
loop_
_space_group_symop_operation_xyz
x,y,z
-x,y,-z
-x,-y,-z
x,-y,z
1/2+x,1/2+y,z
1/2-x,1/2+y,-z
1/2-x,1/2-y,-z
1/2+x,1/2-y,z
loop_
_atom_site_type_symbol
_atom_site_label
_atom_site_fract_x
_atom_site_fract_y
_atom_site_fract_z
Si Si1 0.562328 0.857997 0.132466
Si Si2 0.354924 0.760639 0.652402
Si Si3 0.285300 0.860024 0.424422
Si Si4 0.158338 0.000000 0.420967
Si Si5 0.152383 0.500000 0.979985
O O1 0.636310 0.790966 0.174673
O O2 0.438724 0.881553 0.309500
O O3 0.500000 0.833824 0.000000
O O4 0.663866 0.925784 0.069202
O O5 0.500000 0.746001 0.500000
O O6 0.271995 0.816973 0.592957
O O7 0.273207 0.686539 0.691091
O O8 0.200337 0.930788 0.494796
O O9 0.231908 0.000000 0.212611
O O10 0.000000 0.000000 0.500000
O O11 0.000000 0.500000 0.000000
#
# Coordination Sequence:
#
# PCOD8084141 Si02
#       5
#     8   8   8   4   4
#     4  10  18  34  59  81 110 147 186 233 280 326
#     4   9  20  34  55  84 115 145 188 237 271 330
#     4  10  19  36  55  83 114 147 190 228 275 338
#     4  12  22  35  61  83 110 152 188 228 286 334
#     4  10  18  37  55  83 115 140 188 236 270 341
#
# _framework density 20.01324
#
# number of rings (size 3 to 8) (size 9 to 14) (size 15 to 20)
#    0.000    2.000    5.000    0.750    0.000    2.000 
#    0.000    3.750    0.000    1.500    0.000    0.000 
#    0.000    0.000    0.000    0.000    0.000    0.000 
#
# Total GULP energy -198318.219214 kJ/mol
# GULP energy per Si atom -12394.888701 kJ/mol
# Density = 1.996769 g / cm^3
# Si number density = 20.013240 Si / 1000 Ang^3
#
#
#
# Elastic Constant Matrix: (Units=GPa)
#
#
# Indices 1 2 3 4 5 6 
#
# 1 72.7168 44.1820 19.0721 0.0000 1.1399 0.0000
# 2 44.1820 127.6646 24.7176 0.0000 8.5185 0.0000
# 3 19.0721 24.7176 55.7714 0.0000 0.6860 0.0000
# 4 0.0000 0.0000 0.0000 25.1142 0.0000 1.8919
# 5 1.1399 8.5185 0.6860 0.0000 42.6262 0.0000
# 6 0.0000 0.0000 0.0000 1.8919 0.0000 27.9546
#
#
#
# Elastic Compliance Matrix: (Units=1/GPa)
#
#
# Indices 1 2 3 4 5 6 
#
# 1 0.018118 -0.005595 -0.003724 0.000000 0.000694 0.000000
# 2 -0.005595 0.010414 -0.002679 0.000000 -0.001888 0.000000
# 3 -0.003724 -0.002679 0.020387 0.000000 0.000307 0.000000
# 4 0.000000 0.000000 0.000000 0.040022 0.000000 -0.002709
# 5 0.000694 -0.001888 0.000307 0.000000 0.023814 0.000000
# 6 0.000000 0.000000 0.000000 -0.002709 0.000000 0.035956
#
#
# Mechanical properties :
#
#
# Convention : Reuss Voigt Hill
#
# Bulk Modulus (GPa) = 40.12503 48.01069 44.06786
# Shear Modulus (GPa) = 27.62205 30.35109 28.98657
#
# Velocity S-wave (km/s) = 3.71912 3.89852 3.80987
# Velocity P-wave (km/s) = 6.20768 6.65628 6.43589
#
# Compressibility (1/GPa) = 0.02492210
#
# Stress axis : x y z
#
# Youngs Moduli (GPa) = 55.19497 96.02352 49.04987
#
# Poissons Ratio (x) = 0.53728 0.18268
# Poissons Ratio (y) = 0.30883 0.13140
# Poissons Ratio (z) = 0.20557 0.25723
#
# Static dielectric constant tensor:
#      x y z
#    x 3.602120 0.000000 0.064880 
#    y 0.000000 4.071540 0.000000 
#    z 0.064880 0.000000 3.466070 
# 
# 
# High freq. dielectric constant tensor:
#      x y z
#    x 1.760420 0.000000 -0.005880 
#    y 0.000000 1.791130 0.000000 
#    z -0.005880 0.000000 1.756890 
# 
# From -- ./inp_files/46464.got.cif
#   From: 2010.06.25/outbox.cif.g09.slc.cpg/sg12_24_cif.got.tgz:46464.got - 2010.06.28 00:19:55.
