data_PCOD8084335
_publ_section_title
;
Structure prediction by ZEFSAII (Michael W. Deem and Ramdas Pophale) SiO2 
 PCOD8084335
Probable space group: C 2/M
;
_chemical_formula_sum "Si O2"
_cell_formula_units_Z 64
_cell_length_a 14.430564
_cell_length_b 8.983799
_cell_length_c 26.517833
_cell_angle_alpha 90.000000
_cell_angle_beta 77.402409
_cell_angle_gamma 90.000000
_cell_volume 3355.044012
_symmetry_space_group_name_H-M "C 2/M"
_symmetry_group_IT_number 12
_symmetry_cell_setting 'monoclinic'
loop_
_space_group_symop_operation_xyz
x,y,z
-x,y,-z
-x,-y,-z
x,-y,z
1/2+x,1/2+y,z
1/2-x,1/2+y,-z
1/2-x,1/2-y,-z
1/2+x,1/2-y,z
loop_
_atom_site_type_symbol
_atom_site_label
_atom_site_fract_x
_atom_site_fract_y
_atom_site_fract_z
Si Si1 0.455361 0.673197 0.872982
Si Si2 0.397584 0.165846 0.488459
Si Si3 0.841866 0.826475 0.786648
Si Si4 0.904034 0.170500 0.383752
Si Si5 0.173026 0.826740 0.859453
Si Si6 0.691332 0.171028 0.401902
Si Si7 0.286599 0.826840 0.945787
Si Si8 0.423532 0.176749 0.678717
O O1 0.445893 0.500000 0.887629
O O2 0.419504 0.706100 0.820720
O O3 0.564163 0.726688 0.866276
O O4 0.389788 0.762744 0.919573
O O5 0.500000 0.152635 0.500000
O O6 0.401835 0.276093 0.441323
O O7 0.329128 0.238676 0.539880
O O8 0.363518 0.000000 0.475316
O O9 0.737953 0.766755 0.813628
O O10 0.875472 0.741844 0.733525
O O11 0.833505 0.000000 0.776083
O O12 0.799795 0.188736 0.372920
O O13 0.968505 0.269182 0.339241
O O14 0.938310 0.000000 0.378465
O O15 0.208639 0.795362 0.911858
O O16 0.183020 0.000000 0.844238
O O17 0.629408 0.242540 0.364516
O O18 0.659895 0.000000 0.410598
O O19 0.299158 0.000000 0.954584
O O20 0.250000 0.750000 0.000000
O O21 0.418562 0.000000 0.682551
#
# Coordination Sequence:
#
# PCOD8084335 Si02
#       8
#     8   8   8   8   8   8   8   8
#     4   9  19  37  59  80 109 147 187 226 273 322
#     4  10  18  35  59  78 104 142 179 207 254 327
#     4  10  21  37  57  83 110 136 174 232 281 313
#     4  11  22  36  55  82 109 133 173 224 269 308
#     4   9  19  37  59  81 106 148 192 222 262 330
#     4   9  20  37  56  77 105 142 176 211 260 322
#     4  10  20  34  54  82 117 150 188 229 271 318
#     4  11  22  40  59  76 105 146 181 212 264 331
#
# _framework density 19.075755000000001
#
# number of rings (size 3 to 8) (size 9 to 14) (size 15 to 20)
#    0.000    2.125    1.250    1.875    0.000    3.250 
#    0.000   10.625    0.000    0.000    0.000    0.000 
#    0.000    0.000    0.000    0.000    0.000    0.000 
#
# Total GULP energy -396814.900054 kJ/mol
# GULP energy per Si atom -12400.465627 kJ/mol
# Density = 1.903234 g / cm^3
# Si number density = 19.075755 Si / 1000 Ang^3
#
#
#
# Elastic Constant Matrix: (Units=GPa)
#
#
# Indices 1 2 3 4 5 6 
#
# 1 114.2356 42.9258 46.4441 0.0000 -22.8563 0.0000
# 2 42.9258 82.5709 62.6866 0.0000 -13.6976 0.0000
# 3 46.4441 62.6866 133.4866 0.0000 -24.6552 0.0000
# 4 0.0000 0.0000 0.0000 26.0279 0.0000 -13.8687
# 5 -22.8563 -13.6976 -24.6552 0.0000 21.9020 0.0000
# 6 0.0000 0.0000 0.0000 -13.8687 0.0000 23.1181
#
#
#
# Elastic Compliance Matrix: (Units=1/GPa)
#
#
# Indices 1 2 3 4 5 6 
#
# 1 0.012622 -0.004624 -0.000406 0.000000 0.009823 0.000000
# 2 -0.004624 0.020607 -0.008306 0.000000 -0.001288 0.000000
# 3 -0.000406 -0.008306 0.013251 0.000000 0.009298 0.000000
# 4 0.000000 0.000000 0.000000 0.056472 0.000000 0.033878
# 5 0.009823 -0.001288 0.009298 0.000000 0.065570 0.000000
# 6 0.000000 0.000000 0.000000 0.033878 0.000000 0.063579
#
#
# Mechanical properties :
#
#
# Convention : Reuss Voigt Hill
#
# Bulk Modulus (GPa) = 50.48661 70.48958 60.48809
# Shear Modulus (GPa) = 18.84123 26.09205 22.46664
#
# Velocity S-wave (km/s) = 3.14619 3.70241 3.43557
# Velocity P-wave (km/s) = 6.30253 7.43705 6.89317
#
# Compressibility (1/GPa) = 0.01980723
#
# Stress axis : x y z
#
# Youngs Moduli (GPa) = 79.22830 48.52701 75.46802
#
# Poissons Ratio (x) = 0.22440 0.03061
# Poissons Ratio (y) = 0.36636 0.62686
# Poissons Ratio (z) = 0.03214 0.40308
#
# Static dielectric constant tensor:
#      x y z
#    x 3.658870 0.000000 -0.051210 
#    y 0.000000 3.480940 0.000000 
#    z -0.051210 0.000000 3.489120 
# 
# 
# High freq. dielectric constant tensor:
#      x y z
#    x 1.746630 0.000000 -0.009150 
#    y 0.000000 1.734950 0.000000 
#    z -0.009150 0.000000 1.742600 
# 
# From -- ./inp_files/359738.got.cif
#   From: 2010.06.25/outbox.cif.g09.slc.cpg/sg12_180_cif.got.tgz:359738.got - 2010.06.28 00:19:55.
