data_PCOD8084638
_publ_section_title
;
Structure prediction by ZEFSAII (Michael W. Deem and Ramdas Pophale) SiO2 
 PCOD8084638
Probable space group: C 2/M
;
_chemical_formula_sum "Si O2"
_cell_formula_units_Z 48
_cell_length_a 15.137882
_cell_length_b 23.260668
_cell_length_c 13.713179
_cell_angle_alpha 90.000000
_cell_angle_beta 150.998299
_cell_angle_gamma 90.000000
_cell_volume 2341.099821
_symmetry_space_group_name_H-M "C 2/M"
_symmetry_group_IT_number 12
_symmetry_cell_setting 'monoclinic'
loop_
_space_group_symop_operation_xyz
x,y,z
-x,y,-z
-x,-y,-z
x,-y,z
1/2+x,1/2+y,z
1/2-x,1/2+y,-z
1/2-x,1/2-y,-z
1/2+x,1/2-y,z
loop_
_atom_site_type_symbol
_atom_site_label
_atom_site_fract_x
_atom_site_fract_y
_atom_site_fract_z
Si Si1 0.000000 0.795044 0.500000
Si Si2 0.202073 0.379116 0.857263
Si Si3 0.707142 0.878782 0.515506
Si Si4 0.454240 0.377399 0.280292
Si Si5 0.801853 0.000000 0.598756
Si Si6 0.796103 0.202350 0.775095
Si Si7 0.990190 0.000000 0.375975
Si Si8 0.140602 0.000000 0.044022
O O1 0.923533 0.832919 0.337465
O O2 0.827848 0.757372 0.367582
O O3 0.207963 0.333558 0.776654
O O4 0.003294 0.368956 0.712295
O O5 0.342223 0.360471 0.076015
O O6 0.235856 0.442452 0.843011
O O7 0.711816 0.944383 0.560634
O O8 0.798000 0.836783 0.681166
O O9 0.829924 0.875722 0.536849
O O10 0.386793 0.440866 0.247494
O O11 0.810620 0.000000 0.487711
O O12 0.018902 0.000000 0.829734
O O13 0.000000 0.221601 0.000000
O O14 0.000000 0.000000 0.500000
O O15 0.000000 0.000000 0.000000
#
# Coordination Sequence:
#
# PCOD8084638 Si02
#       8
#     4   8   8   8   4   8   4   4
#     4  12  28  45  66  95 124 184 224 268 330 376
#     4  12  22  41  67  98 133 172 215 267 332 389
#     4  11  22  41  67  98 132 171 215 270 328 393
#     4  11  24  43  71  96 130 168 220 271 330 383
#     4  10  19  36  62  98 129 166 210 254 325 392
#     4  12  24  45  64  92 136 170 220 270 320 391
#     4  10  18  40  71  93 125 168 202 269 328 375
#     4  12  21  34  66 100 137 172 206 259 335 401
#
# _framework density 20.503184000000001
#
# number of rings (size 3 to 8) (size 9 to 14) (size 15 to 20)
#    0.000    0.667    7.500    2.000    0.000    2.667 
#    0.000    2.500    0.000    2.000    0.000    0.000 
#    0.000    0.000    0.000    0.000    0.000    0.000 
#
# Total GULP energy -297451.841770 kJ/mol
# GULP energy per Si atom -12393.826740 kJ/mol
# Density = 2.045652 g / cm^3
# Si number density = 20.503184 Si / 1000 Ang^3
#
#
#
# Elastic Constant Matrix: (Units=GPa)
#
#
# Indices 1 2 3 4 5 6 
#
# 1 80.5822 30.3656 24.4589 0.0000 -9.5273 0.0000
# 2 30.3656 115.6231 24.1974 0.0000 -13.1122 0.0000
# 3 24.4589 24.1974 83.8035 -0.0001 15.4415 0.0000
# 4 0.0000 0.0000 -0.0001 20.6593 0.0000 -4.2004
# 5 -9.5273 -13.1122 15.4415 0.0000 33.9444 0.0000
# 6 0.0000 0.0000 0.0000 -4.2004 0.0000 8.5629
#
#
#
# Elastic Compliance Matrix: (Units=1/GPa)
#
#
# Indices 1 2 3 4 5 6 
#
# 1 0.015452 -0.002407 -0.004849 0.000000 0.005613 0.000000
# 2 -0.002407 0.010506 -0.003225 0.000000 0.004850 0.000000
# 3 -0.004849 -0.003225 0.016110 0.000000 -0.009935 0.000000
# 4 0.000000 0.000000 0.000000 0.053766 0.000000 0.026374
# 5 0.005613 0.004850 -0.009935 0.000000 0.037428 0.000000
# 6 0.000000 0.000000 0.000000 0.026374 0.000000 0.129720
#
#
# Mechanical properties :
#
#
# Convention : Reuss Voigt Hill
#
# Bulk Modulus (GPa) = 47.37894 48.67252 48.02573
# Shear Modulus (GPa) = 17.18341 26.03245 21.60793
#
# Velocity S-wave (km/s) = 2.89811 3.56712 3.24988
# Velocity P-wave (km/s) = 5.86148 6.38407 6.12835
#
# Compressibility (1/GPa) = 0.02110642
#
# Stress axis : x y z
#
# Youngs Moduli (GPa) = 64.71593 95.18689 62.07459
#
# Poissons Ratio (x) = 0.22909 0.30102
# Poissons Ratio (y) = 0.15575 0.20016
# Poissons Ratio (z) = 0.31382 0.30693
#
# Static dielectric constant tensor:
#      x y z
#    x 3.672220 0.000000 -0.010480 
#    y 0.000000 3.915470 0.000000 
#    z -0.010480 0.000000 3.641890 
# 
# 
# High freq. dielectric constant tensor:
#      x y z
#    x 1.800270 0.000000 0.000060 
#    y 0.000000 1.809200 0.000000 
#    z 0.000060 0.000000 1.785010 
# 
# From -- ./inp_files/218592.got.cif
#   From: 2010.06.25/outbox.cif.g09.slc.cpg/sg12_110_cif.got.tgz:218592.got - 2010.06.28 00:19:55.
