data_PCOD8084474
_publ_section_title
;
Structure prediction by ZEFSAII (Michael W. Deem and Ramdas Pophale) SiO2 
 PCOD8084474
Probable space group: C 2/M
;
_chemical_formula_sum "Si O2"
_cell_formula_units_Z 64
_cell_length_a 9.563779
_cell_length_b 25.715070
_cell_length_c 19.857309
_cell_angle_alpha 90.000000
_cell_angle_beta 127.581449
_cell_angle_gamma 90.000000
_cell_volume 3870.168438
_symmetry_space_group_name_H-M "C 2/M"
_symmetry_group_IT_number 12
_symmetry_cell_setting 'monoclinic'
loop_
_space_group_symop_operation_xyz
x,y,z
-x,y,-z
-x,-y,-z
x,-y,z
1/2+x,1/2+y,z
1/2-x,1/2+y,-z
1/2-x,1/2-y,-z
1/2+x,1/2-y,z
loop_
_atom_site_type_symbol
_atom_site_label
_atom_site_fract_x
_atom_site_fract_y
_atom_site_fract_z
Si Si1 0.957169 0.375942 0.153024
Si Si2 0.998526 0.801088 0.725855
Si Si3 0.316200 0.795322 0.716491
Si Si4 0.638388 0.942660 0.099555
Si Si5 0.050671 0.879162 0.854463
Si Si6 0.643109 0.560430 0.099427
Si Si7 0.672420 0.696738 0.003845
Si Si8 0.198344 0.737625 0.559592
O O1 0.843970 0.426951 0.138670
O O2 0.077846 0.350129 0.247468
O O3 0.091915 0.396279 0.136620
O O4 0.825066 0.331455 0.090204
O O5 0.959487 0.751845 0.763885
O O6 0.832552 0.806711 0.625728
O O7 0.179170 0.791068 0.738169
O O8 0.000043 0.853954 0.768470
O O9 0.216701 0.788610 0.614742
O O10 0.821818 0.927847 0.119285
O O11 0.654441 0.000000 0.138427
O O12 0.500000 0.945634 0.000000
O O13 0.135223 0.835829 0.926281
O O14 0.883561 0.904973 0.841909
O O15 0.623864 0.500000 0.109154
O O16 0.500000 0.577533 0.000000
O O17 0.500000 0.704941 0.000000
O O18 0.750000 0.750000 0.000000
O O19 0.250000 0.750000 0.500000
O O20 0.000000 0.716070 0.500000
#
# Coordination Sequence:
#
# PCOD8084474 Si02
#       8
#     8   8   8   8   8   8   8   8
#     4  12  21  37  54  77 109 144 187 231 278 314
#     4  10  22  34  54  83 114 147 175 224 261 328
#     4  10  22  34  54  83 114 147 175 225 260 328
#     4  11  22  35  54  77 102 144 196 237 272 314
#     4  12  21  37  54  77 109 144 187 231 278 313
#     4  11  22  39  58  75 102 148 201 247 280 312
#     4  12  26  38  51  72 106 152 193 227 262 327
#     4  10  18  36  58  79 112 149 178 211 263 328
#
# _framework density 16.536747999999999
#
# number of rings (size 3 to 8) (size 9 to 14) (size 15 to 20)
#    0.750    0.250    6.250    1.500    3.500    4.000 
#    0.000    0.000    0.000    0.000    0.000    0.000 
#    0.000   20.000    0.000    0.000    0.000    0.000 
#
# Total GULP energy -396548.693118 kJ/mol
# GULP energy per Si atom -12392.146660 kJ/mol
# Density = 1.649911 g / cm^3
# Si number density = 16.536748 Si / 1000 Ang^3
#
#
#
# Elastic Constant Matrix: (Units=GPa)
#
#
# Indices 1 2 3 4 5 6 
#
# 1 97.8854 35.4451 30.2201 0.0000 -4.0656 0.0000
# 2 35.4451 84.5943 34.3404 0.0000 -3.5379 0.0000
# 3 30.2201 34.3404 77.1661 0.0000 -3.0922 0.0000
# 4 0.0000 0.0000 0.0000 18.0377 0.0000 5.2509
# 5 -4.0656 -3.5379 -3.0922 0.0000 26.2612 0.0000
# 6 0.0000 0.0000 0.0000 5.2509 0.0000 44.7217
#
#
#
# Elastic Compliance Matrix: (Units=1/GPa)
#
#
# Indices 1 2 3 4 5 6 
#
# 1 0.012676 -0.003990 -0.003146 0.000000 0.001054 0.000000
# 2 -0.003990 0.015721 -0.005399 0.000000 0.000865 0.000000
# 3 -0.003146 -0.005399 0.016624 0.000000 0.000743 0.000000
# 4 0.000000 0.000000 0.000000 0.057401 0.000000 -0.006740
# 5 0.001054 0.000865 0.000743 0.000000 0.038446 0.000000
# 6 0.000000 0.000000 0.000000 -0.006740 0.000000 0.023152
#
#
# Mechanical properties :
#
#
# Convention : Reuss Voigt Hill
#
# Bulk Modulus (GPa) = 50.12519 51.07300 50.59909
# Shear Modulus (GPa) = 25.54411 28.44681 26.99546
#
# Velocity S-wave (km/s) = 3.93452 4.15205 4.04475
# Velocity P-wave (km/s) = 7.14267 7.34422 7.24415
#
# Compressibility (1/GPa) = 0.01995005
#
# Stress axis : x y z
#
# Youngs Moduli (GPa) = 78.88939 63.61052 60.15535
#
# Poissons Ratio (x) = 0.25380 0.18927
# Poissons Ratio (y) = 0.31476 0.32477
# Poissons Ratio (z) = 0.24822 0.34342
#
# Static dielectric constant tensor:
#      x y z
#    x 3.276090 0.000000 0.015590 
#    y 0.000000 3.170060 0.000000 
#    z 0.015590 0.000000 2.906880 
# 
# 
# High freq. dielectric constant tensor:
#      x y z
#    x 1.661180 0.000000 0.005370 
#    y 0.000000 1.623780 0.000000 
#    z 0.005370 0.000000 1.605430 
# 
# From -- ./inp_files/302663.got.cif
#   From: 2010.06.25/outbox.cif.g09.slc.cpg/sg12_152_cif.got.tgz:302663.got - 2010.06.28 00:19:55.
