data_PCOD8084094
_publ_section_title
;
Structure prediction by ZEFSAII (Michael W. Deem and Ramdas Pophale) SiO2 
 PCOD8084094
Probable space group: C 2/M
;
_chemical_formula_sum "Si O2"
_cell_formula_units_Z 56
_cell_length_a 27.214411
_cell_length_b 12.259878
_cell_length_c 14.477578
_cell_angle_alpha 90.000000
_cell_angle_beta 41.059864
_cell_angle_gamma 90.000000
_cell_volume 3172.819459
_symmetry_space_group_name_H-M "C 2/M"
_symmetry_group_IT_number 12
_symmetry_cell_setting 'monoclinic'
loop_
_space_group_symop_operation_xyz
x,y,z
-x,y,-z
-x,-y,-z
x,-y,z
1/2+x,1/2+y,z
1/2-x,1/2+y,-z
1/2-x,1/2-y,-z
1/2+x,1/2-y,z
loop_
_atom_site_type_symbol
_atom_site_label
_atom_site_fract_x
_atom_site_fract_y
_atom_site_fract_z
Si Si1 0.063558 0.375803 0.049886
Si Si2 0.901848 0.373378 0.322388
Si Si3 0.684944 0.126657 0.737462
Si Si4 0.152311 0.791239 0.451816
Si Si5 0.676342 0.713226 0.207874
Si Si6 0.403938 0.500000 0.713735
Si Si7 0.564651 0.500000 0.547548
Si Si8 0.171482 0.375153 0.058504
O O1 0.054971 0.500000 0.029362
O O2 0.096009 0.365966 0.106859
O O3 0.980186 0.324941 0.170784
O O4 0.119724 0.321629 0.895280
O O5 0.912006 0.500000 0.335168
O O6 0.838039 0.358414 0.336151
O O7 0.878305 0.310733 0.447910
O O8 0.761730 0.189853 0.643886
O O9 0.698102 0.000000 0.745414
O O10 0.143992 0.765949 0.355137
O O11 0.100913 0.895955 0.547020
O O12 0.641044 0.610782 0.202542
O O13 0.657854 0.822355 0.177606
O O14 0.764807 0.690199 0.087965
O O15 0.474857 0.500000 0.682272
O O16 0.419206 0.500000 0.583497
O O17 0.196112 0.500000 0.036951
#
# Coordination Sequence:
#
# PCOD8084094 Si02
#       8
#     8   8   8   8   8   4   4   8
#     4   9  18  33  56  78 106 134 172 221 262 306
#     4  10  22  35  51  82 111 137 169 215 272 319
#     4  10  18  34  58  79 102 134 180 225 261 303
#     4  11  20  35  55  78 108 139 174 216 261 314
#     4  10  20  32  54  76 104 140 173 213 259 308
#     4   9  18  34  50  74 104 130 172 217 254 301
#     4   9  20  32  52  76 100 136 171 212 260 298
#     4  10  19  33  52  78 104 136 176 214 257 313
#
# _framework density 17.649918
#
# number of rings (size 3 to 8) (size 9 to 14) (size 15 to 20)
#    0.000    2.143    2.857    0.857    2.000    2.286 
#    0.000    0.000    0.000    2.571    1.857    1.000 
#    0.000    0.000    0.000    0.000    0.000    0.000 
#
# Total GULP energy -347147.052422 kJ/mol
# GULP energy per Si atom -12398.109015 kJ/mol
# Density = 1.760975 g / cm^3
# Si number density = 17.649918 Si / 1000 Ang^3
#
#
#
# Elastic Constant Matrix: (Units=GPa)
#
#
# Indices 1 2 3 4 5 6 
#
# 1 72.6455 31.3927 34.7744 0.0000 -6.0347 0.0000
# 2 31.3927 61.1861 29.7894 0.0000 11.2201 0.0000
# 3 34.7744 29.7894 85.0103 0.0000 -4.2965 0.0000
# 4 0.0000 0.0000 0.0000 23.9796 0.0000 1.6373
# 5 -6.0347 11.2201 -4.2965 0.0000 31.4692 0.0000
# 6 0.0000 0.0000 0.0000 1.6373 0.0000 17.9044
#
#
#
# Elastic Compliance Matrix: (Units=1/GPa)
#
#
# Indices 1 2 3 4 5 6 
#
# 1 0.020745 -0.009538 -0.004804 0.000000 0.006723 0.000000
# 2 -0.009538 0.026331 -0.005933 0.000000 -0.012027 0.000000
# 3 -0.004804 -0.005933 0.015978 0.000000 0.003376 0.000000
# 4 0.000000 0.000000 0.000000 0.041964 0.000000 -0.003837
# 5 0.006723 -0.012027 0.003376 0.000000 0.037815 0.000000
# 6 0.000000 0.000000 0.000000 -0.003837 0.000000 0.056203
#
#
# Mechanical properties :
#
#
# Convention : Reuss Voigt Hill
#
# Bulk Modulus (GPa) = 44.43557 45.63944 45.03750
# Shear Modulus (GPa) = 20.23562 22.86301 21.54931
#
# Velocity S-wave (km/s) = 3.38967 3.60302 3.49797
# Velocity P-wave (km/s) = 6.36793 6.57444 6.47201
#
# Compressibility (1/GPa) = 0.02250450
#
# Stress axis : x y z
#
# Youngs Moduli (GPa) = 48.20413 37.97749 62.58500
#
# Poissons Ratio (x) = 0.36221 0.30066
# Poissons Ratio (y) = 0.45975 0.37135
# Poissons Ratio (z) = 0.23158 0.22534
#
# Static dielectric constant tensor:
#      x y z
#    x 3.268390 0.000000 -0.169420 
#    y 0.000000 3.055740 0.000000 
#    z -0.169420 0.000000 3.280020 
# 
# 
# High freq. dielectric constant tensor:
#      x y z
#    x 1.688950 0.000000 -0.015040 
#    y 0.000000 1.651330 0.000000 
#    z -0.015040 0.000000 1.675800 
# 
# From -- ./inp_files/245657.got.cif
#   From: 2010.06.25/outbox.cif.g09.slc.cpg/sg12_123_cif.got.tgz:245657.got - 2010.06.28 00:19:55.
