data_PCOD8084460
_publ_section_title
;
Structure prediction by ZEFSAII (Michael W. Deem and Ramdas Pophale) SiO2 
 PCOD8084460
Probable space group: C 2/M
;
_chemical_formula_sum "Si O2"
_cell_formula_units_Z 48
_cell_length_a 19.869530
_cell_length_b 14.138021
_cell_length_c 11.678769
_cell_angle_alpha 90.000000
_cell_angle_beta 43.618570
_cell_angle_gamma 90.000000
_cell_volume 2263.239992
_symmetry_space_group_name_H-M "C 2/M"
_symmetry_group_IT_number 12
_symmetry_cell_setting 'monoclinic'
loop_
_space_group_symop_operation_xyz
x,y,z
-x,y,-z
-x,-y,-z
x,-y,z
1/2+x,1/2+y,z
1/2-x,1/2+y,-z
1/2-x,1/2-y,-z
1/2+x,1/2-y,z
loop_
_atom_site_type_symbol
_atom_site_label
_atom_site_fract_x
_atom_site_fract_y
_atom_site_fract_z
Si Si1 0.107254 0.308755 0.892859
Si Si2 0.463836 0.284580 0.427843
Si Si3 0.854709 0.293892 0.896113
Si Si4 0.134700 0.605877 0.345239
Si Si5 0.666638 0.398271 0.776496
Si Si6 0.277038 0.345881 0.527395
O O1 0.101337 0.195861 0.869245
O O2 0.184373 0.368854 0.721846
O O3 0.139833 0.331247 0.981744
O O4 0.000000 0.349966 0.000000
O O5 0.500000 0.336336 0.500000
O O6 0.556023 0.281350 0.228020
O O7 0.431027 0.177790 0.500957
O O8 0.375231 0.341862 0.481988
O O9 0.871742 0.376675 0.782985
O O10 0.750000 0.250000 0.000000
O O11 0.098082 0.500000 0.417416
O O12 0.245714 0.621177 0.244746
O O13 0.615758 0.500000 0.872338
O O14 0.705234 0.417047 0.599017
O O15 0.250000 0.250000 0.500000
#
# Coordination Sequence:
#
# PCOD8084460 Si02
#       6
#     8   8   8   8   8   8
#     4  11  21  34  58  84 112 141 182 228 279 323
#     4  10  19  33  57  80 108 145 186 223 263 325
#     4  11  20  34  53  83 114 142 177 227 277 324
#     4  10  20  36  58  83 109 145 185 225 269 322
#     4  10  20  36  58  80 109 144 186 228 267 322
#     4  10  18  36  56  79 107 147 187 220 265 326
#
# _framework density 21.208532000000002
#
# number of rings (size 3 to 8) (size 9 to 14) (size 15 to 20)
#    0.000    1.667    5.000    3.000    0.000    3.333 
#    0.000    0.833    0.000    1.500    0.000    0.000 
#    0.000    0.000    0.000    0.000    0.000    0.000 
#
# Total GULP energy -297315.807699 kJ/mol
# GULP energy per Si atom -12388.158654 kJ/mol
# Density = 2.116026 g / cm^3
# Si number density = 21.208532 Si / 1000 Ang^3
#
#
#
# Elastic Constant Matrix: (Units=GPa)
#
#
# Indices 1 2 3 4 5 6 
#
# 1 144.1282 -1.0431 41.2676 0.0000 0.0676 0.0000
# 2 -1.0431 40.9187 -6.7231 0.0000 -1.1169 0.0000
# 3 41.2676 -6.7231 107.3082 0.0000 -4.3433 0.0000
# 4 0.0000 0.0000 0.0000 14.9722 0.0000 0.2711
# 5 0.0676 -1.1169 -4.3433 0.0000 50.6839 0.0000
# 6 0.0000 0.0000 0.0000 0.2711 0.0000 -17.5343
#
#
#
# Elastic Compliance Matrix: (Units=1/GPa)
#
#
# Indices 1 2 3 4 5 6 
#
# 1 0.007804 -0.000307 -0.003032 0.000000 -0.000277 0.000000
# 2 -0.000307 0.024728 0.001695 0.000000 0.000691 0.000000
# 3 -0.003032 0.001695 0.010630 0.000000 0.000952 0.000000
# 4 0.000000 0.000000 0.000000 0.066772 0.000000 0.001032
# 5 -0.000277 0.000691 0.000952 0.000000 0.019827 0.000000
# 6 0.000000 0.000000 0.000000 0.001032 0.000000 -0.057015
#
#
# Mechanical properties :
#
#
# Convention : Reuss Voigt Hill
#
# Bulk Modulus (GPa) = 25.07796 39.92864 32.50330
# Shear Modulus (GPa) = 55.97582 26.88128 41.42855
#
# Velocity S-wave (km/s) = 5.14299 3.56402 4.42451
# Velocity P-wave (km/s) = 6.86420 5.98364 6.43899
#
# Compressibility (1/GPa) = 0.03987564
#
# Stress axis : x y z
#
# Youngs Moduli (GPa) = 128.13563 40.43953 94.07681
#
# Poissons Ratio (x) = 0.01240 0.28521
# Poissons Ratio (y) = 0.03930 -0.15948
# Poissons Ratio (z) = 0.38847 -0.06855
#
# Static dielectric constant tensor:
#      x y z
#    x 4.465420 0.000000 0.330450 
#    y 0.000000 3.397230 0.000000 
#    z 0.330450 0.000000 4.370450 
# 
# 
# High freq. dielectric constant tensor:
#      x y z
#    x 1.857240 0.000000 -0.000580 
#    y 0.000000 1.776130 0.000000 
#    z -0.000580 0.000000 1.835030 
# 
# From -- ./inp_files/167540.got.cif
#   From: 2010.06.25/outbox.cif.g09.slc.cpg/sg12_84_cif.got.tgz:167540.got - 2010.06.28 00:19:55.
