data_PCOD8084998
_publ_section_title
;
Structure prediction by ZEFSAII (Michael W. Deem and Ramdas Pophale) SiO2 
 PCOD8084998
Probable space group: C 2/M
;
_chemical_formula_sum "Si O2"
_cell_formula_units_Z 64
_cell_length_a 28.566856
_cell_length_b 9.033856
_cell_length_c 15.517919
_cell_angle_alpha 90.000000
_cell_angle_beta 87.407858
_cell_angle_gamma 90.000000
_cell_volume 4000.594047
_symmetry_space_group_name_H-M "C 2/M"
_symmetry_group_IT_number 12
_symmetry_cell_setting 'monoclinic'
loop_
_space_group_symop_operation_xyz
x,y,z
-x,y,-z
-x,-y,-z
x,-y,z
1/2+x,1/2+y,z
1/2-x,1/2+y,-z
1/2-x,1/2-y,-z
1/2+x,1/2-y,z
loop_
_atom_site_type_symbol
_atom_site_label
_atom_site_fract_x
_atom_site_fract_y
_atom_site_fract_z
Si Si1 0.709795 0.672905 0.695146
Si Si2 0.809588 0.173705 0.674249
Si Si3 0.139792 0.327848 0.180059
Si Si4 0.548932 0.825714 0.095062
Si Si5 0.800029 0.326640 0.992013
Si Si6 0.798251 0.169880 0.490123
Si Si7 0.353936 0.675399 0.141044
Si Si8 0.445395 0.825305 0.100418
O O1 0.722085 0.500000 0.702993
O O2 0.758231 0.760859 0.696258
O O3 0.681124 0.704969 0.607202
O O4 0.676998 0.725536 0.775252
O O5 0.847499 0.242873 0.734373
O O6 0.827589 0.211374 0.574222
O O7 0.807059 0.000000 0.691720
O O8 0.135856 0.500000 0.202585
O O9 0.089557 0.262012 0.153347
O O10 0.179000 0.300166 0.104320
O O11 0.496946 0.786868 0.134777
O O12 0.555177 0.000000 0.088187
O O13 0.555860 0.766657 0.997702
O O14 0.794845 0.500000 0.012661
O O15 0.834740 0.254411 0.057715
O O16 0.750000 0.250000 0.000000
O O17 0.750000 0.250000 0.500000
O O18 0.785443 0.000000 0.497546
O O19 0.353447 0.500000 0.128039
O O20 0.406431 0.733351 0.155679
O O21 0.435016 0.000000 0.108075
#
# Coordination Sequence:
#
# PCOD8084998 Si02
#       8
#     8   8   8   8   8   8   8   8
#     4   9  18  32  47  63  89 126 155 179 217 272
#     4  10  19  29  45  70  93 115 148 193 229 257
#     4  10  19  32  47  64  88 122 154 179 217 273
#     4   8  15  30  51  68  83 113 155 188 222 273
#     4  11  22  34  46  61  89 127 160 186 216 258
#     4   8  15  29  46  63  86 115 149 185 224 263
#     4  11  21  31  45  68  94 120 152 185 223 268
#     4   9  16  31  52  68  85 113 151 192 228 267
#
# _framework density 15.997623000000001
#
# number of rings (size 3 to 8) (size 9 to 14) (size 15 to 20)
#    0.000    2.500    1.250    2.625    0.000    5.500 
#    0.000    1.875    0.000    0.000    0.000    0.875 
#    0.000    7.000    0.000    0.000    0.000    0.000 
#
# Total GULP energy -396505.055316 kJ/mol
# GULP energy per Si atom -12390.782979 kJ/mol
# Density = 1.596121 g / cm^3
# Si number density = 15.997623 Si / 1000 Ang^3
#
#
#
# Elastic Constant Matrix: (Units=GPa)
#
#
# Indices 1 2 3 4 5 6 
#
# 1 93.2922 27.7153 29.7585 0.0000 17.7441 0.0000
# 2 27.7153 48.4580 28.7604 0.0000 6.9232 0.0000
# 3 29.7585 28.7604 83.3431 0.0000 20.8611 0.0000
# 4 0.0000 0.0000 0.0000 20.2831 0.0000 2.9295
# 5 17.7441 6.9232 20.8611 0.0000 17.4883 0.0000
# 6 0.0000 0.0000 0.0000 2.9295 0.0000 23.3005
#
#
#
# Elastic Compliance Matrix: (Units=1/GPa)
#
#
# Indices 1 2 3 4 5 6 
#
# 1 0.015171 -0.006961 0.000211 0.000000 -0.012890 0.000000
# 2 -0.006961 0.029150 -0.009200 0.000000 0.006497 0.000000
# 3 0.000211 -0.009200 0.020302 0.000000 -0.020789 0.000000
# 4 0.000000 0.000000 0.000000 0.050214 0.000000 -0.006313
# 5 -0.012890 0.006497 -0.020789 0.000000 0.092486 0.000000
# 6 0.000000 0.000000 0.000000 -0.006313 0.000000 0.043711
#
#
# Mechanical properties :
#
#
# Convention : Reuss Voigt Hill
#
# Bulk Modulus (GPa) = 30.55921 44.17352 37.36637
# Shear Modulus (GPa) = 17.01605 21.47165 19.24385
#
# Velocity S-wave (km/s) = 3.26492 3.66755 3.47208
# Velocity P-wave (km/s) = 5.77553 6.75330 6.28346
#
# Compressibility (1/GPa) = 0.03272336
#
# Stress axis : x y z
#
# Youngs Moduli (GPa) = 65.91474 34.30565 49.25736
#
# Poissons Ratio (x) = 0.23880 -0.01041
# Poissons Ratio (y) = 0.45883 0.45316
# Poissons Ratio (z) = -0.01394 0.31561
#
# Static dielectric constant tensor:
#      x y z
#    x 3.103730 0.000000 0.134180 
#    y 0.000000 2.905130 0.000000 
#    z 0.134180 0.000000 3.469320 
# 
# 
# High freq. dielectric constant tensor:
#      x y z
#    x 1.595400 0.000000 0.008490 
#    y 0.000000 1.610940 0.000000 
#    z 0.008490 0.000000 1.608640 
# 
# From -- ./inp_files/248353.got.cif
#   From: 2010.06.25/outbox.cif.g09.slc.cpg/sg12_125_cif.got.tgz:248353.got - 2010.06.28 00:19:55.
