data_PCOD8084511
_publ_section_title
;
Structure prediction by ZEFSAII (Michael W. Deem and Ramdas Pophale) SiO2 
 PCOD8084511
Probable space group: C 2/M
;
_chemical_formula_sum "Si O2"
_cell_formula_units_Z 44
_cell_length_a 18.521777
_cell_length_b 14.325666
_cell_length_c 25.968931
_cell_angle_alpha 90.000000
_cell_angle_beta 160.089314
_cell_angle_gamma 90.000000
_cell_volume 2346.597997
_symmetry_space_group_name_H-M "C 2/M"
_symmetry_group_IT_number 12
_symmetry_cell_setting 'monoclinic'
loop_
_space_group_symop_operation_xyz
x,y,z
-x,y,-z
-x,-y,-z
x,-y,z
1/2+x,1/2+y,z
1/2-x,1/2+y,-z
1/2-x,1/2-y,-z
1/2+x,1/2-y,z
loop_
_atom_site_type_symbol
_atom_site_label
_atom_site_fract_x
_atom_site_fract_y
_atom_site_fract_z
Si Si1 0.569727 0.862563 0.388979
Si Si2 0.364432 0.500000 0.733453
Si Si3 0.356760 0.500000 0.284774
Si Si4 0.157427 0.500000 0.363288
Si Si5 0.443158 0.000000 0.382852
Si Si6 0.462662 0.000000 0.835098
Si Si7 0.542550 0.663233 0.716610
Si Si8 0.799449 0.157155 0.066038
O O1 0.491289 0.757280 0.338010
O O2 0.809570 0.878849 0.570225
O O3 0.554145 0.908652 0.321450
O O4 0.422183 0.910695 0.332049
O O5 0.267541 0.500000 0.725047
O O6 0.504102 0.594249 0.822263
O O7 0.166302 0.500000 0.562201
O O8 0.593371 0.500000 0.463353
O O9 0.214498 0.500000 0.239942
O O10 0.315175 0.591131 0.221179
O O11 0.125118 0.500000 0.281235
O O12 0.592244 0.094318 0.928470
O O13 0.655515 0.688033 0.845564
O O14 0.750000 0.250000 0.000000
#
# Coordination Sequence:
#
# PCOD8084511 Si02
#       8
#     8   4   4   4   4   4   8   8
#     4   9  18  33  61  84 108 144 187 244 288 326
#     4  10  21  37  58  86 114 145 189 237 285 336
#     4  10  21  36  58  81 113 151 189 246 282 323
#     4   9  18  36  58  81 111 139 192 241 284 335
#     4  10  18  36  62  87 113 136 186 253 293 318
#     4  11  23  37  56  82 113 156 189 231 288 346
#     4  10  19  35  55  83 112 149 196 228 277 347
#     4  11  23  38  58  79 119 157 191 224 282 357
#
# _framework density 18.750548999999999
#
# number of rings (size 3 to 8) (size 9 to 14) (size 15 to 20)
#    0.000    2.000    1.818    3.000    0.000    2.909 
#    0.000    0.000    0.000   18.545    0.000    0.000 
#    0.000    0.000    0.000    0.000    0.000    0.000 
#
# Total GULP energy -272672.346721 kJ/mol
# GULP energy per Si atom -12394.197578 kJ/mol
# Density = 1.870787 g / cm^3
# Si number density = 18.750549 Si / 1000 Ang^3
#
#
#
# Elastic Constant Matrix: (Units=GPa)
#
#
# Indices 1 2 3 4 5 6 
#
# 1 147.0759 44.3704 43.2207 0.0803 -1.3976 0.0246
# 2 44.3704 105.1193 25.5225 0.1466 7.6224 0.0546
# 3 43.2207 25.5225 66.2408 0.1879 -11.8604 -0.0291
# 4 0.0803 0.1466 0.1879 18.3216 0.0038 -6.0376
# 5 -1.3976 7.6224 -11.8604 0.0038 33.5429 -0.0125
# 6 0.0246 0.0546 -0.0291 -6.0376 -0.0125 18.1399
#
#
#
# Elastic Compliance Matrix: (Units=1/GPa)
#
#
# Indices 1 2 3 4 5 6 
#
# 1 0.009046 -0.002523 -0.005082 0.000032 -0.000847 -0.000003
# 2 -0.002523 0.011747 -0.003605 -0.000066 -0.004049 -0.000062
# 3 -0.005082 -0.003605 0.021256 -0.000168 0.008123 0.000002
# 4 0.000032 -0.000066 -0.000168 0.061307 -0.000043 0.020405
# 5 -0.000847 -0.004049 0.008123 -0.000043 0.033570 0.000035
# 6 -0.000003 -0.000062 0.000002 0.020405 0.000035 0.061919
#
#
# Mechanical properties :
#
#
# Convention : Reuss Voigt Hill
#
# Bulk Modulus (GPa) = 50.94299 60.51814 55.73057
# Shear Modulus (GPa) = 21.94853 27.68903 24.81878
#
# Velocity S-wave (km/s) = 3.42505 3.84696 3.64212
# Velocity P-wave (km/s) = 6.54745 7.21648 6.89009
#
# Compressibility (1/GPa) = 0.01962978
#
# Stress axis : x y z
#
# Youngs Moduli (GPa) = 110.55074 85.12896 47.04563
#
# Poissons Ratio (x) = 0.21478 0.23907
# Poissons Ratio (y) = 0.27892 0.16959
# Poissons Ratio (z) = 0.56178 0.30687
#
# Static dielectric constant tensor:
#      x y z
#    x 3.455420 -0.000080 -0.091640 
#    y -0.000080 3.492820 -0.000470 
#    z -0.091640 -0.000470 3.350900 
# 
# 
# High freq. dielectric constant tensor:
#      x y z
#    x 1.729400 0.000000 -0.012400 
#    y 0.000000 1.738020 -0.000040 
#    z -0.012400 -0.000040 1.716080 
# 
# From -- ./inp_files/155878.got.cif
#   From: 2010.06.25/outbox.cif.g09.slc.cpg/sg12_78_cif.got.tgz:155878.got - 2010.06.28 00:19:55.
