data_PCOD8084611
_publ_section_title
;
Structure prediction by ZEFSAII (Michael W. Deem and Ramdas Pophale) SiO2 
 PCOD8084611
Probable space group: C 2/M
;
_chemical_formula_sum "Si O2"
_cell_formula_units_Z 56
_cell_length_a 9.504743
_cell_length_b 31.455427
_cell_length_c 11.304017
_cell_angle_alpha 90.000000
_cell_angle_beta 52.420167
_cell_angle_gamma 90.000000
_cell_volume 2678.369076
_symmetry_space_group_name_H-M "C 2/M"
_symmetry_group_IT_number 12
_symmetry_cell_setting 'monoclinic'
loop_
_space_group_symop_operation_xyz
x,y,z
-x,y,-z
-x,-y,-z
x,-y,z
1/2+x,1/2+y,z
1/2-x,1/2+y,-z
1/2-x,1/2-y,-z
1/2+x,1/2-y,z
loop_
_atom_site_type_symbol
_atom_site_label
_atom_site_fract_x
_atom_site_fract_y
_atom_site_fract_z
Si Si1 0.499921 0.278402 0.693351
Si Si2 0.493819 0.356348 0.863924
Si Si3 0.787305 0.000000 0.973855
Si Si4 0.298146 0.612318 0.608596
Si Si5 0.799663 0.588198 0.594287
Si Si6 0.280310 0.204246 0.353810
Si Si7 0.801563 0.413688 0.094694
Si Si8 0.298373 0.500000 0.246288
O O1 0.474701 0.310582 0.814156
O O2 0.538490 0.231104 0.724651
O O3 0.324405 0.276066 0.703838
O O4 0.668540 0.293683 0.531818
O O5 0.671261 0.380160 0.730394
O O6 0.320474 0.383448 0.921532
O O7 0.500000 0.350029 0.000000
O O8 0.690672 0.959469 0.969298
O O9 0.993280 0.000000 0.833040
O O10 0.759895 0.000000 0.127536
O O11 0.500000 0.629392 0.500000
O O12 0.252001 0.585444 0.516845
O O13 0.175835 0.654421 0.688201
O O14 0.275751 0.581964 0.733043
O O15 0.790927 0.541234 0.651767
O O16 0.000000 0.605738 0.500000
O O17 0.000000 0.394921 0.000000
#
# Coordination Sequence:
#
# PCOD8084611 Si02
#       8
#     8   8   4   8   8   8   8   4
#     4  10  20  38  64  96 128 173 222 276 338 406
#     4  12  24  46  68  97 141 185 227 278 347 415
#     4  11  23  45  71  96 137 189 230 266 348 424
#     4  12  21  45  70  95 139 172 225 293 344 401
#     4  12  26  42  68 104 134 177 229 282 344 403
#     4  10  18  38  65  93 129 166 221 281 338 398
#     4  12  26  44  70 101 132 182 232 283 340 407
#     4  11  23  45  67  96 143 181 220 286 336 406
#
# _framework density 20.908245999999998
#
# number of rings (size 3 to 8) (size 9 to 14) (size 15 to 20)
#    0.000    0.714    7.143    1.286    4.000    1.714 
#    0.000    2.857    0.000    0.000    0.000    0.000 
#    0.000    0.000    0.000    0.000    0.000    0.000 
#
# Total GULP energy -347324.034589 kJ/mol
# GULP energy per Si atom -12404.429807 kJ/mol
# Density = 2.086066 g / cm^3
# Si number density = 20.908246 Si / 1000 Ang^3
#
#
#
# Elastic Constant Matrix: (Units=GPa)
#
#
# Indices 1 2 3 4 5 6 
#
# 1 115.2978 40.4088 65.0470 0.0000 11.8953 0.0000
# 2 40.4088 95.7657 39.0594 0.0000 6.4492 0.0000
# 3 65.0470 39.0594 92.7824 0.0000 23.1757 0.0000
# 4 0.0000 0.0000 0.0000 4.6157 0.0000 13.4255
# 5 11.8953 6.4492 23.1757 0.0000 44.7389 0.0000
# 6 0.0000 0.0000 0.0000 13.4255 0.0000 14.8331
#
#
#
# Elastic Compliance Matrix: (Units=1/GPa)
#
#
# Indices 1 2 3 4 5 6 
#
# 1 0.014885 -0.002383 -0.009797 0.000000 0.001461 0.000000
# 2 -0.002383 0.013033 -0.004026 0.000000 0.000840 0.000000
# 3 -0.009797 -0.004026 0.021302 0.000000 -0.007850 0.000000
# 4 0.000000 0.000000 0.000000 -0.132701 0.000000 0.120108
# 5 0.001461 0.000840 -0.007850 0.000000 0.025909 0.000000
# 6 0.000000 0.000000 0.000000 0.120108 0.000000 -0.041293
#
#
# Mechanical properties :
#
#
# Convention : Reuss Voigt Hill
#
# Bulk Modulus (GPa) = 59.49619 65.87513 62.68566
# Shear Modulus (GPa) = -82.16690 23.45958 -29.35366
#
# Velocity S-wave (km/s) = -6.27568 3.35330 -3.75097
# Velocity P-wave (km/s) = 4.89842 6.82407 3.35957
#
# Compressibility (1/GPa) = 0.01680780
#
# Stress axis : x y z
#
# Youngs Moduli (GPa) = 67.18251 76.72738 46.94461
#
# Poissons Ratio (x) = 0.18286 0.45991
# Poissons Ratio (y) = 0.16012 0.18899
# Poissons Ratio (z) = 0.65818 0.30888
#
# Static dielectric constant tensor:
#      x y z
#    x 3.997730 0.000000 0.109360 
#    y 0.000000 3.772090 0.000000 
#    z 0.109360 0.000000 3.714960 
# 
# 
# High freq. dielectric constant tensor:
#      x y z
#    x 1.828450 0.000000 0.015500 
#    y 0.000000 1.816220 0.000000 
#    z 0.015500 0.000000 1.808910 
# 
# From -- ./inp_files/125686.got.cif
#   From: 2010.06.25/outbox.cif.g09.slc.cpg/sg12_63_cif.got.tgz:125686.got - 2010.06.28 00:19:55.
