data_PCOD8084784
_publ_section_title
;
Structure prediction by ZEFSAII (Michael W. Deem and Ramdas Pophale) SiO2 
 PCOD8084784
Probable space group: C 2/M
;
_chemical_formula_sum "Si O2"
_cell_formula_units_Z 56
_cell_length_a 23.504959
_cell_length_b 9.503894
_cell_length_c 18.687838
_cell_angle_alpha 90.000000
_cell_angle_beta 129.114104
_cell_angle_gamma 90.000000
_cell_volume 3239.074467
_symmetry_space_group_name_H-M "C 2/M"
_symmetry_group_IT_number 12
_symmetry_cell_setting 'monoclinic'
loop_
_space_group_symop_operation_xyz
x,y,z
-x,y,-z
-x,-y,-z
x,-y,z
1/2+x,1/2+y,z
1/2-x,1/2+y,-z
1/2-x,1/2-y,-z
1/2+x,1/2-y,z
loop_
_atom_site_type_symbol
_atom_site_label
_atom_site_fract_x
_atom_site_fract_y
_atom_site_fract_z
Si Si1 0.592619 0.335227 0.349929
Si Si2 0.386829 0.342814 0.382697
Si Si3 0.277022 0.154697 0.804607
Si Si4 0.817114 0.159745 0.713625
Si Si5 0.719734 0.332920 0.909024
Si Si6 0.566367 0.334056 0.729838
Si Si7 0.157246 0.664685 0.526698
O O1 0.603481 0.500000 0.378113
O O2 0.616299 0.305483 0.287184
O O3 0.508101 0.287204 0.290222
O O4 0.643335 0.240650 0.440599
O O5 0.412427 0.500000 0.426947
O O6 0.303882 0.349900 0.291183
O O7 0.434874 0.283243 0.354239
O O8 0.395466 0.235877 0.455612
O O9 0.327299 0.253249 0.794886
O O10 0.271478 0.206459 0.882301
O O11 0.312503 0.000000 0.830196
O O12 0.741648 0.192377 0.612704
O O13 0.818921 0.000000 0.740325
O O14 0.721025 0.500000 0.924270
O O15 0.636931 0.276370 0.828843
O O16 0.750000 0.250000 0.000000
O O17 0.575560 0.500000 0.734128
O O18 0.138617 0.500000 0.506306
#
# Coordination Sequence:
#
# PCOD8084784 Si02
#       7
#     8   8   8   8   8   8   8
#     4  10  19  31  46  63  86 121 158 190 220 258
#     4   8  14  28  47  63  82 115 153 186 220 263
#     4   8  15  28  47  68  90 115 145 179 218 263
#     4   9  18  30  45  65  89 118 156 193 222 252
#     4   9  17  31  52  77  96 112 138 177 223 271
#     4   8  16  31  49  67  89 116 149 184 221 266
#     4  10  19  29  41  63  92 119 151 194 231 258
#
# _framework density 17.288889999999999
#
# number of rings (size 3 to 8) (size 9 to 14) (size 15 to 20)
#    0.000    3.143    0.000    2.571    0.000    2.286 
#    0.000    6.429    0.000    0.857    0.000    6.000 
#    0.000    0.000    0.000    0.000    0.000    0.000 
#
# Total GULP energy -347044.960350 kJ/mol
# GULP energy per Si atom -12394.462870 kJ/mol
# Density = 1.724954 g / cm^3
# Si number density = 17.288890 Si / 1000 Ang^3
#
#
#
# Elastic Constant Matrix: (Units=GPa)
#
#
# Indices 1 2 3 4 5 6 
#
# 1 124.8997 47.7337 38.0795 0.0000 -23.6916 0.0000
# 2 47.7337 70.3906 37.1828 0.0000 -18.7900 0.0000
# 3 38.0795 37.1828 49.7023 0.0000 -24.0417 0.0000
# 4 0.0000 0.0000 0.0000 28.4949 0.0000 -9.8249
# 5 -23.6916 -18.7900 -24.0417 0.0000 23.3812 0.0000
# 6 0.0000 0.0000 0.0000 -9.8249 0.0000 19.5340
#
#
#
# Elastic Compliance Matrix: (Units=1/GPa)
#
#
# Indices 1 2 3 4 5 6 
#
# 1 0.011769 -0.005227 -0.002725 0.000000 0.004922 0.000000
# 2 -0.005227 0.025841 -0.015606 0.000000 -0.000577 0.000000
# 3 -0.002725 -0.015606 0.052685 0.000000 0.038870 0.000000
# 4 0.000000 0.000000 0.000000 0.042457 0.000000 0.021354
# 5 0.004922 -0.000577 0.038870 0.000000 0.087262 0.000000
# 6 0.000000 0.000000 0.000000 0.021354 0.000000 0.061933
#
#
# Mechanical properties :
#
#
# Convention : Reuss Voigt Hill
#
# Bulk Modulus (GPa) = 23.16020 54.55385 38.85703
# Shear Modulus (GPa) = 14.55793 22.41511 18.48652
#
# Velocity S-wave (km/s) = 2.90494 3.60461 3.27352
# Velocity P-wave (km/s) = 4.96756 6.99622 6.06728
#
# Compressibility (1/GPa) = 0.04317752
#
# Stress axis : x y z
#
# Youngs Moduli (GPa) = 84.97174 38.69844 18.98076
#
# Poissons Ratio (x) = 0.20228 0.05173
# Poissons Ratio (y) = 0.44416 0.29621
# Poissons Ratio (z) = 0.23157 0.60393
#
# Static dielectric constant tensor:
#      x y z
#    x 3.458030 0.000000 -0.197620 
#    y 0.000000 3.194240 0.000000 
#    z -0.197620 0.000000 2.980530 
# 
# 
# High freq. dielectric constant tensor:
#      x y z
#    x 1.667010 0.000000 -0.021120 
#    y 0.000000 1.651400 0.000000 
#    z -0.021120 0.000000 1.637150 
# 
# From -- ./inp_files/287890.got.cif
#   From: 2010.06.25/outbox.cif.g09.slc.cpg/sg12_144_cif.got.tgz:287890.got - 2010.06.28 00:19:55.
