data_PCOD8084687
_publ_section_title
;
Structure prediction by ZEFSAII (Michael W. Deem and Ramdas Pophale) SiO2 
 PCOD8084687
Probable space group: C 2/M
;
_chemical_formula_sum "Si O2"
_cell_formula_units_Z 48
_cell_length_a 23.178437
_cell_length_b 9.133829
_cell_length_c 16.197261
_cell_angle_alpha 90.000000
_cell_angle_beta 122.811832
_cell_angle_gamma 90.000000
_cell_volume 2881.993013
_symmetry_space_group_name_H-M "C 2/M"
_symmetry_group_IT_number 12
_symmetry_cell_setting 'monoclinic'
loop_
_space_group_symop_operation_xyz
x,y,z
-x,y,-z
-x,-y,-z
x,-y,z
1/2+x,1/2+y,z
1/2-x,1/2+y,-z
1/2-x,1/2-y,-z
1/2+x,1/2-y,z
loop_
_atom_site_type_symbol
_atom_site_label
_atom_site_fract_x
_atom_site_fract_y
_atom_site_fract_z
Si Si1 0.382768 0.828558 0.287345
Si Si2 0.973458 0.826290 0.854701
Si Si3 0.577812 0.338043 0.530298
Si Si4 0.894190 0.173975 0.947765
Si Si5 0.485883 0.673579 0.681556
Si Si6 0.754212 0.172299 0.916117
O O1 0.379021 0.772651 0.379422
O O2 0.442396 0.750562 0.282576
O O3 0.311443 0.787984 0.189371
O O4 0.397338 0.000000 0.299862
O O5 0.913769 0.769270 0.870499
O O6 0.960095 0.770945 0.751128
O O7 0.974114 0.000000 0.857065
O O8 0.047699 0.769451 0.943452
O O9 0.500000 0.343871 0.500000
O O10 0.610966 0.500000 0.562359
O O11 0.573559 0.285128 0.431183
O O12 0.820445 0.234921 0.918500
O O13 0.892365 0.000000 0.946021
O O14 0.499823 0.500000 0.690339
O O15 0.760296 0.000000 0.936488
O O16 0.750000 0.250000 0.000000
#
# Coordination Sequence:
#
# PCOD8084687 Si02
#       6
#     8   8   8   8   8   8
#     4  10  19  28  40  62  90 117 141 167 208 258
#     4   8  13  23  43  66  83 103 136 178 216 245
#     4   8  15  27  42  61  84 110 142 178 213 247
#     4   8  14  25  41  63  87 108 135 173 213 248
#     4   9  16  27  45  67  86 107 141 181 216 248
#     4  10  20  31  44  64  89 115 142 171 206 252
#
# _framework density 16.655142000000001
#
# number of rings (size 3 to 8) (size 9 to 14) (size 15 to 20)
#    0.000    3.167    0.000    3.500    0.000    5.667 
#    0.000    0.000    0.000    2.000    0.000    4.667 
#    0.000    0.000    0.000    0.000    0.000    1.667 
#
# Total GULP energy -297403.611708 kJ/mol
# GULP energy per Si atom -12391.817155 kJ/mol
# Density = 1.661723 g / cm^3
# Si number density = 16.655142 Si / 1000 Ang^3
#
#
#
# Elastic Constant Matrix: (Units=GPa)
#
#
# Indices 1 2 3 4 5 6 
#
# 1 117.5974 28.4265 80.1660 0.0000 -16.3995 0.0000
# 2 28.4265 35.4994 41.6932 0.0000 -1.5279 0.0000
# 3 80.1660 41.6932 146.4291 0.0000 -26.4413 0.0000
# 4 0.0000 0.0000 0.0000 21.8293 0.0000 -1.2138
# 5 -16.3995 -1.5279 -26.4413 0.0000 31.9921 0.0000
# 6 0.0000 0.0000 0.0000 -1.2138 0.0000 12.9687
#
#
#
# Elastic Compliance Matrix: (Units=1/GPa)
#
#
# Indices 1 2 3 4 5 6 
#
# 1 0.013899 -0.003754 -0.006214 0.000000 0.001810 0.000000
# 2 -0.003754 0.045847 -0.012872 0.000000 -0.010374 0.000000
# 3 -0.006214 -0.012872 0.015527 0.000000 0.009033 0.000000
# 4 0.000000 0.000000 0.000000 0.046050 0.000000 0.004310
# 5 0.001810 -0.010374 0.009033 0.000000 0.039156 0.000000
# 6 0.000000 0.000000 0.000000 0.004310 0.000000 0.077512
#
#
# Mechanical properties :
#
#
# Convention : Reuss Voigt Hill
#
# Bulk Modulus (GPa) = 33.79077 66.67747 50.23412
# Shear Modulus (GPa) = 17.03363 23.30738 20.17050
#
# Velocity S-wave (km/s) = 3.20148 3.74493 3.48381
# Velocity P-wave (km/s) = 5.83082 7.66945 6.81245
#
# Compressibility (1/GPa) = 0.02959388
#
# Stress axis : x y z
#
# Youngs Moduli (GPa) = 71.94538 21.81152 64.40240
#
# Poissons Ratio (x) = 0.08189 0.40018
# Poissons Ratio (y) = 0.27011 0.82899
# Poissons Ratio (z) = 0.44705 0.28076
#
# Static dielectric constant tensor:
#      x y z
#    x 3.332440 0.000000 -0.391360 
#    y 0.000000 2.831310 0.000000 
#    z -0.391360 0.000000 3.641750 
# 
# 
# High freq. dielectric constant tensor:
#      x y z
#    x 1.621080 0.000000 -0.020790 
#    y 0.000000 1.607410 0.000000 
#    z -0.020790 0.000000 1.647770 
# 
# From -- ./inp_files/287952.got.cif
#   From: 2010.06.25/outbox.cif.g09.slc.cpg/sg12_144_cif.got.tgz:287952.got - 2010.06.28 00:19:55.
