data_PCOD8084763
_publ_section_title
;
Structure prediction by ZEFSAII (Michael W. Deem and Ramdas Pophale) SiO2 
 PCOD8084763
Probable space group: C 2/M
;
_chemical_formula_sum "Si O2"
_cell_formula_units_Z 64
_cell_length_a 24.917878
_cell_length_b 9.194698
_cell_length_c 22.899265
_cell_angle_alpha 90.000000
_cell_angle_beta 49.993513
_cell_angle_gamma 90.000000
_cell_volume 4018.673937
_symmetry_space_group_name_H-M "C 2/M"
_symmetry_group_IT_number 12
_symmetry_cell_setting 'monoclinic'
loop_
_space_group_symop_operation_xyz
x,y,z
-x,y,-z
-x,-y,-z
x,-y,z
1/2+x,1/2+y,z
1/2-x,1/2+y,-z
1/2-x,1/2-y,-z
1/2+x,1/2-y,z
loop_
_atom_site_type_symbol
_atom_site_label
_atom_site_fract_x
_atom_site_fract_y
_atom_site_fract_z
Si Si1 0.198015 0.830158 0.903983
Si Si2 0.089577 0.329168 0.063653
Si Si3 0.311501 0.829447 0.490680
Si Si4 0.694184 0.331280 0.773891
Si Si5 0.739036 0.664418 0.371950
Si Si6 0.610464 0.160895 0.673066
Si Si7 0.452204 0.331946 0.185126
Si Si8 0.698151 0.834707 0.076134
O O1 0.198792 0.776457 0.837021
O O2 0.277747 0.804405 0.873745
O O3 0.176860 0.000000 0.922566
O O4 0.140978 0.737631 0.979176
O O5 0.081301 0.500000 0.057154
O O6 0.119182 0.297489 0.109447
O O7 0.014566 0.254138 0.110497
O O8 0.250000 0.750000 0.500000
O O9 0.318378 0.754209 0.549584
O O10 0.382048 0.808357 0.401984
O O11 0.293651 0.000000 0.510477
O O12 0.713840 0.500000 0.754018
O O13 0.751299 0.240411 0.697511
O O14 0.615883 0.301838 0.806153
O O15 0.712058 0.500000 0.381981
O O16 0.812365 0.668185 0.354019
O O17 0.560183 0.276229 0.739862
O O18 0.578561 0.000000 0.705594
O O19 0.472146 0.500000 0.174440
O O20 0.712427 0.000000 0.050411
O O21 0.750000 0.750000 0.000000
#
# Coordination Sequence:
#
# PCOD8084763 Si02
#       8
#     8   8   8   8   8   8   8   8
#     4   9  17  31  48  63  80 104 137 175 211 247
#     4  10  19  30  44  62  83 107 136 171 210 249
#     4   9  15  23  37  56  78 105 138 172 206 243
#     4   9  18  30  43  59  82 112 142 172 205 242
#     4   9  16  25  38  56  80 109 139 170 203 241
#     4   8  15  26  38  54  77 106 137 170 204 236
#     4  10  19  29  41  58  82 113 143 169 200 241
#     4   8  15  28  46  64  79  98 128 169 214 251
#
# _framework density 15.925651999999999
#
# number of rings (size 3 to 8) (size 9 to 14) (size 15 to 20)
#    0.000    3.000    0.000    2.250    0.000    5.500 
#    0.000    2.500    0.000    0.000    0.000    0.000 
#    0.000    1.000    0.000   11.500    0.000    6.250 
#
# Total GULP energy -396418.347024 kJ/mol
# GULP energy per Si atom -12388.073344 kJ/mol
# Density = 1.588940 g / cm^3
# Si number density = 15.925652 Si / 1000 Ang^3
#
#
#
# Elastic Constant Matrix: (Units=GPa)
#
#
# Indices 1 2 3 4 5 6 
#
# 1 41.0585 26.8116 35.7607 0.0014 16.9972 0.0026
# 2 26.8116 86.3760 50.2488 0.0001 15.4163 0.0057
# 3 35.7607 50.2488 103.1444 -0.0013 28.0770 -0.0037
# 4 0.0014 0.0001 -0.0013 30.2864 0.0003 0.2128
# 5 16.9972 15.4163 28.0770 0.0003 11.0410 0.0008
# 6 0.0026 0.0057 -0.0037 0.2128 0.0008 13.3117
#
#
#
# Elastic Compliance Matrix: (Units=1/GPa)
#
#
# Indices 1 2 3 4 5 6 
#
# 1 0.079306 -0.007378 0.021211 -0.000001 -0.165728 0.000004
# 2 -0.007378 0.017078 -0.007676 0.000000 0.007033 -0.000009
# 3 0.021211 -0.007676 0.039159 0.000002 -0.121515 0.000018
# 4 -0.000001 0.000000 0.000002 0.033022 -0.000003 -0.000528
# 5 -0.165728 0.007033 -0.121515 -0.000003 0.644896 -0.000045
# 6 0.000004 -0.000009 0.000018 -0.000528 -0.000045 0.075130
#
#
# Mechanical properties :
#
#
# Convention : Reuss Voigt Hill
#
# Bulk Modulus (GPa) = 6.76331 50.69121 28.72726
# Shear Modulus (GPa) = 5.40213 18.77834 12.09023
#
# Velocity S-wave (km/s) = 1.84376 3.43756 2.75829
# Velocity P-wave (km/s) = 2.96456 6.90325 5.31241
#
# Compressibility (1/GPa) = 0.14785667
#
# Stress axis : x y z
#
# Youngs Moduli (GPa) = 12.60940 58.55559 25.53716
#
# Poissons Ratio (x) = 0.43200 -0.54167
# Poissons Ratio (y) = 0.09303 0.19603
# Poissons Ratio (z) = -0.26746 0.44950
#
# Static dielectric constant tensor:
#      x y z
#    x 3.023610 -0.000010 0.243170 
#    y -0.000010 3.153990 0.000000 
#    z 0.243170 0.000000 3.231260 
# 
# 
# High freq. dielectric constant tensor:
#      x y z
#    x 1.561040 0.000000 0.014850 
#    y 0.000000 1.625610 0.000000 
#    z 0.014850 0.000000 1.605380 
# 
# From -- ./inp_files/323691.got.cif
#   From: 2010.06.25/outbox.cif.g09.slc.cpg/sg12_162_cif.got.tgz:323691.got - 2010.06.28 00:19:55.
