data_PCOD8084382
_publ_section_title
;
Structure prediction by ZEFSAII (Michael W. Deem and Ramdas Pophale) SiO2 
 PCOD8084382
Probable space group: C 2/M
;
_chemical_formula_sum "Si O2"
_cell_formula_units_Z 64
_cell_length_a 19.342714
_cell_length_b 8.931674
_cell_length_c 31.212888
_cell_angle_alpha 90.000000
_cell_angle_beta 38.049570
_cell_angle_gamma 90.000000
_cell_volume 3323.584275
_symmetry_space_group_name_H-M "C 2/M"
_symmetry_group_IT_number 12
_symmetry_cell_setting 'monoclinic'
loop_
_space_group_symop_operation_xyz
x,y,z
-x,y,-z
-x,-y,-z
x,-y,z
1/2+x,1/2+y,z
1/2-x,1/2+y,-z
1/2-x,1/2-y,-z
1/2+x,1/2-y,z
loop_
_atom_site_type_symbol
_atom_site_label
_atom_site_fract_x
_atom_site_fract_y
_atom_site_fract_z
Si Si1 0.258689 0.675564 0.708517
Si Si2 0.873988 0.178204 0.061330
Si Si3 0.022910 0.677897 0.788220
Si Si4 0.515095 0.833605 0.699225
Si Si5 0.783846 0.321581 0.938736
Si Si6 0.628878 0.178737 0.559403
Si Si7 0.536272 0.176940 0.435029
Si Si8 0.731771 0.832785 0.208798
O O1 0.273088 0.500000 0.695828
O O2 0.130789 0.727276 0.762737
O O3 0.343148 0.752750 0.634143
O O4 0.285985 0.721893 0.743324
O O5 0.803325 0.236632 0.054988
O O6 0.822251 0.233850 0.131553
O O7 0.872190 0.000000 0.061381
O O8 0.000000 0.242548 0.000000
O O9 0.012384 0.500000 0.788787
O O10 0.041395 0.748018 0.731509
O O11 0.908891 0.737135 0.865871
O O12 0.568742 0.754807 0.631375
O O13 0.382106 0.841625 0.761798
O O14 0.566876 0.000000 0.674977
O O15 0.780377 0.500000 0.944596
O O16 0.750000 0.250000 0.000000
O O17 0.750000 0.250000 0.500000
O O18 0.557194 0.232725 0.553295
O O19 0.636462 0.000000 0.555608
O O20 0.500000 0.229730 0.500000
O O21 0.550484 0.000000 0.425458
O O22 0.764501 0.000000 0.209220
#
# Coordination Sequence:
#
# PCOD8084382 Si02
#       8
#     8   8   8   8   8   8   8   8
#     4  11  23  36  55  83 113 144 182 226 275 331
#     4   9  18  32  55  85 108 138 188 234 268 317
#     4   9  19  35  54  78 109 146 183 221 271 330
#     4   9  16  33  58  77  98 139 188 223 260 316
#     4  10  20  36  56  79 112 147 182 226 276 329
#     4  10  21  36  57  83 109 140 179 221 269 323
#     4  10  22  41  60  80 112 149 184 224 274 328
#     4  10  18  35  61  80 105 143 185 232 276 319
#
# _framework density 19.256319000000001
#
# number of rings (size 3 to 8) (size 9 to 14) (size 15 to 20)
#    0.000    2.250    2.500    0.375    3.500    0.750 
#    0.000    1.250    0.000    3.000    0.000    0.000 
#    0.000    0.000    0.000    0.000    0.000    0.000 
#
# Total GULP energy -396694.818544 kJ/mol
# GULP energy per Si atom -12396.713080 kJ/mol
# Density = 1.921249 g / cm^3
# Si number density = 19.256319 Si / 1000 Ang^3
#
#
#
# Elastic Constant Matrix: (Units=GPa)
#
#
# Indices 1 2 3 4 5 6 
#
# 1 96.1934 20.8075 52.1669 0.0038 2.4679 0.0030
# 2 20.8075 19.7616 24.1127 0.0065 0.2136 0.0048
# 3 52.1669 24.1127 158.1074 0.0005 4.7772 -0.0008
# 4 0.0038 0.0065 0.0005 26.2644 -0.0006 -1.0429
# 5 2.4679 0.2136 4.7772 -0.0006 42.0190 -0.0005
# 6 0.0030 0.0048 -0.0008 -1.0429 -0.0005 14.8531
#
#
#
# Elastic Compliance Matrix: (Units=1/GPa)
#
#
# Indices 1 2 3 4 5 6 
#
# 1 0.014562 -0.011650 -0.003014 0.000001 -0.000453 0.000001
# 2 -0.011650 0.071517 -0.007097 -0.000017 0.001128 -0.000022
# 3 -0.003014 -0.007097 0.008424 0.000002 -0.000745 0.000003
# 4 0.000001 -0.000017 0.000002 0.038181 0.000000 0.002681
# 5 -0.000453 0.001128 -0.000745 0.000000 0.023904 0.000000
# 6 0.000001 -0.000022 0.000003 0.002681 0.000000 0.067514
#
#
# Mechanical properties :
#
#
# Convention : Reuss Voigt Hill
#
# Bulk Modulus (GPa) = 19.61523 52.02628 35.82076
# Shear Modulus (GPa) = 17.56734 28.42565 22.99650
#
# Velocity S-wave (km/s) = 3.02369 3.84627 3.45951
# Velocity P-wave (km/s) = 4.73273 6.84116 5.88219
#
# Compressibility (1/GPa) = 0.05098078
#
# Stress axis : x y z
#
# Youngs Moduli (GPa) = 68.67194 13.98265 118.70492
#
# Poissons Ratio (x) = 0.16290 0.35781
# Poissons Ratio (y) = 0.80002 0.84248
# Poissons Ratio (z) = 0.20700 0.09924
#
# Static dielectric constant tensor:
#      x y z
#    x 3.651250 -0.000010 0.032290 
#    y -0.000010 3.040960 0.000000 
#    z 0.032290 0.000000 3.769710 
# 
# 
# High freq. dielectric constant tensor:
#      x y z
#    x 1.758750 0.000000 0.003920 
#    y 0.000000 1.697270 0.000000 
#    z 0.003920 0.000000 1.767290 
# 
# From -- ./inp_files/378145.got.cif
#   From: 2010.06.25/outbox.cif.g09.slc.cpg/sg12_190_cif.got.tgz:378145.got - 2010.06.28 00:19:55.
