data_PCOD8084512
_publ_section_title
;
Structure prediction by ZEFSAII (Michael W. Deem and Ramdas Pophale) SiO2 
 PCOD8084512
Probable space group: C 2/M
;
_chemical_formula_sum "Si O2"
_cell_formula_units_Z 56
_cell_length_a 20.014367
_cell_length_b 8.868519
_cell_length_c 21.997157
_cell_angle_alpha 90.000000
_cell_angle_beta 131.480161
_cell_angle_gamma 90.000000
_cell_volume 2925.153445
_symmetry_space_group_name_H-M "C 2/M"
_symmetry_group_IT_number 12
_symmetry_cell_setting 'monoclinic'
loop_
_space_group_symop_operation_xyz
x,y,z
-x,y,-z
-x,-y,-z
x,-y,z
1/2+x,1/2+y,z
1/2-x,1/2+y,-z
1/2-x,1/2-y,-z
1/2+x,1/2-y,z
loop_
_atom_site_type_symbol
_atom_site_label
_atom_site_fract_x
_atom_site_fract_y
_atom_site_fract_z
Si Si1 0.326229 0.176215 0.737204
Si Si2 0.915609 0.323087 0.241141
Si Si3 0.638256 0.678200 0.581206
Si Si4 0.933833 0.673237 0.012654
Si Si5 0.000127 0.821515 0.401915
Si Si6 0.263704 0.828716 0.833173
Si Si7 0.988962 0.822559 0.168267
O O1 0.239473 0.236856 0.648124
O O2 0.314738 0.209688 0.801641
O O3 0.409997 0.267097 0.762714
O O4 0.342753 0.000000 0.735337
O O5 0.925704 0.500000 0.240457
O O6 0.818126 0.283362 0.207612
O O7 0.927249 0.248070 0.182816
O O8 0.991856 0.262644 0.332815
O O9 0.636992 0.500000 0.585661
O O10 0.579876 0.736452 0.602873
O O11 0.593731 0.726584 0.490293
O O12 0.956699 0.500000 0.043082
O O13 0.947270 0.776074 0.079055
O O14 0.832193 0.691088 0.929818
O O15 0.000000 0.730175 0.000000
O O16 0.996016 0.000000 0.388498
O O17 0.226835 0.000000 0.807959
O O18 0.986242 0.000000 0.173042
#
# Coordination Sequence:
#
# PCOD8084512 Si02
#       7
#     8   8   8   8   8   8   8
#     4  10  18  36  62  90 118 152 194 236 288 348
#     4  12  25  40  58  84 120 159 197 241 293 346
#     4   8  15  29  59  91 116 149 191 236 284 344
#     4  10  20  39  64  90 117 151 191 236 290 346
#     4   9  16  33  58  87 118 152 193 235 286 344
#     4  10  20  37  65  90 116 152 192 237 287 347
#     4  12  26  41  59  84 118 158 197 242 292 345
#
# _framework density 19.144296000000001
#
# number of rings (size 3 to 8) (size 9 to 14) (size 15 to 20)
#    0.000    1.857    2.857    3.429    0.000    2.000 
#    0.000    2.857    0.000    0.000    0.000    0.000 
#    0.000    0.000    0.000    0.000    0.000    0.000 
#
# Total GULP energy -347240.163746 kJ/mol
# GULP energy per Si atom -12401.434420 kJ/mol
# Density = 1.910072 g / cm^3
# Si number density = 19.144296 Si / 1000 Ang^3
#
#
#
# Elastic Constant Matrix: (Units=GPa)
#
#
# Indices 1 2 3 4 5 6 
#
# 1 47.5759 29.9772 20.5523 0.0000 -4.1519 0.0000
# 2 29.9772 97.3549 36.0131 0.0000 -6.4929 0.0000
# 3 20.5523 36.0131 105.1824 0.0000 3.1897 0.0000
# 4 0.0000 0.0000 0.0000 26.5247 0.0000 -1.9966
# 5 -4.1519 -6.4929 3.1897 0.0000 30.3115 0.0000
# 6 0.0000 0.0000 0.0000 -1.9966 0.0000 28.1761
#
#
#
# Elastic Compliance Matrix: (Units=1/GPa)
#
#
# Indices 1 2 3 4 5 6 
#
# 1 0.026941 -0.007047 -0.002927 0.000000 0.002489 0.000000
# 2 -0.007047 0.013874 -0.003445 0.000000 0.002369 0.000000
# 3 -0.002927 -0.003445 0.011329 0.000000 -0.002331 0.000000
# 4 0.000000 0.000000 0.000000 0.037903 0.000000 0.002686
# 5 0.002489 0.002369 -0.002331 0.000000 0.034084 0.000000
# 6 0.000000 0.000000 0.000000 0.002686 0.000000 0.035681
#
#
# Mechanical properties :
#
#
# Convention : Reuss Voigt Hill
#
# Bulk Modulus (GPa) = 39.51562 47.02203 43.26882
# Shear Modulus (GPa) = 25.62970 27.90718 26.76844
#
# Velocity S-wave (km/s) = 3.66288 3.82216 3.74337
# Velocity P-wave (km/s) = 6.21085 6.64032 6.42917
#
# Compressibility (1/GPa) = 0.02530645
#
# Stress axis : x y z
#
# Youngs Moduli (GPa) = 37.11843 72.07736 88.26541
#
# Poissons Ratio (x) = 0.50792 0.25834
# Poissons Ratio (y) = 0.26157 0.30409
# Poissons Ratio (z) = 0.10864 0.24832
#
# Static dielectric constant tensor:
#      x y z
#    x 3.359400 0.000000 0.130480 
#    y 0.000000 3.211280 0.000000 
#    z 0.130480 0.000000 3.869260 
# 
# 
# High freq. dielectric constant tensor:
#      x y z
#    x 1.727290 0.000000 0.007160 
#    y 0.000000 1.718710 0.000000 
#    z 0.007160 0.000000 1.762910 
# 
# From -- ./inp_files/320221.got.cif
#   From: 2010.06.25/outbox.cif.g09.slc.cpg/sg12_161_cif.got.tgz:320221.got - 2010.06.28 00:19:55.
