data_PCOD8084325
_publ_section_title
;
Structure prediction by ZEFSAII (Michael W. Deem and Ramdas Pophale) SiO2 
 PCOD8084325
Probable space group: C 2/M
;
_chemical_formula_sum "Si O2"
_cell_formula_units_Z 64
_cell_length_a 23.490778
_cell_length_b 15.302838
_cell_length_c 14.090394
_cell_angle_alpha 90.000000
_cell_angle_beta 138.241995
_cell_angle_gamma 90.000000
_cell_volume 3373.320061
_symmetry_space_group_name_H-M "C 2/M"
_symmetry_group_IT_number 12
_symmetry_cell_setting 'monoclinic'
loop_
_space_group_symop_operation_xyz
x,y,z
-x,y,-z
-x,-y,-z
x,-y,z
1/2+x,1/2+y,z
1/2-x,1/2+y,-z
1/2-x,1/2-y,-z
1/2+x,1/2-y,z
loop_
_atom_site_type_symbol
_atom_site_label
_atom_site_fract_x
_atom_site_fract_y
_atom_site_fract_z
Si Si1 0.081026 0.313898 0.663808
Si Si2 0.780679 0.600733 0.287332
Si Si3 0.008378 0.718526 0.768917
Si Si4 0.310651 0.754016 0.483187
Si Si5 0.434393 0.094448 0.999589
Si Si6 0.163768 0.822735 0.994273
Si Si7 0.288506 0.334120 0.145318
Si Si8 0.747384 0.902353 0.282292
O O1 0.141956 0.387405 0.692344
O O2 0.130433 0.223594 0.727144
O O3 0.000000 0.297612 0.500000
O O4 0.047175 0.334856 0.727297
O O5 0.778673 0.500000 0.318277
O O6 0.789502 0.662016 0.390909
O O7 0.691632 0.624592 0.122899
O O8 0.909423 0.742612 0.635236
O O9 0.017529 0.655102 0.867786
O O10 0.061505 0.808006 0.858564
O O11 0.250000 0.750000 0.500000
O O12 0.299946 0.664478 0.411968
O O13 0.410013 0.000000 0.015662
O O14 0.500000 0.076576 0.000000
O O15 0.349046 0.134795 0.846217
O O16 0.202773 0.724651 0.041402
O O17 0.199335 0.874191 0.945096
O O18 0.283871 0.407822 0.219999
O O19 0.752030 0.000000 0.332292
#
# Coordination Sequence:
#
# PCOD8084325 Si02
#       8
#     8   8   8   8   8   8   8   8
#     4  10  18  35  58  87 124 156 187 239 298 365
#     4  11  23  39  61  91 128 161 193 241 306 373
#     4  11  20  36  63  86 115 160 200 248 291 358
#     4  12  25  42  61  84 119 162 206 251 300 349
#     4  10  21  35  53  82 117 149 192 246 292 346
#     4   9  18  34  59  85 117 150 193 231 289 354
#     4   9  16  32  57  85 115 151 189 234 285 350
#     4  11  21  38  61  83 113 153 200 242 292 350
#
# _framework density 18.972405999999999
#
# number of rings (size 3 to 8) (size 9 to 14) (size 15 to 20)
#    0.000    1.625    5.000    1.500    0.000    2.250 
#    0.000    0.625    0.000    7.875    0.000    0.000 
#    0.000    0.000    0.000    0.000    0.000    0.000 
#
# Total GULP energy -396525.610510 kJ/mol
# GULP energy per Si atom -12391.425328 kJ/mol
# Density = 1.892922 g / cm^3
# Si number density = 18.972406 Si / 1000 Ang^3
#
#
#
# Elastic Constant Matrix: (Units=GPa)
#
#
# Indices 1 2 3 4 5 6 
#
# 1 104.8421 38.8477 41.2322 0.0000 -0.8337 0.0000
# 2 38.8477 87.5893 54.4894 0.0000 -0.4047 0.0000
# 3 41.2322 54.4894 129.5393 0.0000 9.2898 0.0000
# 4 0.0000 0.0000 0.0000 16.1618 0.0000 1.9839
# 5 -0.8337 -0.4047 9.2898 0.0000 24.5585 0.0000
# 6 0.0000 0.0000 0.0000 1.9839 0.0000 12.7748
#
#
#
# Elastic Compliance Matrix: (Units=1/GPa)
#
#
# Indices 1 2 3 4 5 6 
#
# 1 0.011858 -0.003864 -0.002234 0.000000 0.001184 0.000000
# 2 -0.003864 0.016911 -0.006058 0.000000 0.002439 0.000000
# 3 -0.002234 -0.006058 0.011298 0.000000 -0.004449 0.000000
# 4 0.000000 0.000000 0.000000 0.063077 0.000000 -0.009796
# 5 0.001184 0.002439 -0.004449 0.000000 0.042483 0.000000
# 6 0.000000 0.000000 0.000000 -0.009796 0.000000 0.079800
#
#
# Mechanical properties :
#
#
# Convention : Reuss Voigt Hill
#
# Bulk Modulus (GPa) = 63.47463 65.67880 64.57672
# Shear Modulus (GPa) = 19.60854 23.19245 21.40049
#
# Velocity S-wave (km/s) = 3.21834 3.50012 3.36218
# Velocity P-wave (km/s) = 6.88035 7.14337 7.01309
#
# Compressibility (1/GPa) = 0.01575433
#
# Stress axis : x y z
#
# Youngs Moduli (GPa) = 84.33210 59.13341 88.50964
#
# Poissons Ratio (x) = 0.22849 0.19772
# Poissons Ratio (y) = 0.32586 0.53623
# Poissons Ratio (z) = 0.18839 0.35825
#
# Static dielectric constant tensor:
#      x y z
#    x 3.704540 0.000000 -0.021180 
#    y 0.000000 3.177930 0.000000 
#    z -0.021180 0.000000 3.679620 
# 
# 
# High freq. dielectric constant tensor:
#      x y z
#    x 1.734520 0.000000 -0.003040 
#    y 0.000000 1.701740 0.000000 
#    z -0.003040 0.000000 1.752830 
# 
# From -- ./inp_files/240719.got.cif
#   From: 2010.06.25/outbox.cif.g09.slc.cpg/sg12_121_cif.got.tgz:240719.got - 2010.06.28 00:19:55.
