data_PCOD8084930
_publ_section_title
;
Structure prediction by ZEFSAII (Michael W. Deem and Ramdas Pophale) SiO2 
 PCOD8084930
Probable space group: C 2/M
;
_chemical_formula_sum "Si O2"
_cell_formula_units_Z 64
_cell_length_a 28.070679
_cell_length_b 9.419066
_cell_length_c 20.749019
_cell_angle_alpha 90.000000
_cell_angle_beta 131.767429
_cell_angle_gamma 90.000000
_cell_volume 4091.783115
_symmetry_space_group_name_H-M "C 2/M"
_symmetry_group_IT_number 12
_symmetry_cell_setting 'monoclinic'
loop_
_space_group_symop_operation_xyz
x,y,z
-x,y,-z
-x,-y,-z
x,-y,z
1/2+x,1/2+y,z
1/2-x,1/2+y,-z
1/2-x,1/2-y,-z
1/2+x,1/2-y,z
loop_
_atom_site_type_symbol
_atom_site_label
_atom_site_fract_x
_atom_site_fract_y
_atom_site_fract_z
Si Si1 0.995186 0.164980 0.099311
Si Si2 0.897198 0.834919 0.901427
Si Si3 0.699199 0.166444 0.995730
Si Si4 0.443040 0.163625 0.164519
Si Si5 0.447622 0.656193 0.508287
Si Si6 0.861788 0.833423 0.319758
Si Si7 0.035542 0.334555 0.667813
Si Si8 0.281328 0.165660 0.838899
O O1 0.990799 0.250901 0.161549
O O2 0.063605 0.196422 0.128496
O O3 0.988017 0.000000 0.108622
O O4 0.939146 0.213985 0.000461
O O5 0.831876 0.747318 0.839968
O O6 0.880664 0.000000 0.892099
O O7 0.629410 0.216456 0.910086
O O8 0.709842 0.000000 0.993859
O O9 0.750000 0.250000 0.000000
O O10 0.708804 0.209180 0.078334
O O11 0.465051 0.190999 0.256823
O O12 0.448035 0.000000 0.149426
O O13 0.500000 0.649731 0.500000
O O14 0.441040 0.500000 0.534717
O O15 0.382142 0.699358 0.412377
O O16 0.468766 0.770847 0.580575
O O17 0.903504 0.744052 0.307033
O O18 0.788828 0.786665 0.246457
O O19 0.871695 0.000000 0.312622
O O20 0.039416 0.500000 0.653359
O O21 0.292407 0.000000 0.838135
#
# Coordination Sequence:
#
# PCOD8084930 Si02
#       8
#     8   8   8   8   8   8   8   8
#     4   9  18  32  49  67  88 117 152 188 226 270
#     4   9  18  32  48  68  91 114 148 192 230 265
#     4  10  20  31  42  60  89 123 155 182 211 255
#     4  10  20  32  44  65  94 120 151 189 224 262
#     4   8  15  29  46  63  87 118 151 189 228 265
#     4   9  18  31  46  66  92 121 155 190 221 264
#     4  10  19  29  44  67  94 121 152 190 227 265
#     4  10  19  31  47  67  90 120 155 185 220 269
#
# _framework density 15.641102999999999
#
# number of rings (size 3 to 8) (size 9 to 14) (size 15 to 20)
#    0.000    2.625    1.250    2.625    0.000    5.250 
#    0.000    1.250    0.000    0.000    0.000    0.875 
#    0.000    0.000    0.000    0.000    0.000    0.000 
#
# Total GULP energy -396775.552075 kJ/mol
# GULP energy per Si atom -12399.236002 kJ/mol
# Density = 1.560550 g / cm^3
# Si number density = 15.641103 Si / 1000 Ang^3
#
#
#
# Elastic Constant Matrix: (Units=GPa)
#
#
# Indices 1 2 3 4 5 6 
#
# 1 88.5613 53.2256 41.6344 0.0000 -3.1173 0.0000
# 2 53.2256 68.6924 44.2224 0.0000 -3.7618 0.0000
# 3 41.6344 44.2224 98.1571 0.0000 -2.4903 0.0000
# 4 0.0000 0.0000 0.0000 25.0434 0.0000 -0.2755
# 5 -3.1173 -3.7618 -2.4903 0.0000 11.4241 0.0000
# 6 0.0000 0.0000 0.0000 -0.2755 0.0000 31.2113
#
#
#
# Elastic Compliance Matrix: (Units=1/GPa)
#
#
# Indices 1 2 3 4 5 6 
#
# 1 0.021488 -0.015167 -0.002272 0.000000 0.000374 0.000000
# 2 -0.015167 0.031471 -0.007630 0.000000 0.004561 0.000000
# 3 -0.002272 -0.007630 0.014590 0.000000 0.000048 0.000000
# 4 0.000000 0.000000 0.000000 0.039935 0.000000 0.000352
# 5 0.000374 0.004561 0.000048 0.000000 0.089149 0.000000
# 6 0.000000 0.000000 0.000000 0.000352 0.000000 0.032043
#
#
# Mechanical properties :
#
#
# Convention : Reuss Voigt Hill
#
# Bulk Modulus (GPa) = 57.43009 59.28617 58.35813
# Shear Modulus (GPa) = 17.56751 21.29099 19.42925
#
# Velocity S-wave (km/s) = 3.35500 3.69347 3.52830
# Velocity P-wave (km/s) = 7.19758 7.49502 7.34781
#
# Compressibility (1/GPa) = 0.01741247
#
# Stress axis : x y z
#
# Youngs Moduli (GPa) = 46.53726 31.77518 68.54017
#
# Poissons Ratio (x) = 0.48193 0.15572
# Poissons Ratio (y) = 0.70582 0.52294
# Poissons Ratio (z) = 0.10573 0.24243
#
# Static dielectric constant tensor:
#      x y z
#    x 2.763680 0.000000 0.078770 
#    y 0.000000 2.975480 0.000000 
#    z 0.078770 0.000000 3.210750 
# 
# 
# High freq. dielectric constant tensor:
#      x y z
#    x 1.575850 0.000000 0.002890 
#    y 0.000000 1.602780 0.000000 
#    z 0.002890 0.000000 1.594570 
# 
# From -- ./inp_files/326937.got.cif
#   From: 2010.06.25/outbox.cif.g09.slc.cpg/sg12_164_cif.got.tgz:326937.got - 2010.06.28 00:19:55.
