data_PCOD8084537
_publ_section_title
;
Structure prediction by ZEFSAII (Michael W. Deem and Ramdas Pophale) SiO2 
 PCOD8084537
Probable space group: C 2/M
;
_chemical_formula_sum "Si O2"
_cell_formula_units_Z 44
_cell_length_a 18.624881
_cell_length_b 13.056942
_cell_length_c 10.894906
_cell_angle_alpha 90.000000
_cell_angle_beta 52.639077
_cell_angle_gamma 90.000000
_cell_volume 2105.872137
_symmetry_space_group_name_H-M "C 2/M"
_symmetry_group_IT_number 12
_symmetry_cell_setting 'monoclinic'
loop_
_space_group_symop_operation_xyz
x,y,z
-x,y,-z
-x,-y,-z
x,-y,z
1/2+x,1/2+y,z
1/2-x,1/2+y,-z
1/2-x,1/2-y,-z
1/2+x,1/2-y,z
loop_
_atom_site_type_symbol
_atom_site_label
_atom_site_fract_x
_atom_site_fract_y
_atom_site_fract_z
Si Si1 0.155114 0.290442 0.649617
Si Si2 0.931466 0.000000 0.459383
Si Si3 0.107072 0.500000 0.840965
Si Si4 0.167233 0.176048 0.079153
Si Si5 0.486575 0.716851 0.369627
Si Si6 0.719304 0.500000 0.204197
Si Si7 0.606446 0.388364 0.881108
O O1 0.250000 0.250000 0.500000
O O2 0.140267 0.400907 0.728935
O O3 0.088012 0.295158 0.602621
O O4 0.132736 0.206253 0.772445
O O5 0.952490 0.896890 0.361854
O O6 0.000000 0.000000 0.500000
O O7 0.827612 0.000000 0.612651
O O8 0.171584 0.500000 0.894961
O O9 0.000000 0.500000 0.000000
O O10 0.181963 0.097047 0.172629
O O11 0.078544 0.241847 0.203375
O O12 0.250000 0.250000 0.000000
O O13 0.156239 0.122249 0.960125
O O14 0.500000 0.730019 0.500000
O O15 0.636975 0.500000 0.796121
O O16 0.500000 0.386504 0.000000
#
# Coordination Sequence:
#
# PCOD8084537 Si02
#       7
#     8   4   4   8   8   4   8
#     4  12  28  47  73 100 146 191 242 294 355 442
#     4  10  18  36  69 101 133 162 223 295 350 400
#     4  12  30  52  72 102 150 206 246 279 364 456
#     4  12  24  39  66 101 141 179 231 289 350 424
#     4  11  23  41  67 104 136 175 234 292 355 412
#     4  12  22  44  69 100 133 181 237 287 342 422
#     4  11  24  43  70 104 139 177 229 304 371 410
#
# _framework density 20.893955999999999
#
# number of rings (size 3 to 8) (size 9 to 14) (size 15 to 20)
#    0.000    0.545    6.364    2.727    7.636    0.000 
#    0.000    0.455    0.000    0.000    0.000    0.000 
#    0.000    0.000    0.000    0.000    0.000    0.000 
#
# Total GULP energy -272592.279239 kJ/mol
# GULP energy per Si atom -12390.558147 kJ/mol
# Density = 2.084640 g / cm^3
# Si number density = 20.893956 Si / 1000 Ang^3
#
#
#
# Elastic Constant Matrix: (Units=GPa)
#
#
# Indices 1 2 3 4 5 6 
#
# 1 131.5630 40.4546 33.9148 0.0000 -13.9931 0.0000
# 2 40.4546 135.1209 56.3098 0.0000 -1.8342 0.0000
# 3 33.9148 56.3098 101.9742 0.0000 -19.0162 0.0000
# 4 0.0000 0.0000 0.0000 31.3936 0.0000 3.1198
# 5 -13.9931 -1.8342 -19.0162 0.0000 40.0545 0.0000
# 6 0.0000 0.0000 0.0000 3.1198 0.0000 48.8312
#
#
#
# Elastic Compliance Matrix: (Units=1/GPa)
#
#
# Indices 1 2 3 4 5 6 
#
# 1 0.008831 -0.002039 -0.001375 0.000000 0.002339 0.000000
# 2 -0.002039 0.010278 -0.005532 0.000000 -0.002868 0.000000
# 3 -0.001375 -0.005532 0.014462 0.000000 0.006132 0.000000
# 4 0.000000 0.000000 0.000000 0.032057 0.000000 -0.002048
# 5 0.002339 -0.002868 0.006132 0.000000 0.028563 0.000000
# 6 0.000000 0.000000 0.000000 -0.002048 0.000000 0.020610
#
#
# Mechanical properties :
#
#
# Convention : Reuss Voigt Hill
#
# Bulk Modulus (GPa) = 63.78070 70.00184 66.89127
# Shear Modulus (GPa) = 36.25311 39.92112 38.08712
#
# Velocity S-wave (km/s) = 4.16997 4.37584 4.27415
# Velocity P-wave (km/s) = 7.33329 7.68810 7.51279
#
# Compressibility (1/GPa) = 0.01567872
#
# Stress axis : x y z
#
# Youngs Moduli (GPa) = 113.23501 97.29727 69.14720
#
# Poissons Ratio (x) = 0.19842 0.09506
# Poissons Ratio (y) = 0.23093 0.38252
# Poissons Ratio (z) = 0.15567 0.53824
#
# Static dielectric constant tensor:
#      x y z
#    x 4.121240 0.000000 -0.039200 
#    y 0.000000 4.767780 0.000000 
#    z -0.039200 0.000000 3.952840 
# 
# 
# High freq. dielectric constant tensor:
#      x y z
#    x 1.838050 0.000000 -0.003160 
#    y 0.000000 1.814120 0.000000 
#    z -0.003160 0.000000 1.817480 
# 
# From -- ./inp_files/155846.got.cif
#   From: 2010.06.25/outbox.cif.g09.slc.cpg/sg12_78_cif.got.tgz:155846.got - 2010.06.28 00:19:55.
