data_PCOD8084105
_publ_section_title
;
Structure prediction by ZEFSAII (Michael W. Deem and Ramdas Pophale) SiO2 
 PCOD8084105
Probable space group: C 2/M
;
_chemical_formula_sum "Si O2"
_cell_formula_units_Z 56
_cell_length_a 25.429429
_cell_length_b 8.799094
_cell_length_c 14.737639
_cell_angle_alpha 90.000000
_cell_angle_beta 59.674914
_cell_angle_gamma 90.000000
_cell_volume 2846.433988
_symmetry_space_group_name_H-M "C 2/M"
_symmetry_group_IT_number 12
_symmetry_cell_setting 'monoclinic'
loop_
_space_group_symop_operation_xyz
x,y,z
-x,y,-z
-x,-y,-z
x,-y,z
1/2+x,1/2+y,z
1/2-x,1/2+y,-z
1/2-x,1/2-y,-z
1/2+x,1/2-y,z
loop_
_atom_site_type_symbol
_atom_site_label
_atom_site_fract_x
_atom_site_fract_y
_atom_site_fract_z
Si Si1 0.860515 0.178306 0.785268
Si Si2 0.979962 0.681077 0.920992
Si Si3 0.572609 0.820807 0.693386
Si Si4 0.292479 0.181426 0.386768
Si Si5 0.345981 0.819171 0.986396
Si Si6 0.256063 0.178236 0.219987
Si Si7 0.485914 0.179153 0.612156
O O1 0.830903 0.246599 0.902232
O O2 0.813914 0.216803 0.743775
O O3 0.925885 0.247597 0.706358
O O4 0.867724 0.000000 0.792069
O O5 0.981518 0.500000 0.919281
O O6 0.912732 0.738025 0.956567
O O7 0.027079 0.749338 0.807346
O O8 0.000000 0.747124 0.000000
O O9 0.640037 0.755351 0.649534
O O10 0.545536 0.777464 0.618704
O O11 0.575231 0.000000 0.703929
O O12 0.250000 0.250000 0.500000
O O13 0.272243 0.244608 0.305330
O O14 0.289039 0.000000 0.393597
O O15 0.341857 0.000000 0.980582
O O16 0.300031 0.755381 0.103100
O O17 0.267890 0.000000 0.213110
O O18 0.500000 0.242669 0.500000
O O19 0.474215 0.000000 0.622008
#
# Coordination Sequence:
#
# PCOD8084105 Si02
#       7
#     8   8   8   8   8   8   8
#     4  11  22  36  54  81 117 151 181 219 277 337
#     4   9  15  25  50  83 106 129 169 221 272 315
#     4   9  17  32  53  80 107 132 173 228 271 310
#     4  10  21  38  58  81 110 143 183 229 276 327
#     4  10  18  34  58  82 109 143 187 231 270 318
#     4   9  20  36  55  81 113 148 185 226 271 328
#     4  10  21  37  58  83 108 138 185 236 274 316
#
# _framework density 19.673739000000001
#
# number of rings (size 3 to 8) (size 9 to 14) (size 15 to 20)
#    0.000    2.286    1.429    1.714    2.000    3.714 
#    0.000    2.857    0.000    0.429    0.000    0.000 
#    0.000    0.000    0.000    0.000    0.000    0.000 
#
# Total GULP energy -347157.548133 kJ/mol
# GULP energy per Si atom -12398.483862 kJ/mol
# Density = 1.962896 g / cm^3
# Si number density = 19.673739 Si / 1000 Ang^3
#
#
#
# Elastic Constant Matrix: (Units=GPa)
#
#
# Indices 1 2 3 4 5 6 
#
# 1 150.2128 26.0693 62.0735 0.0000 11.0404 0.0000
# 2 26.0693 25.6029 21.9971 0.0000 2.7742 -0.0003
# 3 62.0735 21.9971 137.3659 0.0000 15.5954 0.0000
# 4 0.0000 0.0000 0.0000 23.9418 0.0000 -1.7794
# 5 11.0404 2.7742 15.5954 0.0000 41.4858 0.0000
# 6 0.0000 -0.0003 0.0000 -1.7794 0.0000 15.5788
#
#
#
# Elastic Compliance Matrix: (Units=1/GPa)
#
#
# Indices 1 2 3 4 5 6 
#
# 1 0.009089 -0.006629 -0.002947 0.000000 -0.000868 0.000000
# 2 -0.006629 0.050127 -0.005068 0.000000 0.000317 0.000001
# 3 -0.002947 -0.005068 0.009710 0.000000 -0.002527 0.000000
# 4 0.000000 0.000000 0.000000 0.042126 0.000000 0.004812
# 5 -0.000868 0.000317 -0.002527 0.000000 0.025264 0.000000
# 6 0.000000 0.000001 0.000000 0.004812 0.000000 0.064739
#
#
# Mechanical properties :
#
#
# Convention : Reuss Voigt Hill
#
# Bulk Modulus (GPa) = 25.22761 59.27349 42.25055
# Shear Modulus (GPa) = 20.52915 29.73741 25.13328
#
# Velocity S-wave (km/s) = 3.23380 3.89206 3.57810
# Velocity P-wave (km/s) = 5.17630 7.09867 6.21229
#
# Compressibility (1/GPa) = 0.03963911
#
# Stress axis : x y z
#
# Youngs Moduli (GPa) = 110.01892 19.94929 102.98558
#
# Poissons Ratio (x) = 0.13224 0.30353
# Poissons Ratio (y) = 0.72928 0.52190
# Poissons Ratio (z) = 0.32426 0.10110
#
# Static dielectric constant tensor:
#      x y z
#    x 3.894910 0.000000 0.111630 
#    y 0.000000 3.043660 0.000000 
#    z 0.111630 0.000000 3.780520 
# 
# 
# High freq. dielectric constant tensor:
#      x y z
#    x 1.786590 0.000000 0.003390 
#    y 0.000000 1.710420 0.000000 
#    z 0.003390 0.000000 1.778120 
# 
# From -- ./inp_files/238301.got.cif
#   From: 2010.06.25/outbox.cif.g09.slc.cpg/sg12_120_cif.got.tgz:238301.got - 2010.06.28 00:19:55.
