data_PCOD8084528
_publ_section_title
;
Structure prediction by ZEFSAII (Michael W. Deem and Ramdas Pophale) SiO2 
 PCOD8084528
Probable space group: C 2/M
;
_chemical_formula_sum "Si O2"
_cell_formula_units_Z 48
_cell_length_a 18.185888
_cell_length_b 27.568755
_cell_length_c 8.383292
_cell_angle_alpha 90.000000
_cell_angle_beta 31.672352
_cell_angle_gamma 90.000000
_cell_volume 2206.866425
_symmetry_space_group_name_H-M "C 2/M"
_symmetry_group_IT_number 12
_symmetry_cell_setting 'monoclinic'
loop_
_space_group_symop_operation_xyz
x,y,z
-x,y,-z
-x,-y,-z
x,-y,z
1/2+x,1/2+y,z
1/2-x,1/2+y,-z
1/2-x,1/2-y,-z
1/2+x,1/2-y,z
loop_
_atom_site_type_symbol
_atom_site_label
_atom_site_fract_x
_atom_site_fract_y
_atom_site_fract_z
Si Si1 0.368463 0.673936 0.046761
Si Si2 0.356475 0.775075 0.182321
Si Si3 0.665435 0.358432 0.526591
Si Si4 0.244966 0.553450 0.830431
Si Si5 0.051998 0.552888 0.740318
Si Si6 0.156663 0.386881 0.275835
O O1 0.390268 0.732045 0.996213
O O2 0.336107 0.652308 0.282394
O O3 0.242163 0.661960 0.158202
O O4 0.516230 0.651418 0.719045
O O5 0.250000 0.750000 0.500000
O O6 0.284670 0.822228 0.232468
O O7 0.500000 0.792590 0.000000
O O8 0.702524 0.414402 0.417010
O O9 0.319873 0.500000 0.695509
O O10 0.080464 0.544105 0.126662
O O11 0.258993 0.582916 0.969554
O O12 0.120184 0.500000 0.656278
O O13 0.157785 0.585258 0.443809
O O14 0.000000 0.578827 0.000000
O O15 0.000000 0.374915 0.500000
#
# Coordination Sequence:
#
# PCOD8084528 Si02
#       6
#     8   8   8   8   8   8
#     4  10  20  39  60  89 124 153 207 261 303 370
#     4  10  18  36  64  94 121 153 197 258 324 371
#     4  10  21  38  64  91 118 158 203 261 311 361
#     4  10  21  37  56  83 122 166 207 247 301 367
#     4   9  17  32  55  84 112 149 205 260 300 349
#     4  10  21  36  56  83 123 164 201 244 305 363
#
# _framework density 21.750298000000001
#
# number of rings (size 3 to 8) (size 9 to 14) (size 15 to 20)
#    0.000    2.167    3.333    1.500    0.000    8.667 
#    0.000    5.833    0.000    0.000    0.000    0.000 
#    0.000    0.000    0.000    0.000    0.000    0.000 
#
# Total GULP energy -297316.341462 kJ/mol
# GULP energy per Si atom -12388.180894 kJ/mol
# Density = 2.170079 g / cm^3
# Si number density = 21.750298 Si / 1000 Ang^3
#
#
#
# Elastic Constant Matrix: (Units=GPa)
#
#
# Indices 1 2 3 4 5 6 
#
# 1 85.8679 42.8558 26.9575 0.0000 -12.2994 0.0000
# 2 42.8558 143.1026 37.6700 0.0000 -14.3251 0.0000
# 3 26.9575 37.6700 64.9231 0.0000 -11.2284 0.0000
# 4 0.0000 0.0000 0.0000 22.6051 0.0000 -2.4469
# 5 -12.2994 -14.3251 -11.2284 0.0000 39.0876 0.0000
# 6 0.0000 0.0000 0.0000 -2.4469 0.0000 20.3504
#
#
#
# Elastic Compliance Matrix: (Units=1/GPa)
#
#
# Indices 1 2 3 4 5 6 
#
# 1 0.014788 -0.003166 -0.003893 0.000000 0.002375 0.000000
# 2 -0.003166 0.009039 -0.003714 0.000000 0.001249 0.000000
# 3 -0.003893 -0.003714 0.019706 0.000000 0.003075 0.000000
# 4 0.000000 0.000000 0.000000 0.044821 0.000000 0.005389
# 5 0.002375 0.001249 0.003075 0.000000 0.027672 0.000000
# 6 0.000000 0.000000 0.000000 0.005389 0.000000 0.049787
#
#
# Mechanical properties :
#
#
# Convention : Reuss Voigt Hill
#
# Bulk Modulus (GPa) = 45.48012 56.54001 51.01007
# Shear Modulus (GPa) = 25.68220 28.83599 27.25909
#
# Velocity S-wave (km/s) = 3.43997 3.64507 3.54400
# Velocity P-wave (km/s) = 6.06080 6.61565 6.34430
#
# Compressibility (1/GPa) = 0.02198763
#
# Stress axis : x y z
#
# Youngs Moduli (GPa) = 67.62122 110.63266 50.74677
#
# Poissons Ratio (x) = 0.35030 0.19753
# Poissons Ratio (y) = 0.21411 0.18846
# Poissons Ratio (z) = 0.26322 0.41086
#
# Static dielectric constant tensor:
#      x y z
#    x 3.581590 0.000000 -0.110800 
#    y 0.000000 4.408800 0.000000 
#    z -0.110800 0.000000 3.843230 
# 
# 
# High freq. dielectric constant tensor:
#      x y z
#    x 1.828920 0.000000 -0.006700 
#    y 0.000000 1.857560 0.000000 
#    z -0.006700 0.000000 1.835570 
# 
# From -- ./inp_files/91367.got.cif
#   From: 2010.06.25/outbox.cif.g09.slc.cpg/sg12_46_cif.got.tgz:91367.got - 2010.06.28 00:19:55.
