data_PCOD8084650
_publ_section_title
;
Structure prediction by ZEFSAII (Michael W. Deem and Ramdas Pophale) SiO2 
 PCOD8084650
Probable space group: C 2/M
;
_chemical_formula_sum "Si O2"
_cell_formula_units_Z 64
_cell_length_a 30.241309
_cell_length_b 9.650392
_cell_length_c 31.815991
_cell_angle_alpha 90.000000
_cell_angle_beta 152.756913
_cell_angle_gamma 90.000000
_cell_volume 4250.452264
_symmetry_space_group_name_H-M "C 2/M"
_symmetry_group_IT_number 12
_symmetry_cell_setting 'monoclinic'
loop_
_space_group_symop_operation_xyz
x,y,z
-x,y,-z
-x,-y,-z
x,-y,z
1/2+x,1/2+y,z
1/2-x,1/2+y,-z
1/2-x,1/2-y,-z
1/2+x,1/2-y,z
loop_
_atom_site_type_symbol
_atom_site_label
_atom_site_fract_x
_atom_site_fract_y
_atom_site_fract_z
Si Si1 0.055863 0.161096 0.916538
Si Si2 0.845768 0.345305 0.881885
Si Si3 0.061766 0.335229 0.750565
Si Si4 0.513811 0.836294 0.802732
Si Si5 0.461139 0.844098 0.901009
Si Si6 0.246544 0.159262 0.132195
Si Si7 0.859057 0.346260 0.552728
Si Si8 0.698002 0.847798 0.398777
O O1 0.066275 0.242533 0.881695
O O2 0.970131 0.233053 0.871100
O O3 0.029888 0.000000 0.887458
O O4 0.157841 0.178083 0.025667
O O5 0.801908 0.500000 0.845484
O O6 0.871493 0.302333 0.855586
O O7 0.768551 0.240808 0.836883
O O8 0.942452 0.341238 0.990470
O O9 0.057089 0.500000 0.746949
O O10 0.059085 0.286541 0.796711
O O11 0.158470 0.279366 0.810226
O O12 0.967520 0.281757 0.645168
O O13 0.399529 0.801356 0.707326
O O14 0.531967 0.000000 0.826103
O O15 0.445829 0.000000 0.869907
O O16 0.261312 0.000000 0.156972
O O17 0.859103 0.500000 0.532982
O O18 0.786982 0.254129 0.463552
O O19 0.821910 0.352931 0.568731
O O20 0.728693 0.000000 0.408986
#
# Coordination Sequence:
#
# PCOD8084650 Si02
#       8
#     8   8   8   8   8   8   8   8
#     4  10  19  27  37  57  81 103 133 171 200 221
#     4   8  14  25  41  59  75  94 126 163 196 234
#     4   8  15  28  42  55  75 107 141 162 185 231
#     4   9  17  29  42  53  73 109 142 163 189 230
#     4   8  14  26  42  56  73  99 127 157 197 241
#     4   9  17  28  40  55  79 108 134 163 196 226
#     4   8  13  23  40  57  72  94 124 158 195 233
#     4   8  14  24  38  56  74  93 122 160 200 235
#
# _framework density 15.057221999999999
#
# number of rings (size 3 to 8) (size 9 to 14) (size 15 to 20)
#    0.000    3.500    0.000    2.625    0.000    2.000 
#    0.000    5.625    0.000    0.000    0.000    0.000 
#    0.000    1.000    0.000   11.250    0.000    6.000 
#
# Total GULP energy -396534.089803 kJ/mol
# GULP energy per Si atom -12391.690306 kJ/mol
# Density = 1.502295 g / cm^3
# Si number density = 15.057222 Si / 1000 Ang^3
#
#
#
# Elastic Constant Matrix: (Units=GPa)
#
#
# Indices 1 2 3 4 5 6 
#
# 1 94.2081 47.1612 30.6186 0.0000 19.4680 0.0000
# 2 47.1612 71.2385 27.2845 0.0001 13.0951 0.0000
# 3 30.6186 27.2845 34.6458 0.0001 15.0198 0.0000
# 4 0.0000 0.0001 0.0001 18.8963 0.0000 -1.7158
# 5 19.4680 13.0951 15.0198 0.0000 9.0601 0.0000
# 6 0.0000 0.0000 0.0000 -1.7158 0.0000 22.7380
#
#
#
# Elastic Compliance Matrix: (Units=1/GPa)
#
#
# Indices 1 2 3 4 5 6 
#
# 1 0.022739 -0.009244 0.009151 0.000000 -0.050670 0.000000
# 2 -0.009244 0.024116 -0.015366 0.000000 0.010482 0.000000
# 3 0.009151 -0.015366 0.112950 0.000000 -0.184701 0.000000
# 4 0.000000 0.000000 0.000000 0.053285 0.000000 0.004021
# 5 -0.050670 0.010482 -0.184701 0.000000 0.510299 0.000000
# 6 0.000000 0.000000 0.000000 0.004021 0.000000 0.044283
#
#
# Mechanical properties :
#
#
# Convention : Reuss Voigt Hill
#
# Bulk Modulus (GPa) = 7.75881 45.58011 26.66946
# Shear Modulus (GPa) = 5.94139 16.47408 11.20774
#
# Velocity S-wave (km/s) = 1.98858 3.31130 2.73122
# Velocity P-wave (km/s) = 3.23058 6.70497 5.26276
#
# Compressibility (1/GPa) = 0.12888578
#
# Stress axis : x y z
#
# Youngs Moduli (GPa) = 43.97637 41.46666 8.85347
#
# Poissons Ratio (x) = 0.38334 -0.08101
# Poissons Ratio (y) = 0.40654 0.13604
# Poissons Ratio (z) = -0.40241 0.63717
#
# Static dielectric constant tensor:
#      x y z
#    x 2.959430 0.000000 0.166560 
#    y 0.000000 3.014630 0.000000 
#    z 0.166560 0.000000 2.751900 
# 
# 
# High freq. dielectric constant tensor:
#      x y z
#    x 1.554840 0.000000 0.009560 
#    y 0.000000 1.570520 0.000000 
#    z 0.009560 0.000000 1.542810 
# 
# From -- ./inp_files/384631.got.cif
#   From: 2010.06.25/outbox.cif.g09.slc.cpg/sg12_193_cif.got.tgz:384631.got - 2010.06.28 00:19:55.
