data_PCOD8084841
_publ_section_title
;
Structure prediction by ZEFSAII (Michael W. Deem and Ramdas Pophale) SiO2 
 PCOD8084841
Probable space group: C 2/M
;
_chemical_formula_sum "Si O2"
_cell_formula_units_Z 64
_cell_length_a 26.734928
_cell_length_b 9.545429
_cell_length_c 18.470449
_cell_angle_alpha 90.000000
_cell_angle_beta 67.965499
_cell_angle_gamma 90.000000
_cell_volume 4369.301704
_symmetry_space_group_name_H-M "C 2/M"
_symmetry_group_IT_number 12
_symmetry_cell_setting 'monoclinic'
loop_
_space_group_symop_operation_xyz
x,y,z
-x,y,-z
-x,-y,-z
x,-y,z
1/2+x,1/2+y,z
1/2-x,1/2+y,-z
1/2-x,1/2-y,-z
1/2+x,1/2-y,z
loop_
_atom_site_type_symbol
_atom_site_label
_atom_site_fract_x
_atom_site_fract_y
_atom_site_fract_z
Si Si1 0.758155 0.166512 0.760582
Si Si2 0.832886 0.837244 0.459044
Si Si3 0.208553 0.655452 0.930980
Si Si4 0.427116 0.839431 0.472907
Si Si5 0.172583 0.845397 0.068353
Si Si6 0.549800 0.840317 0.375880
Si Si7 0.628812 0.665886 0.242649
Si Si8 0.731923 0.162118 0.614852
O O1 0.716921 0.219896 0.845610
O O2 0.818768 0.222158 0.741970
O O3 0.737226 0.216640 0.694145
O O4 0.760687 0.000000 0.764468
O O5 0.888210 0.767431 0.453611
O O6 0.789706 0.817804 0.546174
O O7 0.812785 0.759131 0.397856
O O8 0.842681 0.000000 0.435815
O O9 0.183631 0.500000 0.940163
O O10 0.266445 0.650103 0.937177
O O11 0.167067 0.747210 0.000873
O O12 0.485771 0.820024 0.406156
O O13 0.428674 0.799456 0.556480
O O14 0.407408 0.000000 0.473840
O O15 0.134736 0.792886 0.154709
O O16 0.154475 0.000000 0.053836
O O17 0.576052 0.740546 0.301990
O O18 0.565293 0.000000 0.349979
O O19 0.622213 0.500000 0.255253
O O20 0.713596 0.000000 0.620768
#
# Coordination Sequence:
#
# PCOD8084841 Si02
#       8
#     8   8   8   8   8   8   8   8
#     4   8  14  25  40  57  78 107 139 166 196 234
#     4  10  19  29  43  62  80 102 136 170 197 233
#     4   8  13  22  36  52  72 101 136 166 188 222
#     4   9  18  32  45  57  79 108 132 161 204 241
#     4   8  14  23  34  51  77 106 131 157 194 233
#     4   9  18  30  43  60  80 103 134 167 197 235
#     4   9  16  26  40  58  82 109 135 165 198 232
#     4   9  17  29  43  58  80 108 134 164 203 239
#
# _framework density 14.647648999999999
#
# number of rings (size 3 to 8) (size 9 to 14) (size 15 to 20)
#    0.000    3.250    0.000    3.375    0.000    3.000 
#    0.000    4.375    0.000    0.000    0.000    0.000 
#    0.000    1.000    0.000   11.250    0.000    6.125 
#
# Total GULP energy -396650.609084 kJ/mol
# GULP energy per Si atom -12395.331534 kJ/mol
# Density = 1.461431 g / cm^3
# Si number density = 14.647649 Si / 1000 Ang^3
#
#
#
# Elastic Constant Matrix: (Units=GPa)
#
#
# Indices 1 2 3 4 5 6 
#
# 1 61.0350 37.5400 33.2799 0.0000 5.8232 0.0000
# 2 37.5400 68.4061 50.6218 0.0000 1.7227 0.0000
# 3 33.2799 50.6218 112.4418 0.0000 6.5240 0.0000
# 4 0.0000 0.0000 0.0000 25.7860 0.0000 -2.5881
# 5 5.8232 1.7227 6.5240 0.0000 17.5878 0.0000
# 6 0.0000 0.0000 0.0000 -2.5881 0.0000 20.1147
#
#
#
# Elastic Compliance Matrix: (Units=1/GPa)
#
#
# Indices 1 2 3 4 5 6 
#
# 1 0.025737 -0.012906 -0.001416 0.000000 -0.006732 0.000000
# 2 -0.012906 0.028435 -0.009268 0.000000 0.004926 0.000000
# 3 -0.001416 -0.009268 0.013700 0.000000 -0.003705 0.000000
# 4 0.000000 0.000000 0.000000 0.039288 0.000000 0.005055
# 5 -0.006732 0.004926 -0.003705 0.000000 0.059978 0.000000
# 6 0.000000 0.000000 0.000000 0.005055 0.000000 0.050365
#
#
# Mechanical properties :
#
#
# Convention : Reuss Voigt Hill
#
# Bulk Modulus (GPa) = 48.32854 53.86294 51.09574
# Shear Modulus (GPa) = 18.41066 20.72709 19.56887
#
# Velocity S-wave (km/s) = 3.54913 3.76579 3.65906
# Velocity P-wave (km/s) = 7.06122 7.46729 7.26709
#
# Compressibility (1/GPa) = 0.02069171
#
# Stress axis : x y z
#
# Youngs Moduli (GPa) = 38.85512 35.16736 72.99239
#
# Poissons Ratio (x) = 0.45387 0.10339
# Poissons Ratio (y) = 0.50147 0.67647
# Poissons Ratio (z) = 0.05504 0.32592
#
# Static dielectric constant tensor:
#      x y z
#    x 2.515800 0.000000 0.124710 
#    y 0.000000 2.856770 0.000000 
#    z 0.124710 0.000000 3.000650 
# 
# 
# High freq. dielectric constant tensor:
#      x y z
#    x 1.515970 0.000000 0.006520 
#    y 0.000000 1.555090 0.000000 
#    z 0.006520 0.000000 1.560350 
# 
# From -- ./inp_files/326565.got.cif
#   From: 2010.06.25/outbox.cif.g09.slc.cpg/sg12_164_cif.got.tgz:326565.got - 2010.06.28 00:19:55.
