data_PCOD8084333
_publ_section_title
;
Structure prediction by ZEFSAII (Michael W. Deem and Ramdas Pophale) SiO2 
 PCOD8084333
Probable space group: C 2/M
;
_chemical_formula_sum "Si O2"
_cell_formula_units_Z 56
_cell_length_a 13.775716
_cell_length_b 31.426929
_cell_length_c 14.597015
_cell_angle_alpha 90.000000
_cell_angle_beta 151.225715
_cell_angle_gamma 90.000000
_cell_volume 3041.938818
_symmetry_space_group_name_H-M "C 2/M"
_symmetry_group_IT_number 12
_symmetry_cell_setting 'monoclinic'
loop_
_space_group_symop_operation_xyz
x,y,z
-x,y,-z
-x,-y,-z
x,-y,z
1/2+x,1/2+y,z
1/2-x,1/2+y,-z
1/2-x,1/2-y,-z
1/2+x,1/2-y,z
loop_
_atom_site_type_symbol
_atom_site_label
_atom_site_fract_x
_atom_site_fract_y
_atom_site_fract_z
Si Si1 0.460005 0.592569 0.192100
Si Si2 0.033708 0.450472 0.803827
Si Si3 0.531635 0.236518 0.919911
Si Si4 0.101089 0.189950 0.841602
Si Si5 0.646332 0.307824 0.540037
Si Si6 0.350875 0.593612 0.455397
Si Si7 0.350648 0.049689 0.456331
O O1 0.418170 0.642010 0.138522
O O2 0.530361 0.583902 0.353346
O O3 0.639990 0.575627 0.275222
O O4 0.253911 0.567931 0.003943
O O5 0.042088 0.500000 0.831364
O O6 0.862870 0.430515 0.728504
O O7 0.969902 0.440085 0.647621
O O8 0.598872 0.280575 0.929312
O O9 0.336616 0.222027 0.704854
O O10 0.500000 0.245616 0.000000
O O11 0.690940 0.198263 0.040133
O O12 0.930414 0.200340 0.626053
O O13 0.500000 0.292639 0.500000
O O14 0.700929 0.356979 0.599930
O O15 0.500000 0.576970 0.500000
O O16 0.500000 0.065059 0.500000
O O17 0.296984 0.000000 0.402872
#
# Coordination Sequence:
#
# PCOD8084333 Si02
#       7
#     8   8   8   8   8   8   8
#     4  10  20  37  56  81 110 143 183 224 271 324
#     4  10  20  35  56  81 111 146 181 222 271 319
#     4  11  21  36  56  81 111 141 181 227 271 328
#     4  10  22  37  55  80 111 146 178 225 277 319
#     4  10  18  35  59  78 103 144 185 221 267 320
#     4   9  20  35  54  81 110 143 186 227 264 314
#     4   9  19  37  59  82 109 142 182 225 268 321
#
# _framework density 18.409312
#
# number of rings (size 3 to 8) (size 9 to 14) (size 15 to 20)
#    0.000    2.143    1.429    1.714    0.000    2.000 
#    2.571    3.571    0.000    0.000    0.000    0.000 
#    0.000    0.000    0.000    0.000    0.000    0.000 
#
# Total GULP energy -347201.797314 kJ/mol
# GULP energy per Si atom -12400.064190 kJ/mol
# Density = 1.836741 g / cm^3
# Si number density = 18.409312 Si / 1000 Ang^3
#
#
#
# Elastic Constant Matrix: (Units=GPa)
#
#
# Indices 1 2 3 4 5 6 
#
# 1 131.3418 47.5032 37.5610 0.0000 19.1301 0.0000
# 2 47.5032 82.0221 43.3452 0.0000 16.8745 0.0000
# 3 37.5610 43.3452 87.5485 0.0000 24.9265 0.0001
# 4 0.0000 0.0000 0.0000 36.5180 0.0000 -1.7480
# 5 19.1301 16.8745 24.9265 0.0000 29.2664 0.0000
# 6 0.0000 0.0000 0.0001 -1.7480 0.0000 27.7249
#
#
#
# Elastic Compliance Matrix: (Units=1/GPa)
#
#
# Indices 1 2 3 4 5 6 
#
# 1 0.010037 -0.004575 -0.001220 0.000000 -0.002884 0.000000
# 2 -0.004575 0.018854 -0.006770 0.000000 -0.002115 0.000000
# 3 -0.001220 -0.006770 0.018428 0.000000 -0.010994 0.000000
# 4 0.000000 0.000000 0.000000 0.027467 0.000000 0.001732
# 5 -0.002884 -0.002115 -0.010994 0.000000 0.046637 0.000000
# 6 0.000000 0.000000 0.000000 0.001732 0.000000 0.036178
#
#
# Mechanical properties :
#
#
# Convention : Reuss Voigt Hill
#
# Bulk Modulus (GPa) = 45.06709 61.97013 53.51861
# Shear Modulus (GPa) = 26.29826 30.20207 28.25017
#
# Velocity S-wave (km/s) = 3.78369 4.05481 3.92159
# Velocity P-wave (km/s) = 6.60471 7.46039 7.04555
#
# Compressibility (1/GPa) = 0.02218914
#
# Stress axis : x y z
#
# Youngs Moduli (GPa) = 99.62749 53.03906 54.26644
#
# Poissons Ratio (x) = 0.24266 0.06621
# Poissons Ratio (y) = 0.45580 0.36737
# Poissons Ratio (z) = 0.12156 0.35906
#
# Static dielectric constant tensor:
#      x y z
#    x 3.468350 0.000000 0.152310 
#    y 0.000000 3.338330 0.000000 
#    z 0.152310 0.000000 3.337130 
# 
# 
# High freq. dielectric constant tensor:
#      x y z
#    x 1.717130 0.000000 0.008350 
#    y 0.000000 1.710150 0.000000 
#    z 0.008350 0.000000 1.719820 
# 
# From -- ./inp_files/219383.got.cif
#   From: 2010.06.25/outbox.cif.g09.slc.cpg/sg12_110_cif.got.tgz:219383.got - 2010.06.28 00:19:55.
