data_PCOD8084459
_publ_section_title
;
Structure prediction by ZEFSAII (Michael W. Deem and Ramdas Pophale) SiO2 
 PCOD8084459
Probable space group: C 2/M
;
_chemical_formula_sum "Si O2"
_cell_formula_units_Z 56
_cell_length_a 14.709438
_cell_length_b 27.043248
_cell_length_c 9.039998
_cell_angle_alpha 90.000000
_cell_angle_beta 56.049703
_cell_angle_gamma 90.000000
_cell_volume 2982.986975
_symmetry_space_group_name_H-M "C 2/M"
_symmetry_group_IT_number 12
_symmetry_cell_setting 'monoclinic'
loop_
_space_group_symop_operation_xyz
x,y,z
-x,y,-z
-x,-y,-z
x,-y,z
1/2+x,1/2+y,z
1/2-x,1/2+y,-z
1/2-x,1/2-y,-z
1/2+x,1/2-y,z
loop_
_atom_site_type_symbol
_atom_site_label
_atom_site_fract_x
_atom_site_fract_y
_atom_site_fract_z
Si Si1 0.244422 0.139582 0.024326
Si Si2 0.793336 0.272922 0.809180
Si Si3 0.906071 0.249632 0.206305
Si Si4 0.348541 0.943755 0.769064
Si Si5 0.400935 0.942843 0.391734
Si Si6 0.461136 0.306109 0.684615
Si Si7 0.613066 0.859574 0.819741
O O1 0.312210 0.170008 0.836417
O O2 0.257516 0.084327 0.950892
O O3 0.117657 0.157552 0.148457
O O4 0.293646 0.147747 0.141983
O O5 0.709680 0.268801 0.749768
O O6 0.903269 0.243567 0.672958
O O7 0.750000 0.250000 0.000000
O O8 0.897911 0.307678 0.259964
O O9 0.936267 0.212814 0.312156
O O10 0.000000 0.244708 0.000000
O O11 0.338911 0.933415 0.602805
O O12 0.470687 0.930637 0.711087
O O13 0.321893 0.000000 0.826919
O O14 0.350310 0.904443 0.320111
O O15 0.383872 0.000000 0.356829
O O16 0.500000 0.334569 0.500000
O O17 0.500000 0.874646 0.000000
#
# Coordination Sequence:
#
# PCOD8084459 Si02
#       7
#     8   8   8   8   8   8   8
#     4  11  20  37  56  79 111 148 188 226 273 332
#     4  10  18  36  56  78 108 148 189 226 267 330
#     4  11  19  36  58  76 111 156 186 222 277 321
#     4   9  19  36  56  79 110 144 184 231 278 336
#     4   9  19  34  52  82 117 145 178 224 279 341
#     4  11  24  38  53  80 117 148 189 240 275 323
#     4  11  19  30  52  83 116 150 181 220 269 333
#
# _framework density 18.773128
#
# number of rings (size 3 to 8) (size 9 to 14) (size 15 to 20)
#    0.000    1.714    7.143    1.714    0.000    2.571 
#    2.571    0.000    0.000    0.429    0.000    2.000 
#    0.000    0.000    0.000    0.000    0.000    0.000 
#
# Total GULP energy -347030.027874 kJ/mol
# GULP energy per Si atom -12393.929567 kJ/mol
# Density = 1.873040 g / cm^3
# Si number density = 18.773128 Si / 1000 Ang^3
#
#
#
# Elastic Constant Matrix: (Units=GPa)
#
#
# Indices 1 2 3 4 5 6 
#
# 1 98.3405 27.3765 17.3125 0.0000 16.3073 0.0000
# 2 27.3765 90.1684 40.0466 0.0000 9.9205 0.0000
# 3 17.3125 40.0466 62.0939 0.0000 5.7685 0.0000
# 4 0.0000 0.0000 0.0000 26.6421 0.0000 9.5181
# 5 16.3073 9.9205 5.7685 0.0000 17.2082 0.0000
# 6 0.0000 0.0000 0.0000 9.5181 0.0000 23.1153
#
#
#
# Elastic Compliance Matrix: (Units=1/GPa)
#
#
# Indices 1 2 3 4 5 6 
#
# 1 0.012708 -0.002201 -0.001159 0.000000 -0.010385 0.000000
# 2 -0.002201 0.016501 -0.009639 0.000000 -0.004196 0.000000
# 3 -0.001159 -0.009639 0.022734 0.000000 -0.000966 0.000000
# 4 0.000000 0.000000 0.000000 0.044009 0.000000 -0.018121
# 5 -0.010385 -0.004196 -0.000966 0.000000 0.070696 0.000000
# 6 0.000000 0.000000 0.000000 -0.018121 0.000000 0.050723
#
#
# Mechanical properties :
#
#
# Convention : Reuss Voigt Hill
#
# Bulk Modulus (GPa) = 38.54223 46.67488 42.60856
# Shear Modulus (GPa) = 19.84006 24.45093 22.14549
#
# Velocity S-wave (km/s) = 3.25442 3.61285 3.43831
# Velocity P-wave (km/s) = 5.89040 6.50540 6.20552
#
# Compressibility (1/GPa) = 0.02594557
#
# Stress axis : x y z
#
# Youngs Moduli (GPa) = 78.69338 60.60199 43.98744
#
# Poissons Ratio (x) = 0.13339 0.05097
# Poissons Ratio (y) = 0.17320 0.42398
# Poissons Ratio (z) = 0.09119 0.58412
#
# Static dielectric constant tensor:
#      x y z
#    x 3.502030 0.000000 0.166160 
#    y 0.000000 3.711850 0.000000 
#    z 0.166160 0.000000 3.373880 
# 
# 
# High freq. dielectric constant tensor:
#      x y z
#    x 1.708890 0.000000 0.017570 
#    y 0.000000 1.716690 0.000000 
#    z 0.017570 0.000000 1.716450 
# 
# From -- ./inp_files/67802.got.cif
#   From: 2010.06.25/outbox.cif.g09.slc.cpg/sg12_34_cif.got.tgz:67802.got - 2010.06.28 00:19:55.
