data_PCOD8084786
_publ_section_title
;
Structure prediction by ZEFSAII (Michael W. Deem and Ramdas Pophale) SiO2 
 PCOD8084786
Probable space group: C 2/M
;
_chemical_formula_sum "Si O2"
_cell_formula_units_Z 60
_cell_length_a 17.028066
_cell_length_b 26.069919
_cell_length_c 7.932745
_cell_angle_alpha 90.000000
_cell_angle_beta 93.455374
_cell_angle_gamma 90.000000
_cell_volume 3515.104609
_symmetry_space_group_name_H-M "C 2/M"
_symmetry_group_IT_number 12
_symmetry_cell_setting 'monoclinic'
loop_
_space_group_symop_operation_xyz
x,y,z
-x,y,-z
-x,-y,-z
x,-y,z
1/2+x,1/2+y,z
1/2-x,1/2+y,-z
1/2-x,1/2-y,-z
1/2+x,1/2-y,z
loop_
_atom_site_type_symbol
_atom_site_label
_atom_site_fract_x
_atom_site_fract_y
_atom_site_fract_z
Si Si1 0.407938 0.762728 0.848761
Si Si2 0.852098 0.846824 0.933732
Si Si3 0.692387 0.797938 0.861356
Si Si4 0.619628 0.662481 0.677453
Si Si5 0.500000 0.411101 0.500000
Si Si6 0.939419 0.943246 0.841685
Si Si7 0.946911 0.724994 0.339643
Si Si8 0.265797 0.784915 0.657682
O O1 0.394119 0.701076 0.847320
O O2 0.499457 0.773645 0.824999
O O3 0.359555 0.790298 0.687819
O O4 0.374246 0.789949 0.008316
O O5 0.756329 0.841776 0.909989
O O6 0.873145 0.899119 0.838343
O O7 0.885696 0.851721 0.126782
O O8 0.632479 0.809985 0.695286
O O9 0.737706 0.744061 0.829499
O O10 0.576831 0.622078 0.553991
O O11 0.581775 0.717277 0.631061
O O12 0.713133 0.663662 0.638269
O O13 0.480732 0.444133 0.663248
O O14 0.902160 0.000000 0.863181
O O15 0.000000 0.931723 0.000000
O O16 0.000000 0.704643 0.500000
O O17 0.250000 0.750000 0.500000
#
# Coordination Sequence:
#
# PCOD8084786 Si02
#       8
#     8   8   8   8   4   8   8   8
#     4  11  18  30  48  68 101 140 168 210 242 291
#     4  11  20  36  52  72  98 137 184 211 259 321
#     4  10  20  32  46  68 100 138 173 207 248 296
#     4  11  20  32  47  75  99 140 182 212 253 306
#     4  12  23  36  56  80 104 132 178 224 263 314
#     4  11  25  41  58  77 101 134 174 227 278 315
#     4  11  21  29  42  71 108 139 177 206 242 294
#     4  10  19  29  41  65 105 134 175 207 240 291
#
# _framework density 17.069192999999999
#
# number of rings (size 3 to 8) (size 9 to 14) (size 15 to 20)
#    0.000    1.200    6.000    3.800    3.733    0.000 
#    0.000    0.000    0.000    0.000    0.000    0.000 
#    0.000    2.667    0.000    0.000    0.000    0.133 
#
# Total GULP energy -371645.165007 kJ/mol
# GULP energy per Si atom -12388.172167 kJ/mol
# Density = 1.703034 g / cm^3
# Si number density = 17.069193 Si / 1000 Ang^3
#
#
#
# Elastic Constant Matrix: (Units=GPa)
#
#
# Indices 1 2 3 4 5 6 
#
# 1 89.5935 37.6060 14.2782 0.0000 14.1100 0.0000
# 2 37.6060 67.5459 16.2088 0.0000 4.0226 0.0000
# 3 14.2782 16.2088 67.7945 0.0000 10.3450 0.0000
# 4 0.0000 0.0000 0.0000 7.1080 0.0000 -0.9692
# 5 14.1100 4.0226 10.3450 0.0000 31.8944 0.0000
# 6 0.0000 0.0000 0.0000 -0.9692 0.0000 17.6427
#
#
#
# Elastic Compliance Matrix: (Units=1/GPa)
#
#
# Indices 1 2 3 4 5 6 
#
# 1 0.015587 -0.008232 -0.000443 0.000000 -0.005714 0.000000
# 2 -0.008232 0.020072 -0.003403 0.000000 0.002214 0.000000
# 3 -0.000443 -0.003403 0.016372 0.000000 -0.004685 0.000000
# 4 0.000000 0.000000 0.000000 0.141749 0.000000 0.007787
# 5 -0.005714 0.002214 -0.004685 0.000000 0.035122 0.000000
# 6 0.000000 0.000000 0.000000 0.007787 0.000000 0.057108
#
#
# Mechanical properties :
#
#
# Convention : Reuss Voigt Hill
#
# Bulk Modulus (GPa) = 35.87235 40.12445 37.99840
# Shear Modulus (GPa) = 15.65151 21.78508 18.71830
#
# Velocity S-wave (km/s) = 3.03140 3.57638 3.31511
# Velocity P-wave (km/s) = 5.77182 6.37275 6.07972
#
# Compressibility (1/GPa) = 0.02787662
#
# Stress axis : x y z
#
# Youngs Moduli (GPa) = 64.15575 49.81956 61.07867
#
# Poissons Ratio (x) = 0.41009 0.02705
# Poissons Ratio (y) = 0.52810 0.20787
# Poissons Ratio (z) = 0.02841 0.16955
#
# Static dielectric constant tensor:
#      x y z
#    x 3.721290 0.000000 0.107280 
#    y 0.000000 2.647080 0.000000 
#    z 0.107280 0.000000 3.413750 
# 
# 
# High freq. dielectric constant tensor:
#      x y z
#    x 1.670700 0.000000 0.007320 
#    y 0.000000 1.569260 0.000000 
#    z 0.007320 0.000000 1.693220 
# 
# From -- ./inp_files/79560.got.cif
#   From: 2010.06.25/outbox.cif.g09.slc.cpg/sg12_40_cif.got.tgz:79560.got - 2010.06.28 00:19:55.
