data_PCOD8084675
_publ_section_title
;
Structure prediction by ZEFSAII (Michael W. Deem and Ramdas Pophale) SiO2 
 PCOD8084675
Probable space group: C 2/M
;
_chemical_formula_sum "Si O2"
_cell_formula_units_Z 56
_cell_length_a 23.197613
_cell_length_b 9.151304
_cell_length_c 16.270642
_cell_angle_alpha 90.000000
_cell_angle_beta 97.851799
_cell_angle_gamma 90.000000
_cell_volume 3421.685906
_symmetry_space_group_name_H-M "C 2/M"
_symmetry_group_IT_number 12
_symmetry_cell_setting 'monoclinic'
loop_
_space_group_symop_operation_xyz
x,y,z
-x,y,-z
-x,-y,-z
x,-y,z
1/2+x,1/2+y,z
1/2-x,1/2+y,-z
1/2-x,1/2-y,-z
1/2+x,1/2-y,z
loop_
_atom_site_type_symbol
_atom_site_label
_atom_site_fract_x
_atom_site_fract_y
_atom_site_fract_z
Si Si1 0.459920 0.826818 0.877651
Si Si2 0.249857 0.171611 0.243287
Si Si3 0.295411 0.336821 0.400630
Si Si4 0.707169 0.828624 0.929711
Si Si5 0.581846 0.826316 0.955819
Si Si6 0.333463 0.162027 0.552303
Si Si7 0.366754 0.826790 0.732565
O O1 0.526762 0.769544 0.890547
O O2 0.425548 0.774313 0.789739
O O3 0.460659 0.000000 0.881055
O O4 0.426399 0.769515 0.952372
O O5 0.294363 0.239261 0.318465
O O6 0.275682 0.207544 0.159671
O O7 0.186737 0.244018 0.236083
O O8 0.244257 0.000000 0.259308
O O9 0.316532 0.500000 0.382969
O O10 0.340397 0.269059 0.475922
O O11 0.232081 0.339811 0.427902
O O12 0.642114 0.765314 0.931264
O O13 0.710207 0.000000 0.948809
O O14 0.750000 0.750000 0.000000
O O15 0.582993 0.000000 0.954201
O O16 0.373191 0.214203 0.637148
O O17 0.351752 0.000000 0.527012
O O18 0.355107 0.000000 0.739761
#
# Coordination Sequence:
#
# PCOD8084675 Si02
#       7
#     8   8   8   8   8   8   8
#     4   8  13  23  42  64  83 105 136 174 210 243
#     4  10  19  28  39  59  87 116 141 168 206 247
#     4   9  16  26  40  57  79 110 143 171 203 246
#     4  10  20  31  44  63  87 114 142 172 206 245
#     4   8  14  25  41  62  85 108 137 173 209 242
#     4   8  14  23  36  57  84 108 131 166 211 252
#     4   9  16  26  42  64  86 110 140 172 208 250
#
# _framework density 16.366202000000001
#
# number of rings (size 3 to 8) (size 9 to 14) (size 15 to 20)
#    0.000    3.143    0.000    3.429    0.000    5.714 
#    0.000    0.000    0.000    0.857    0.000    5.000 
#    0.000    8.000    0.000    0.000    0.000    0.000 
#
# Total GULP energy -346999.069538 kJ/mol
# GULP energy per Si atom -12392.823912 kJ/mol
# Density = 1.632895 g / cm^3
# Si number density = 16.366202 Si / 1000 Ang^3
#
#
#
# Elastic Constant Matrix: (Units=GPa)
#
#
# Indices 1 2 3 4 5 6 
#
# 1 88.2670 29.3460 66.2633 0.0000 14.5406 0.0000
# 2 29.3460 56.3258 50.9835 0.0000 4.1128 0.0000
# 3 66.2633 50.9835 150.5043 0.0000 28.8007 0.0000
# 4 0.0000 0.0000 0.0000 24.0617 0.0000 1.9595
# 5 14.5406 4.1128 28.8007 0.0000 24.5119 0.0000
# 6 0.0000 0.0000 0.0000 1.9595 0.0000 12.1187
#
#
#
# Elastic Compliance Matrix: (Units=1/GPa)
#
#
# Indices 1 2 3 4 5 6 
#
# 1 0.017414 -0.003472 -0.005967 0.000000 -0.002736 0.000000
# 2 -0.003472 0.027445 -0.009394 0.000000 0.008492 0.000000
# 3 -0.005967 -0.009394 0.014803 0.000000 -0.012277 0.000000
# 4 0.000000 0.000000 0.000000 0.042114 0.000000 -0.006810
# 5 -0.002736 0.008492 -0.012277 0.000000 0.055420 0.000000
# 6 0.000000 0.000000 0.000000 -0.006810 0.000000 0.083618
#
#
# Mechanical properties :
#
#
# Convention : Reuss Voigt Hill
#
# Bulk Modulus (GPa) = 45.46044 65.36474 55.41259
# Shear Modulus (GPa) = 17.49400 22.03875 19.76638
#
# Velocity S-wave (km/s) = 3.27297 3.67359 3.47905
# Velocity P-wave (km/s) = 6.49002 7.61704 7.07600
#
# Compressibility (1/GPa) = 0.02199715
#
# Stress axis : x y z
#
# Youngs Moduli (GPa) = 57.42521 36.43627 67.55361
#
# Poissons Ratio (x) = 0.12649 0.40311
# Poissons Ratio (y) = 0.19936 0.63457
# Poissons Ratio (z) = 0.34268 0.34227
#
# Static dielectric constant tensor:
#      x y z
#    x 3.019580 0.000000 0.284680 
#    y 0.000000 2.943150 0.000000 
#    z 0.284680 0.000000 3.464400 
# 
# 
# High freq. dielectric constant tensor:
#      x y z
#    x 1.586630 0.000000 0.018580 
#    y 0.000000 1.606840 0.000000 
#    z 0.018580 0.000000 1.640930 
# 
# From -- ./inp_files/280361.got.cif
#   From: 2010.06.25/outbox.cif.g09.slc.cpg/sg12_141_cif.got.tgz:280361.got - 2010.06.28 00:19:55.
