data_PCOD8084060
_publ_section_title
;
Structure prediction by ZEFSAII (Michael W. Deem and Ramdas Pophale) SiO2 
 PCOD8084060
Probable space group: C 2/M
;
_chemical_formula_sum "Si O2"
_cell_formula_units_Z 56
_cell_length_a 19.573300
_cell_length_b 9.046133
_cell_length_c 17.143301
_cell_angle_alpha 90.000000
_cell_angle_beta 72.784585
_cell_angle_gamma 90.000000
_cell_volume 2899.447344
_symmetry_space_group_name_H-M "C 2/M"
_symmetry_group_IT_number 12
_symmetry_cell_setting 'monoclinic'
loop_
_space_group_symop_operation_xyz
x,y,z
-x,y,-z
-x,-y,-z
x,-y,z
1/2+x,1/2+y,z
1/2-x,1/2+y,-z
1/2-x,1/2-y,-z
1/2+x,1/2-y,z
loop_
_atom_site_type_symbol
_atom_site_label
_atom_site_fract_x
_atom_site_fract_y
_atom_site_fract_z
Si Si1 0.883322 0.826745 0.149008
Si Si2 0.873156 0.824870 0.431461
Si Si3 0.176973 0.175169 0.997019
Si Si4 0.195512 0.329056 0.684058
Si Si5 0.026068 0.824515 0.314596
Si Si6 0.855936 0.171150 0.610933
Si Si7 0.960428 0.825200 0.864095
O O1 0.840121 0.781035 0.086391
O O2 0.851138 0.743613 0.233263
O O3 0.967285 0.783109 0.112841
O O4 0.876426 0.000000 0.168345
O O5 0.815939 0.746724 0.395479
O O6 0.862055 0.760585 0.522235
O O7 0.950882 0.776469 0.375559
O O8 0.861163 0.000000 0.431071
O O9 0.185107 0.000000 0.003569
O O10 0.250000 0.250000 0.000000
O O11 0.110480 0.238034 0.070112
O O12 0.174931 0.500000 0.685084
O O13 0.278712 0.306121 0.675681
O O14 0.087270 0.755101 0.349338
O O15 0.034799 0.758541 0.224752
O O16 0.032694 0.000000 0.308090
O O17 0.875634 0.000000 0.594984
O O18 0.953076 0.000000 0.863840
#
# Coordination Sequence:
#
# PCOD8084060 Si02
#       7
#     8   8   8   8   8   8   8
#     4  10  20  38  59  81 106 141 187 225 261 310
#     4  10  18  34  57  79 105 139 184 231 268 313
#     4  10  22  37  59  87 115 140 172 220 272 325
#     4  11  22  34  52  80 113 146 178 218 272 329
#     4   9  16  29  54  83 104 132 181 230 264 304
#     4   9  19  31  49  80 111 140 179 228 275 315
#     4   9  17  33  58  83 105 138 184 227 261 305
#
# _framework density 19.314025000000001
#
# number of rings (size 3 to 8) (size 9 to 14) (size 15 to 20)
#    0.000    2.286    1.429    1.714    2.000    4.000 
#    0.000    1.429    0.000    5.143    0.000    0.000 
#    0.000    0.000    0.000    0.000    0.000    0.000 
#
# Total GULP energy -347159.569462 kJ/mol
# GULP energy per Si atom -12398.556052 kJ/mol
# Density = 1.927007 g / cm^3
# Si number density = 19.314025 Si / 1000 Ang^3
#
#
#
# Elastic Constant Matrix: (Units=GPa)
#
#
# Indices 1 2 3 4 5 6 
#
# 1 126.6114 29.7852 49.0849 0.0000 14.7023 0.0000
# 2 29.7852 29.8288 23.3738 0.0000 2.6026 0.0000
# 3 49.0849 23.3738 100.6180 0.0000 3.0675 0.0000
# 4 0.0000 0.0000 0.0000 15.6501 0.0000 0.5542
# 5 14.7023 2.6026 3.0675 0.0000 35.5636 0.0000
# 6 0.0000 0.0000 0.0000 0.5542 0.0000 23.9955
#
#
#
# Elastic Compliance Matrix: (Units=1/GPa)
#
#
# Indices 1 2 3 4 5 6 
#
# 1 0.011780 -0.008571 -0.003636 0.000000 -0.003929 0.000000
# 2 -0.008571 0.047391 -0.006848 0.000000 0.000666 0.000000
# 3 -0.003636 -0.006848 0.013277 0.000000 0.000859 0.000000
# 4 0.000000 0.000000 0.000000 0.063950 0.000000 -0.001477
# 5 -0.003929 0.000666 0.000859 0.000000 0.029620 0.000000
# 6 0.000000 0.000000 0.000000 -0.001477 0.000000 0.041709
#
#
# Mechanical properties :
#
#
# Convention : Reuss Voigt Hill
#
# Bulk Modulus (GPa) = 29.12212 51.28290 40.20251
# Shear Modulus (GPa) = 19.43378 25.36280 22.39829
#
# Velocity S-wave (km/s) = 3.17551 3.62771 3.40912
# Velocity P-wave (km/s) = 5.34379 6.64506 6.02963
#
# Compressibility (1/GPa) = 0.03433816
#
# Stress axis : x y z
#
# Youngs Moduli (GPa) = 84.88656 21.10087 75.31830
#
# Poissons Ratio (x) = 0.18086 0.27386
# Poissons Ratio (y) = 0.72758 0.51579
# Poissons Ratio (z) = 0.30865 0.14450
#
# Static dielectric constant tensor:
#      x y z
#    x 3.733790 0.000000 0.107760 
#    y 0.000000 3.029070 0.000000 
#    z 0.107760 0.000000 3.750230 
# 
# 
# High freq. dielectric constant tensor:
#      x y z
#    x 1.768380 0.000000 0.001470 
#    y 0.000000 1.694550 0.000000 
#    z 0.001470 0.000000 1.765680 
# 
# From -- ./inp_files/275057.got.cif
#   From: 2010.06.25/outbox.cif.g09.slc.cpg/sg12_138_cif.got.tgz:275057.got - 2010.06.28 00:19:55.
