data_PCOD8084237
_publ_section_title
;
Structure prediction by ZEFSAII (Michael W. Deem and Ramdas Pophale) SiO2 
 PCOD8084237
Probable space group: C 2/M
;
_chemical_formula_sum "Si O2"
_cell_formula_units_Z 60
_cell_length_a 22.263361
_cell_length_b 17.738197
_cell_length_c 9.236478
_cell_angle_alpha 90.000000
_cell_angle_beta 120.490678
_cell_angle_gamma 90.000000
_cell_volume 3143.175314
_symmetry_space_group_name_H-M "C 2/M"
_symmetry_group_IT_number 12
_symmetry_cell_setting 'monoclinic'
loop_
_space_group_symop_operation_xyz
x,y,z
-x,y,-z
-x,-y,-z
x,-y,z
1/2+x,1/2+y,z
1/2-x,1/2+y,-z
1/2-x,1/2-y,-z
1/2+x,1/2-y,z
loop_
_atom_site_type_symbol
_atom_site_label
_atom_site_fract_x
_atom_site_fract_y
_atom_site_fract_z
Si Si1 0.381248 0.329707 0.715352
Si Si2 0.272230 0.911127 0.950783
Si Si3 0.062238 0.809715 0.678468
Si Si4 0.304094 0.694341 0.336484
Si Si5 0.000000 0.273672 0.000000
Si Si6 0.002339 0.084196 0.831301
Si Si7 0.897198 0.315572 0.102642
Si Si8 0.794958 0.183381 0.883284
O O1 0.325610 0.298773 0.531120
O O2 0.421187 0.400322 0.688705
O O3 0.337693 0.354035 0.803389
O O4 0.446073 0.273281 0.832435
O O5 0.354337 0.891887 0.081209
O O6 0.225385 0.880468 0.026083
O O7 0.262570 0.000000 0.925753
O O8 0.252813 0.870675 0.773258
O O9 0.131804 0.831377 0.682243
O O10 0.059072 0.719381 0.709062
O O11 0.000000 0.834012 0.500000
O O12 0.056753 0.858860 0.820795
O O13 0.275383 0.776897 0.260790
O O14 0.049115 0.327617 0.963364
O O15 0.024371 0.000000 0.815820
O O16 0.000000 0.098986 0.000000
O O17 0.841156 0.248005 0.012788
#
# Coordination Sequence:
#
# PCOD8084237 Si02
#       8
#     8   8   8   8   4   8   8   8
#     4  11  20  35  57  86 113 145 192 227 280 329
#     4  11  23  38  58  81 112 154 192 228 281 332
#     4  12  20  35  58  84 109 142 183 228 280 325
#     4  11  21  37  56  87 113 143 189 245 274 318
#     4  10  18  34  62  86 110 146 186 232 280 336
#     4  11  23  35  48  75 115 151 179 212 262 337
#     4  10  18  37  59  83 109 141 186 235 270 333
#     4  10  20  37  60  80 110 151 194 228 273 336
#
# _framework density 19.088978000000001
#
# number of rings (size 3 to 8) (size 9 to 14) (size 15 to 20)
#    0.000    1.200    6.000    2.000    0.000    1.867 
#    0.000    0.333    0.000    0.400    0.000    0.000 
#    0.000    0.000    0.000    0.000    0.000    0.000 
#
# Total GULP energy -371656.547835 kJ/mol
# GULP energy per Si atom -12388.551594 kJ/mol
# Density = 1.904553 g / cm^3
# Si number density = 19.088978 Si / 1000 Ang^3
#
#
#
# Elastic Constant Matrix: (Units=GPa)
#
#
# Indices 1 2 3 4 5 6 
#
# 1 106.4562 16.7522 7.3119 0.0000 -6.2734 0.0000
# 2 16.7522 63.0955 14.6970 0.0000 6.3787 0.0000
# 3 7.3119 14.6970 77.8697 0.0000 -3.0249 0.0000
# 4 0.0000 0.0000 0.0000 15.2173 0.0000 0.4684
# 5 -6.2734 6.3787 -3.0249 0.0000 23.1698 0.0000
# 6 0.0000 0.0000 0.0000 0.4684 0.0000 21.5288
#
#
#
# Elastic Compliance Matrix: (Units=1/GPa)
#
#
# Indices 1 2 3 4 5 6 
#
# 1 0.010086 -0.002976 -0.000249 0.000000 0.003518 0.000000
# 2 -0.002976 0.018052 -0.003369 0.000000 -0.006215 0.000000
# 3 -0.000249 -0.003369 0.013604 0.000000 0.002636 0.000000
# 4 0.000000 0.000000 0.000000 0.065759 0.000000 -0.001431
# 5 0.003518 -0.006215 0.002636 0.000000 0.046167 0.000000
# 6 0.000000 0.000000 0.000000 -0.001431 0.000000 0.046480
#
#
# Mechanical properties :
#
#
# Convention : Reuss Voigt Hill
#
# Bulk Modulus (GPa) = 35.02040 36.10483 35.56261
# Shear Modulus (GPa) = 22.43624 25.89388 24.16506
#
# Velocity S-wave (km/s) = 3.43206 3.68704 3.56183
# Velocity P-wave (km/s) = 5.83876 6.08940 5.96539
#
# Compressibility (1/GPa) = 0.02855479
#
# Stress axis : x y z
#
# Youngs Moduli (GPa) = 99.14578 55.39500 73.50983
#
# Poissons Ratio (x) = 0.16483 0.01829
# Poissons Ratio (y) = 0.29502 0.24767
# Poissons Ratio (z) = 0.02467 0.18664
#
# Static dielectric constant tensor:
#      x y z
#    x 3.814820 0.000000 0.173940 
#    y 0.000000 3.162630 0.000000 
#    z 0.173940 0.000000 3.874790 
# 
# 
# High freq. dielectric constant tensor:
#      x y z
#    x 1.762660 0.000000 0.000430 
#    y 0.000000 1.686290 0.000000 
#    z 0.000430 0.000000 1.742930 
# 
# From -- ./inp_files/98133.got.cif
#   From: 2010.06.25/outbox.cif.g09.slc.cpg/sg12_50_cif.got.tgz:98133.got - 2010.06.28 00:19:55.
