data_PCOD8084870
_publ_section_title
;
Structure prediction by ZEFSAII (Michael W. Deem and Ramdas Pophale) SiO2 
 PCOD8084870
Probable space group: C 2/M
;
_chemical_formula_sum "Si O2"
_cell_formula_units_Z 56
_cell_length_a 28.918585
_cell_length_b 8.752880
_cell_length_c 19.949372
_cell_angle_alpha 90.000000
_cell_angle_beta 142.323944
_cell_angle_gamma 90.000000
_cell_volume 3086.298887
_symmetry_space_group_name_H-M "C 2/M"
_symmetry_group_IT_number 12
_symmetry_cell_setting 'monoclinic'
loop_
_space_group_symop_operation_xyz
x,y,z
-x,y,-z
-x,-y,-z
x,-y,z
1/2+x,1/2+y,z
1/2-x,1/2+y,-z
1/2-x,1/2-y,-z
1/2+x,1/2-y,z
loop_
_atom_site_type_symbol
_atom_site_label
_atom_site_fract_x
_atom_site_fract_y
_atom_site_fract_z
Si Si1 0.300365 0.818523 0.263486
Si Si2 0.193032 0.681300 0.578972
Si Si3 0.365746 0.318366 0.922588
Si Si4 0.036624 0.681579 0.345551
Si Si5 0.453772 0.818307 0.383157
Si Si6 0.504352 0.318113 0.168632
Si Si7 0.140673 0.181601 0.235827
O O1 0.318196 0.755968 0.358496
O O2 0.216675 0.762566 0.144737
O O3 0.366315 0.761426 0.288875
O O4 0.300840 0.000000 0.266759
O O5 0.191055 0.500000 0.579342
O O6 0.123754 0.739050 0.453387
O O7 0.274946 0.736756 0.645085
O O8 0.369641 0.500000 0.926776
O O9 0.377801 0.258653 0.860376
O O10 0.431165 0.252778 0.045467
O O11 0.032056 0.500000 0.334378
O O12 0.000471 0.756138 0.238960
O O13 0.988834 0.743267 0.354222
O O14 0.500000 0.753942 0.500000
O O15 0.458893 0.000000 0.389382
O O16 0.504470 0.500000 0.169942
O O17 0.579140 0.253020 0.217166
O O18 0.137022 0.000000 0.231221
#
# Coordination Sequence:
#
# PCOD8084870 Si02
#       7
#     8   8   8   8   8   8   8
#     4   8  12  21  40  66  87 102 134 187 227 242
#     4   8  13  23  40  65  89 106 134 181 224 249
#     4   8  14  25  43  64  84 108 144 185 215 241
#     4  10  19  29  43  65  92 115 138 173 217 260
#     4   9  14  23  42  66  87 107 138 180 219 251
#     4  10  19  30  43  62  90 120 145 171 207 255
#     4   8  14  25  44  65  83 108 146 186 215 240
#
# _framework density 18.144711999999998
#
# number of rings (size 3 to 8) (size 9 to 14) (size 15 to 20)
#    0.000    3.286    1.429    2.143    0.000    2.286 
#    0.000    0.714    0.000    2.143    0.000    3.000 
#    0.000    0.000    0.000    0.000    0.000    0.000 
#
# Total GULP energy -346916.101238 kJ/mol
# GULP energy per Si atom -12389.860758 kJ/mol
# Density = 1.810341 g / cm^3
# Si number density = 18.144712 Si / 1000 Ang^3
#
#
#
# Elastic Constant Matrix: (Units=GPa)
#
#
# Indices 1 2 3 4 5 6 
#
# 1 150.5917 9.1624 74.4534 0.0000 8.5389 0.0000
# 2 9.1624 5.1876 8.7876 0.0000 0.4022 0.0000
# 3 74.4534 8.7876 107.0748 0.0000 0.8123 0.0000
# 4 0.0000 0.0000 0.0000 16.8193 0.0000 -5.9940
# 5 8.5389 0.4022 0.8123 0.0000 28.1644 0.0000
# 6 0.0000 0.0000 0.0000 -5.9940 0.0000 9.1309
#
#
#
# Elastic Compliance Matrix: (Units=1/GPa)
#
#
# Indices 1 2 3 4 5 6 
#
# 1 0.010570 -0.007005 -0.006753 0.000000 -0.002910 0.000000
# 2 -0.007005 0.228736 -0.013896 0.000000 -0.000742 0.000000
# 3 -0.006753 -0.013896 0.015162 0.000000 0.001809 0.000000
# 4 0.000000 0.000000 0.000000 0.077612 0.000000 0.050948
# 5 -0.002910 -0.000742 0.001809 0.000000 0.036347 0.000000
# 6 0.000000 0.000000 0.000000 0.050948 0.000000 0.142963
#
#
# Mechanical properties :
#
#
# Convention : Reuss Voigt Hill
#
# Bulk Modulus (GPa) = 5.02108 49.74011 27.38059
# Shear Modulus (GPa) = 7.89785 22.18631 15.04208
#
# Velocity S-wave (km/s) = 2.08858 3.50057 2.88237
# Velocity P-wave (km/s) = 2.93078 6.61900 5.11862
#
# Compressibility (1/GPa) = 0.19916052
#
# Stress axis : x y z
#
# Youngs Moduli (GPa) = 94.60366 4.37185 65.95564
#
# Poissons Ratio (x) = 0.03062 0.44541
# Poissons Ratio (y) = 0.66265 0.91653
# Poissons Ratio (z) = 0.63887 0.06075
#
# Static dielectric constant tensor:
#      x y z
#    x 3.749890 0.000000 0.326280 
#    y 0.000000 2.562480 0.000000 
#    z 0.326280 0.000000 3.545570 
# 
# 
# High freq. dielectric constant tensor:
#      x y z
#    x 1.711440 0.000000 0.018320 
#    y 0.000000 1.621780 0.000000 
#    z 0.018320 0.000000 1.700130 
# 
# From -- ./inp_files/245703.got.cif
#   From: 2010.06.25/outbox.cif.g09.slc.cpg/sg12_123_cif.got.tgz:245703.got - 2010.06.28 00:19:55.
