data_PCOD8084628
_publ_section_title
;
Structure prediction by ZEFSAII (Michael W. Deem and Ramdas Pophale) SiO2 
 PCOD8084628
Probable space group: C 2/M
;
_chemical_formula_sum "Si O2"
_cell_formula_units_Z 56
_cell_length_a 8.690262
_cell_length_b 30.033383
_cell_length_c 11.042891
_cell_angle_alpha 90.000000
_cell_angle_beta 112.981863
_cell_angle_gamma 90.000000
_cell_volume 2653.409759
_symmetry_space_group_name_H-M "C 2/M"
_symmetry_group_IT_number 12
_symmetry_cell_setting 'monoclinic'
loop_
_space_group_symop_operation_xyz
x,y,z
-x,y,-z
-x,-y,-z
x,-y,z
1/2+x,1/2+y,z
1/2-x,1/2+y,-z
1/2-x,1/2-y,-z
1/2+x,1/2-y,z
loop_
_atom_site_type_symbol
_atom_site_label
_atom_site_fract_x
_atom_site_fract_y
_atom_site_fract_z
Si Si1 0.668473 0.710323 0.718239
Si Si2 0.327580 0.185652 0.991172
Si Si3 0.222436 0.587282 0.118411
Si Si4 0.869178 0.390618 0.367959
Si Si5 0.035537 0.301130 0.719444
Si Si6 0.095987 0.551095 0.849463
Si Si7 0.990860 0.880878 0.631902
O O1 0.680884 0.710310 0.870604
O O2 0.849403 0.703579 0.714230
O O3 0.584460 0.757271 0.656751
O O4 0.551182 0.670115 0.641378
O O5 0.325181 0.134411 0.952184
O O6 0.500000 0.207457 0.000000
O O7 0.320006 0.191434 0.133337
O O8 0.397676 0.589193 0.242858
O O9 0.082499 0.572058 0.170626
O O10 0.224495 0.554101 0.003273
O O11 0.833024 0.422062 0.242727
O O12 0.696450 0.381149 0.380237
O O13 0.000000 0.414357 0.500000
O O14 0.957928 0.344071 0.362346
O O15 0.074074 0.500000 0.805655
O O16 0.000000 0.901738 0.500000
#
# Coordination Sequence:
#
# PCOD8084628 Si02
#       7
#     8   8   8   8   8   8   8
#     4  10  21  34  57  89 125 170 214 262 309 363
#     4   9  15  30  55  84 125 160 202 248 299 364
#     4  10  18  39  66  98 126 164 203 251 311 375
#     4  12  25  43  65  90 126 172 213 263 321 375
#     4  11  20  37  57  88 128 168 216 262 311 369
#     4  11  22  41  71 101 129 160 204 256 317 388
#     4  11  24  42  64  92 127 171 217 260 311 373
#
# _framework density 21.10492
#
# number of rings (size 3 to 8) (size 9 to 14) (size 15 to 20)
#    0.000    1.429    2.857    5.571    0.000    1.429 
#    0.000    6.429    0.000    3.000    0.000    0.000 
#    0.000    0.000    0.000    0.000    0.000    0.000 
#
# Total GULP energy -347099.775996 kJ/mol
# GULP energy per Si atom -12396.420571 kJ/mol
# Density = 2.105688 g / cm^3
# Si number density = 21.104920 Si / 1000 Ang^3
#
#
#
# Elastic Constant Matrix: (Units=GPa)
#
#
# Indices 1 2 3 4 5 6 
#
# 1 126.1818 42.0806 50.4426 0.0000 -0.7384 0.0000
# 2 42.0806 104.1574 12.1664 0.0000 -0.2063 0.0000
# 3 50.4426 12.1664 107.3777 0.0000 4.4052 0.0000
# 4 0.0000 0.0000 0.0000 4.4630 0.0000 -5.3296
# 5 -0.7384 -0.2063 4.4052 0.0000 31.6864 0.0000
# 6 0.0000 0.0000 0.0000 -5.3296 0.0000 5.5779
#
#
#
# Elastic Compliance Matrix: (Units=1/GPa)
#
#
# Indices 1 2 3 4 5 6 
#
# 1 0.011184 -0.003951 -0.004844 0.000000 0.000908 0.000000
# 2 -0.003951 0.011127 0.000600 0.000000 -0.000103 0.000000
# 3 -0.004844 0.000600 0.011591 0.000000 -0.001720 0.000000
# 4 0.000000 0.000000 0.000000 -1.588947 0.000000 -1.518215
# 5 0.000908 -0.000103 -0.001720 0.000000 0.031819 0.000000
# 6 0.000000 0.000000 0.000000 -1.518215 0.000000 -1.271355
#
#
# Mechanical properties :
#
#
# Convention : Reuss Voigt Hill
#
# Bulk Modulus (GPa) = 57.10380 60.78845 58.94613
# Shear Modulus (GPa) = -1.80352 23.88064 11.03856
#
# Velocity S-wave (km/s) = -0.92542 3.36746 2.28947
# Velocity P-wave (km/s) = 5.09647 6.63213 5.91435
#
# Compressibility (1/GPa) = 0.01751197
#
# Stress axis : x y z
#
# Youngs Moduli (GPa) = 89.41111 89.87265 86.27426
#
# Poissons Ratio (x) = 0.35509 0.41788
# Poissons Ratio (y) = 0.35326 -0.05172
# Poissons Ratio (z) = 0.43307 -0.05388
#
# Static dielectric constant tensor:
#      x y z
#    x 3.541430 0.000000 -0.033910 
#    y 0.000000 3.706460 0.000000 
#    z -0.033910 0.000000 4.181420 
# 
# 
# High freq. dielectric constant tensor:
#      x y z
#    x 1.807130 0.000000 -0.002150 
#    y 0.000000 1.810780 0.000000 
#    z -0.002150 0.000000 1.841570 
# 
# From -- ./inp_files/125815.got.cif
#   From: 2010.06.25/outbox.cif.g09.slc.cpg/sg12_63_cif.got.tgz:125815.got - 2010.06.28 00:19:55.
