data_PCOD8084551
_publ_section_title
;
Structure prediction by ZEFSAII (Michael W. Deem and Ramdas Pophale) SiO2 
 PCOD8084551
Probable space group: C 2/M
;
_chemical_formula_sum "Si O2"
_cell_formula_units_Z 64
_cell_length_a 17.521240
_cell_length_b 30.255188
_cell_length_c 8.999016
_cell_angle_alpha 90.000000
_cell_angle_beta 139.165180
_cell_angle_gamma 90.000000
_cell_volume 3119.307019
_symmetry_space_group_name_H-M "C 2/M"
_symmetry_group_IT_number 12
_symmetry_cell_setting 'monoclinic'
loop_
_space_group_symop_operation_xyz
x,y,z
-x,y,-z
-x,-y,-z
x,-y,z
1/2+x,1/2+y,z
1/2-x,1/2+y,-z
1/2-x,1/2-y,-z
1/2+x,1/2-y,z
loop_
_atom_site_type_symbol
_atom_site_label
_atom_site_fract_x
_atom_site_fract_y
_atom_site_fract_z
Si Si1 0.665020 0.635243 0.957757
Si Si2 0.423274 0.951092 0.667030
Si Si3 0.258568 0.836890 0.788378
Si Si4 0.511244 0.206288 0.841083
Si Si5 0.829418 0.429711 0.835348
Si Si6 0.123090 0.950180 0.751608
Si Si7 0.897897 0.363058 0.468833
Si Si8 0.529755 0.701119 0.370693
O O1 0.687448 0.642750 0.818125
O O2 0.644310 0.582048 0.926066
O O3 0.552190 0.664808 0.832367
O O4 0.772783 0.650619 0.217775
O O5 0.339534 0.951204 0.687962
O O6 0.384504 0.914362 0.492219
O O7 0.414395 0.000000 0.581568
O O8 0.556511 0.940955 0.902676
O O9 0.323351 0.876847 0.799172
O O10 0.164230 0.813164 0.543793
O O11 0.353186 0.803033 0.993716
O O12 0.426274 0.168333 0.650304
O O13 0.481057 0.252659 0.726128
O O14 0.500000 0.207489 0.000000
O O15 0.719047 0.447942 0.761979
O O16 0.000000 0.936324 0.500000
O O17 0.119874 0.000000 0.810097
O O18 0.000000 0.356522 0.500000
O O19 0.500000 0.707820 0.500000
#
# Coordination Sequence:
#
# PCOD8084551 Si02
#       8
#     8   8   8   8   8   8   8   8
#     4  10  21  39  61  90 125 158 209 255 311 369
#     4  11  22  35  58  92 126 165 206 253 316 373
#     4  10  20  39  65  87 122 159 201 255 303 373
#     4  12  25  42  61  91 124 158 210 253 317 380
#     4  10  18  37  58  89 126 164 207 252 313 369
#     4  10  19  34  63  95 125 167 218 265 309 369
#     4  12  23  40  62  91 126 172 204 256 319 375
#     4  10  24  41  66  91 118 161 205 259 312 371
#
# _framework density 20.517375999999999
#
# number of rings (size 3 to 8) (size 9 to 14) (size 15 to 20)
#    0.000    1.375    2.500    5.250    1.750    2.250 
#    2.250    0.000    0.000    0.000    0.000    3.500 
#    0.000    0.000    0.000    0.000    0.000    0.000 
#
# Total GULP energy -396746.959256 kJ/mol
# GULP energy per Si atom -12398.342477 kJ/mol
# Density = 2.047068 g / cm^3
# Si number density = 20.517376 Si / 1000 Ang^3
#
#
#
# Elastic Constant Matrix: (Units=GPa)
#
#
# Indices 1 2 3 4 5 6 
#
# 1 44.6494 29.2018 28.8649 0.0000 5.4439 0.0000
# 2 29.2018 164.3911 67.3649 0.0000 6.2021 0.0000
# 3 28.8649 67.3649 134.5493 0.0000 18.1702 0.0000
# 4 0.0000 0.0000 0.0000 25.2317 0.0000 8.1263
# 5 5.4439 6.2021 18.1702 0.0000 30.4276 0.0000
# 6 0.0000 0.0000 0.0000 8.1263 0.0000 8.4565
#
#
#
# Elastic Compliance Matrix: (Units=1/GPa)
#
#
# Indices 1 2 3 4 5 6 
#
# 1 0.027273 -0.003119 -0.004042 0.000000 -0.001830 0.000000
# 2 -0.003119 0.008028 -0.003485 0.000000 0.001003 0.000000
# 3 -0.004042 -0.003485 0.010715 0.000000 -0.004965 0.000000
# 4 0.000000 0.000000 0.000000 0.057397 0.000000 -0.055156
# 5 -0.001830 0.001003 -0.004965 0.000000 0.035953 0.000000
# 6 0.000000 0.000000 0.000000 -0.055156 0.000000 0.171255
#
#
# Mechanical properties :
#
#
# Convention : Reuss Voigt Hill
#
# Bulk Modulus (GPa) = 40.44985 66.05035 53.25010
# Shear Modulus (GPa) = 14.69922 27.36705 21.03313
#
# Velocity S-wave (km/s) = 2.67952 3.65615 3.20525
# Velocity P-wave (km/s) = 5.41579 7.07711 6.30144
#
# Compressibility (1/GPa) = 0.02472197
#
# Stress axis : x y z
#
# Youngs Moduli (GPa) = 36.66628 124.57027 93.32787
#
# Poissons Ratio (x) = 0.38857 0.37723
# Poissons Ratio (y) = 0.11437 0.32529
# Poissons Ratio (z) = 0.14821 0.43419
#
# Static dielectric constant tensor:
#      x y z
#    x 3.613410 0.000000 0.276610 
#    y 0.000000 4.082580 0.000000 
#    z 0.276610 0.000000 3.805350 
# 
# 
# High freq. dielectric constant tensor:
#      x y z
#    x 1.780060 0.000000 0.019800 
#    y 0.000000 1.819950 0.000000 
#    z 0.019800 0.000000 1.796350 
# 
# From -- ./inp_files/80790.got.cif
#   From: 2010.06.25/outbox.cif.g09.slc.cpg/sg12_41_cif.got.tgz:80790.got - 2010.06.28 00:19:55.
