data_PCOD8084934
_publ_section_title
;
Structure prediction by ZEFSAII (Michael W. Deem and Ramdas Pophale) SiO2 
 PCOD8084934
Probable space group: C 2/M
;
_chemical_formula_sum "Si O2"
_cell_formula_units_Z 56
_cell_length_a 28.168403
_cell_length_b 8.865744
_cell_length_c 19.015232
_cell_angle_alpha 90.000000
_cell_angle_beta 136.336776
_cell_angle_gamma 90.000000
_cell_volume 3278.621532
_symmetry_space_group_name_H-M "C 2/M"
_symmetry_group_IT_number 12
_symmetry_cell_setting 'monoclinic'
loop_
_space_group_symop_operation_xyz
x,y,z
-x,y,-z
-x,-y,-z
x,-y,z
1/2+x,1/2+y,z
1/2-x,1/2+y,-z
1/2-x,1/2-y,-z
1/2+x,1/2-y,z
loop_
_atom_site_type_symbol
_atom_site_label
_atom_site_fract_x
_atom_site_fract_y
_atom_site_fract_z
Si Si1 0.070516 0.164092 0.778820
Si Si2 0.559018 0.176988 0.912817
Si Si3 0.775316 0.164370 0.093275
Si Si4 0.793660 0.322330 0.250109
Si Si5 0.439788 0.679108 0.384559
Si Si6 0.839255 0.677707 0.852838
Si Si7 0.551657 0.331636 0.119527
O O1 0.072891 0.277835 0.846695
O O2 0.145395 0.132781 0.829308
O O3 0.036423 0.229025 0.669834
O O4 0.039260 0.000000 0.768034
O O5 0.487458 0.255724 0.857046
O O6 0.547465 0.000000 0.904840
O O7 0.621712 0.225198 0.031987
O O8 0.759667 0.276515 0.139768
O O9 0.738202 0.000000 0.064470
O O10 0.750000 0.250000 0.000000
O O11 0.798946 0.500000 0.265059
O O12 0.869375 0.252351 0.338592
O O13 0.735498 0.254796 0.239638
O O14 0.500000 0.735931 0.500000
O O15 0.430107 0.500000 0.377311
O O16 0.829601 0.500000 0.839345
O O17 0.883436 0.731028 0.833154
O O18 0.575856 0.500000 0.166612
O O19 0.500000 0.339457 0.000000
#
# Coordination Sequence:
#
# PCOD8084934 Si02
#       7
#     8   8   8   8   8   8   8
#     4   9  18  30  45  66  90 118 153 191 232 279
#     4  10  19  29  44  67  96 130 163 194 228 270
#     4  10  19  30  43  62  91 125 158 191 230 275
#     4  11  21  31  46  69  95 123 157 194 235 283
#     4   9  19  37  56  71  91 120 155 198 247 293
#     4  10  19  31  46  66  96 131 166 198 229 271
#     4   9  17  29  45  65  92 126 162 198 234 270
#
# _framework density 17.080348000000001
#
# number of rings (size 3 to 8) (size 9 to 14) (size 15 to 20)
#    0.000    2.286    0.000    4.714    0.000    8.857 
#    0.000    0.000    0.000    0.000    0.000    1.000 
#    0.000    0.000    0.000    0.000    0.000    0.000 
#
# Total GULP energy -346890.059762 kJ/mol
# GULP energy per Si atom -12388.930706 kJ/mol
# Density = 1.704147 g / cm^3
# Si number density = 17.080348 Si / 1000 Ang^3
#
#
#
# Elastic Constant Matrix: (Units=GPa)
#
#
# Indices 1 2 3 4 5 6 
#
# 1 85.1712 36.3036 14.9639 0.0000 12.0542 0.0000
# 2 36.3036 91.0220 24.1873 0.0000 8.4163 0.0000
# 3 14.9639 24.1873 53.3440 0.0000 7.8749 0.0000
# 4 0.0000 0.0000 0.0000 16.8328 0.0000 1.1475
# 5 12.0542 8.4163 7.8749 0.0000 18.5288 0.0000
# 6 0.0000 0.0000 0.0000 1.1475 0.0000 31.3395
#
#
#
# Elastic Compliance Matrix: (Units=1/GPa)
#
#
# Indices 1 2 3 4 5 6 
#
# 1 0.015086 -0.005132 -0.000854 0.000000 -0.007121 0.000000
# 2 -0.005132 0.014452 -0.004947 0.000000 -0.001123 0.000000
# 3 -0.000854 -0.004947 0.022209 0.000000 -0.006636 0.000000
# 4 0.000000 0.000000 0.000000 0.059557 0.000000 -0.002181
# 5 -0.007121 -0.001123 -0.006636 0.000000 0.061933 0.000000
# 6 0.000000 0.000000 0.000000 -0.002181 0.000000 0.031988
#
#
# Mechanical properties :
#
#
# Convention : Reuss Voigt Hill
#
# Bulk Modulus (GPa) = 33.46657 42.27187 37.86922
# Shear Modulus (GPa) = 21.09250 23.61235 22.35243
#
# Velocity S-wave (km/s) = 3.51793 3.72214 3.62147
# Velocity P-wave (km/s) = 6.01142 6.57837 6.30128
#
# Compressibility (1/GPa) = 0.02988056
#
# Stress axis : x y z
#
# Youngs Moduli (GPa) = 66.28554 69.19628 45.02745
#
# Poissons Ratio (x) = 0.35510 0.03845
# Poissons Ratio (y) = 0.34016 0.22277
# Poissons Ratio (z) = 0.05660 0.34234
#
# Static dielectric constant tensor:
#      x y z
#    x 3.263350 0.000000 -0.094360 
#    y 0.000000 3.274250 0.000000 
#    z -0.094360 0.000000 2.640990 
# 
# 
# High freq. dielectric constant tensor:
#      x y z
#    x 1.658900 0.000000 0.003670 
#    y 0.000000 1.669400 0.000000 
#    z 0.003670 0.000000 1.610470 
# 
# From -- ./inp_files/291791.got.cif
#   From: 2010.06.25/outbox.cif.g09.slc.cpg/sg12_146_cif.got.tgz:291791.got - 2010.06.28 00:19:55.
