data_PCOD8084583
_publ_section_title
;
Structure prediction by ZEFSAII (Michael W. Deem and Ramdas Pophale) SiO2 
 PCOD8084583
Probable space group: C 2/M
;
_chemical_formula_sum "Si O2"
_cell_formula_units_Z 56
_cell_length_a 9.372621
_cell_length_b 26.221162
_cell_length_c 19.254338
_cell_angle_alpha 90.000000
_cell_angle_beta 31.872493
_cell_angle_gamma 90.000000
_cell_volume 2498.623087
_symmetry_space_group_name_H-M "C 2/M"
_symmetry_group_IT_number 12
_symmetry_cell_setting 'monoclinic'
loop_
_space_group_symop_operation_xyz
x,y,z
-x,y,-z
-x,-y,-z
x,-y,z
1/2+x,1/2+y,z
1/2-x,1/2+y,-z
1/2-x,1/2-y,-z
1/2+x,1/2-y,z
loop_
_atom_site_type_symbol
_atom_site_label
_atom_site_fract_x
_atom_site_fract_y
_atom_site_fract_z
Si Si1 0.387690 0.371356 0.476388
Si Si2 0.485487 0.943524 0.927756
Si Si3 0.505708 0.214467 0.622996
Si Si4 0.165430 0.145247 0.002472
Si Si5 0.401003 0.442709 0.350165
Si Si6 0.415271 0.648902 0.252597
Si Si7 0.727646 0.808623 0.781466
O O1 0.500000 0.396964 0.500000
O O2 0.136997 0.335481 0.604527
O O3 0.284242 0.415979 0.467906
O O4 0.615077 0.336255 0.346170
O O5 0.778469 0.945365 0.772512
O O6 0.357103 0.000000 0.985510
O O7 0.500000 0.920289 0.000000
O O8 0.299221 0.910453 0.954291
O O9 0.750000 0.250000 0.500000
O O10 0.323208 0.190810 0.635010
O O11 0.306466 0.248645 0.753170
O O12 0.962914 0.151668 0.150587
O O13 0.405448 0.187168 0.904971
O O14 0.000000 0.150033 0.000000
O O15 0.281308 0.500000 0.390411
O O16 0.322367 0.407754 0.316010
O O17 0.684779 0.664094 0.183242
#
# Coordination Sequence:
#
# PCOD8084583 Si02
#       7
#     8   8   8   8   8   8   8
#     4  10  22  39  66  94 135 169 224 282 337 392
#     4  10  18  37  68  96 129 179 227 270 329 411
#     4  10  25  41  67  95 127 175 234 281 333 390
#     4  12  24  39  64 100 145 175 216 289 341 398
#     4  10  21  40  70  99 130 177 227 269 331 405
#     4  11  23  42  70  99 134 178 228 276 332 409
#     4  10  23  43  65  92 133 182 227 272 337 406
#
# _framework density 22.412344000000001
#
# number of rings (size 3 to 8) (size 9 to 14) (size 15 to 20)
#    0.000    1.571    4.286    0.429    6.000    5.714 
#    0.000    1.429    0.000    0.000    0.000    0.000 
#    0.000    0.000    0.000    0.000    0.000    0.000 
#
# Total GULP energy -346979.322898 kJ/mol
# GULP energy per Si atom -12392.118675 kJ/mol
# Density = 2.236133 g / cm^3
# Si number density = 22.412344 Si / 1000 Ang^3
#
#
#
# Elastic Constant Matrix: (Units=GPa)
#
#
# Indices 1 2 3 4 5 6 
#
# 1 150.5319 52.4158 57.0973 -0.0011 4.2162 -0.0007
# 2 52.4158 166.5690 53.3198 0.0053 1.0440 -0.0024
# 3 57.0973 53.3198 74.0060 -0.0137 5.2528 0.0169
# 4 -0.0011 0.0053 -0.0137 19.6177 0.0030 -5.9049
# 5 4.2162 1.0440 5.2528 0.0030 39.8573 -0.0052
# 6 -0.0007 -0.0024 0.0169 -5.9049 -0.0052 30.0303
#
#
#
# Elastic Compliance Matrix: (Units=1/GPa)
#
#
# Indices 1 2 3 4 5 6 
#
# 1 0.009480 -0.000836 -0.006705 -0.000003 -0.000097 0.000003
# 2 -0.000836 0.007889 -0.005077 -0.000005 0.000551 0.000003
# 3 -0.006705 -0.005077 0.022494 0.000014 -0.002122 -0.000011
# 4 -0.000003 -0.000005 0.000014 0.054181 -0.000004 0.010654
# 5 -0.000097 0.000551 -0.002122 -0.000004 0.025365 0.000005
# 6 0.000003 0.000003 -0.000011 0.010654 0.000005 0.035395
#
#
# Mechanical properties :
#
#
# Convention : Reuss Voigt Hill
#
# Bulk Modulus (GPa) = 68.37191 79.64143 74.00667
# Shear Modulus (GPa) = 27.03936 33.11932 30.07934
#
# Velocity S-wave (km/s) = 3.47717 3.84829 3.66743
# Velocity P-wave (km/s) = 6.83326 7.44027 7.14322
#
# Compressibility (1/GPa) = 0.01462589
#
# Stress axis : x y z
#
# Youngs Moduli (GPa) = 105.48338 126.76590 44.45639
#
# Poissons Ratio (x) = 0.10603 0.29806
# Poissons Ratio (y) = 0.08823 0.22572
# Poissons Ratio (z) = 0.70723 0.64364
#
# Static dielectric constant tensor:
#      x y z
#    x 3.825880 0.000020 -0.176310 
#    y 0.000020 4.568440 -0.000040 
#    z -0.176310 -0.000040 4.056390 
# 
# 
# High freq. dielectric constant tensor:
#      x y z
#    x 1.862130 0.000000 -0.014670 
#    y 0.000000 1.888430 0.000000 
#    z -0.014670 0.000000 1.874440 
# 
# From -- ./inp_files/259808.got.cif
#   From: 2010.06.25/outbox.cif.g09.slc.cpg/sg12_130_cif.got.tgz:259808.got - 2010.06.28 00:19:55.
