data_PCOD8084793
_publ_section_title
;
Structure prediction by ZEFSAII (Michael W. Deem and Ramdas Pophale) SiO2 
 PCOD8084793
Probable space group: C 2/M
;
_chemical_formula_sum "Si O2"
_cell_formula_units_Z 64
_cell_length_a 27.840194
_cell_length_b 9.257209
_cell_length_c 20.679892
_cell_angle_alpha 90.000000
_cell_angle_beta 128.254095
_cell_angle_gamma 90.000000
_cell_volume 4185.246884
_symmetry_space_group_name_H-M "C 2/M"
_symmetry_group_IT_number 12
_symmetry_cell_setting 'monoclinic'
loop_
_space_group_symop_operation_xyz
x,y,z
-x,y,-z
-x,-y,-z
x,-y,z
1/2+x,1/2+y,z
1/2-x,1/2+y,-z
1/2-x,1/2-y,-z
1/2+x,1/2-y,z
loop_
_atom_site_type_symbol
_atom_site_label
_atom_site_fract_x
_atom_site_fract_y
_atom_site_fract_z
Si Si1 0.707450 0.836745 0.052328
Si Si2 0.764674 0.668388 0.359204
Si Si3 0.742176 0.167492 0.792362
Si Si4 0.007415 0.331651 0.432069
Si Si5 0.197167 0.163941 0.423511
Si Si6 0.375745 0.669683 0.520114
Si Si7 0.659701 0.336828 0.900293
Si Si8 0.613280 0.166287 0.747041
O O1 0.711497 0.759837 0.125243
O O2 0.773155 0.834554 0.073729
O O3 0.683836 0.000000 0.041824
O O4 0.659487 0.750499 0.967516
O O5 0.784456 0.500000 0.375828
O O6 0.747997 0.717589 0.273120
O O7 0.702493 0.694377 0.350628
O O8 0.821611 0.760180 0.432872
O O9 0.672136 0.199796 0.752319
O O10 0.758197 0.000000 0.816253
O O11 0.023901 0.500000 0.440102
O O12 0.945057 0.292343 0.343871
O O13 0.000000 0.285173 0.500000
O O14 0.060232 0.239795 0.443454
O O15 0.250000 0.250000 0.500000
O O16 0.134649 0.199214 0.410705
O O17 0.214102 0.000000 0.451129
O O18 0.377865 0.500000 0.506160
O O19 0.637747 0.500000 0.895207
O O20 0.612938 0.261859 0.811620
O O21 0.612591 0.000000 0.768247
#
# Coordination Sequence:
#
# PCOD8084793 Si02
#       8
#     8   8   8   8   8   8   8   8
#     4   9  16  25  38  57  81 107 132 161 199 240
#     4   9  16  28  45  61  81 111 142 169 203 250
#     4   9  16  26  41  60  81 106 136 168 201 239
#     4  10  20  33  46  59  79 111 148 178 206 244
#     4   8  15  27  42  60  80 104 135 170 208 248
#     4  10  19  29  42  61  84 108 138 178 216 245
#     4   9  16  26  40  56  76 104 137 168 198 236
#     4   9  17  28  41  57  78 105 139 175 205 235
#
# _framework density 15.291810999999999
#
# number of rings (size 3 to 8) (size 9 to 14) (size 15 to 20)
#    0.000    2.875    0.000    1.875    0.000    6.750 
#    0.000    2.500    0.000    0.000    0.000    0.000 
#    0.000    1.000    0.000   11.500    0.000    3.375 
#
# Total GULP energy -396557.798392 kJ/mol
# GULP energy per Si atom -12392.431200 kJ/mol
# Density = 1.525701 g / cm^3
# Si number density = 15.291811 Si / 1000 Ang^3
#
#
#
# Elastic Constant Matrix: (Units=GPa)
#
#
# Indices 1 2 3 4 5 6 
#
# 1 84.1427 44.4946 52.4149 0.0000 -20.2808 0.0000
# 2 44.4946 84.0371 59.5888 0.0000 -13.6293 0.0000
# 3 52.4149 59.5888 117.3605 0.0000 -24.5024 0.0000
# 4 0.0000 0.0000 0.0000 25.6873 0.0000 -2.9176
# 5 -20.2808 -13.6293 -24.5024 0.0000 20.4939 0.0000
# 6 0.0000 0.0000 0.0000 -2.9176 0.0000 16.4069
#
#
#
# Elastic Compliance Matrix: (Units=1/GPa)
#
#
# Indices 1 2 3 4 5 6 
#
# 1 0.020170 -0.006446 -0.003282 0.000000 0.011749 0.000000
# 2 -0.006446 0.020686 -0.008108 0.000000 -0.002316 0.000000
# 3 -0.003282 -0.008108 0.016391 0.000000 0.010957 0.000000
# 4 0.000000 0.000000 0.000000 0.039732 0.000000 0.007065
# 5 0.011749 -0.002316 0.010957 0.000000 0.071982 0.000000
# 6 0.000000 0.000000 0.000000 0.007065 0.000000 0.062207
#
#
# Mechanical properties :
#
#
# Convention : Reuss Voigt Hill
#
# Bulk Modulus (GPa) = 46.35149 66.50412 56.42781
# Shear Modulus (GPa) = 18.24616 21.12040 19.68328
#
# Velocity S-wave (km/s) = 3.45802 3.72043 3.59162
# Velocity P-wave (km/s) = 6.80595 7.87654 7.36073
#
# Compressibility (1/GPa) = 0.02157428
#
# Stress axis : x y z
#
# Youngs Moduli (GPa) = 49.57918 48.34195 61.01042
#
# Poissons Ratio (x) = 0.31164 0.20024
# Poissons Ratio (y) = 0.31961 0.49464
# Poissons Ratio (z) = 0.16272 0.39193
#
# Static dielectric constant tensor:
#      x y z
#    x 3.058540 0.000000 -0.346000 
#    y 0.000000 3.041640 0.000000 
#    z -0.346000 0.000000 2.874120 
# 
# 
# High freq. dielectric constant tensor:
#      x y z
#    x 1.554650 0.000000 -0.028000 
#    y 0.000000 1.596090 0.000000 
#    z -0.028000 0.000000 1.569230 
# 
# From -- ./inp_files/326839.got.cif
#   From: 2010.06.25/outbox.cif.g09.slc.cpg/sg12_164_cif.got.tgz:326839.got - 2010.06.28 00:19:55.
