data_PCOD8084957
_publ_section_title
;
Structure prediction by ZEFSAII (Michael W. Deem and Ramdas Pophale) SiO2 
 PCOD8084957
Probable space group: C 2/M
;
_chemical_formula_sum "Si O2"
_cell_formula_units_Z 40
_cell_length_a 24.903173
_cell_length_b 8.760671
_cell_length_c 32.461684
_cell_angle_alpha 90.000000
_cell_angle_beta 19.462338
_cell_angle_gamma 90.000000
_cell_volume 2359.670510
_symmetry_space_group_name_H-M "C 2/M"
_symmetry_group_IT_number 12
_symmetry_cell_setting 'monoclinic'
loop_
_space_group_symop_operation_xyz
x,y,z
-x,y,-z
-x,-y,-z
x,-y,z
1/2+x,1/2+y,z
1/2-x,1/2+y,-z
1/2-x,1/2-y,-z
1/2+x,1/2-y,z
loop_
_atom_site_type_symbol
_atom_site_label
_atom_site_fract_x
_atom_site_fract_y
_atom_site_fract_z
Si Si1 0.073942 0.318708 0.509749
Si Si2 0.075201 0.676670 0.175898
Si Si3 0.231358 0.679358 0.312320
Si Si4 0.931669 0.177404 0.906915
Si Si5 0.286961 0.680187 0.429495
O O1 0.083243 0.500000 0.505825
O O2 0.175851 0.257420 0.397012
O O3 0.154207 0.252896 0.493286
O O4 0.887675 0.260242 0.638075
O O5 0.032002 0.500000 0.212895
O O6 0.048390 0.721623 0.148066
O O7 0.965810 0.774453 0.285622
O O8 0.262688 0.709781 0.051956
O O9 0.205724 0.500000 0.331884
O O10 0.420278 0.720969 0.169234
O O11 0.943090 0.000000 0.885227
O O12 0.277268 0.500000 0.439916
O O13 0.250000 0.750000 0.500000
#
# Coordination Sequence:
#
# PCOD8084957 Si02
#       5
#     8   8   8   8   8
#     4   8  14  24  44  70  93 116 151 192 233 273
#     4  10  19  29  44  70  99 126 156 188 229 281
#     4   8  12  23  45  72  94 115 146 192 237 272
#     4   9  16  28  48  71  97 124 152 191 235 276
#     4  11  21  34  50  68  93 126 160 195 231 274
#
# _framework density 16.951519999999999
#
# number of rings (size 3 to 8) (size 9 to 14) (size 15 to 20)
#    0.000    2.800    2.000    2.400    0.000    0.800 
#    0.000    0.000    0.000    4.800    0.000    8.400 
#    0.000    0.000    0.000    0.000    0.000    0.000 
#
# Total GULP energy -247783.832172 kJ/mol
# GULP energy per Si atom -12389.191609 kJ/mol
# Density = 1.691294 g / cm^3
# Si number density = 16.951520 Si / 1000 Ang^3
#
#
#
# Elastic Constant Matrix: (Units=GPa)
#
#
# Indices 1 2 3 4 5 6 
#
# 1 122.0179 24.3675 77.7685 0.0820 -20.2729 -0.0956
# 2 24.3675 35.6703 26.2130 0.2152 -1.8982 -0.5587
# 3 77.7685 26.2130 121.0165 -0.0213 -27.2573 -0.1022
# 4 0.0820 0.2152 -0.0213 23.9088 -0.0093 2.8913
# 5 -20.2729 -1.8982 -27.2573 -0.0093 35.2952 0.0795
# 6 -0.0956 -0.5587 -0.1022 2.8913 0.0795 17.2034
#
#
#
# Elastic Compliance Matrix: (Units=1/GPa)
#
#
# Indices 1 2 3 4 5 6 
#
# 1 0.014355 -0.003854 -0.007965 -0.000009 0.001887 -0.000100
# 2 -0.003854 0.035025 -0.006275 -0.000452 -0.005179 0.001179
# 3 -0.007965 -0.006275 0.016506 0.000127 0.007835 -0.000207
# 4 -0.000009 -0.000452 0.000127 0.042699 0.000096 -0.007191
# 5 0.001887 -0.005179 0.007835 0.000096 0.035189 -0.000290
# 6 -0.000100 0.001179 -0.000207 -0.007191 -0.000290 0.059374
#
#
# Mechanical properties :
#
#
# Convention : Reuss Voigt Hill
#
# Bulk Modulus (GPa) = 33.67455 59.48917 46.58186
# Shear Modulus (GPa) = 20.06118 25.30519 22.68319
#
# Velocity S-wave (km/s) = 3.44385 3.86787 3.66200
# Velocity P-wave (km/s) = 5.97678 7.42409 6.73940
#
# Compressibility (1/GPa) = 0.02969602
#
# Stress axis : x y z
#
# Youngs Moduli (GPa) = 69.65992 28.55135 60.58424
#
# Poissons Ratio (x) = 0.11004 0.48258
# Poissons Ratio (y) = 0.26848 0.38019
# Poissons Ratio (z) = 0.55487 0.17917
#
# Static dielectric constant tensor:
#      x y z
#    x 3.325130 -0.000320 -0.511820 
#    y -0.000320 2.918510 -0.000180 
#    z -0.511820 -0.000180 3.417850 
# 
# 
# High freq. dielectric constant tensor:
#      x y z
#    x 1.631430 -0.000030 -0.037420 
#    y -0.000030 1.623720 0.000010 
#    z -0.037420 0.000010 1.650370 
# 
# From -- ./inp_files/162656.got.cif
#   From: 2010.06.25/outbox.cif.g09.slc.cpg/sg12_82_cif.got.tgz:162656.got - 2010.06.28 00:19:55.
