data_PCOD8084895
_publ_section_title
;
Structure prediction by ZEFSAII (Michael W. Deem and Ramdas Pophale) SiO2 
 PCOD8084895
Probable space group: C 2/M
;
_chemical_formula_sum "Si O2"
_cell_formula_units_Z 64
_cell_length_a 24.380228
_cell_length_b 9.468900
_cell_length_c 28.858400
_cell_angle_alpha 90.000000
_cell_angle_beta 144.347236
_cell_angle_gamma 90.000000
_cell_volume 3883.133944
_symmetry_space_group_name_H-M "C 2/M"
_symmetry_group_IT_number 12
_symmetry_cell_setting 'monoclinic'
loop_
_space_group_symop_operation_xyz
x,y,z
-x,y,-z
-x,-y,-z
x,-y,z
1/2+x,1/2+y,z
1/2-x,1/2+y,-z
1/2-x,1/2-y,-z
1/2+x,1/2-y,z
loop_
_atom_site_type_symbol
_atom_site_label
_atom_site_fract_x
_atom_site_fract_y
_atom_site_fract_z
Si Si1 0.421655 0.667388 0.038654
Si Si2 0.460160 0.667414 0.165511
Si Si3 0.270264 0.668634 0.861563
Si Si4 0.390636 0.338302 0.592972
Si Si5 0.129064 0.167449 0.161692
Si Si6 0.666163 0.332298 0.287521
Si Si7 0.406309 0.666311 0.228260
Si Si8 0.773169 0.663581 0.447512
O O1 0.424950 0.500000 0.037313
O O2 0.404833 0.714239 0.080709
O O3 0.522020 0.726754 0.089169
O O4 0.337036 0.724225 0.948946
O O5 0.467670 0.500000 0.173367
O O6 0.565908 0.729707 0.235767
O O7 0.407682 0.720525 0.175728
O O8 0.257090 0.500000 0.853241
O O9 0.315667 0.724377 0.844879
O O10 0.170581 0.743993 0.797338
O O11 0.385282 0.500000 0.574162
O O12 0.494563 0.296692 0.680239
O O13 0.320038 0.306513 0.586516
O O14 0.362285 0.247918 0.528425
O O15 0.183821 0.215016 0.246346
O O16 0.124003 0.000000 0.155665
O O17 0.660103 0.500000 0.286661
O O18 0.749489 0.281377 0.379072
O O19 0.383869 0.500000 0.216106
O O20 0.800889 0.500000 0.467024
#
# Coordination Sequence:
#
# PCOD8084895 Si02
#       8
#     8   8   8   8   8   8   8   8
#     4   8  14  25  44  67  88 110 142 187 227 254
#     4   8  13  24  42  63  86 115 148 176 208 255
#     4  10  19  29  43  67  92 114 145 184 221 252
#     4   9  17  28  42  63  90 116 141 171 210 261
#     4   8  14  25  44  67  89 112 142 183 224 256
#     4   8  12  22  43  68  88 108 140 181 218 255
#     4  10  19  31  45  60  87 125 154 171 200 262
#     4   9  15  25  45  70  89 105 136 180 221 255
#
# _framework density 16.481532999999999
#
# number of rings (size 3 to 8) (size 9 to 14) (size 15 to 20)
#    0.000    3.250    1.250    1.875    0.000    2.500 
#    0.000    0.000    0.000    3.000    0.000    8.750 
#    0.000    0.000    0.000    0.000    0.000    0.000 
#
# Total GULP energy -396527.423163 kJ/mol
# GULP energy per Si atom -12391.481974 kJ/mol
# Density = 1.644402 g / cm^3
# Si number density = 16.481533 Si / 1000 Ang^3
#
#
#
# Elastic Constant Matrix: (Units=GPa)
#
#
# Indices 1 2 3 4 5 6 
#
# 1 77.0315 22.5302 59.7021 0.0000 -2.7663 0.0000
# 2 22.5302 24.0608 34.9031 0.0001 -1.7563 0.0000
# 3 59.7021 34.9031 122.0543 0.0000 -16.3206 0.0000
# 4 0.0000 0.0001 0.0000 19.8415 0.0000 3.0487
# 5 -2.7663 -1.7563 -16.3206 0.0000 25.8890 0.0000
# 6 0.0000 0.0000 0.0000 3.0487 0.0000 16.2629
#
#
#
# Elastic Compliance Matrix: (Units=1/GPa)
#
#
# Indices 1 2 3 4 5 6 
#
# 1 0.022227 -0.007803 -0.009167 0.000000 -0.003933 0.000000
# 2 -0.007803 0.075613 -0.018818 0.000000 -0.007567 0.000000
# 3 -0.009167 -0.018818 0.019391 0.000000 0.009968 0.000000
# 4 0.000000 0.000000 0.000000 0.051894 0.000000 -0.009728
# 5 -0.003933 -0.007567 0.009968 0.000000 0.043977 0.000000
# 6 0.000000 0.000000 0.000000 -0.009728 0.000000 0.063313
#
#
# Mechanical properties :
#
#
# Convention : Reuss Voigt Hill
#
# Bulk Modulus (GPa) = 21.90274 50.82419 36.36346
# Shear Modulus (GPa) = 13.76617 19.46608 16.61612
#
# Velocity S-wave (km/s) = 2.89320 3.44042 3.17861
# Velocity P-wave (km/s) = 4.94762 6.83271 5.96510
#
# Compressibility (1/GPa) = 0.04565640
#
# Stress axis : x y z
#
# Youngs Moduli (GPa) = 44.98961 13.22531 51.56968
#
# Poissons Ratio (x) = 0.10319 0.47274
# Poissons Ratio (y) = 0.35103 0.97043
# Poissons Ratio (z) = 0.41242 0.24887
#
# Static dielectric constant tensor:
#      x y z
#    x 3.237500 0.000000 -0.318890 
#    y 0.000000 2.600720 0.000000 
#    z -0.318890 0.000000 3.270530 
# 
# 
# High freq. dielectric constant tensor:
#      x y z
#    x 1.623790 0.000000 -0.021030 
#    y 0.000000 1.577970 0.000000 
#    z -0.021030 0.000000 1.636960 
# 
# From -- ./inp_files/366061.got.cif
#   From: 2010.06.25/outbox.cif.g09.slc.cpg/sg12_184_cif.got.tgz:366061.got - 2010.06.28 00:19:55.
