data_PCOD8084364
_publ_section_title
;
Structure prediction by ZEFSAII (Michael W. Deem and Ramdas Pophale) SiO2 
 PCOD8084364
Probable space group: C 2/M
;
_chemical_formula_sum "Si O2"
_cell_formula_units_Z 64
_cell_length_a 20.456874
_cell_length_b 8.708582
_cell_length_c 19.048374
_cell_angle_alpha 90.000000
_cell_angle_beta 89.578974
_cell_angle_gamma 90.000000
_cell_volume 3393.383156
_symmetry_space_group_name_H-M "C 2/M"
_symmetry_group_IT_number 12
_symmetry_cell_setting 'monoclinic'
loop_
_space_group_symop_operation_xyz
x,y,z
-x,y,-z
-x,-y,-z
x,-y,z
1/2+x,1/2+y,z
1/2-x,1/2+y,-z
1/2-x,1/2-y,-z
1/2+x,1/2-y,z
loop_
_atom_site_type_symbol
_atom_site_label
_atom_site_fract_x
_atom_site_fract_y
_atom_site_fract_z
Si Si1 0.492970 0.676431 0.339075
Si Si2 0.700525 0.181667 0.944814
Si Si3 0.446329 0.178925 0.052172
Si Si4 0.112386 0.680518 0.417314
Si Si5 0.632592 0.678306 0.565740
Si Si6 0.939259 0.321943 0.209684
Si Si7 0.301107 0.680422 0.202053
Si Si8 0.745255 0.181820 0.347211
O O1 0.503989 0.500000 0.319725
O O2 0.550310 0.731832 0.388504
O O3 0.425306 0.703452 0.379097
O O4 0.492925 0.773403 0.266761
O O5 0.626900 0.245689 0.959681
O O6 0.722944 0.231331 0.866960
O O7 0.702177 0.000000 0.949400
O O8 0.750000 0.250000 0.000000
O O9 0.468800 0.208967 0.132053
O O10 0.442912 0.000000 0.035082
O O11 0.500000 0.257186 0.000000
O O12 0.102737 0.500000 0.407236
O O13 0.119627 0.717582 0.498705
O O14 0.175652 0.741755 0.374763
O O15 0.638039 0.500000 0.543334
O O16 0.698244 0.743227 0.601426
O O17 0.919943 0.500000 0.217662
O O18 0.875431 0.218800 0.221523
O O19 0.294504 0.500000 0.188864
O O20 0.255995 0.737071 0.267100
O O21 0.749777 0.000000 0.349260
#
# Coordination Sequence:
#
# PCOD8084364 Si02
#       8
#     8   8   8   8   8   8   8   8
#     4  11  22  38  58  78 109 150 186 221 273 334
#     4  10  20  35  56  84 114 145 184 229 273 323
#     4   8  16  33  56  81 108 140 179 218 264 322
#     4  11  23  37  54  82 114 140 178 233 281 323
#     4  10  20  38  60  79 103 144 189 222 268 338
#     4  10  19  33  57  86 111 139 184 234 270 316
#     4  10  18  35  60  82 108 148 189 224 268 330
#     4   9  19  37  58  80 108 145 185 222 273 334
#
# _framework density 18.860233999999998
#
# number of rings (size 3 to 8) (size 9 to 14) (size 15 to 20)
#    0.000    2.125    1.250    3.375    0.000    2.500 
#    2.250    3.125    0.000   12.750    0.000    0.000 
#    0.000    0.000    0.000    0.000    0.000    0.000 
#
# Total GULP energy -396815.121012 kJ/mol
# GULP energy per Si atom -12400.472532 kJ/mol
# Density = 1.881731 g / cm^3
# Si number density = 18.860234 Si / 1000 Ang^3
#
#
#
# Elastic Constant Matrix: (Units=GPa)
#
#
# Indices 1 2 3 4 5 6 
#
# 1 44.0754 28.2936 23.4032 0.0000 6.2005 0.0000
# 2 28.2936 50.7482 34.9789 0.0000 -4.9496 0.0000
# 3 23.4032 34.9789 116.2907 0.0000 8.4033 0.0000
# 4 0.0000 0.0000 0.0000 33.4405 0.0000 4.8129
# 5 6.2005 -4.9496 8.4033 0.0000 26.8610 0.0000
# 6 0.0000 0.0000 0.0000 4.8129 0.0000 22.3732
#
#
#
# Elastic Compliance Matrix: (Units=1/GPa)
#
#
# Indices 1 2 3 4 5 6 
#
# 1 0.039593 -0.023423 0.000051 0.000000 -0.013471 0.000000
# 2 -0.023423 0.040106 -0.008466 0.000000 0.015445 0.000000
# 3 0.000051 -0.008466 0.011509 0.000000 -0.005172 0.000000
# 4 0.000000 0.000000 0.000000 0.030859 0.000000 -0.006638
# 5 -0.013471 0.015445 -0.005172 0.000000 0.044803 0.000000
# 6 0.000000 0.000000 0.000000 -0.006638 0.000000 0.046124
#
#
# Mechanical properties :
#
#
# Convention : Reuss Voigt Hill
#
# Bulk Modulus (GPa) = 36.32159 42.71839 39.51999
# Shear Modulus (GPa) = 17.49193 24.83085 21.16139
#
# Velocity S-wave (km/s) = 3.04871 3.63240 3.35328
# Velocity P-wave (km/s) = 5.62965 6.34756 5.99935
#
# Compressibility (1/GPa) = 0.02753184
#
# Stress axis : x y z
#
# Youngs Moduli (GPa) = 25.25724 24.93420 86.88864
#
# Poissons Ratio (x) = 0.58403 -0.00443
# Poissons Ratio (y) = 0.59160 0.73556
# Poissons Ratio (z) = -0.00129 0.21108
#
# Static dielectric constant tensor:
#      x y z
#    x 3.645260 0.000000 -0.129070 
#    y 0.000000 3.284660 0.000000 
#    z -0.129070 0.000000 3.633570 
# 
# 
# High freq. dielectric constant tensor:
#      x y z
#    x 1.724180 0.000000 0.002030 
#    y 0.000000 1.718030 0.000000 
#    z 0.002030 0.000000 1.745420 
# 
# From -- ./inp_files/314035.got.cif
#   From: 2010.06.25/outbox.cif.g09.slc.cpg/sg12_158_cif.got.tgz:314035.got - 2010.06.28 00:19:55.
