data_PCOD8084281
_publ_section_title
;
Structure prediction by ZEFSAII (Michael W. Deem and Ramdas Pophale) SiO2 
 PCOD8084281
Probable space group: C 2/M
;
_chemical_formula_sum "Si O2"
_cell_formula_units_Z 56
_cell_length_a 14.946005
_cell_length_b 28.212219
_cell_length_c 12.647004
_cell_angle_alpha 90.000000
_cell_angle_beta 31.532184
_cell_angle_gamma 90.000000
_cell_volume 2788.900162
_symmetry_space_group_name_H-M "C 2/M"
_symmetry_group_IT_number 12
_symmetry_cell_setting 'monoclinic'
loop_
_space_group_symop_operation_xyz
x,y,z
-x,y,-z
-x,-y,-z
x,-y,z
1/2+x,1/2+y,z
1/2-x,1/2+y,-z
1/2-x,1/2-y,-z
1/2+x,1/2-y,z
loop_
_atom_site_type_symbol
_atom_site_label
_atom_site_fract_x
_atom_site_fract_y
_atom_site_fract_z
Si Si1 0.695932 0.823953 0.338247
Si Si2 0.422510 0.553535 0.195120
Si Si3 0.967569 0.552771 0.409932
Si Si4 0.308772 0.800085 0.985047
Si Si5 0.695589 0.803840 0.564158
Si Si6 0.303201 0.713144 0.677632
Si Si7 0.715252 0.382501 0.943662
O O1 0.500000 0.833416 0.500000
O O2 0.751078 0.835276 0.405593
O O3 0.741530 0.768659 0.281862
O O4 0.805255 0.858185 0.152233
O O5 0.424406 0.500000 0.236292
O O6 0.227024 0.572749 0.403650
O O7 0.500000 0.554511 0.000000
O O8 0.553436 0.584369 0.132444
O O9 0.986622 0.500000 0.339763
O O10 0.000000 0.547980 0.500000
O O11 0.106201 0.588616 0.220106
O O12 0.494938 0.807781 0.753498
O O13 0.193877 0.841286 0.051143
O O14 0.250000 0.750000 0.000000
O O15 0.305968 0.805711 0.113961
O O16 0.750000 0.750000 0.500000
O O17 0.757867 0.818394 0.618930
O O18 0.500000 0.704742 0.500000
#
# Coordination Sequence:
#
# PCOD8084281 Si02
#       7
#     8   8   8   8   8   8   8
#     4  10  18  35  54  79 115 151 204 255 290 357
#     4  10  21  37  55  84 122 159 196 241 312 390
#     4  10  20  37  57  81 123 162 188 246 319 375
#     4  12  22  39  54  83 121 161 202 261 299 348
#     4  10  21  36  58  75 104 162 208 248 302 347
#     4  10  21  42  54  70 111 165 210 252 297 335
#     4  12  22  36  59  88 125 158 207 243 305 376
#
# _framework density 20.079599999999999
#
# number of rings (size 3 to 8) (size 9 to 14) (size 15 to 20)
#    0.000    1.429    4.286    3.000    0.000    0.000 
#   12.857    0.000    0.000    0.000    0.000    0.000 
#    0.000   16.000    0.000    2.286    0.000    0.000 
#
# Total GULP energy -346890.057518 kJ/mol
# GULP energy per Si atom -12388.930626 kJ/mol
# Density = 2.003390 g / cm^3
# Si number density = 20.079600 Si / 1000 Ang^3
#
#
#
# Elastic Constant Matrix: (Units=GPa)
#
#
# Indices 1 2 3 4 5 6 
#
# 1 122.9198 42.4935 40.8448 -0.0001 8.2986 0.0003
# 2 42.4935 78.9707 21.4316 -0.0010 -9.7735 -0.0005
# 3 40.8448 21.4316 62.8376 -0.0106 -8.6080 0.0102
# 4 -0.0001 -0.0010 -0.0106 20.2157 0.0023 1.2507
# 5 8.2986 -9.7735 -8.6080 0.0023 44.9737 -0.0036
# 6 0.0003 -0.0005 0.0102 1.2507 -0.0036 17.3290
#
#
#
# Elastic Compliance Matrix: (Units=1/GPa)
#
#
# Indices 1 2 3 4 5 6 
#
# 1 0.012725 -0.005540 -0.007054 -0.000004 -0.004902 0.000003
# 2 -0.005540 0.016577 -0.001458 -0.000001 0.004346 0.000002
# 3 -0.007054 -0.001458 0.021700 0.000011 0.005138 -0.000012
# 4 -0.000004 -0.000001 0.000011 0.049688 0.000000 -0.003586
# 5 -0.004902 0.004346 0.005138 0.000000 0.025068 0.000002
# 6 0.000003 0.000002 -0.000012 -0.003586 0.000002 0.057966
#
#
# Mechanical properties :
#
#
# Convention : Reuss Voigt Hill
#
# Bulk Modulus (GPa) = 43.66748 52.69643 48.18196
# Shear Modulus (GPa) = 22.78323 27.16756 24.97539
#
# Velocity S-wave (km/s) = 3.37210 3.68230 3.53061
# Velocity P-wave (km/s) = 6.07913 6.66182 6.37713
#
# Compressibility (1/GPa) = 0.02290034
#
# Stress axis : x y z
#
# Youngs Moduli (GPa) = 78.58380 60.32364 46.08304
#
# Poissons Ratio (x) = 0.33418 0.32505
# Poissons Ratio (y) = 0.43534 0.06717
# Poissons Ratio (z) = 0.55430 0.08793
#
# Static dielectric constant tensor:
#      x y z
#    x 4.282620 0.000000 -0.380880 
#    y 0.000000 3.818810 0.000000 
#    z -0.380880 0.000000 4.095860 
# 
# 
# High freq. dielectric constant tensor:
#      x y z
#    x 1.764110 0.000000 -0.023670 
#    y 0.000000 1.773540 0.000000 
#    z -0.023670 0.000000 1.776180 
# 
# From -- ./inp_files/150429.got.cif
#   From: 2010.06.25/outbox.cif.g09.slc.cpg/sg12_76_cif.got.tgz:150429.got - 2010.06.28 00:19:55.
