data_PCOD8084825
_publ_section_title
;
Structure prediction by ZEFSAII (Michael W. Deem and Ramdas Pophale) SiO2 
 PCOD8084825
Probable space group: C 2/M
;
_chemical_formula_sum "Si O2"
_cell_formula_units_Z 48
_cell_length_a 19.290373
_cell_length_b 9.545265
_cell_length_c 16.434575
_cell_angle_alpha 90.000000
_cell_angle_beta 110.242206
_cell_angle_gamma 90.000000
_cell_volume 2839.228208
_symmetry_space_group_name_H-M "C 2/M"
_symmetry_group_IT_number 12
_symmetry_cell_setting 'monoclinic'
loop_
_space_group_symop_operation_xyz
x,y,z
-x,y,-z
-x,-y,-z
x,-y,z
1/2+x,1/2+y,z
1/2-x,1/2+y,-z
1/2-x,1/2-y,-z
1/2+x,1/2-y,z
loop_
_atom_site_type_symbol
_atom_site_label
_atom_site_fract_x
_atom_site_fract_y
_atom_site_fract_z
Si Si1 0.526594 0.666474 0.596559
Si Si2 0.053191 0.838505 0.274285
Si Si3 0.671222 0.666473 0.739081
Si Si4 0.099837 0.161968 0.874297
Si Si5 0.164189 0.664739 0.220824
Si Si6 0.415739 0.836756 0.978239
O O1 0.500000 0.731875 0.500000
O O2 0.530282 0.500000 0.592506
O O3 0.469236 0.709376 0.643916
O O4 0.608553 0.724377 0.651717
O O5 0.121831 0.744191 0.275233
O O6 0.984932 0.814281 0.185925
O O7 0.077832 0.000000 0.283275
O O8 0.667884 0.500000 0.738423
O O9 0.653097 0.716033 0.823547
O O10 0.751411 0.719234 0.743791
O O11 0.114512 0.000000 0.900638
O O12 0.119205 0.252220 0.961213
O O13 0.158337 0.500000 0.235533
O O14 0.129959 0.703417 0.120033
O O15 0.409897 0.000000 0.996708
O O16 0.500000 0.790221 0.000000
#
# Coordination Sequence:
#
# PCOD8084825 Si02
#       6
#     8   8   8   8   8   8
#     4   8  14  28  51  73  90 113 148 187 223 266
#     4   9  17  29  47  70  92 115 149 189 226 264
#     4   8  16  30  46  66  91 119 151 184 225 271
#     4   9  17  30  47  65  87 118 156 195 225 255
#     4  10  19  31  46  64  93 127 151 181 225 270
#     4  10  19  29  42  64  92 122 158 188 216 264
#
# _framework density 16.906002000000001
#
# number of rings (size 3 to 8) (size 9 to 14) (size 15 to 20)
#    0.000    3.000    1.667    2.000    0.000    1.667 
#    0.000    1.667    0.000    1.500    0.000    0.000 
#    0.000    0.000    0.000    0.000    0.000    0.000 
#
# Total GULP energy -297533.787402 kJ/mol
# GULP energy per Si atom -12397.241142 kJ/mol
# Density = 1.686752 g / cm^3
# Si number density = 16.906002 Si / 1000 Ang^3
#
#
#
# Elastic Constant Matrix: (Units=GPa)
#
#
# Indices 1 2 3 4 5 6 
#
# 1 146.5188 40.7703 73.3022 0.0000 0.7184 0.0000
# 2 40.7703 32.8302 34.1255 0.0000 -5.6521 0.0000
# 3 73.3022 34.1255 120.4310 0.0000 -8.6476 0.0000
# 4 0.0000 0.0000 0.0000 8.3344 0.0000 -2.9184
# 5 0.7184 -5.6521 -8.6476 0.0000 21.8253 0.0000
# 6 0.0000 0.0000 0.0000 -2.9184 0.0000 24.2576
#
#
#
# Elastic Compliance Matrix: (Units=1/GPa)
#
#
# Indices 1 2 3 4 5 6 
#
# 1 0.012354 -0.011387 -0.004666 0.000000 -0.005204 0.000000
# 2 -0.011387 0.054594 -0.007716 0.000000 0.011456 0.000000
# 3 -0.004666 -0.007716 0.013584 0.000000 0.003538 0.000000
# 4 0.000000 0.000000 0.000000 0.125261 0.000000 0.015070
# 5 -0.005204 0.011456 0.003538 0.000000 0.050358 0.000000
# 6 0.000000 0.000000 0.000000 0.015070 0.000000 0.043037
#
#
# Mechanical properties :
#
#
# Convention : Reuss Voigt Hill
#
# Bulk Modulus (GPa) = 30.31001 66.24179 48.27590
# Shear Modulus (GPa) = 13.97722 20.98892 17.48307
#
# Velocity S-wave (km/s) = 2.87846 3.52733 3.21928
# Velocity P-wave (km/s) = 5.38655 7.47374 6.51428
#
# Compressibility (1/GPa) = 0.03299240
#
# Stress axis : x y z
#
# Youngs Moduli (GPa) = 80.94777 18.31713 73.61470
#
# Poissons Ratio (x) = 0.20858 0.34351
# Poissons Ratio (y) = 0.92175 0.56803
# Poissons Ratio (z) = 0.37773 0.14134
#
# Static dielectric constant tensor:
#      x y z
#    x 3.274140 0.000000 0.066820 
#    y 0.000000 2.786980 0.000000 
#    z 0.066820 0.000000 3.305580 
# 
# 
# High freq. dielectric constant tensor:
#      x y z
#    x 1.653890 0.000000 -0.004830 
#    y 0.000000 1.613200 0.000000 
#    z -0.004830 0.000000 1.643660 
# 
# From -- ./inp_files/212771.got.cif
#   From: 2010.06.25/outbox.cif.g09.slc.cpg/sg12_107_cif.got.tgz:212771.got - 2010.06.28 00:19:55.
