data_PCOD8084228
_publ_section_title
;
Structure prediction by ZEFSAII (Michael W. Deem and Ramdas Pophale) SiO2 
 PCOD8084228
Probable space group: C 2/M
;
_chemical_formula_sum "Si O2"
_cell_formula_units_Z 64
_cell_length_a 32.484713
_cell_length_b 8.971550
_cell_length_c 15.296451
_cell_angle_alpha 90.000000
_cell_angle_beta 133.157094
_cell_angle_gamma 90.000000
_cell_volume 3252.005029
_symmetry_space_group_name_H-M "C 2/M"
_symmetry_group_IT_number 12
_symmetry_cell_setting 'monoclinic'
loop_
_space_group_symop_operation_xyz
x,y,z
-x,y,-z
-x,-y,-z
x,-y,z
1/2+x,1/2+y,z
1/2-x,1/2+y,-z
1/2-x,1/2-y,-z
1/2+x,1/2-y,z
loop_
_atom_site_type_symbol
_atom_site_label
_atom_site_fract_x
_atom_site_fract_y
_atom_site_fract_z
Si Si1 0.546432 0.824116 0.896484
Si Si2 0.366907 0.823448 0.479930
Si Si3 0.224537 0.171487 0.045965
Si Si4 0.747019 0.323197 0.734642
Si Si5 0.365818 0.823202 0.832953
Si Si6 0.064840 0.675376 0.593214
Si Si7 0.597473 0.329339 0.813057
Si Si8 0.420137 0.824049 0.736778
O O1 0.552509 0.750442 0.810230
O O2 0.485261 0.779415 0.844441
O O3 0.552328 0.000000 0.891427
O O4 0.592822 0.760849 0.031446
O O5 0.307251 0.740945 0.392400
O O6 0.406081 0.776840 0.455272
O O7 0.397091 0.763354 0.611247
O O8 0.356812 0.000000 0.466242
O O9 0.250158 0.254472 0.165686
O O10 0.243770 0.000000 0.076422
O O11 0.250000 0.250000 0.000000
O O12 0.157531 0.187824 0.946919
O O13 0.742999 0.500000 0.737179
O O14 0.801887 0.273474 0.758943
O O15 0.384626 0.756567 0.766431
O O16 0.371854 0.000000 0.840930
O O17 0.068521 0.500000 0.613667
O O18 0.098920 0.753645 0.720409
O O19 0.000000 0.729560 0.500000
O O20 0.580105 0.500000 0.775573
O O21 0.413685 0.000000 0.727070
#
# Coordination Sequence:
#
# PCOD8084228 Si02
#       8
#     8   8   8   8   8   8   8   8
#     4  10  18  34  61  88 114 147 189 238 288 338
#     4  10  21  37  57  83 115 152 192 240 289 336
#     4  11  23  38  57  82 112 147 188 232 282 337
#     4  11  22  37  57  83 117 154 192 234 282 339
#     4   9  18  33  57  89 117 145 189 243 289 331
#     4  10  21  38  59  83 111 148 196 240 279 331
#     4  11  23  36  54  83 116 148 181 226 287 346
#     4   9  18  34  59  88 114 145 194 245 287 335
#
# _framework density 19.680167000000001
#
# number of rings (size 3 to 8) (size 9 to 14) (size 15 to 20)
#    0.000    1.875    1.250    3.000    0.000    8.250 
#    0.000    1.875    0.000    4.500    0.000    0.000 
#    0.000    0.000    0.000    0.000    0.000    0.000 
#
# Total GULP energy -396895.400866 kJ/mol
# GULP energy per Si atom -12402.981277 kJ/mol
# Density = 1.963537 g / cm^3
# Si number density = 19.680167 Si / 1000 Ang^3
#
#
#
# Elastic Constant Matrix: (Units=GPa)
#
#
# Indices 1 2 3 4 5 6 
#
# 1 156.5710 39.1825 61.2764 0.0000 -9.1178 0.0000
# 2 39.1825 46.3641 32.1091 0.0000 0.5610 0.0000
# 3 61.2764 32.1091 121.2428 0.0000 -2.9074 0.0000
# 4 0.0000 0.0000 0.0000 26.5729 0.0000 6.4060
# 5 -9.1178 0.5610 -2.9074 0.0000 40.0511 0.0000
# 6 0.0000 0.0000 0.0000 6.4060 0.0000 18.3997
#
#
#
# Elastic Compliance Matrix: (Units=1/GPa)
#
#
# Indices 1 2 3 4 5 6 
#
# 1 0.009100 -0.005585 -0.003074 0.000000 0.001927 0.000000
# 2 -0.005585 0.029871 -0.005138 0.000000 -0.002063 0.000000
# 3 -0.003074 -0.005138 0.011166 0.000000 0.000183 0.000000
# 4 0.000000 0.000000 0.000000 0.041080 0.000000 -0.014303
# 5 0.001927 -0.002063 0.000183 0.000000 0.025449 0.000000
# 6 0.000000 0.000000 0.000000 -0.014303 0.000000 0.059328
#
#
# Mechanical properties :
#
#
# Convention : Reuss Voigt Hill
#
# Bulk Modulus (GPa) = 44.35634 65.47931 54.91782
# Shear Modulus (GPa) = 23.68519 29.77872 26.73195
#
# Velocity S-wave (km/s) = 3.47292 3.89412 3.68954
# Velocity P-wave (km/s) = 6.21845 7.31867 6.79088
#
# Compressibility (1/GPa) = 0.02254469
#
# Stress axis : x y z
#
# Youngs Moduli (GPa) = 109.89431 33.47700 89.55408
#
# Poissons Ratio (x) = 0.18696 0.27527
# Poissons Ratio (y) = 0.61374 0.46011
# Poissons Ratio (z) = 0.33779 0.17200
#
# Static dielectric constant tensor:
#      x y z
#    x 3.780080 0.000000 0.006360 
#    y 0.000000 3.312750 0.000000 
#    z 0.006360 0.000000 3.702110 
# 
# 
# High freq. dielectric constant tensor:
#      x y z
#    x 1.780980 0.000000 -0.000260 
#    y 0.000000 1.736000 0.000000 
#    z -0.000260 0.000000 1.774890 
# 
# From -- ./inp_files/250069.got.cif
#   From: 2010.06.25/outbox.cif.g09.slc.cpg/sg12_126_cif.got.tgz:250069.got - 2010.06.28 00:19:55.
