data_PCOD8084576
_publ_section_title
;
Structure prediction by ZEFSAII (Michael W. Deem and Ramdas Pophale) SiO2 
 PCOD8084576
Probable space group: C 2/M
;
_chemical_formula_sum "Si O2"
_cell_formula_units_Z 44
_cell_length_a 12.485400
_cell_length_b 19.674161
_cell_length_c 8.293940
_cell_angle_alpha 90.000000
_cell_angle_beta 102.724136
_cell_angle_gamma 90.000000
_cell_volume 1987.288658
_symmetry_space_group_name_H-M "C 2/M"
_symmetry_group_IT_number 12
_symmetry_cell_setting 'monoclinic'
loop_
_space_group_symop_operation_xyz
x,y,z
-x,y,-z
-x,-y,-z
x,-y,z
1/2+x,1/2+y,z
1/2-x,1/2+y,-z
1/2-x,1/2-y,-z
1/2+x,1/2-y,z
loop_
_atom_site_type_symbol
_atom_site_label
_atom_site_fract_x
_atom_site_fract_y
_atom_site_fract_z
Si Si1 0.987662 0.764434 0.807363
Si Si2 0.056392 0.626891 0.681146
Si Si3 0.893217 0.128823 0.355679
Si Si4 0.115785 0.500000 0.863332
Si Si5 0.699583 0.358901 0.354457
Si Si6 0.333981 0.500000 0.784076
Si Si7 0.816083 0.000000 0.134157
O O1 0.991119 0.692113 0.721165
O O2 0.084058 0.810997 0.763455
O O3 0.868993 0.796752 0.739855
O O4 0.000000 0.754308 0.000000
O O5 0.183001 0.645464 0.690229
O O6 0.000000 0.599707 0.500000
O O7 0.044903 0.568655 0.816134
O O8 0.795957 0.148829 0.449238
O O9 0.852331 0.064871 0.243829
O O10 0.000000 0.113795 0.500000
O O11 0.816287 0.500000 0.944676
O O12 0.200826 0.500000 0.741324
O O13 0.633124 0.430179 0.294990
O O14 0.380057 0.500000 0.983377
#
# Coordination Sequence:
#
# PCOD8084576 Si02
#       7
#     8   8   8   4   8   4   4
#     4  11  25  41  63  99 129 167 213 263 330 382
#     4  11  23  45  70  92 125 170 217 267 318 381
#     4  10  21  37  63  98 134 167 213 256 322 392
#     4   8  21  41  66  92 124 165 219 258 317 369
#     4  10  21  42  65  95 131 166 214 261 315 385
#     4   8  17  34  63  90 125 167 203 257 319 367
#     4  10  18  37  63  98 134 170 204 264 322 376
#
# _framework density 22.140720999999999
#
# number of rings (size 3 to 8) (size 9 to 14) (size 15 to 20)
#    0.545    1.455    0.000    3.818    0.000    5.818 
#    3.273    5.000    0.000    0.000    0.000    0.000 
#    0.000    0.000    0.000    0.000    0.000    0.000 
#
# Total GULP energy -272667.641368 kJ/mol
# GULP energy per Si atom -12393.983699 kJ/mol
# Density = 2.209033 g / cm^3
# Si number density = 22.140721 Si / 1000 Ang^3
#
#
#
# Elastic Constant Matrix: (Units=GPa)
#
#
# Indices 1 2 3 4 5 6 
#
# 1 57.0746 34.5061 15.8420 0.0000 1.4599 0.0000
# 2 34.5061 123.3859 19.2538 0.0000 24.3418 0.0000
# 3 15.8420 19.2538 97.2509 0.0000 6.8155 0.0000
# 4 0.0000 0.0000 0.0000 354.4588 0.0000 -21.1442
# 5 1.4599 24.3418 6.8155 0.0000 31.8723 0.0000
# 6 0.0000 0.0000 0.0000 -21.1442 0.0000 28.2337
#
#
#
# Elastic Compliance Matrix: (Units=1/GPa)
#
#
# Indices 1 2 3 4 5 6 
#
# 1 0.022189 -0.006720 -0.002612 0.000000 0.004674 0.000000
# 2 -0.006720 0.011769 -0.000637 0.000000 -0.008544 0.000000
# 3 -0.002612 -0.000637 0.010956 0.000000 -0.001737 0.000000
# 4 0.000000 0.000000 0.000000 0.002953 0.000000 0.002212
# 5 0.004674 -0.008544 -0.001737 0.000000 0.038058 0.000000
# 6 0.000000 0.000000 0.000000 0.002212 0.000000 0.037075
#
#
# Mechanical properties :
#
#
# Convention : Reuss Voigt Hill
#
# Bulk Modulus (GPa) = 40.03627 46.32390 43.18008
# Shear Modulus (GPa) = 33.05514 96.78692 64.92103
#
# Velocity S-wave (km/s) = 3.86807 6.61886 5.42085
# Velocity P-wave (km/s) = 6.17019 8.90957 7.66327
#
# Compressibility (1/GPa) = 0.02497735
#
# Stress axis : x y z
#
# Youngs Moduli (GPa) = 45.06721 84.96940 91.27515
#
# Poissons Ratio (x) = 0.57100 0.23839
# Poissons Ratio (y) = 0.30285 0.05810
# Poissons Ratio (z) = 0.11770 0.05409
#
# Static dielectric constant tensor:
#      x y z
#    x 3.810010 0.000000 -0.150320 
#    y 0.000000 4.153880 0.000000 
#    z -0.150320 0.000000 4.009050 
# 
# 
# High freq. dielectric constant tensor:
#      x y z
#    x 1.852390 0.000000 -0.006530 
#    y 0.000000 1.880000 0.000000 
#    z -0.006530 0.000000 1.873490 
# 
# From -- ./inp_files/49412.got.cif
#   From: 2010.06.25/outbox.cif.g09.slc.cpg/sg12_25_cif.got.tgz:49412.got - 2010.06.28 00:19:55.
