data_PCOD8084510
_publ_section_title
;
Structure prediction by ZEFSAII (Michael W. Deem and Ramdas Pophale) SiO2 
 PCOD8084510
Probable space group: C 2/M
;
_chemical_formula_sum "Si O2"
_cell_formula_units_Z 64
_cell_length_a 15.416281
_cell_length_b 8.962256
_cell_length_c 23.781839
_cell_angle_alpha 90.000000
_cell_angle_beta 91.141549
_cell_angle_gamma 90.000000
_cell_volume 3285.157484
_symmetry_space_group_name_H-M "C 2/M"
_symmetry_group_IT_number 12
_symmetry_cell_setting 'monoclinic'
loop_
_space_group_symop_operation_xyz
x,y,z
-x,y,-z
-x,-y,-z
x,-y,z
1/2+x,1/2+y,z
1/2-x,1/2+y,-z
1/2-x,1/2-y,-z
1/2+x,1/2-y,z
loop_
_atom_site_type_symbol
_atom_site_label
_atom_site_fract_x
_atom_site_fract_y
_atom_site_fract_z
Si Si1 0.338550 0.327963 0.255761
Si Si2 0.094134 0.823585 0.862072
Si Si3 0.600084 0.324152 0.131435
Si Si4 0.421708 0.670954 0.374441
Si Si5 0.592481 0.824182 0.363338
Si Si6 0.841891 0.825322 0.742819
Si Si7 0.246368 0.823589 0.560176
Si Si8 0.253523 0.177644 0.939501
O O1 0.308584 0.500000 0.248472
O O2 0.385682 0.266114 0.200556
O O3 0.404131 0.310826 0.308011
O O4 0.255525 0.228590 0.267135
O O5 0.168320 0.764650 0.905097
O O6 0.998958 0.770024 0.880570
O O7 0.094010 0.000000 0.860621
O O8 0.611884 0.500000 0.119957
O O9 0.625021 0.282095 0.195098
O O10 0.660000 0.231762 0.090257
O O11 0.442219 0.500000 0.389621
O O12 0.504151 0.770818 0.392124
O O13 0.340415 0.729230 0.409331
O O14 0.596584 0.753095 0.301605
O O15 0.672343 0.767705 0.402153
O O16 0.593366 0.000000 0.356908
O O17 0.847716 0.000000 0.732465
O O18 0.250000 0.750000 0.500000
O O19 0.248833 0.000000 0.553392
O O20 0.254926 0.000000 0.944331
O O21 0.250000 0.250000 0.000000
#
# Coordination Sequence:
#
# PCOD8084510 Si02
#       8
#     8   8   8   8   8   8   8   8
#     4  10  18  36  62  86 120 157 193 235 288 356
#     4   9  19  36  61  85 112 155 193 226 285 354
#     4  10  21  39  61  87 117 151 193 238 284 345
#     4  10  21  39  62  88 119 155 194 242 294 348
#     4  11  23  40  61  88 121 157 196 240 293 355
#     4  11  21  34  59  92 123 153 190 239 294 348
#     4  10  23  42  62  84 116 157 200 247 296 345
#     4  11  23  40  61  84 113 153 198 244 293 344
#
# _framework density 19.481562
#
# number of rings (size 3 to 8) (size 9 to 14) (size 15 to 20)
#    0.000    1.750    2.500    1.875    0.000    5.500 
#    0.000    6.875    0.000    0.000    0.000    0.000 
#    0.000    0.000    0.000    0.000    0.000    0.000 
#
# Total GULP energy -396898.379518 kJ/mol
# GULP energy per Si atom -12403.074360 kJ/mol
# Density = 1.943722 g / cm^3
# Si number density = 19.481562 Si / 1000 Ang^3
#
#
#
# Elastic Constant Matrix: (Units=GPa)
#
#
# Indices 1 2 3 4 5 6 
#
# 1 156.8870 38.7498 66.0098 0.0000 -16.7587 0.0000
# 2 38.7498 47.4899 47.6452 0.0000 -8.4013 0.0000
# 3 66.0098 47.6452 138.6312 0.0000 -13.6998 0.0000
# 4 0.0000 0.0000 0.0000 33.8609 0.0000 -4.1480
# 5 -16.7587 -8.4013 -13.6998 0.0000 15.0075 0.0000
# 6 0.0000 0.0000 0.0000 -4.1480 0.0000 35.3043
#
#
#
# Elastic Compliance Matrix: (Units=1/GPa)
#
#
# Indices 1 2 3 4 5 6 
#
# 1 0.008935 -0.003945 -0.002342 0.000000 0.005632 0.000000
# 2 -0.003945 0.034946 -0.009490 0.000000 0.006495 0.000000
# 3 -0.002342 -0.009490 0.011878 0.000000 0.002915 0.000000
# 4 0.000000 0.000000 0.000000 0.029964 0.000000 0.003521
# 5 0.005632 0.006495 0.002915 0.000000 0.079219 0.000000
# 6 0.000000 0.000000 0.000000 0.003521 0.000000 0.028739
#
#
# Mechanical properties :
#
#
# Convention : Reuss Voigt Hill
#
# Bulk Modulus (GPa) = 41.31328 71.97975 56.64651
# Shear Modulus (GPa) = 21.43122 29.54144 25.48633
#
# Velocity S-wave (km/s) = 3.32034 3.89830 3.62087
# Velocity P-wave (km/s) = 5.99599 7.56902 6.82796
#
# Compressibility (1/GPa) = 0.02420529
#
# Stress axis : x y z
#
# Youngs Moduli (GPa) = 111.91403 28.61556 84.18598
#
# Poissons Ratio (x) = 0.11288 0.19720
# Poissons Ratio (y) = 0.44145 0.79895
# Poissons Ratio (z) = 0.26215 0.27157
#
# Static dielectric constant tensor:
#      x y z
#    x 3.757230 0.000000 0.178910 
#    y 0.000000 3.383480 0.000000 
#    z 0.178910 0.000000 3.208870 
# 
# 
# High freq. dielectric constant tensor:
#      x y z
#    x 1.773780 0.000000 -0.003660 
#    y 0.000000 1.741630 0.000000 
#    z -0.003660 0.000000 1.759770 
# 
# From -- ./inp_files/338736.got.cif
#   From: 2010.06.25/outbox.cif.g09.slc.cpg/sg12_170_cif.got.tgz:338736.got - 2010.06.28 00:19:55.
