data_PCOD8084652
_publ_section_title
;
Structure prediction by ZEFSAII (Michael W. Deem and Ramdas Pophale) SiO2 
 PCOD8084652
Probable space group: C 2/M
;
_chemical_formula_sum "Si O2"
_cell_formula_units_Z 64
_cell_length_a 26.465433
_cell_length_b 9.010147
_cell_length_c 17.062342
_cell_angle_alpha 90.000000
_cell_angle_beta 100.600450
_cell_angle_gamma 90.000000
_cell_volume 3999.206583
_symmetry_space_group_name_H-M "C 2/M"
_symmetry_group_IT_number 12
_symmetry_cell_setting 'monoclinic'
loop_
_space_group_symop_operation_xyz
x,y,z
-x,y,-z
-x,-y,-z
x,-y,z
1/2+x,1/2+y,z
1/2-x,1/2+y,-z
1/2-x,1/2-y,-z
1/2+x,1/2-y,z
loop_
_atom_site_type_symbol
_atom_site_label
_atom_site_fract_x
_atom_site_fract_y
_atom_site_fract_z
Si Si1 0.061649 0.328313 0.674721
Si Si2 0.535288 0.335541 0.406816
Si Si3 0.614360 0.328793 0.559270
Si Si4 0.425655 0.325002 0.834470
Si Si5 0.365623 0.667675 0.671299
Si Si6 0.559249 0.664463 0.993155
Si Si7 0.532610 0.172609 0.838496
Si Si8 0.304481 0.175948 0.528019
O O1 0.072108 0.500000 0.661047
O O2 0.106218 0.233387 0.644676
O O3 0.063489 0.292118 0.767651
O O4 0.005877 0.289540 0.624098
O O5 0.509849 0.500000 0.394831
O O6 0.559385 0.310478 0.499951
O O7 0.580631 0.323830 0.357557
O O8 0.632057 0.500000 0.565899
O O9 0.657756 0.234118 0.528548
O O10 0.437187 0.500000 0.834985
O O11 0.377449 0.284317 0.764589
O O12 0.477190 0.248046 0.818483
O O13 0.411251 0.277558 0.919934
O O14 0.343485 0.500000 0.660639
O O15 0.324901 0.778326 0.620184
O O16 0.578292 0.500000 0.975261
O O17 0.567597 0.770220 0.920900
O O18 0.500000 0.661302 0.000000
O O19 0.522985 0.000000 0.846946
O O20 0.250000 0.250000 0.500000
O O21 0.300030 0.000000 0.521750
#
# Coordination Sequence:
#
# PCOD8084652 Si02
#       8
#     8   8   8   8   8   8   8   8
#     4  11  21  29  40  62  91 122 156 191 225 266
#     4   9  17  29  44  61  85 119 153 186 224 267
#     4  10  21  35  49  66  86 114 152 189 228 270
#     4   9  16  28  44  61  85 118 156 193 226 267
#     4   9  17  30  48  69  92 119 153 190 230 271
#     4   8  15  26  40  57  79 115 159 193 224 264
#     4  10  19  27  37  58  89 123 157 192 229 264
#     4  11  22  37  55  72  93 117 145 183 228 275
#
# _framework density 16.003174999999999
#
# number of rings (size 3 to 8) (size 9 to 14) (size 15 to 20)
#    0.000    2.375    1.250    4.125    0.000    8.250 
#    0.000    0.000    0.000    0.000    0.000    0.000 
#    0.000    1.000    0.000    3.000    0.000    4.625 
#
# Total GULP energy -396677.699129 kJ/mol
# GULP energy per Si atom -12396.178098 kJ/mol
# Density = 1.596675 g / cm^3
# Si number density = 16.003175 Si / 1000 Ang^3
#
#
#
# Elastic Constant Matrix: (Units=GPa)
#
#
# Indices 1 2 3 4 5 6 
#
# 1 45.5889 34.1474 40.5223 0.0000 9.7384 0.0000
# 2 34.1474 97.4589 60.8417 0.0000 5.7097 0.0000
# 3 40.5223 60.8417 128.9301 0.0000 12.5885 0.0000
# 4 0.0000 0.0000 0.0000 27.3309 0.0000 0.2392
# 5 9.7384 5.7097 12.5885 0.0000 11.4798 0.0000
# 6 0.0000 0.0000 0.0000 0.2392 0.0000 21.1473
#
#
#
# Elastic Compliance Matrix: (Units=1/GPa)
#
#
# Indices 1 2 3 4 5 6 
#
# 1 0.038095 -0.008398 -0.005893 0.000000 -0.021676 0.000000
# 2 -0.008398 0.016399 -0.005597 0.000000 0.005106 0.000000
# 3 -0.005893 -0.005597 0.012868 0.000000 -0.006327 0.000000
# 4 0.000000 0.000000 0.000000 0.036592 0.000000 -0.000414
# 5 -0.021676 0.005106 -0.006327 0.000000 0.109895 0.000000
# 6 0.000000 0.000000 0.000000 -0.000414 0.000000 0.047292
#
#
# Mechanical properties :
#
#
# Convention : Reuss Voigt Hill
#
# Bulk Modulus (GPa) = 36.25520 60.33341 48.29430
# Shear Modulus (GPa) = 16.12317 21.08938 18.60627
#
# Velocity S-wave (km/s) = 3.17755 3.63412 3.41348
# Velocity P-wave (km/s) = 6.01387 7.44257 6.76604
#
# Compressibility (1/GPa) = 0.02758225
#
# Stress axis : x y z
#
# Youngs Moduli (GPa) = 26.25048 60.98110 77.71502
#
# Poissons Ratio (x) = 0.51214 0.45800
# Poissons Ratio (y) = 0.22046 0.43500
# Poissons Ratio (z) = 0.15470 0.34133
#
# Static dielectric constant tensor:
#      x y z
#    x 2.619440 0.000000 0.169440 
#    y 0.000000 3.096830 0.000000 
#    z 0.169440 0.000000 3.562380 
# 
# 
# High freq. dielectric constant tensor:
#      x y z
#    x 1.552260 0.000000 0.005640 
#    y 0.000000 1.621400 0.000000 
#    z 0.005640 0.000000 1.625970 
# 
# From -- ./inp_files/287499.got.cif
#   From: 2010.06.25/outbox.cif.g09.slc.cpg/sg12_144_cif.got.tgz:287499.got - 2010.06.28 00:19:55.
