data_PCOD8084114
_publ_section_title
;
Structure prediction by ZEFSAII (Michael W. Deem and Ramdas Pophale) SiO2 
 PCOD8084114
Probable space group: C 2/M
;
_chemical_formula_sum "Si O2"
_cell_formula_units_Z 64
_cell_length_a 20.731821
_cell_length_b 8.577254
_cell_length_c 34.177575
_cell_angle_alpha 90.000000
_cell_angle_beta 32.937236
_cell_angle_gamma 90.000000
_cell_volume 3304.473489
_symmetry_space_group_name_H-M "C 2/M"
_symmetry_group_IT_number 12
_symmetry_cell_setting 'monoclinic'
loop_
_space_group_symop_operation_xyz
x,y,z
-x,y,-z
-x,-y,-z
x,-y,z
1/2+x,1/2+y,z
1/2-x,1/2+y,-z
1/2-x,1/2-y,-z
1/2+x,1/2-y,z
loop_
_atom_site_type_symbol
_atom_site_label
_atom_site_fract_x
_atom_site_fract_y
_atom_site_fract_z
Si Si1 0.623674 0.185336 0.453312
Si Si2 0.578763 0.315874 0.310294
Si Si3 0.534340 0.318440 0.925579
Si Si4 0.336734 0.817622 0.209670
Si Si5 0.652041 0.314746 0.710602
Si Si6 0.640016 0.816262 0.532706
Si Si7 0.827682 0.682826 0.073552
Si Si8 0.571289 0.684591 0.225830
O O1 0.500000 0.253732 0.500000
O O2 0.729388 0.242251 0.371545
O O3 0.645088 0.250154 0.485993
O O4 0.619186 0.000000 0.456395
O O5 0.557921 0.500000 0.322853
O O6 0.706629 0.267452 0.261648
O O7 0.483323 0.232179 0.385681
O O8 0.565498 0.250087 0.272982
O O9 0.555364 0.500000 0.922708
O O10 0.565319 0.274496 0.865424
O O11 0.617180 0.217716 0.912031
O O12 0.397077 0.275867 0.004250
O O13 0.355475 0.771329 0.244650
O O14 0.357387 0.000000 0.193490
O O15 0.650129 0.500000 0.717768
O O16 0.541110 0.256218 0.741323
O O17 0.750000 0.750000 0.500000
O O18 0.650687 0.000000 0.526926
O O19 0.837854 0.500000 0.060040
O O20 0.691400 0.740435 0.143119
O O21 0.572374 0.500000 0.228372
#
# Coordination Sequence:
#
# PCOD8084114 Si02
#       8
#     8   8   8   8   8   8   8   8
#     4   9  18  34  56  79 107 146 189 228 274 332
#     4  10  20  37  59  82 109 145 189 233 278 334
#     4  11  21  34  55  86 117 146 186 235 282 330
#     4  11  22  38  58  83 114 149 186 231 286 337
#     4  10  20  36  58  81 110 147 190 234 277 333
#     4  11  22  36  56  83 112 145 184 231 284 337
#     4  10  18  34  58  84 114 151 190 230 283 337
#     4   9  18  35  58  82 111 153 191 226 280 340
#
# _framework density 19.367685999999999
#
# number of rings (size 3 to 8) (size 9 to 14) (size 15 to 20)
#    0.000    1.875    1.250    4.500    0.000    4.000 
#    0.000    5.000    0.000    3.375    0.000    0.000 
#    0.000    0.000    0.000    0.000    0.000    0.000 
#
# Total GULP energy -396864.035849 kJ/mol
# GULP energy per Si atom -12402.001120 kJ/mol
# Density = 1.932360 g / cm^3
# Si number density = 19.367686 Si / 1000 Ang^3
#
#
#
# Elastic Constant Matrix: (Units=GPa)
#
#
# Indices 1 2 3 4 5 6 
#
# 1 119.3600 11.5129 56.7733 0.0326 9.8328 -0.0171
# 2 11.5129 44.2337 21.9454 0.2274 3.2265 -0.0555
# 3 56.7733 21.9454 154.0473 0.0076 8.8533 -0.0909
# 4 0.0326 0.2274 0.0076 28.4818 0.0004 6.8232
# 5 9.8328 3.2265 8.8533 0.0004 34.2125 0.0304
# 6 -0.0171 -0.0555 -0.0909 6.8232 0.0304 21.3960
#
#
#
# Elastic Compliance Matrix: (Units=1/GPa)
#
#
# Indices 1 2 3 4 5 6 
#
# 1 0.010317 -0.000766 -0.003580 -0.000004 -0.001966 -0.000005
# 2 -0.000766 0.024453 -0.003128 -0.000223 -0.001277 0.000122
# 3 -0.003580 -0.003128 0.008304 0.000022 -0.000825 0.000018
# 4 -0.000004 -0.000223 0.000022 0.038016 0.000027 -0.012124
# 5 -0.001966 -0.001277 -0.000825 0.000027 0.030128 -0.000060
# 6 -0.000005 0.000122 0.000018 -0.012124 -0.000060 0.050605
#
#
# Mechanical properties :
#
#
# Convention : Reuss Voigt Hill
#
# Bulk Modulus (GPa) = 35.55393 55.34490 45.44942
# Shear Modulus (GPa) = 26.86075 31.97868 29.41971
#
# Velocity S-wave (km/s) = 3.72813 4.06783 3.90168
# Velocity P-wave (km/s) = 6.07694 7.12045 6.61929
#
# Compressibility (1/GPa) = 0.02812628
#
# Stress axis : x y z
#
# Youngs Moduli (GPa) = 96.93014 40.89522 120.42457
#
# Poissons Ratio (x) = 0.03131 0.43113
# Poissons Ratio (y) = 0.07420 0.37668
# Poissons Ratio (z) = 0.34702 0.12792
#
# Static dielectric constant tensor:
#      x y z
#    x 3.624010 -0.000010 -0.086110 
#    y -0.000010 3.251900 -0.000140 
#    z -0.086110 -0.000140 3.808960 
# 
# 
# High freq. dielectric constant tensor:
#      x y z
#    x 1.746490 0.000000 0.000840 
#    y 0.000000 1.731880 -0.000010 
#    z 0.000840 -0.000010 1.773790 
# 
# From -- ./inp_files/378055.got.cif
#   From: 2010.06.25/outbox.cif.g09.slc.cpg/sg12_190_cif.got.tgz:378055.got - 2010.06.28 00:19:55.
