data_PCOD8084394
_publ_section_title
;
Structure prediction by ZEFSAII (Michael W. Deem and Ramdas Pophale) SiO2 
 PCOD8084394
Probable space group: C 2/M
;
_chemical_formula_sum "Si O2"
_cell_formula_units_Z 64
_cell_length_a 15.332374
_cell_length_b 8.921741
_cell_length_c 32.488471
_cell_angle_alpha 90.000000
_cell_angle_beta 46.925596
_cell_angle_gamma 90.000000
_cell_volume 3246.303756
_symmetry_space_group_name_H-M "C 2/M"
_symmetry_group_IT_number 12
_symmetry_cell_setting 'monoclinic'
loop_
_space_group_symop_operation_xyz
x,y,z
-x,y,-z
-x,-y,-z
x,-y,z
1/2+x,1/2+y,z
1/2-x,1/2+y,-z
1/2-x,1/2-y,-z
1/2+x,1/2-y,z
loop_
_atom_site_type_symbol
_atom_site_label
_atom_site_fract_x
_atom_site_fract_y
_atom_site_fract_z
Si Si1 0.320007 0.323622 0.887253
Si Si2 0.471056 0.174433 0.691093
Si Si3 0.971833 0.175455 0.121617
Si Si4 0.241898 0.674138 0.621521
Si Si5 0.591702 0.830076 0.007555
Si Si6 0.066415 0.675602 0.391364
Si Si7 0.842918 0.176233 0.500563
Si Si8 0.277349 0.677543 0.809801
O O1 0.299831 0.500000 0.890948
O O2 0.449892 0.283382 0.863323
O O3 0.217184 0.262089 0.950917
O O4 0.305821 0.255733 0.846035
O O5 0.602950 0.215507 0.663925
O O6 0.458887 0.219134 0.647447
O O7 0.380004 0.273114 0.746006
O O8 0.441854 0.000000 0.706942
O O9 0.848505 0.262408 0.165795
O O10 0.945014 0.000000 0.127903
O O11 0.045660 0.222032 0.057847
O O12 0.259601 0.500000 0.625843
O O13 0.300637 0.771544 0.639088
O O14 0.305827 0.718206 0.558537
O O15 0.604867 0.000000 0.020364
O O16 0.500000 0.828382 0.000000
O O17 0.050925 0.500000 0.403458
O O18 0.974868 0.762368 0.450269
O O19 0.750000 0.250000 0.500000
O O20 0.839846 0.000000 0.494273
O O21 0.270818 0.500000 0.812891
#
# Coordination Sequence:
#
# PCOD8084394 Si02
#       8
#     8   8   8   8   8   8   8   8
#     4   9  20  38  59  84 118 155 189 235 292 347
#     4  10  23  44  62  83 120 157 195 248 303 343
#     4  11  22  37  59  89 121 151 190 240 294 346
#     4  10  22  41  62  88 124 160 195 244 301 353
#     4  10  18  35  61  85 118 157 190 232 288 348
#     4  11  23  40  62  91 124 159 199 244 298 359
#     4  11  21  37  62  91 125 161 197 243 301 358
#     4  11  23  42  63  84 112 154 204 242 289 351
#
# _framework density 19.714728999999998
#
# number of rings (size 3 to 8) (size 9 to 14) (size 15 to 20)
#    0.000    1.625    2.500    2.250    0.000    5.250 
#    0.000    6.875    0.000    0.000    0.000    0.000 
#    0.000    0.000    0.000    0.000    0.000    0.000 
#
# Total GULP energy -396921.451047 kJ/mol
# GULP energy per Si atom -12403.795345 kJ/mol
# Density = 1.966986 g / cm^3
# Si number density = 19.714729 Si / 1000 Ang^3
#
#
#
# Elastic Constant Matrix: (Units=GPa)
#
#
# Indices 1 2 3 4 5 6 
#
# 1 118.7381 33.1465 33.7887 -0.0008 -20.7965 -0.0013
# 2 33.1465 55.4976 31.6127 -0.0004 -7.2394 -0.0014
# 3 33.7887 31.6127 94.2825 -0.0004 -27.3517 -0.0006
# 4 -0.0008 -0.0004 -0.0004 34.0738 -0.0001 -4.0165
# 5 -20.7965 -7.2394 -27.3517 -0.0001 20.0606 0.0000
# 6 -0.0013 -0.0014 -0.0006 -4.0165 0.0000 33.6745
#
#
#
# Elastic Compliance Matrix: (Units=1/GPa)
#
#
# Indices 1 2 3 4 5 6 
#
# 1 0.011876 -0.006277 0.001263 0.000000 0.011768 0.000000
# 2 -0.006277 0.025744 -0.009223 0.000000 -0.009792 0.000001
# 3 0.001263 -0.009223 0.020945 0.000000 0.026538 0.000000
# 4 0.000000 0.000000 0.000000 0.029767 0.000001 0.003550
# 5 0.011768 -0.009792 0.026538 0.000001 0.094699 0.000001
# 6 0.000000 0.000001 0.000000 0.003550 0.000001 0.030120
#
#
# Mechanical properties :
#
#
# Convention : Reuss Voigt Hill
#
# Bulk Modulus (GPa) = 33.23367 51.73489 42.48428
# Shear Modulus (GPa) = 19.86836 28.89312 24.38074
#
# Velocity S-wave (km/s) = 3.17802 3.83242 3.52046
# Velocity P-wave (km/s) = 5.51002 6.77362 6.17423
#
# Compressibility (1/GPa) = 0.03008996
#
# Stress axis : x y z
#
# Youngs Moduli (GPa) = 84.20312 38.84356 47.74323
#
# Poissons Ratio (x) = 0.24383 -0.06028
# Poissons Ratio (y) = 0.52856 0.44035
# Poissons Ratio (z) = -0.10631 0.35826
#
# Static dielectric constant tensor:
#      x y z
#    x 3.838320 0.000000 -0.035590 
#    y 0.000000 3.476870 0.000000 
#    z -0.035590 0.000000 3.603710 
# 
# 
# High freq. dielectric constant tensor:
#      x y z
#    x 1.786440 0.000000 -0.005140 
#    y 0.000000 1.758030 0.000000 
#    z -0.005140 0.000000 1.765950 
# 
# From -- ./inp_files/375387.got.cif
#   From: 2010.06.25/outbox.cif.g09.slc.cpg/sg12_188_cif.got.tgz:375387.got - 2010.06.28 00:19:55.
