data_PCOD8084599
_publ_section_title
;
Structure prediction by ZEFSAII (Michael W. Deem and Ramdas Pophale) SiO2 
 PCOD8084599
Probable space group: C 2/M
;
_chemical_formula_sum "Si O2"
_cell_formula_units_Z 48
_cell_length_a 14.063776
_cell_length_b 23.125067
_cell_length_c 10.972116
_cell_angle_alpha 90.000000
_cell_angle_beta 137.018064
_cell_angle_gamma 90.000000
_cell_volume 2432.830114
_symmetry_space_group_name_H-M "C 2/M"
_symmetry_group_IT_number 12
_symmetry_cell_setting 'monoclinic'
loop_
_space_group_symop_operation_xyz
x,y,z
-x,y,-z
-x,-y,-z
x,-y,z
1/2+x,1/2+y,z
1/2-x,1/2+y,-z
1/2-x,1/2-y,-z
1/2+x,1/2-y,z
loop_
_atom_site_type_symbol
_atom_site_label
_atom_site_fract_x
_atom_site_fract_y
_atom_site_fract_z
Si Si1 0.057719 0.500000 0.188875
Si Si2 0.392507 0.000000 0.286115
Si Si3 0.025299 0.278533 0.789083
Si Si4 0.160899 0.612279 0.645466
Si Si5 0.832037 0.614756 0.623294
Si Si6 0.371267 0.300633 0.461704
Si Si7 0.715775 0.721082 0.141251
O O1 0.148476 0.557986 0.277879
O O2 0.948321 0.500000 0.199958
O O3 0.000000 0.500000 0.000000
O O4 0.500000 0.000000 0.500000
O O5 0.308814 0.940201 0.230839
O O6 0.169399 0.289271 0.855482
O O7 0.959655 0.340134 0.764245
O O8 0.911837 0.246846 0.599802
O O9 0.064774 0.237362 0.942056
O O10 0.180554 0.591538 0.525937
O O11 0.278544 0.660842 0.780349
O O12 0.000000 0.636814 0.500000
O O13 0.686482 0.642829 0.526898
O O14 0.500000 0.320202 0.500000
O O15 0.251533 0.273498 0.265058
#
# Coordination Sequence:
#
# PCOD8084599 Si02
#       7
#     4   4   8   8   8   8   8
#     4  12  26  38  59  99 126 153 209 263 309 374
#     4  10  18  38  62  87 123 157 201 256 308 356
#     4  10  20  34  57  89 121 155 199 248 306 372
#     4  11  17  35  63  88 120 155 202 251 303 371
#     4  12  22  39  61  87 123 163 205 257 309 367
#     4  10  22  40  55  82 126 166 201 251 310 370
#     4  10  19  33  56  87 123 158 193 246 312 370
#
# _framework density 19.730107
#
# number of rings (size 3 to 8) (size 9 to 14) (size 15 to 20)
#    0.000    1.333    6.667    1.000    2.333    0.000 
#    3.000    0.417    0.000    1.000    0.000    2.333 
#    0.000    0.000    0.000    0.000    0.000    0.000 
#
# Total GULP energy -297489.474504 kJ/mol
# GULP energy per Si atom -12395.394771 kJ/mol
# Density = 1.968520 g / cm^3
# Si number density = 19.730107 Si / 1000 Ang^3
#
#
#
# Elastic Constant Matrix: (Units=GPa)
#
#
# Indices 1 2 3 4 5 6 
#
# 1 57.4961 37.9309 27.9445 0.0000 -16.9699 0.0000
# 2 37.9309 113.7201 24.1451 0.0000 2.3006 0.0000
# 3 27.9445 24.1451 80.2092 0.0000 -12.0840 0.0000
# 4 0.0000 0.0000 0.0000 22.5668 0.0000 -7.3019
# 5 -16.9699 2.3006 -12.0840 0.0000 24.2939 0.0000
# 6 0.0000 0.0000 0.0000 -7.3019 0.0000 29.8727
#
#
#
# Elastic Compliance Matrix: (Units=1/GPa)
#
#
# Indices 1 2 3 4 5 6 
#
# 1 0.033111 -0.010383 -0.005164 0.000000 0.021543 0.000000
# 2 -0.010383 0.012791 -0.001630 0.000000 -0.009275 0.000000
# 3 -0.005164 -0.001630 0.015390 0.000000 0.004202 0.000000
# 4 0.000000 0.000000 0.000000 0.048119 0.000000 0.011762
# 5 0.021543 -0.009275 0.004202 0.000000 0.059180 0.000000
# 6 0.000000 0.000000 0.000000 0.011762 0.000000 0.036350
#
#
# Mechanical properties :
#
#
# Convention : Reuss Voigt Hill
#
# Bulk Modulus (GPa) = 37.12468 47.94069 42.53268
# Shear Modulus (GPa) = 20.13891 26.10700 23.12296
#
# Velocity S-wave (km/s) = 3.19834 3.64154 3.42711
# Velocity P-wave (km/s) = 5.70055 6.48321 6.10444
#
# Compressibility (1/GPa) = 0.02693626
#
# Stress axis : x y z
#
# Youngs Moduli (GPa) = 30.20132 78.18226 64.97530
#
# Poissons Ratio (x) = 0.81180 0.33556
# Poissons Ratio (y) = 0.31359 0.10592
# Poissons Ratio (z) = 0.15597 0.12745
#
# Static dielectric constant tensor:
#      x y z
#    x 3.690140 0.000000 -0.206800 
#    y 0.000000 3.973000 0.000000 
#    z -0.206800 0.000000 3.618620 
# 
# 
# High freq. dielectric constant tensor:
#      x y z
#    x 1.768230 0.000000 -0.027280 
#    y 0.000000 1.765690 0.000000 
#    z -0.027280 0.000000 1.745410 
# 
# From -- ./inp_files/148056.got.cif
#   From: 2010.06.25/outbox.cif.g09.slc.cpg/sg12_75_cif.got.tgz:148056.got - 2010.06.28 00:19:55.
