data_PCOD8084655
_publ_section_title
;
Structure prediction by ZEFSAII (Michael W. Deem and Ramdas Pophale) SiO2 
 PCOD8084655
Probable space group: C 2/M
;
_chemical_formula_sum "Si O2"
_cell_formula_units_Z 56
_cell_length_a 27.505690
_cell_length_b 9.204650
_cell_length_c 15.842493
_cell_angle_alpha 90.000000
_cell_angle_beta 66.644353
_cell_angle_gamma 90.000000
_cell_volume 3682.351632
_symmetry_space_group_name_H-M "C 2/M"
_symmetry_group_IT_number 12
_symmetry_cell_setting 'monoclinic'
loop_
_space_group_symop_operation_xyz
x,y,z
-x,y,-z
-x,-y,-z
x,-y,z
1/2+x,1/2+y,z
1/2-x,1/2+y,-z
1/2-x,1/2-y,-z
1/2+x,1/2-y,z
loop_
_atom_site_type_symbol
_atom_site_label
_atom_site_fract_x
_atom_site_fract_y
_atom_site_fract_z
Si Si1 0.945652 0.672628 0.640028
Si Si2 0.256662 0.170050 0.365047
Si Si3 0.061463 0.671958 0.543777
Si Si4 0.698354 0.667819 0.005950
Si Si5 0.672199 0.169867 0.529159
Si Si6 0.756412 0.835126 0.197404
Si Si7 0.647351 0.829434 0.178671
O O1 0.941608 0.500000 0.643685
O O2 0.931176 0.731687 0.556631
O O3 0.903741 0.733060 0.736693
O O4 0.005473 0.726190 0.621721
O O5 0.305587 0.206793 0.393573
O O6 0.203766 0.245735 0.435113
O O7 0.271481 0.229257 0.263087
O O8 0.245953 0.000000 0.367103
O O9 0.058846 0.500000 0.540317
O O10 0.110952 0.721865 0.567275
O O11 0.701576 0.500000 0.030819
O O12 0.697063 0.681944 0.904964
O O13 0.750000 0.750000 0.000000
O O14 0.649143 0.744595 0.087509
O O15 0.677710 0.000000 0.504556
O O16 0.699274 0.793639 0.198239
O O17 0.754610 0.000000 0.232391
O O18 0.643463 0.000000 0.162019
#
# Coordination Sequence:
#
# PCOD8084655 Si02
#       7
#     8   8   8   8   8   8   8
#     4   8  13  21  38  63  82 101 132 162 191 232
#     4  10  19  27  39  60  81 105 137 167 197 233
#     4   8  13  23  39  58  81 106 132 162 192 228
#     4   9  17  28  41  58  80 107 135 162 198 240
#     4   9  17  29  42  57  81 109 134 164 199 233
#     4   9  17  28  41  57  80 108 133 160 195 235
#     4   9  16  26  41  62  85 106 130 162 200 239
#
# _framework density 15.207673
#
# number of rings (size 3 to 8) (size 9 to 14) (size 15 to 20)
#    0.000    3.143    0.000    3.429    0.000    5.714 
#    0.000    0.000    0.000    0.857    0.000    4.000 
#    0.000    8.000    0.000    0.000    0.000    0.000 
#
# Total GULP energy -346978.996549 kJ/mol
# GULP energy per Si atom -12392.107020 kJ/mol
# Density = 1.517306 g / cm^3
# Si number density = 15.207673 Si / 1000 Ang^3
#
#
#
# Elastic Constant Matrix: (Units=GPa)
#
#
# Indices 1 2 3 4 5 6 
#
# 1 92.4942 24.1953 53.5818 0.0000 -11.2143 0.0000
# 2 24.1953 47.0505 40.8777 0.0000 0.0797 0.0000
# 3 53.5818 40.8777 121.0803 0.0000 -16.4400 0.0000
# 4 0.0000 0.0000 0.0000 27.3115 0.0000 1.0900
# 5 -11.2143 0.0797 -16.4400 0.0000 23.1419 0.0000
# 6 0.0000 0.0000 0.0000 1.0900 0.0000 13.0426
#
#
#
# Elastic Compliance Matrix: (Units=1/GPa)
#
#
# Indices 1 2 3 4 5 6 
#
# 1 0.015055 -0.003400 -0.005005 0.000000 0.003752 0.000000
# 2 -0.003400 0.032280 -0.010660 0.000000 -0.009332 0.000000
# 3 -0.005005 -0.010660 0.015216 0.000000 0.008421 0.000000
# 4 0.000000 0.000000 0.000000 0.036737 0.000000 -0.003070
# 5 0.003752 -0.009332 0.008421 0.000000 0.051044 0.000000
# 6 0.000000 0.000000 0.000000 -0.003070 0.000000 0.076928
#
#
# Mechanical properties :
#
#
# Convention : Reuss Voigt Hill
#
# Bulk Modulus (GPa) = 40.94941 55.32609 48.13775
# Shear Modulus (GPa) = 18.27941 22.16388 20.22165
#
# Velocity S-wave (km/s) = 3.47073 3.82175 3.65046
# Velocity P-wave (km/s) = 6.56099 7.47889 7.03492
#
# Compressibility (1/GPa) = 0.02442037
#
# Stress axis : x y z
#
# Youngs Moduli (GPa) = 66.42217 30.97921 65.71860
#
# Poissons Ratio (x) = 0.10532 0.32894
# Poissons Ratio (y) = 0.22582 0.70059
# Poissons Ratio (z) = 0.33246 0.33025
#
# Static dielectric constant tensor:
#      x y z
#    x 2.966120 0.000000 -0.200570 
#    y 0.000000 2.780770 0.000000 
#    z -0.200570 0.000000 3.262930 
# 
# 
# High freq. dielectric constant tensor:
#      x y z
#    x 1.554050 0.000000 -0.008450 
#    y 0.000000 1.563050 0.000000 
#    z -0.008450 0.000000 1.580880 
# 
# From -- ./inp_files/247741.got.cif
#   From: 2010.06.25/outbox.cif.g09.slc.cpg/sg12_124_cif.got.tgz:247741.got - 2010.06.28 00:19:55.
