data_PCOD8084587
_publ_section_title
;
Structure prediction by ZEFSAII (Michael W. Deem and Ramdas Pophale) SiO2 
 PCOD8084587
Probable space group: C 2/M
;
_chemical_formula_sum "Si O2"
_cell_formula_units_Z 60
_cell_length_a 8.910770
_cell_length_b 21.076636
_cell_length_c 21.218032
_cell_angle_alpha 90.000000
_cell_angle_beta 131.800943
_cell_angle_gamma 90.000000
_cell_volume 2970.632338
_symmetry_space_group_name_H-M "C 2/M"
_symmetry_group_IT_number 12
_symmetry_cell_setting 'monoclinic'
loop_
_space_group_symop_operation_xyz
x,y,z
-x,y,-z
-x,-y,-z
x,-y,z
1/2+x,1/2+y,z
1/2-x,1/2+y,-z
1/2-x,1/2-y,-z
1/2+x,1/2-y,z
loop_
_atom_site_type_symbol
_atom_site_label
_atom_site_fract_x
_atom_site_fract_y
_atom_site_fract_z
Si Si1 0.500000 0.654201 0.000000
Si Si2 0.964404 0.930033 0.251680
Si Si3 0.795905 0.182552 0.481664
Si Si4 0.953522 0.865272 0.849365
Si Si5 0.521776 0.190129 0.709382
Si Si6 0.354976 0.237859 0.093387
Si Si7 0.764085 0.314528 0.762744
Si Si8 0.769048 0.572098 0.442614
O O1 0.464370 0.615705 0.055908
O O2 0.684885 0.696548 0.081432
O O3 0.809512 0.884431 0.243200
O O4 0.992526 0.920176 0.184619
O O5 0.176742 0.922702 0.346851
O O6 0.874322 0.000000 0.235309
O O7 0.750000 0.250000 0.500000
O O8 0.603238 0.164266 0.384991
O O9 0.831910 0.124936 0.540692
O O10 0.000000 0.189991 0.500000
O O11 0.714087 0.853932 0.777198
O O12 0.079160 0.804583 0.856791
O O13 0.585396 0.263315 0.716300
O O14 0.370296 0.189355 0.725076
O O15 0.559173 0.199098 0.137298
O O16 0.250000 0.250000 0.000000
O O17 0.738723 0.500000 0.460955
O O18 0.000000 0.589750 0.500000
#
# Coordination Sequence:
#
# PCOD8084587 Si02
#       8
#     4   8   8   8   8   8   8   8
#     4  10  18  38  57  98 117 148 188 248 310 356
#     4  11  24  41  60  85 121 168 210 247 298 363
#     4  12  24  37  57  90 126 162 202 252 312 369
#     4  10  21  36  61  89 120 153 194 248 301 365
#     4  11  21  36  62  91 121 155 195 251 317 365
#     4   9  19  31  60  90 119 143 187 243 305 357
#     4  11  21  39  59  90 125 160 199 248 308 363
#     4  10  22  42  64  85 117 162 214 263 305 362
#
# _framework density 20.19772
#
# number of rings (size 3 to 8) (size 9 to 14) (size 15 to 20)
#    0.000    1.467    1.333    5.200    3.733    0.267 
#    0.000    1.667    0.000    6.400    0.000    0.000 
#    0.000    0.000    0.000    0.000    0.000    0.000 
#
# Total GULP energy -371671.584732 kJ/mol
# GULP energy per Si atom -12389.052824 kJ/mol
# Density = 2.015175 g / cm^3
# Si number density = 20.197720 Si / 1000 Ang^3
#
#
#
# Elastic Constant Matrix: (Units=GPa)
#
#
# Indices 1 2 3 4 5 6 
#
# 1 104.4073 52.7658 31.0451 0.0000 -10.0176 0.0001
# 2 52.7658 110.7454 28.5006 0.0000 -5.4345 0.0000
# 3 31.0451 28.5006 114.9125 -0.0001 -0.1822 0.0001
# 4 0.0000 0.0000 -0.0001 24.8431 0.0000 -2.6852
# 5 -10.0176 -5.4345 -0.1822 0.0000 33.3953 0.0001
# 6 0.0001 0.0000 0.0001 -2.6852 0.0001 15.7850
#
#
#
# Elastic Compliance Matrix: (Units=1/GPa)
#
#
# Indices 1 2 3 4 5 6 
#
# 1 0.013391 -0.005661 -0.002209 0.000000 0.003084 0.000000
# 2 -0.005661 0.012120 -0.001476 0.000000 0.000266 0.000000
# 3 -0.002209 -0.001476 0.009664 0.000000 -0.000850 0.000000
# 4 0.000000 0.000000 0.000000 0.041007 0.000000 0.006976
# 5 0.003084 0.000266 -0.000850 0.000000 0.030908 0.000000
# 6 0.000000 0.000000 0.000000 0.006976 0.000000 0.064538
#
#
# Mechanical properties :
#
#
# Convention : Reuss Voigt Hill
#
# Bulk Modulus (GPa) = 60.66768 61.63202 61.14985
# Shear Modulus (GPa) = 25.53445 29.32158 27.42802
#
# Velocity S-wave (km/s) = 3.55945 3.81429 3.68907
# Velocity P-wave (km/s) = 6.85529 7.06958 6.96326
#
# Compressibility (1/GPa) = 0.01648324
#
# Stress axis : x y z
#
# Youngs Moduli (GPa) = 74.67481 82.50986 103.47835
#
# Poissons Ratio (x) = 0.46706 0.22859
# Poissons Ratio (y) = 0.42271 0.15276
# Poissons Ratio (z) = 0.16496 0.12180
#
# Static dielectric constant tensor:
#      x y z
#    x 3.164410 0.000000 -0.168000 
#    y 0.000000 2.617750 0.000000 
#    z -0.168000 0.000000 3.974100 
# 
# 
# High freq. dielectric constant tensor:
#      x y z
#    x 1.790180 0.000000 -0.000030 
#    y 0.000000 1.755150 0.000000 
#    z -0.000030 0.000000 1.813570 
# 
# From -- ./inp_files/301926.got.cif
#   From: 2010.06.25/outbox.cif.g09.slc.cpg/sg12_151_cif.got.tgz:301926.got - 2010.06.28 00:19:55.
