data_PCOD8084385
_publ_section_title
;
Structure prediction by ZEFSAII (Michael W. Deem and Ramdas Pophale) SiO2 
 PCOD8084385
Probable space group: C 2/M
;
_chemical_formula_sum "Si O2"
_cell_formula_units_Z 64
_cell_length_a 20.505542
_cell_length_b 8.661242
_cell_length_c 20.195446
_cell_angle_alpha 90.000000
_cell_angle_beta 66.057104
_cell_angle_gamma 90.000000
_cell_volume 3278.139963
_symmetry_space_group_name_H-M "C 2/M"
_symmetry_group_IT_number 12
_symmetry_cell_setting 'monoclinic'
loop_
_space_group_symop_operation_xyz
x,y,z
-x,y,-z
-x,-y,-z
x,-y,z
1/2+x,1/2+y,z
1/2-x,1/2+y,-z
1/2-x,1/2-y,-z
1/2+x,1/2-y,z
loop_
_atom_site_type_symbol
_atom_site_label
_atom_site_fract_x
_atom_site_fract_y
_atom_site_fract_z
Si Si1 0.325108 0.818758 0.949816
Si Si2 0.670018 0.180194 0.201712
Si Si3 0.579816 0.815871 0.970513
Si Si4 0.337175 0.318538 0.563544
Si Si5 0.317526 0.182837 0.185894
Si Si6 0.417282 0.818674 0.410009
Si Si7 0.070397 0.179273 0.346359
Si Si8 0.318843 0.182777 0.332181
O O1 0.346952 0.770882 0.866710
O O2 0.318016 0.000000 0.960406
O O3 0.250000 0.750000 0.000000
O O4 0.385194 0.756480 0.975534
O O5 0.737703 0.272588 0.199833
O O6 0.600790 0.222591 0.272812
O O7 0.686650 0.000000 0.200290
O O8 0.625689 0.749186 0.889951
O O9 0.578174 0.000000 0.968284
O O10 0.500000 0.748021 0.000000
O O11 0.339347 0.500000 0.545542
O O12 0.363110 0.219312 0.490992
O O13 0.387071 0.279217 0.604999
O O14 0.257974 0.256765 0.611856
O O15 0.335789 0.247703 0.251661
O O16 0.321663 0.000000 0.183811
O O17 0.488602 0.722130 0.391407
O O18 0.381019 0.764037 0.356209
O O19 0.434476 0.000000 0.402237
O O20 0.077877 0.000000 0.326048
O O21 0.314002 0.000000 0.331458
#
# Coordination Sequence:
#
# PCOD8084385 Si02
#       8
#     8   8   8   8   8   8   8   8
#     4  10  20  34  56  85 114 146 185 231 279 328
#     4  11  22  35  56  87 118 145 185 243 294 332
#     4   9  18  32  55  86 113 145 191 232 268 323
#     4  10  20  38  61  82 108 149 200 236 274 339
#     4  10  18  35  61  82 109 153 197 232 274 339
#     4  11  23  37  56  86 122 148 181 238 296 337
#     4  11  23  40  61  82 111 153 197 234 278 342
#     4   9  19  36  58  84 111 151 195 234 280 337
#
# _framework density 19.523267000000001
#
# number of rings (size 3 to 8) (size 9 to 14) (size 15 to 20)
#    0.000    1.875    2.500    1.875    0.000    4.000 
#    0.000    5.625    0.000    1.500    0.000    0.000 
#    0.000    0.000    0.000    0.000    0.000    0.000 
#
# Total GULP energy -396864.587535 kJ/mol
# GULP energy per Si atom -12402.018360 kJ/mol
# Density = 1.947883 g / cm^3
# Si number density = 19.523267 Si / 1000 Ang^3
#
#
#
# Elastic Constant Matrix: (Units=GPa)
#
#
# Indices 1 2 3 4 5 6 
#
# 1 105.4029 16.3419 28.1092 0.0000 12.7724 0.0000
# 2 16.3419 15.7554 18.0225 -0.0001 10.1756 -0.0004
# 3 28.1092 18.0225 116.8309 0.0000 18.2778 0.0001
# 4 0.0000 -0.0001 0.0000 25.0527 0.0000 0.2607
# 5 12.7724 10.1756 18.2778 0.0000 34.5628 -0.0001
# 6 0.0000 -0.0004 0.0001 0.2607 -0.0001 20.8367
#
#
#
# Elastic Compliance Matrix: (Units=1/GPa)
#
#
# Indices 1 2 3 4 5 6 
#
# 1 0.011436 -0.010212 -0.001074 0.000000 -0.000651 0.000000
# 2 -0.010212 0.097863 -0.009509 0.000000 -0.020009 0.000002
# 3 -0.001074 -0.009509 0.010667 0.000000 -0.002445 0.000000
# 4 0.000000 0.000000 0.000000 0.039921 0.000000 -0.000499
# 5 -0.000651 -0.020009 -0.002445 0.000000 0.036357 0.000000
# 6 0.000000 0.000002 0.000000 -0.000499 0.000000 0.047998
#
#
# Mechanical properties :
#
#
# Convention : Reuss Voigt Hill
#
# Bulk Modulus (GPa) = 12.75915 40.32626 26.54271
# Shear Modulus (GPa) = 16.02772 27.79149 21.90961
#
# Velocity S-wave (km/s) = 2.86834 3.77703 3.35361
# Velocity P-wave (km/s) = 4.18562 6.30251 5.34981
#
# Compressibility (1/GPa) = 0.07837510
#
# Stress axis : x y z
#
# Youngs Moduli (GPa) = 87.44189 10.21836 93.74559
#
# Poissons Ratio (x) = 0.10435 0.10070
# Poissons Ratio (y) = 0.89299 0.89144
# Poissons Ratio (z) = 0.09393 0.09717
#
# Static dielectric constant tensor:
#      x y z
#    x 3.734830 0.000000 0.188360 
#    y 0.000000 3.238910 0.000000 
#    z 0.188360 0.000000 3.917950 
# 
# 
# High freq. dielectric constant tensor:
#      x y z
#    x 1.766470 0.000000 0.006310 
#    y 0.000000 1.730970 0.000000 
#    z 0.006310 0.000000 1.776020 
# 
# From -- ./inp_files/319977.got.cif
#   From: 2010.06.25/outbox.cif.g09.slc.cpg/sg12_160_cif.got.tgz:319977.got - 2010.06.28 00:19:55.
