data_PCOD8084456
_publ_section_title
;
Structure prediction by ZEFSAII (Michael W. Deem and Ramdas Pophale) SiO2 
 PCOD8084456
Probable space group: C 2/M
;
_chemical_formula_sum "Si O2"
_cell_formula_units_Z 56
_cell_length_a 28.246240
_cell_length_b 18.347247
_cell_length_c 9.397045
_cell_angle_alpha 90.000000
_cell_angle_beta 38.958081
_cell_angle_gamma 90.000000
_cell_volume 3061.977482
_symmetry_space_group_name_H-M "C 2/M"
_symmetry_group_IT_number 12
_symmetry_cell_setting 'monoclinic'
loop_
_space_group_symop_operation_xyz
x,y,z
-x,y,-z
-x,-y,-z
x,-y,z
1/2+x,1/2+y,z
1/2-x,1/2+y,-z
1/2-x,1/2-y,-z
1/2+x,1/2-y,z
loop_
_atom_site_type_symbol
_atom_site_label
_atom_site_fract_x
_atom_site_fract_y
_atom_site_fract_z
Si Si1 0.205652 0.584772 0.817688
Si Si2 0.583005 0.084376 0.335257
Si Si3 0.944785 0.916147 0.336870
Si Si4 0.394144 0.584580 0.136195
Si Si5 0.683532 0.662382 0.236341
Si Si6 0.307206 0.169435 0.731926
Si Si7 0.243826 0.667502 0.462226
O O1 0.227845 0.500000 0.756993
O O2 0.273807 0.628704 0.728361
O O3 0.196128 0.618203 0.683250
O O4 0.129215 0.597311 0.082519
O O5 0.500000 0.116460 0.500000
O O6 0.621828 0.123582 0.377967
O O7 0.578508 0.000000 0.387044
O O8 0.911528 0.898702 0.259535
O O9 0.901045 0.870163 0.560870
O O10 0.933515 0.000000 0.401916
O O11 0.033233 0.896074 0.130274
O O12 0.372132 0.500000 0.168490
O O13 0.326844 0.635670 0.241723
O O14 0.677580 0.748416 0.258478
O O15 0.729339 0.640670 0.986398
O O16 0.302762 0.162192 0.573999
O O17 0.250000 0.750000 0.500000
#
# Coordination Sequence:
#
# PCOD8084456 Si02
#       7
#     8   8   8   8   8   8   8
#     4  10  19  34  61  84 107 153 195 226 278 345
#     4   9  20  41  63  83 109 147 195 241 288 346
#     4   9  16  31  54  79 106 148 193 226 266 334
#     4   9  18  31  52  79 111 146 186 230 274 329
#     4  10  18  36  55  80 111 146 192 230 279 346
#     4  10  22  35  56  84 114 146 188 242 292 337
#     4  12  21  35  54  83 122 150 184 241 285 338
#
# _framework density 18.288834999999999
#
# number of rings (size 3 to 8) (size 9 to 14) (size 15 to 20)
#    0.000    2.143    2.857    1.714    0.000    1.714 
#    2.571    1.429    0.000    4.286    0.000    0.000 
#    0.000    0.000    0.000    0.000    0.000    0.000 
#
# Total GULP energy -347175.309857 kJ/mol
# GULP energy per Si atom -12399.118209 kJ/mol
# Density = 1.824721 g / cm^3
# Si number density = 18.288835 Si / 1000 Ang^3
#
#
#
# Elastic Constant Matrix: (Units=GPa)
#
#
# Indices 1 2 3 4 5 6 
#
# 1 98.7366 39.6909 47.3917 0.0000 0.8527 0.0000
# 2 39.6909 77.6593 46.1711 0.0000 -10.9951 0.0000
# 3 47.3917 46.1711 113.1889 0.0000 -12.0591 0.0000
# 4 0.0000 0.0000 0.0000 30.0469 0.0000 5.1466
# 5 0.8527 -10.9951 -12.0591 0.0000 33.1216 0.0000
# 6 0.0000 0.0000 0.0000 5.1466 0.0000 18.1779
#
#
#
# Elastic Compliance Matrix: (Units=1/GPa)
#
#
# Indices 1 2 3 4 5 6 
#
# 1 0.014328 -0.005338 -0.004213 0.000000 -0.003675 0.000000
# 2 -0.005338 0.019330 -0.005151 0.000000 0.004679 0.000000
# 3 -0.004213 -0.005151 0.013035 0.000000 0.003144 0.000000
# 4 0.000000 0.000000 0.000000 0.034978 0.000000 -0.009903
# 5 -0.003675 0.004679 0.003144 0.000000 0.032984 0.000000
# 6 0.000000 0.000000 0.000000 -0.009903 0.000000 0.057815
#
#
# Mechanical properties :
#
#
# Convention : Reuss Voigt Hill
#
# Bulk Modulus (GPa) = 57.84464 61.78802 59.81633
# Shear Modulus (GPa) = 24.08032 26.69134 25.38583
#
# Velocity S-wave (km/s) = 3.63253 3.82440 3.72970
# Velocity P-wave (km/s) = 7.02074 7.30474 7.16415
#
# Compressibility (1/GPa) = 0.01728769
#
# Stress axis : x y z
#
# Youngs Moduli (GPa) = 69.79455 51.73231 76.71637
#
# Poissons Ratio (x) = 0.27617 0.32320
# Poissons Ratio (y) = 0.37259 0.39520
# Poissons Ratio (z) = 0.29404 0.26649
#
# Static dielectric constant tensor:
#      x y z
#    x 3.112200 0.000000 -0.060390 
#    y 0.000000 3.372760 0.000000 
#    z -0.060390 0.000000 3.680690 
# 
# 
# High freq. dielectric constant tensor:
#      x y z
#    x 1.678110 0.000000 -0.002360 
#    y 0.000000 1.710100 0.000000 
#    z -0.002360 0.000000 1.719650 
# 
# From -- ./inp_files/105931.got.cif
#   From: 2010.06.25/outbox.cif.g09.slc.cpg/sg12_53_cif.got.tgz:105931.got - 2010.06.28 00:19:55.
