data_PCOD8084838
_publ_section_title
;
Structure prediction by ZEFSAII (Michael W. Deem and Ramdas Pophale) SiO2 
 PCOD8084838
Probable space group: C 2/M
;
_chemical_formula_sum "Si O2"
_cell_formula_units_Z 56
_cell_length_a 32.497570
_cell_length_b 9.037073
_cell_length_c 11.378419
_cell_angle_alpha 90.000000
_cell_angle_beta 81.016277
_cell_angle_gamma 90.000000
_cell_volume 3300.654381
_symmetry_space_group_name_H-M "C 2/M"
_symmetry_group_IT_number 12
_symmetry_cell_setting 'monoclinic'
loop_
_space_group_symop_operation_xyz
x,y,z
-x,y,-z
-x,-y,-z
x,-y,z
1/2+x,1/2+y,z
1/2-x,1/2+y,-z
1/2-x,1/2-y,-z
1/2+x,1/2-y,z
loop_
_atom_site_type_symbol
_atom_site_label
_atom_site_fract_x
_atom_site_fract_y
_atom_site_fract_z
Si Si1 0.280792 0.332995 0.827571
Si Si2 0.298919 0.333125 0.094612
Si Si3 0.520649 0.674033 0.665006
Si Si4 0.119744 0.673375 0.989153
Si Si5 0.957570 0.829416 0.089095
Si Si6 0.362775 0.826425 0.750975
Si Si7 0.063871 0.825346 0.409782
O O1 0.278568 0.500000 0.780315
O O2 0.237347 0.251398 0.817983
O O3 0.318083 0.247430 0.746166
O O4 0.288307 0.331884 0.962622
O O5 0.302113 0.500000 0.141239
O O6 0.342631 0.251513 0.097317
O O7 0.515430 0.500000 0.677645
O O8 0.535828 0.737139 0.783036
O O9 0.474807 0.734449 0.651355
O O10 0.554273 0.713349 0.549965
O O11 0.123997 0.500000 0.966043
O O12 0.076420 0.730782 0.959437
O O13 0.121270 0.713357 0.126003
O O14 0.942735 0.000000 0.098672
O O15 0.000000 0.812968 0.000000
O O16 0.394911 0.762034 0.642860
O O17 0.357929 0.000000 0.734643
O O18 0.070919 0.000000 0.388750
#
# Coordination Sequence:
#
# PCOD8084838 Si02
#       7
#     8   8   8   8   8   8   8
#     4   9  16  26  42  64  90 120 151 183 224 272
#     4   9  16  27  43  63  89 120 152 186 224 267
#     4   8  16  30  48  69  90 115 150 191 231 271
#     4  10  20  31  43  63  93 126 156 187 225 269
#     4  10  19  31  48  69  92 119 153 190 227 270
#     4  10  19  29  42  65  95 122 152 190 228 266
#     4   9  16  30  50  67  87 117 152 189 230 274
#
# _framework density 16.966334
#
# number of rings (size 3 to 8) (size 9 to 14) (size 15 to 20)
#    0.000    2.714    0.000    3.429    0.000    6.571 
#    0.000    2.857    0.000    0.000    0.000    1.000 
#    0.000    0.000    0.000    0.000    0.000    0.000 
#
# Total GULP energy -347178.303432 kJ/mol
# GULP energy per Si atom -12399.225123 kJ/mol
# Density = 1.692772 g / cm^3
# Si number density = 16.966334 Si / 1000 Ang^3
#
#
#
# Elastic Constant Matrix: (Units=GPa)
#
#
# Indices 1 2 3 4 5 6 
#
# 1 84.1105 44.5836 37.5062 0.0000 -24.9215 0.0000
# 2 44.5836 88.6745 35.1279 0.0000 -15.3725 0.0000
# 3 37.5062 35.1279 74.1512 0.0000 -16.0305 0.0000
# 4 0.0000 0.0000 0.0000 17.9298 0.0000 -6.4294
# 5 -24.9215 -15.3725 -16.0305 0.0000 29.8052 0.0000
# 6 0.0000 0.0000 0.0000 -6.4294 0.0000 29.8402
#
#
#
# Elastic Compliance Matrix: (Units=1/GPa)
#
#
# Indices 1 2 3 4 5 6 
#
# 1 0.021026 -0.006588 -0.005033 0.000000 0.011476 0.000000
# 2 -0.006588 0.016404 -0.004301 0.000000 0.000639 0.000000
# 3 -0.005033 -0.004301 0.018874 0.000000 0.003725 0.000000
# 4 0.000000 0.000000 0.000000 0.060443 0.000000 0.013023
# 5 0.011476 0.000639 0.003725 0.000000 0.045479 0.000000
# 6 0.000000 0.000000 0.000000 0.013023 0.000000 0.036318
#
#
# Mechanical properties :
#
#
# Convention : Reuss Voigt Hill
#
# Bulk Modulus (GPa) = 40.88239 53.48573 47.18406
# Shear Modulus (GPa) = 20.96073 24.16295 22.56184
#
# Velocity S-wave (km/s) = 3.51868 3.77791 3.65060
# Velocity P-wave (km/s) = 6.37626 7.11500 6.75573
#
# Compressibility (1/GPa) = 0.02446041
#
# Stress axis : x y z
#
# Youngs Moduli (GPa) = 47.56086 60.96089 52.98181
#
# Poissons Ratio (x) = 0.40161 0.26666
# Poissons Ratio (y) = 0.31333 0.22786
# Poissons Ratio (z) = 0.23938 0.26218
#
# Static dielectric constant tensor:
#      x y z
#    x 3.205090 0.000000 -0.087900 
#    y 0.000000 3.121890 0.000000 
#    z -0.087900 0.000000 3.103460 
# 
# 
# High freq. dielectric constant tensor:
#      x y z
#    x 1.650820 0.000000 -0.026680 
#    y 0.000000 1.649970 0.000000 
#    z -0.026680 0.000000 1.620960 
# 
# From -- ./inp_files/186395.got.cif
#   From: 2010.06.25/outbox.cif.g09.slc.cpg/sg12_94_cif.got.tgz:186395.got - 2010.06.28 00:19:55.
