data_PCOD8084669
_publ_section_title
;
Structure prediction by ZEFSAII (Michael W. Deem and Ramdas Pophale) SiO2 
 PCOD8084669
Probable space group: C 2/M
;
_chemical_formula_sum "Si O2"
_cell_formula_units_Z 60
_cell_length_a 32.963737
_cell_length_b 20.574897
_cell_length_c 7.724608
_cell_angle_alpha 90.000000
_cell_angle_beta 50.374269
_cell_angle_gamma 90.000000
_cell_volume 4035.238832
_symmetry_space_group_name_H-M "C 2/M"
_symmetry_group_IT_number 12
_symmetry_cell_setting 'monoclinic'
loop_
_space_group_symop_operation_xyz
x,y,z
-x,y,-z
-x,-y,-z
x,-y,z
1/2+x,1/2+y,z
1/2-x,1/2+y,-z
1/2-x,1/2-y,-z
1/2+x,1/2-y,z
loop_
_atom_site_type_symbol
_atom_site_label
_atom_site_fract_x
_atom_site_fract_y
_atom_site_fract_z
Si Si1 0.220348 0.924360 0.254201
Si Si2 0.373235 0.670271 0.483526
Si Si3 0.165091 0.755788 0.718964
Si Si4 0.295009 0.575071 0.094374
Si Si5 0.239443 0.355199 0.545072
Si Si6 0.537816 0.430135 0.737907
Si Si7 0.000000 0.124197 0.500000
Si Si8 0.115620 0.822422 0.165504
O O1 0.167757 0.886473 0.449191
O O2 0.264904 0.894640 0.260977
O O3 0.212835 0.000000 0.315733
O O4 0.232299 0.912385 0.018661
O O5 0.370889 0.728458 0.350654
O O6 0.428157 0.633569 0.324461
O O7 0.366431 0.701760 0.692454
O O8 0.183469 0.680606 0.666309
O O9 0.215780 0.801056 0.570621
O O10 0.131432 0.767673 0.984315
O O11 0.308871 0.500000 0.082492
O O12 0.251984 0.596519 0.352649
O O13 0.351089 0.611650 0.962876
O O14 0.568549 0.500000 0.638377
O O15 0.504640 0.421488 0.653492
O O16 0.500000 0.435484 0.000000
O O17 0.947134 0.167212 0.670130
#
# Coordination Sequence:
#
# PCOD8084669 Si02
#       8
#     8   8   8   8   8   8   4   8
#     4   9  16  26  40  57  78 103 129 159 196 239
#     4   9  17  28  40  54  75 104 136 169 203 237
#     4   9  17  29  41  56  76 100 135 173 204 236
#     4   9  17  28  41  59  82 107 134 164 201 241
#     4   9  17  27  41  58  76 101 134 169 202 237
#     4  10  19  28  39  56  77 103 137 175 211 241
#     4  10  19  30  42  58  80 106 139 176 210 236
#     4   9  18  29  42  58  78 107 139 171 204 236
#
# _framework density 14.869009
#
# number of rings (size 3 to 8) (size 9 to 14) (size 15 to 20)
#    0.000    2.800    0.000    1.800    0.000    4.800 
#    0.000    8.667    0.000    0.000    0.000    0.000 
#    0.000    0.000    0.000    2.400    0.000   69.867 
#
# Total GULP energy -371739.363815 kJ/mol
# GULP energy per Si atom -12391.312127 kJ/mol
# Density = 1.483517 g / cm^3
# Si number density = 14.869009 Si / 1000 Ang^3
#
#
#
# Elastic Constant Matrix: (Units=GPa)
#
#
# Indices 1 2 3 4 5 6 
#
# 1 89.1134 40.8300 43.4486 0.0000 14.5276 0.0000
# 2 40.8300 46.8153 35.0862 0.0000 1.1350 0.0000
# 3 43.4486 35.0862 75.7725 0.0000 12.8791 0.0000
# 4 0.0000 0.0000 0.0000 21.7558 0.0000 2.9319
# 5 14.5276 1.1350 12.8791 0.0000 20.1301 0.0000
# 6 0.0000 0.0000 0.0000 2.9319 0.0000 20.0983
#
#
#
# Elastic Compliance Matrix: (Units=1/GPa)
#
#
# Indices 1 2 3 4 5 6 
#
# 1 0.022803 -0.017634 -0.002561 0.000000 -0.013824 0.000000
# 2 -0.017634 0.047802 -0.015403 0.000000 0.019886 0.000000
# 3 -0.002561 -0.015403 0.023940 0.000000 -0.012600 0.000000
# 4 0.000000 0.000000 0.000000 0.046887 0.000000 -0.006840
# 5 -0.013824 0.019886 -0.012600 0.000000 0.066594 0.000000
# 6 0.000000 0.000000 0.000000 -0.006840 0.000000 0.050753
#
#
# Mechanical properties :
#
#
# Convention : Reuss Voigt Hill
#
# Bulk Modulus (GPa) = 42.82688 50.04787 46.43738
# Shear Modulus (GPa) = 14.80359 18.55259 16.67809
#
# Velocity S-wave (km/s) = 3.15874 3.53616 3.35276
# Velocity P-wave (km/s) = 6.49375 7.09964 6.80344
#
# Compressibility (1/GPa) = 0.02334982
#
# Stress axis : x y z
#
# Youngs Moduli (GPa) = 43.85364 20.91981 41.77155
#
# Poissons Ratio (x) = 0.36889 0.10696
# Poissons Ratio (y) = 0.77329 0.64341
# Poissons Ratio (z) = 0.11229 0.32223
#
# Static dielectric constant tensor:
#      x y z
#    x 3.015300 0.000000 0.292820 
#    y 0.000000 2.834180 0.000000 
#    z 0.292820 0.000000 2.838970 
# 
# 
# High freq. dielectric constant tensor:
#      x y z
#    x 1.564010 0.000000 0.033920 
#    y 0.000000 1.536670 0.000000 
#    z 0.033920 0.000000 1.557900 
# 
# From -- ./inp_files/112477.got.cif
#   From: 2010.06.25/outbox.cif.g09.slc.cpg/sg12_57_cif.got.tgz:112477.got - 2010.06.28 00:19:55.
