data_PCOD8084730
_publ_section_title
;
Structure prediction by ZEFSAII (Michael W. Deem and Ramdas Pophale) SiO2 
 PCOD8084730
Probable space group: C 2/M
;
_chemical_formula_sum "Si O2"
_cell_formula_units_Z 56
_cell_length_a 20.439838
_cell_length_b 9.012117
_cell_length_c 22.029538
_cell_angle_alpha 90.000000
_cell_angle_beta 127.379336
_cell_angle_gamma 90.000000
_cell_volume 3224.605546
_symmetry_space_group_name_H-M "C 2/M"
_symmetry_group_IT_number 12
_symmetry_cell_setting 'monoclinic'
loop_
_space_group_symop_operation_xyz
x,y,z
-x,y,-z
-x,-y,-z
x,-y,z
1/2+x,1/2+y,z
1/2-x,1/2+y,-z
1/2-x,1/2-y,-z
1/2+x,1/2-y,z
loop_
_atom_site_type_symbol
_atom_site_label
_atom_site_fract_x
_atom_site_fract_y
_atom_site_fract_z
Si Si1 0.982455 0.675250 0.189213
Si Si2 0.092786 0.826560 0.053014
Si Si3 0.139915 0.327779 0.197544
Si Si4 0.163202 0.824812 0.961764
Si Si5 0.231247 0.164569 0.345350
Si Si6 0.173806 0.325560 0.489367
Si Si7 0.926800 0.831589 0.658077
O O1 0.969095 0.500000 0.186869
O O2 0.899941 0.753683 0.120911
O O3 0.054979 0.715535 0.182951
O O4 0.002646 0.740759 0.266937
O O5 0.144814 0.750962 0.135539
O O6 0.090989 0.000000 0.065477
O O7 0.135854 0.786901 0.014394
O O8 0.000000 0.762450 0.000000
O O9 0.147832 0.500000 0.190654
O O10 0.217748 0.277655 0.282368
O O11 0.167803 0.000000 0.953018
O O12 0.250000 0.750000 0.000000
O O13 0.314236 0.200336 0.431066
O O14 0.155565 0.173061 0.348972
O O15 0.236995 0.000000 0.320508
O O16 0.172649 0.500000 0.473233
O O17 0.250000 0.250000 0.500000
O O18 0.090756 0.248576 0.416772
O O19 0.956264 0.000000 0.663223
#
# Coordination Sequence:
#
# PCOD8084730 Si02
#       7
#     8   8   8   8   8   8   8
#     4  10  19  31  47  69  96 126 162 204 247 294
#     4  10  20  35  54  73  96 129 166 203 246 301
#     4  10  19  28  45  71  96 123 160 207 247 285
#     4  11  23  38  55  74  99 131 165 206 253 300
#     4   8  15  25  37  55  86 124 158 193 238 292
#     4   9  15  23  35  54  82 120 159 196 239 289
#     4   9  16  25  39  59  85 121 160 199 240 289
#
# _framework density 17.366464000000001
#
# number of rings (size 3 to 8) (size 9 to 14) (size 15 to 20)
#    0.000    2.429    1.429    3.000    0.000    6.571 
#    0.000    0.000    0.000    0.000    0.000    0.000 
#    0.000    1.143    0.000   12.000    0.000    8.714 
#
# Total GULP energy -347103.583522 kJ/mol
# GULP energy per Si atom -12396.556554 kJ/mol
# Density = 1.732694 g / cm^3
# Si number density = 17.366464 Si / 1000 Ang^3
#
#
#
# Elastic Constant Matrix: (Units=GPa)
#
#
# Indices 1 2 3 4 5 6 
#
# 1 47.5807 38.3268 41.5859 0.0000 3.5817 0.0000
# 2 38.3268 93.9690 73.2348 0.0000 4.8124 0.0000
# 3 41.5859 73.2348 174.1303 0.0000 7.2920 0.0000
# 4 0.0000 0.0000 0.0000 39.2694 0.0000 1.5682
# 5 3.5817 4.8124 7.2920 0.0000 11.1993 0.0000
# 6 0.0000 0.0000 0.0000 1.5682 0.0000 16.4619
#
#
#
# Elastic Compliance Matrix: (Units=1/GPa)
#
#
# Indices 1 2 3 4 5 6 
#
# 1 0.032649 -0.010665 -0.003153 0.000000 -0.003806 0.000000
# 2 -0.010665 0.019385 -0.005551 0.000000 -0.001305 0.000000
# 3 -0.003153 -0.005551 0.008932 0.000000 -0.002422 0.000000
# 4 0.000000 0.000000 0.000000 0.025562 0.000000 -0.002435
# 5 -0.003806 -0.001305 -0.002422 0.000000 0.092646 0.000000
# 6 0.000000 0.000000 0.000000 -0.002435 0.000000 0.060978
#
#
# Mechanical properties :
#
#
# Convention : Reuss Voigt Hill
#
# Bulk Modulus (GPa) = 44.98625 69.10831 57.04728
# Shear Modulus (GPa) = 17.46425 24.22162 20.84293
#
# Velocity S-wave (km/s) = 3.17461 3.73867 3.46812
# Velocity P-wave (km/s) = 6.27677 7.64966 6.99697
#
# Compressibility (1/GPa) = 0.02222901
#
# Stress axis : x y z
#
# Youngs Moduli (GPa) = 30.62850 51.58726 111.95907
#
# Poissons Ratio (x) = 0.55016 0.35297
# Poissons Ratio (y) = 0.32664 0.62150
# Poissons Ratio (z) = 0.09656 0.28637
#
# Static dielectric constant tensor:
#      x y z
#    x 2.600050 0.000000 -0.037080 
#    y 0.000000 3.348570 0.000000 
#    z -0.037080 0.000000 3.714980 
# 
# 
# High freq. dielectric constant tensor:
#      x y z
#    x 1.588480 0.000000 0.001520 
#    y 0.000000 1.684630 0.000000 
#    z 0.001520 0.000000 1.696650 
# 
# From -- ./inp_files/323803.got.cif
#   From: 2010.06.25/outbox.cif.g09.slc.cpg/sg12_162_cif.got.tgz:323803.got - 2010.06.28 00:19:55.
