data_PCOD8084002
_publ_section_title
;
Structure prediction by ZEFSAII (Michael W. Deem and Ramdas Pophale) SiO2 
 PCOD8084002
Probable space group: C 2/M
;
_chemical_formula_sum "Si O2"
_cell_formula_units_Z 56
_cell_length_a 8.942477
_cell_length_b 18.953637
_cell_length_c 25.872366
_cell_angle_alpha 90.000000
_cell_angle_beta 136.596019
_cell_angle_gamma 90.000000
_cell_volume 3013.217623
_symmetry_space_group_name_H-M "C 2/M"
_symmetry_group_IT_number 12
_symmetry_cell_setting 'monoclinic'
loop_
_space_group_symop_operation_xyz
x,y,z
-x,y,-z
-x,-y,-z
x,-y,z
1/2+x,1/2+y,z
1/2-x,1/2+y,-z
1/2-x,1/2-y,-z
1/2+x,1/2-y,z
loop_
_atom_site_type_symbol
_atom_site_label
_atom_site_fract_x
_atom_site_fract_y
_atom_site_fract_z
Si Si1 0.301268 0.198333 0.851777
Si Si2 0.895934 0.420726 0.340206
Si Si3 0.082040 0.167787 0.649095
Si Si4 0.229986 0.221031 0.052282
Si Si5 0.336548 0.580469 0.505987
Si Si6 0.026146 0.293079 0.708155
Si Si7 0.421438 0.578869 0.256032
O O1 0.537856 0.181930 0.883892
O O2 0.300992 0.217503 0.912359
O O3 0.187327 0.262597 0.792239
O O4 0.168542 0.125884 0.813704
O O5 0.931446 0.500000 0.326380
O O6 0.870434 0.365608 0.287000
O O7 0.682380 0.418295 0.321728
O O8 0.095647 0.399332 0.427006
O O9 0.986311 0.236596 0.652834
O O10 0.290394 0.190775 0.669968
O O11 0.160637 0.109934 0.710429
O O12 0.897883 0.134116 0.566735
O O13 0.250000 0.250000 0.000000
O O14 0.000000 0.176101 0.000000
O O15 0.500000 0.590634 0.500000
O O16 0.346370 0.500000 0.529227
O O17 0.332169 0.500000 0.226546
#
# Coordination Sequence:
#
# PCOD8084002 Si02
#       7
#     8   8   8   8   8   8   8
#     4  10  18  34  55  81 113 138 170 221 266 312
#     4  10  21  37  55  77 106 142 187 232 276 333
#     4  11  22  36  54  77 107 143 186 236 279 329
#     4   9  18  32  56  84 108 138 173 208 252 314
#     4  10  20  37  56  74 102 144 189 232 283 332
#     4  11  21  35  55  81 109 141 178 227 282 322
#     4  10  21  36  56  82 109 143 185 227 276 326
#
# _framework density 18.584783999999999
#
# number of rings (size 3 to 8) (size 9 to 14) (size 15 to 20)
#    0.000    1.857    1.429    4.714    0.000    1.714 
#    0.000    2.143    0.000    4.286    0.000    4.000 
#    0.000    0.000    0.000    0.000    0.000    0.000 
#
# Total GULP energy -347015.552591 kJ/mol
# GULP energy per Si atom -12393.412593 kJ/mol
# Density = 1.854248 g / cm^3
# Si number density = 18.584784 Si / 1000 Ang^3
#
#
#
# Elastic Constant Matrix: (Units=GPa)
#
#
# Indices 1 2 3 4 5 6 
#
# 1 93.0540 37.9351 22.5234 -0.0002 4.6162 0.0001
# 2 37.9351 113.8179 47.1072 -0.0001 -8.2631 0.0000
# 3 22.5234 47.1072 75.2871 -0.0005 0.0933 0.0001
# 4 -0.0002 -0.0001 -0.0005 6.4882 -0.0004 2.7061
# 5 4.6162 -8.2631 0.0933 -0.0004 37.6332 0.0002
# 6 0.0001 0.0000 0.0001 2.7061 0.0002 23.9781
#
#
#
# Elastic Compliance Matrix: (Units=1/GPa)
#
#
# Indices 1 2 3 4 5 6 
#
# 1 0.012777 -0.003849 -0.001411 0.000000 -0.002409 0.000000
# 2 -0.003849 0.013281 -0.007162 0.000000 0.003406 0.000000
# 3 -0.001411 -0.007162 0.018188 0.000001 -0.001445 0.000000
# 4 0.000000 0.000000 0.000001 0.161740 0.000002 -0.018253
# 5 -0.002409 0.003406 -0.001445 0.000002 0.027619 0.000000
# 6 0.000000 0.000000 0.000000 -0.018253 0.000000 0.043765
#
#
# Mechanical properties :
#
#
# Convention : Reuss Voigt Hill
#
# Bulk Modulus (GPa) = 51.54616 55.25450 53.40033
# Shear Modulus (GPa) = 16.19799 25.25945 20.72872
#
# Velocity S-wave (km/s) = 2.95544 3.69066 3.34332
# Velocity P-wave (km/s) = 6.28029 6.92509 6.61056
#
# Compressibility (1/GPa) = 0.01940009
#
# Stress axis : x y z
#
# Youngs Moduli (GPa) = 78.26746 75.29807 54.98199
#
# Poissons Ratio (x) = 0.28985 0.07757
# Poissons Ratio (y) = 0.30128 0.39380
# Poissons Ratio (z) = 0.11042 0.53930
#
# Static dielectric constant tensor:
#      x y z
#    x 3.792200 0.000000 0.253320 
#    y 0.000000 3.502460 0.000000 
#    z 0.253320 0.000000 3.638570 
# 
# 
# High freq. dielectric constant tensor:
#      x y z
#    x 1.737610 0.000000 0.006650 
#    y 0.000000 1.701530 0.000000 
#    z 0.006650 0.000000 1.718290 
# 
# From -- ./inp_files/256983.got.cif
#   From: 2010.06.25/outbox.cif.g09.slc.cpg/sg12_129_cif.got.tgz:256983.got - 2010.06.28 00:19:55.
