data_PCOD8084705
_publ_section_title
;
Structure prediction by ZEFSAII (Michael W. Deem and Ramdas Pophale) SiO2 
 PCOD8084705
Probable space group: C 2/M
;
_chemical_formula_sum "Si O2"
_cell_formula_units_Z 40
_cell_length_a 23.375105
_cell_length_b 13.519968
_cell_length_c 6.428831
_cell_angle_alpha 90.000000
_cell_angle_beta 95.498550
_cell_angle_gamma 90.000000
_cell_volume 2022.359126
_symmetry_space_group_name_H-M "C 2/M"
_symmetry_group_IT_number 12
_symmetry_cell_setting 'monoclinic'
loop_
_space_group_symop_operation_xyz
x,y,z
-x,y,-z
-x,-y,-z
x,-y,z
1/2+x,1/2+y,z
1/2-x,1/2+y,-z
1/2-x,1/2-y,-z
1/2+x,1/2-y,z
loop_
_atom_site_type_symbol
_atom_site_label
_atom_site_fract_x
_atom_site_fract_y
_atom_site_fract_z
Si Si1 0.562796 0.772045 0.503508
Si Si2 0.829193 0.704135 0.696548
Si Si3 0.050250 0.887473 0.163114
Si Si4 0.863526 0.201315 0.099315
Si Si5 0.288161 0.386231 0.421846
O O1 0.500000 0.826312 0.500000
O O2 0.610196 0.832731 0.384402
O O3 0.551710 0.668635 0.382210
O O4 0.588365 0.751651 0.739460
O O5 0.780623 0.625634 0.618438
O O6 0.813721 0.814015 0.605223
O O7 0.834605 0.711868 0.948777
O O8 0.039197 0.000000 0.218821
O O9 0.108672 0.875139 0.053334
O O10 0.000000 0.844605 0.000000
O O11 0.815403 0.143124 0.210370
O O12 0.302666 0.500000 0.482904
#
# Coordination Sequence:
#
# PCOD8084705 Si02
#       5
#     8   8   8   8   8
#     4  10  19  32  48  70  99 137 171 200 248 300
#     4   9  21  35  52  78 104 131 172 214 250 302
#     4  10  19  28  41  67 101 133 168 202 236 296
#     4  10  19  32  50  71 102 133 172 204 250 301
#     4  10  20  36  55  75 102 135 170 212 259 302
#
# _framework density 19.778880999999998
#
# number of rings (size 3 to 8) (size 9 to 14) (size 15 to 20)
#    0.000    2.200    2.000    1.200    0.000    9.200 
#    0.000    0.000    0.000    0.600    0.000    1.400 
#    0.000    0.000    0.000    0.000    0.000    0.000 
#
# Total GULP energy -247886.465479 kJ/mol
# GULP energy per Si atom -12394.323274 kJ/mol
# Density = 1.973386 g / cm^3
# Si number density = 19.778881 Si / 1000 Ang^3
#
#
#
# Elastic Constant Matrix: (Units=GPa)
#
#
# Indices 1 2 3 4 5 6 
#
# 1 138.5095 5.3019 19.6315 0.0000 -2.9841 0.0000
# 2 5.3019 20.3920 5.8757 0.0000 -2.6985 0.0000
# 3 19.6315 5.8757 107.7016 0.0000 10.0731 0.0000
# 4 0.0000 0.0000 0.0000 11.8203 0.0000 5.1956
# 5 -2.9841 -2.6985 10.0731 0.0000 30.7213 0.0000
# 6 0.0000 0.0000 0.0000 5.1956 0.0000 16.4223
#
#
#
# Elastic Compliance Matrix: (Units=1/GPa)
#
#
# Indices 1 2 3 4 5 6 
#
# 1 0.007493 -0.001408 -0.001388 0.000000 0.001059 0.000000
# 2 -0.001408 0.050982 -0.003023 0.000000 0.005333 0.000000
# 3 -0.001388 -0.003023 0.010048 0.000000 -0.003695 0.000000
# 4 0.000000 0.000000 0.000000 0.098265 0.000000 -0.031089
# 5 0.001059 0.005333 -0.003695 0.000000 0.034334 0.000000
# 6 0.000000 0.000000 0.000000 -0.031089 0.000000 0.070729
#
#
# Mechanical properties :
#
#
# Convention : Reuss Voigt Hill
#
# Bulk Modulus (GPa) = 17.57956 36.46902 27.02429
# Shear Modulus (GPa) = 16.53157 27.51239 22.02198
#
# Velocity S-wave (km/s) = 2.89419 3.73366 3.34040
# Velocity P-wave (km/s) = 4.48060 6.08813 5.34514
#
# Compressibility (1/GPa) = 0.05688426
#
# Stress axis : x y z
#
# Youngs Moduli (GPa) = 133.45464 19.61487 99.51769
#
# Poissons Ratio (x) = 0.02762 0.13814
# Poissons Ratio (y) = 0.18791 0.30088
# Poissons Ratio (z) = 0.18525 0.05930
#
# Static dielectric constant tensor:
#      x y z
#    x 4.109190 0.000000 0.051510 
#    y 0.000000 2.911580 0.000000 
#    z 0.051510 0.000000 3.708960 
# 
# 
# High freq. dielectric constant tensor:
#      x y z
#    x 1.796460 0.000000 0.003960 
#    y 0.000000 1.693140 0.000000 
#    z 0.003960 0.000000 1.785620 
# 
# From -- ./inp_files/24044.got.cif
#   From: 2010.06.25/outbox.cif.g09.slc.cpg/sg12_13_cif.got.tgz:24044.got - 2010.06.28 00:19:55.
