data_PCOD8084834
_publ_section_title
;
Structure prediction by ZEFSAII (Michael W. Deem and Ramdas Pophale) SiO2 
 PCOD8084834
Probable space group: C 2/M
;
_chemical_formula_sum "Si O2"
_cell_formula_units_Z 64
_cell_length_a 28.369913
_cell_length_b 9.640057
_cell_length_c 14.159422
_cell_angle_alpha 90.000000
_cell_angle_beta 72.418145
_cell_angle_gamma 90.000000
_cell_volume 3691.530987
_symmetry_space_group_name_H-M "C 2/M"
_symmetry_group_IT_number 12
_symmetry_cell_setting 'monoclinic'
loop_
_space_group_symop_operation_xyz
x,y,z
-x,y,-z
-x,-y,-z
x,-y,z
1/2+x,1/2+y,z
1/2-x,1/2+y,-z
1/2-x,1/2-y,-z
1/2+x,1/2-y,z
loop_
_atom_site_type_symbol
_atom_site_label
_atom_site_fract_x
_atom_site_fract_y
_atom_site_fract_z
Si Si1 0.796027 0.654574 0.989885
Si Si2 0.320534 0.160851 0.695887
Si Si3 0.045504 0.840162 0.098929
Si Si4 0.932240 0.839887 0.124437
Si Si5 0.854434 0.660014 0.284299
Si Si6 0.732899 0.153918 0.791517
Si Si7 0.889429 0.661147 0.816375
Si Si8 0.798355 0.662241 0.498205
O O1 0.784544 0.500000 0.958576
O O2 0.804310 0.654641 0.097206
O O3 0.750000 0.750000 0.000000
O O4 0.844824 0.711100 0.910513
O O5 0.278048 0.241196 0.778699
O O6 0.373061 0.190915 0.717079
O O7 0.319946 0.207822 0.587270
O O8 0.307706 0.000000 0.713638
O O9 0.064120 0.751324 0.177521
O O10 0.987121 0.817926 0.129950
O O11 0.058530 0.000000 0.109658
O O12 0.069995 0.792343 0.984221
O O13 0.896840 0.752863 0.213654
O O14 0.916501 0.000000 0.141236
O O15 0.868126 0.500000 0.256023
O O16 0.800688 0.699202 0.275602
O O17 0.845339 0.689469 0.400835
O O18 0.755251 0.000000 0.762380
O O19 0.902677 0.500000 0.822796
O O20 0.783259 0.500000 0.505163
O O21 0.750000 0.750000 0.500000
#
# Coordination Sequence:
#
# PCOD8084834 Si02
#       8
#     8   8   8   8   8   8   8   8
#     4  10  19  29  42  64  96 131 166 202 239 288
#     4  10  20  33  49  70  99 135 173 209 245 292
#     4   9  19  36  56  78 104 132 166 208 255 308
#     4   9  19  36  56  79 104 130 165 210 257 308
#     4  10  20  33  51  76 104 132 167 213 260 304
#     4  10  19  30  45  68  99 132 167 207 247 292
#     4  10  20  33  49  72 102 136 173 209 249 301
#     4  10  20  34  52  74 102 136 174 216 257 297
#
# _framework density 17.336978999999999
#
# number of rings (size 3 to 8) (size 9 to 14) (size 15 to 20)
#    0.000    2.250    2.500    1.500    0.000    4.000 
#    0.000    1.250    0.000    0.750    0.000    5.250 
#    0.000    0.000    0.000    0.000    0.000    0.000 
#
# Total GULP energy -396627.142032 kJ/mol
# GULP energy per Si atom -12394.598189 kJ/mol
# Density = 1.729752 g / cm^3
# Si number density = 17.336979 Si / 1000 Ang^3
#
#
#
# Elastic Constant Matrix: (Units=GPa)
#
#
# Indices 1 2 3 4 5 6 
#
# 1 77.3828 47.8582 39.4535 0.0000 17.4114 0.0000
# 2 47.8582 65.3199 35.6396 0.0000 3.9535 0.0000
# 3 39.4535 35.6396 88.1781 0.0000 12.2569 0.0000
# 4 0.0000 0.0000 0.0000 23.7536 0.0000 -0.7814
# 5 17.4114 3.9535 12.2569 0.0000 29.9834 0.0000
# 6 0.0000 0.0000 0.0000 -0.7814 0.0000 34.1624
#
#
#
# Elastic Compliance Matrix: (Units=1/GPa)
#
#
# Indices 1 2 3 4 5 6 
#
# 1 0.029281 -0.018608 -0.003772 0.000000 -0.013008 0.000000
# 2 -0.018608 0.031480 -0.005643 0.000000 0.008962 0.000000
# 3 -0.003772 -0.005643 0.015799 0.000000 -0.003524 0.000000
# 4 0.000000 0.000000 0.000000 0.042131 0.000000 0.000964
# 5 -0.013008 0.008962 -0.003524 0.000000 0.041165 0.000000
# 6 0.000000 0.000000 0.000000 0.000964 0.000000 0.029294
#
#
# Mechanical properties :
#
#
# Convention : Reuss Voigt Hill
#
# Bulk Modulus (GPa) = 48.74973 52.97595 50.86284
# Shear Modulus (GPa) = 19.83861 24.77518 22.30689
#
# Velocity S-wave (km/s) = 3.38641 3.78436 3.59090
# Velocity P-wave (km/s) = 6.59321 7.05111 6.82600
#
# Compressibility (1/GPa) = 0.02051293
#
# Stress axis : x y z
#
# Youngs Moduli (GPa) = 34.15151 31.76665 63.29453
#
# Poissons Ratio (x) = 0.59112 0.23876
# Poissons Ratio (y) = 0.63550 0.35718
# Poissons Ratio (z) = 0.12883 0.17927
#
# Static dielectric constant tensor:
#      x y z
#    x 3.058750 0.000000 0.240440 
#    y 0.000000 1.878620 0.000000 
#    z 0.240440 0.000000 3.466820 
# 
# 
# High freq. dielectric constant tensor:
#      x y z
#    x 1.648910 0.000000 0.019370 
#    y 0.000000 1.669070 0.000000 
#    z 0.019370 0.000000 1.666100 
# 
# From -- ./inp_files/243900.got.cif
#   From: 2010.06.25/outbox.cif.g09.slc.cpg/sg12_122_cif.got.tgz:243900.got - 2010.06.28 00:19:55.
