data_PCOD8084851
_publ_section_title
;
Structure prediction by ZEFSAII (Michael W. Deem and Ramdas Pophale) SiO2 
 PCOD8084851
Probable space group: C 2/M
;
_chemical_formula_sum "Si O2"
_cell_formula_units_Z 48
_cell_length_a 27.441512
_cell_length_b 9.238091
_cell_length_c 23.853679
_cell_angle_alpha 90.000000
_cell_angle_beta 150.055246
_cell_angle_gamma 90.000000
_cell_volume 3018.488532
_symmetry_space_group_name_H-M "C 2/M"
_symmetry_group_IT_number 12
_symmetry_cell_setting 'monoclinic'
loop_
_space_group_symop_operation_xyz
x,y,z
-x,y,-z
-x,-y,-z
x,-y,z
1/2+x,1/2+y,z
1/2-x,1/2+y,-z
1/2-x,1/2-y,-z
1/2+x,1/2-y,z
loop_
_atom_site_type_symbol
_atom_site_label
_atom_site_fract_x
_atom_site_fract_y
_atom_site_fract_z
Si Si1 0.605657 0.168210 0.371842
Si Si2 0.391398 0.670867 0.832582
Si Si3 0.114813 0.667251 0.836413
Si Si4 0.718370 0.168751 0.054396
Si Si5 0.388658 0.328360 0.954404
Si Si6 0.706765 0.330305 0.375597
O O1 0.497964 0.209349 0.285302
O O2 0.630344 0.255400 0.340668
O O3 0.681908 0.209031 0.497276
O O4 0.612190 0.000000 0.362715
O O5 0.396986 0.500000 0.840399
O O6 0.357768 0.722165 0.860730
O O7 0.314718 0.725058 0.709042
O O8 0.500092 0.724561 0.925105
O O9 0.135245 0.500000 0.842140
O O10 0.176090 0.766610 0.855584
O O11 0.143079 0.699523 0.928923
O O12 0.681087 0.246040 0.072725
O O13 0.730635 0.000000 0.078733
O O14 0.376704 0.500000 0.951345
O O15 0.687199 0.500000 0.361005
#
# Coordination Sequence:
#
# PCOD8084851 Si02
#       6
#     8   8   8   8   8   8
#     4   9  17  28  43  64  88 112 138 170 208 248
#     4   8  15  27  44  65  86 112 143 170 199 244
#     4   9  18  31  44  60  85 114 140 169 208 251
#     4  10  19  29  43  64  86 108 139 176 211 248
#     4   9  16  28  45  63  86 114 141 169 205 246
#     4   9  16  27  44  65  88 112 139 170 204 245
#
# _framework density 15.901999
#
# number of rings (size 3 to 8) (size 9 to 14) (size 15 to 20)
#    0.000    3.000    0.000    2.500    0.000    1.333 
#    0.000    2.500    0.000    1.000    0.000    7.000 
#    0.000    0.000    0.000    0.000    0.000    0.000 
#
# Total GULP energy -297524.011634 kJ/mol
# GULP energy per Si atom -12396.833818 kJ/mol
# Density = 1.586581 g / cm^3
# Si number density = 15.901999 Si / 1000 Ang^3
#
#
#
# Elastic Constant Matrix: (Units=GPa)
#
#
# Indices 1 2 3 4 5 6 
#
# 1 136.4525 54.2948 73.0913 0.0000 -2.5298 0.0000
# 2 54.2948 51.7434 37.2892 0.0000 2.7724 0.0000
# 3 73.0913 37.2892 109.8375 0.0000 -3.4407 0.0000
# 4 0.0000 0.0000 0.0000 16.0863 0.0000 1.2266
# 5 -2.5298 2.7724 -3.4407 0.0000 24.5915 0.0000
# 6 0.0000 0.0000 0.0000 1.2266 0.0000 27.6537
#
#
#
# Elastic Compliance Matrix: (Units=1/GPa)
#
#
# Indices 1 2 3 4 5 6 
#
# 1 0.015350 -0.011784 -0.006149 0.000000 0.002047 0.000000
# 2 -0.011784 0.035055 -0.004239 0.000000 -0.005758 0.000000
# 3 -0.006149 -0.004239 0.014695 0.000000 0.001901 0.000000
# 4 0.000000 0.000000 0.000000 0.062376 0.000000 -0.002767
# 5 0.002047 -0.005758 0.001901 0.000000 0.041790 0.000000
# 6 0.000000 0.000000 0.000000 -0.002767 0.000000 0.036284
#
#
# Mechanical properties :
#
#
# Convention : Reuss Voigt Hill
#
# Bulk Modulus (GPa) = 48.18477 69.70935 58.94706
# Shear Modulus (GPa) = 19.46925 22.55684 21.01304
#
# Velocity S-wave (km/s) = 3.50283 3.77037 3.63906
# Velocity P-wave (km/s) = 6.83569 7.93009 7.40314
#
# Compressibility (1/GPa) = 0.02075344
#
# Stress axis : x y z
#
# Youngs Moduli (GPa) = 65.14831 28.52630 68.04867
#
# Poissons Ratio (x) = 0.33617 0.41846
# Poissons Ratio (y) = 0.76774 0.28849
# Poissons Ratio (z) = 0.40063 0.12094
#
# Static dielectric constant tensor:
#      x y z
#    x 3.005390 0.000000 -0.176750 
#    y 0.000000 2.882380 0.000000 
#    z -0.176750 0.000000 3.269540 
# 
# 
# High freq. dielectric constant tensor:
#      x y z
#    x 1.600750 0.000000 -0.002230 
#    y 0.000000 1.597850 0.000000 
#    z -0.002230 0.000000 1.605570 
# 
# From -- ./inp_files/164041.got.cif
#   From: 2010.06.25/outbox.cif.g09.slc.cpg/sg12_83_cif.got.tgz:164041.got - 2010.06.28 00:19:55.
