data_PCOD8084530
_publ_section_title
;
Structure prediction by ZEFSAII (Michael W. Deem and Ramdas Pophale) SiO2 
 PCOD8084530
Probable space group: C 2/M
;
_chemical_formula_sum "Si O2"
_cell_formula_units_Z 52
_cell_length_a 22.727204
_cell_length_b 23.834114
_cell_length_c 6.559616
_cell_angle_alpha 90.000000
_cell_angle_beta 45.657054
_cell_angle_gamma 90.000000
_cell_volume 2541.160769
_symmetry_space_group_name_H-M "C 2/M"
_symmetry_group_IT_number 12
_symmetry_cell_setting 'monoclinic'
loop_
_space_group_symop_operation_xyz
x,y,z
-x,y,-z
-x,-y,-z
x,-y,z
1/2+x,1/2+y,z
1/2-x,1/2+y,-z
1/2-x,1/2-y,-z
1/2+x,1/2-y,z
loop_
_atom_site_type_symbol
_atom_site_label
_atom_site_fract_x
_atom_site_fract_y
_atom_site_fract_z
Si Si1 0.288525 0.888184 0.147053
Si Si2 0.562527 0.342172 0.182321
Si Si3 0.840884 0.562385 0.628801
Si Si4 0.500000 0.258457 0.000000
Si Si5 0.636374 0.165110 0.661955
Si Si6 0.222678 0.192292 0.979291
Si Si7 0.818442 0.062824 0.245391
O O1 0.349057 0.848725 0.135223
O O2 0.230926 0.851553 0.142005
O O3 0.230630 0.926234 0.427091
O O4 0.344300 0.927162 0.864142
O O5 0.500000 0.367641 0.500000
O O6 0.628988 0.304186 0.137109
O O7 0.514048 0.299508 0.154751
O O8 0.605883 0.393972 0.960893
O O9 0.874494 0.500000 0.498717
O O10 0.896798 0.608662 0.374151
O O11 0.745442 0.568493 0.787188
O O12 0.577294 0.217856 0.772214
O O13 0.724332 0.178416 0.349411
O O14 0.250000 0.250000 0.000000
O O15 0.855168 0.000000 0.165301
#
# Coordination Sequence:
#
# PCOD8084530 Si02
#       7
#     8   8   8   4   8   8   8
#     4  10  18  36  65  93 120 156 207 250 308 360
#     4  12  26  41  59  90 125 166 205 251 309 360
#     4   9  18  37  66  95 123 153 201 259 306 363
#     4  12  28  42  62  86 130 168 202 256 306 362
#     4  10  22  40  61  93 122 161 206 253 305 367
#     4  11  22  38  63  88 120 161 208 257 304 361
#     4  10  21  39  63  92 122 160 209 253 301 366
#
# _framework density 20.463087999999999
#
# number of rings (size 3 to 8) (size 9 to 14) (size 15 to 20)
#    0.000    1.538    4.615    2.308    4.308    3.385 
#    0.000    0.769    0.000    0.923    0.000    0.000 
#    0.000    0.000    0.000    0.000    0.000    0.000 
#
# Total GULP energy -322297.273787 kJ/mol
# GULP energy per Si atom -12396.048992 kJ/mol
# Density = 2.041651 g / cm^3
# Si number density = 20.463088 Si / 1000 Ang^3
#
#
#
# Elastic Constant Matrix: (Units=GPa)
#
#
# Indices 1 2 3 4 5 6 
#
# 1 93.3748 36.5034 36.3305 0.0000 17.2621 0.0000
# 2 36.5034 131.3246 27.5552 0.0000 7.9943 0.0000
# 3 36.3305 27.5552 77.0687 0.0000 17.2410 0.0000
# 4 0.0000 0.0000 0.0000 22.5071 0.0000 -3.5711
# 5 17.2621 7.9943 17.2410 0.0000 34.3033 0.0000
# 6 0.0000 0.0000 0.0000 -3.5711 0.0000 26.4758
#
#
#
# Elastic Compliance Matrix: (Units=1/GPa)
#
#
# Indices 1 2 3 4 5 6 
#
# 1 0.014459 -0.002736 -0.004904 0.000000 -0.004174 0.000000
# 2 -0.002736 0.008757 -0.001907 0.000000 0.000294 0.000000
# 3 -0.004904 -0.001907 0.017258 0.000000 -0.005762 0.000000
# 4 0.000000 0.000000 0.000000 0.045402 0.000000 0.006124
# 5 -0.004174 0.000294 -0.005762 0.000000 0.034079 0.000000
# 6 0.000000 0.000000 0.000000 0.006124 0.000000 0.038596
#
#
# Mechanical properties :
#
#
# Convention : Reuss Voigt Hill
#
# Bulk Modulus (GPa) = 46.77324 55.83849 51.30587
# Shear Modulus (GPa) = 27.06022 30.08249 28.57136
#
# Velocity S-wave (km/s) = 3.64042 3.83833 3.74068
# Velocity P-wave (km/s) = 6.37002 6.85495 6.61693
#
# Compressibility (1/GPa) = 0.02137975
#
# Stress axis : x y z
#
# Youngs Moduli (GPa) = 69.16234 114.18803 57.94381
#
# Poissons Ratio (x) = 0.31241 0.28416
# Poissons Ratio (y) = 0.18922 0.11052
# Poissons Ratio (z) = 0.33918 0.21779
#
# Static dielectric constant tensor:
#      x y z
#    x 3.702680 0.000000 0.207810 
#    y 0.000000 4.352380 0.000000 
#    z 0.207810 0.000000 3.607660 
# 
# 
# High freq. dielectric constant tensor:
#      x y z
#    x 1.783420 0.000000 0.026670 
#    y 0.000000 1.817780 0.000000 
#    z 0.026670 0.000000 1.787870 
# 
# From -- ./inp_files/22422.got.cif
#   From: 2010.06.25/outbox.cif.g09.slc.cpg/sg12_12_cif.got.tgz:22422.got - 2010.06.28 00:19:55.
