data_PCOD8084356
_publ_section_title
;
Structure prediction by ZEFSAII (Michael W. Deem and Ramdas Pophale) SiO2 
 PCOD8084356
Probable space group: C 2/M
;
_chemical_formula_sum "Si O2"
_cell_formula_units_Z 56
_cell_length_a 17.148772
_cell_length_b 17.927156
_cell_length_c 9.341769
_cell_angle_alpha 90.000000
_cell_angle_beta 107.141393
_cell_angle_gamma 90.000000
_cell_volume 2744.357929
_symmetry_space_group_name_H-M "C 2/M"
_symmetry_group_IT_number 12
_symmetry_cell_setting 'monoclinic'
loop_
_space_group_symop_operation_xyz
x,y,z
-x,y,-z
-x,-y,-z
x,-y,z
1/2+x,1/2+y,z
1/2-x,1/2+y,-z
1/2-x,1/2-y,-z
1/2+x,1/2-y,z
loop_
_atom_site_type_symbol
_atom_site_label
_atom_site_fract_x
_atom_site_fract_y
_atom_site_fract_z
Si Si1 0.302910 0.585352 0.396159
Si Si2 0.641296 0.830503 0.305054
Si Si3 0.650610 0.816241 0.971146
Si Si4 0.437869 0.306931 0.585628
Si Si5 0.201346 0.083435 0.946292
Si Si6 0.510775 0.919228 0.837033
Si Si7 0.556639 0.326742 0.899607
O O1 0.299894 0.500000 0.451705
O O2 0.223685 0.631152 0.407679
O O3 0.383908 0.625221 0.497130
O O4 0.303328 0.585499 0.226261
O O5 0.622132 0.757050 0.387298
O O6 0.568232 0.888591 0.286966
O O7 0.645775 0.811770 0.139594
O O8 0.586632 0.866678 0.851857
O O9 0.627049 0.734516 0.899648
O O10 0.736719 0.851334 0.967060
O O11 0.500000 0.274642 0.500000
O O12 0.495067 0.341709 0.738182
O O13 0.110689 0.099510 0.960644
O O14 0.228731 0.000000 0.010750
O O15 0.529304 0.000000 0.781071
O O16 0.500000 0.925493 0.000000
O O17 0.500000 0.300674 0.000000
#
# Coordination Sequence:
#
# PCOD8084356 Si02
#       7
#     8   8   8   8   8   8   8
#     4  10  22  39  61  88 119 158 205 250 292 351
#     4  10  19  36  59  88 119 153 200 245 297 351
#     4  10  18  35  59  88 121 152 195 245 297 355
#     4  12  23  39  62  90 121 160 203 246 295 356
#     4  10  22  38  59  90 123 157 198 249 301 350
#     4   9  15  26  52  86 117 148 186 237 291 346
#     4  12  22  40  62  88 124 159 198 246 299 358
#
# _framework density 20.405501000000001
#
# number of rings (size 3 to 8) (size 9 to 14) (size 15 to 20)
#    0.000    1.571    4.286    2.143    0.000    4.571 
#    0.000    0.000    0.000    1.714    0.000    0.000 
#    0.000    0.000    0.000    0.000    0.000    0.000 
#
# Total GULP energy -346979.483552 kJ/mol
# GULP energy per Si atom -12392.124413 kJ/mol
# Density = 2.035906 g / cm^3
# Si number density = 20.405501 Si / 1000 Ang^3
#
#
#
# Elastic Constant Matrix: (Units=GPa)
#
#
# Indices 1 2 3 4 5 6 
#
# 1 116.9994 48.8671 19.2442 0.0000 23.6009 0.0000
# 2 48.8671 90.3908 10.5661 0.0000 16.8302 0.0000
# 3 19.2442 10.5661 36.7578 0.0000 20.2971 0.0000
# 4 0.0000 0.0000 0.0000 13.2511 0.0000 -1.7668
# 5 23.6009 16.8302 20.2971 0.0000 25.8499 0.0000
# 6 0.0000 0.0000 0.0000 -1.7668 0.0000 31.3543
#
#
#
# Elastic Compliance Matrix: (Units=1/GPa)
#
#
# Indices 1 2 3 4 5 6 
#
# 1 0.012321 -0.005233 -0.001088 0.000000 -0.006988 0.000000
# 2 -0.005233 0.014865 0.002070 0.000000 -0.006526 0.000000
# 3 -0.001088 0.002070 0.048330 0.000000 -0.038303 0.000000
# 4 0.000000 0.000000 0.000000 0.076037 0.000000 0.004285
# 5 -0.006988 -0.006526 -0.038303 0.000000 0.079390 0.000000
# 6 0.000000 0.000000 0.000000 0.004285 0.000000 0.032135
#
#
# Mechanical properties :
#
#
# Convention : Reuss Voigt Hill
#
# Bulk Modulus (GPa) = 14.92183 44.61143 29.76663
# Shear Modulus (GPa) = 17.01164 25.12241 21.06703
#
# Velocity S-wave (km/s) = 2.89048 3.51259 3.21661
# Velocity P-wave (km/s) = 4.29749 6.19363 5.33054
#
# Compressibility (1/GPa) = 0.06701592
#
# Stress axis : x y z
#
# Youngs Moduli (GPa) = 81.16110 67.27127 20.69121
#
# Poissons Ratio (x) = 0.35201 0.02250
# Poissons Ratio (y) = 0.42470 -0.04284
# Poissons Ratio (z) = 0.08828 -0.13927
#
# Static dielectric constant tensor:
#      x y z
#    x 3.874250 0.000000 0.223180 
#    y 0.000000 3.878320 0.000000 
#    z 0.223180 0.000000 3.404580 
# 
# 
# High freq. dielectric constant tensor:
#      x y z
#    x 1.803950 0.000000 0.030200 
#    y 0.000000 1.803330 0.000000 
#    z 0.030200 0.000000 1.759460 
# 
# From -- ./inp_files/76022.got.cif
#   From: 2010.06.25/outbox.cif.g09.slc.cpg/sg12_39_cif.got.tgz:76022.got - 2010.06.28 00:19:55.
