data_PCOD8084550
_publ_section_title
;
Structure prediction by ZEFSAII (Michael W. Deem and Ramdas Pophale) SiO2 
 PCOD8084550
Probable space group: C 2/M
;
_chemical_formula_sum "Si O2"
_cell_formula_units_Z 48
_cell_length_a 17.292671
_cell_length_b 14.674031
_cell_length_c 19.220863
_cell_angle_alpha 90.000000
_cell_angle_beta 30.941025
_cell_angle_gamma 90.000000
_cell_volume 2507.719121
_symmetry_space_group_name_H-M "C 2/M"
_symmetry_group_IT_number 12
_symmetry_cell_setting 'monoclinic'
loop_
_space_group_symop_operation_xyz
x,y,z
-x,y,-z
-x,-y,-z
x,-y,z
1/2+x,1/2+y,z
1/2-x,1/2+y,-z
1/2-x,1/2-y,-z
1/2+x,1/2-y,z
loop_
_atom_site_type_symbol
_atom_site_label
_atom_site_fract_x
_atom_site_fract_y
_atom_site_fract_z
Si Si1 0.701683 0.500000 0.554744
Si Si2 0.896531 0.807999 0.884245
Si Si3 0.399262 0.303825 0.401609
Si Si4 0.134615 0.000000 0.771395
Si Si5 0.426230 0.813445 0.629585
Si Si6 0.893590 0.181965 0.148066
Si Si7 0.050151 0.500000 0.302862
Si Si8 0.687064 0.500000 0.008712
O O1 0.632354 0.411854 0.570255
O O2 0.660716 0.500000 0.668415
O O3 0.879954 0.500000 0.406931
O O4 0.982719 0.780544 0.749129
O O5 0.006450 0.784510 0.864477
O O6 0.836028 0.911093 0.926018
O O7 0.750000 0.750000 0.000000
O O8 0.250000 0.250000 0.500000
O O9 0.468317 0.264998 0.419209
O O10 0.197308 0.089552 0.759379
O O11 0.957278 0.000000 0.930941
O O12 0.500000 0.840223 0.500000
O O13 0.259879 0.763830 0.751907
O O14 0.420024 0.906734 0.678832
O O15 0.000000 0.172704 0.000000
O O16 0.157827 0.500000 0.152411
#
# Coordination Sequence:
#
# PCOD8084550 Si02
#       8
#     4   8   8   4   8   8   4   4
#     4  12  22  41  63  88 121 168 211 265 299 365
#     4  11  22  39  62  88 126 166 206 251 301 374
#     4  12  23  42  63  88 123 167 217 257 303 371
#     4  10  18  37  58  85 125 157 191 245 319 372
#     4  12  24  39  60  93 129 163 203 260 319 372
#     4  11  20  34  56  91 127 156 195 246 313 374
#     4  12  22  37  62  97 129 159 200 254 320 381
#     4  10  20  37  58  94 122 154 202 244 314 360
#
# _framework density 19.140899000000001
#
# number of rings (size 3 to 8) (size 9 to 14) (size 15 to 20)
#    0.000    0.667    5.000    7.000    0.000    0.000 
#    0.000    0.417    0.000    1.000    0.000    3.500 
#    0.000    0.000    0.000    0.000    0.000    0.000 
#
# Total GULP energy -297396.728287 kJ/mol
# GULP energy per Si atom -12391.530345 kJ/mol
# Density = 1.909733 g / cm^3
# Si number density = 19.140899 Si / 1000 Ang^3
#
#
#
# Elastic Constant Matrix: (Units=GPa)
#
#
# Indices 1 2 3 4 5 6 
#
# 1 84.9635 31.1038 26.7010 0.0006 -25.7906 -0.0005
# 2 31.1038 84.8094 24.2983 0.0019 -16.6710 -0.0013
# 3 26.7010 24.2983 134.8097 0.0029 -15.0764 -0.0020
# 4 0.0006 0.0019 0.0029 25.6308 -0.0010 -7.1694
# 5 -25.7906 -16.6710 -15.0764 -0.0010 38.4102 0.0005
# 6 -0.0005 -0.0013 -0.0020 -7.1694 0.0005 7.3492
#
#
#
# Elastic Compliance Matrix: (Units=1/GPa)
#
#
# Indices 1 2 3 4 5 6 
#
# 1 0.016292 -0.003822 -0.001569 0.000000 0.008665 0.000000
# 2 -0.003822 0.014207 -0.001465 0.000000 0.003025 0.000001
# 3 -0.001569 -0.001465 0.008162 0.000000 0.001514 0.000001
# 4 0.000000 0.000000 0.000000 0.053657 0.000001 0.052345
# 5 0.008665 0.003025 0.001514 0.000001 0.033760 0.000000
# 6 0.000000 0.000001 0.000001 0.052345 0.000000 0.187133
#
#
# Mechanical properties :
#
#
# Convention : Reuss Voigt Hill
#
# Bulk Modulus (GPa) = 40.08316 52.08764 46.08540
# Shear Modulus (GPa) = 14.91462 29.11001 22.01231
#
# Velocity S-wave (km/s) = 2.79445 3.90401 3.39487
# Velocity P-wave (km/s) = 5.60343 6.89881 6.28459
#
# Compressibility (1/GPa) = 0.02494814
#
# Stress axis : x y z
#
# Youngs Moduli (GPa) = 61.37867 70.38573 122.51766
#
# Poissons Ratio (x) = 0.26905 0.19222
# Poissons Ratio (y) = 0.23462 0.17954
# Poissons Ratio (z) = 0.09630 0.10314
#
# Static dielectric constant tensor:
#      x y z
#    x 3.650640 0.000000 -0.214000 
#    y 0.000000 3.234800 0.000000 
#    z -0.214000 0.000000 3.688450 
# 
# 
# High freq. dielectric constant tensor:
#      x y z
#    x 1.736420 0.000000 -0.017660 
#    y 0.000000 1.723990 0.000000 
#    z -0.017660 0.000000 1.772210 
# 
# From -- ./inp_files/278090.got.cif
#   From: 2010.06.25/outbox.cif.g09.slc.cpg/sg12_140_cif.got.tgz:278090.got - 2010.06.28 00:19:55.
