data_PCOD8084124
_publ_section_title
;
Structure prediction by ZEFSAII (Michael W. Deem and Ramdas Pophale) SiO2 
 PCOD8084124
Probable space group: C 2/M
;
_chemical_formula_sum "Si O2"
_cell_formula_units_Z 48
_cell_length_a 11.679890
_cell_length_b 28.589151
_cell_length_c 13.956159
_cell_angle_alpha 90.000000
_cell_angle_beta 31.454016
_cell_angle_gamma 90.000000
_cell_volume 2431.765667
_symmetry_space_group_name_H-M "C 2/M"
_symmetry_group_IT_number 12
_symmetry_cell_setting 'monoclinic'
loop_
_space_group_symop_operation_xyz
x,y,z
-x,y,-z
-x,-y,-z
x,-y,z
1/2+x,1/2+y,z
1/2-x,1/2+y,-z
1/2-x,1/2-y,-z
1/2+x,1/2-y,z
loop_
_atom_site_type_symbol
_atom_site_label
_atom_site_fract_x
_atom_site_fract_y
_atom_site_fract_z
Si Si1 0.872251 0.103545 0.874205
Si Si2 0.808702 0.306195 0.703292
Si Si3 0.781029 0.414458 0.701029
Si Si4 0.444596 0.445661 0.429613
Si Si5 0.833530 0.204300 0.990353
Si Si6 0.441230 0.946211 0.781582
O O1 0.854658 0.159222 0.905344
O O2 0.058262 0.074697 0.802413
O O3 0.912077 0.090858 0.734752
O O4 0.637552 0.082163 0.069507
O O5 0.798673 0.359360 0.679949
O O6 0.577918 0.281595 0.847769
O O7 0.000000 0.282522 0.500000
O O8 0.835178 0.304706 0.800228
O O9 0.775745 0.431843 0.813782
O O10 0.000000 0.438310 0.500000
O O11 0.500000 0.435210 0.500000
O O12 0.497401 0.500000 0.367592
O O13 0.193444 0.433369 0.582555
O O14 0.750000 0.250000 0.000000
O O15 0.416477 0.000000 0.823250
#
# Coordination Sequence:
#
# PCOD8084124 Si02
#       6
#     8   8   8   8   8   8
#     4  11  21  37  61  85 118 157 192 245 304 352
#     4   9  19  37  60  83 116 158 187 228 304 361
#     4  10  18  34  58  87 120 151 186 232 297 363
#     4  10  23  42  59  81 118 163 207 245 288 349
#     4  10  21  37  59  87 117 150 198 248 291 352
#     4  11  22  35  58  90 120 154 195 240 291 354
#
# _framework density 19.738744000000001
#
# number of rings (size 3 to 8) (size 9 to 14) (size 15 to 20)
#    0.000    1.833    3.333    1.000    0.000    3.667 
#    0.000    6.667    0.000    0.000    0.000    0.000 
#    0.000    0.000    0.000    0.000    0.000    0.000 
#
# Total GULP energy -297388.391244 kJ/mol
# GULP energy per Si atom -12391.182969 kJ/mol
# Density = 1.969382 g / cm^3
# Si number density = 19.738744 Si / 1000 Ang^3
#
#
#
# Elastic Constant Matrix: (Units=GPa)
#
#
# Indices 1 2 3 4 5 6 
#
# 1 79.5870 35.8061 28.9667 0.0000 22.9321 0.0000
# 2 35.8061 79.5265 47.8512 0.0000 7.8481 0.0000
# 3 28.9667 47.8512 117.3424 0.0001 32.2492 -0.0001
# 4 0.0000 0.0000 0.0001 17.6099 0.0000 -4.0972
# 5 22.9321 7.8481 32.2492 0.0000 29.0197 0.0000
# 6 0.0000 0.0000 -0.0001 -4.0972 0.0000 27.6919
#
#
#
# Elastic Compliance Matrix: (Units=1/GPa)
#
#
# Indices 1 2 3 4 5 6 
#
# 1 0.020831 -0.009926 0.003875 0.000000 -0.018083 0.000000
# 2 -0.009926 0.021789 -0.010037 0.000000 0.013105 0.000000
# 3 0.003875 -0.010037 0.016922 0.000000 -0.019154 0.000000
# 4 0.000000 0.000000 0.000000 0.058811 0.000000 0.008702
# 5 -0.018083 0.013105 -0.019154 0.000000 0.066490 0.000000
# 6 0.000000 0.000000 0.000000 0.008702 0.000000 0.037399
#
#
# Mechanical properties :
#
#
# Convention : Reuss Voigt Hill
#
# Bulk Modulus (GPa) = 36.53997 55.74489 46.14243
# Shear Modulus (GPa) = 18.97245 25.78643 22.37944
#
# Velocity S-wave (km/s) = 3.10365 3.61832 3.37082
# Velocity P-wave (km/s) = 5.60317 6.76454 6.21106
#
# Compressibility (1/GPa) = 0.02736729
#
# Stress axis : x y z
#
# Youngs Moduli (GPa) = 48.00641 45.89367 59.09341
#
# Poissons Ratio (x) = 0.45554 -0.22901
# Poissons Ratio (y) = 0.47652 0.59311
# Poissons Ratio (z) = -0.18604 0.46063
#
# Static dielectric constant tensor:
#      x y z
#    x 2.800560 0.000000 0.387560 
#    y 0.000000 3.226960 0.000000 
#    z 0.387560 0.000000 3.933010 
# 
# 
# High freq. dielectric constant tensor:
#      x y z
#    x 1.750990 0.000000 0.008620 
#    y 0.000000 1.739840 0.000000 
#    z 0.008620 0.000000 1.786610 
# 
# From -- ./inp_files/209268.got.cif
#   From: 2010.06.25/outbox.cif.g09.slc.cpg/sg12_105_cif.got.tgz:209268.got - 2010.06.28 00:19:55.
