data_PCOD8084846
_publ_section_title
;
Structure prediction by ZEFSAII (Michael W. Deem and Ramdas Pophale) SiO2 
 PCOD8084846
Probable space group: C 2/M
;
_chemical_formula_sum "Si O2"
_cell_formula_units_Z 64
_cell_length_a 25.092227
_cell_length_b 9.313071
_cell_length_c 22.651077
_cell_angle_alpha 90.000000
_cell_angle_beta 49.906347
_cell_angle_gamma 90.000000
_cell_volume 4049.284557
_symmetry_space_group_name_H-M "C 2/M"
_symmetry_group_IT_number 12
_symmetry_cell_setting 'monoclinic'
loop_
_space_group_symop_operation_xyz
x,y,z
-x,y,-z
-x,-y,-z
x,-y,z
1/2+x,1/2+y,z
1/2-x,1/2+y,-z
1/2-x,1/2-y,-z
1/2+x,1/2-y,z
loop_
_atom_site_type_symbol
_atom_site_label
_atom_site_fract_x
_atom_site_fract_y
_atom_site_fract_z
Si Si1 0.466623 0.833553 0.894025
Si Si2 0.365818 0.841738 0.657538
Si Si3 0.153098 0.667098 0.926007
Si Si4 0.930961 0.670594 0.789278
Si Si5 0.791556 0.669670 0.827382
Si Si6 0.573048 0.660559 0.481712
Si Si7 0.060172 0.837519 0.908927
Si Si8 0.010531 0.340199 0.622278
O O1 0.448361 0.774053 0.842153
O O2 0.531714 0.741114 0.870829
O O3 0.489041 0.000000 0.876896
O O4 0.399131 0.811690 0.982457
O O5 0.309201 0.793297 0.746517
O O6 0.367411 0.734166 0.600958
O O7 0.440473 0.848198 0.634760
O O8 0.347104 0.000000 0.646723
O O9 0.163365 0.500000 0.903516
O O10 0.225083 0.738974 0.894484
O O11 0.125304 0.748133 0.887525
O O12 0.929960 0.500000 0.786473
O O13 0.854427 0.724051 0.824440
O O14 0.990601 0.724882 0.700925
O O15 0.777369 0.500000 0.845356
O O16 0.500000 0.662917 0.500000
O O17 0.598011 0.500000 0.476920
O O18 0.566552 0.740399 0.549291
O O19 0.083665 0.000000 0.876848
O O20 0.000000 0.838695 0.000000
O O21 0.042687 0.500000 0.604893
#
# Coordination Sequence:
#
# PCOD8084846 Si02
#       8
#     8   8   8   8   8   8   8   8
#     4   9  17  30  46  63  84 109 139 175 213 252
#     4   8  14  24  37  52  72 103 140 171 198 234
#     4  10  19  29  43  63  85 110 139 174 216 254
#     4   8  15  28  44  60  82 115 147 172 203 245
#     4   9  17  29  43  59  83 115 147 175 203 242
#     4   9  15  21  32  52  76 101 130 167 208 242
#     4   9  17  30  47  64  80 101 134 176 218 255
#     4   8  13  23  38  53  72 103 140 169 195 236
#
# _framework density 15.805261
#
# number of rings (size 3 to 8) (size 9 to 14) (size 15 to 20)
#    0.000    3.250    0.000    2.625    0.000    4.500 
#    0.000    3.125    0.000    0.000    0.000    0.000 
#    0.000    1.000    0.000    3.000    0.000    4.500 
#
# Total GULP energy -396634.926535 kJ/mol
# GULP energy per Si atom -12394.841454 kJ/mol
# Density = 1.576929 g / cm^3
# Si number density = 15.805261 Si / 1000 Ang^3
#
#
#
# Elastic Constant Matrix: (Units=GPa)
#
#
# Indices 1 2 3 4 5 6 
#
# 1 75.2192 37.9501 37.2812 -0.0003 21.0570 0.0000
# 2 37.9501 89.0122 38.8194 -0.0025 15.7003 0.0076
# 3 37.2812 38.8194 60.3005 0.0003 22.9023 -0.0015
# 4 -0.0003 -0.0025 0.0003 16.0185 -0.0005 -2.6533
# 5 21.0570 15.7003 22.9023 -0.0005 11.6897 -0.0005
# 6 0.0000 0.0076 -0.0015 -2.6533 -0.0005 18.5999
#
#
#
# Elastic Compliance Matrix: (Units=1/GPa)
#
#
# Indices 1 2 3 4 5 6 
#
# 1 0.029324 -0.005405 0.010373 -0.000003 -0.065887 0.000001
# 2 -0.005405 0.016691 -0.010109 0.000002 0.007125 -0.000007
# 3 0.010373 -0.010109 0.072756 -0.000007 -0.147650 0.000005
# 4 -0.000003 0.000002 -0.000007 0.063939 0.000020 0.009121
# 5 -0.065887 0.007125 -0.147650 0.000020 0.483931 0.000000
# 6 0.000001 -0.000007 0.000005 0.009121 0.000000 0.055065
#
#
# Mechanical properties :
#
#
# Convention : Reuss Voigt Hill
#
# Bulk Modulus (GPa) = 9.21750 50.29259 29.75504
# Shear Modulus (GPa) = 6.50914 16.62705 11.56809
#
# Velocity S-wave (km/s) = 2.03157 3.24697 2.70833
# Velocity P-wave (km/s) = 3.36862 6.77837 5.35228
#
# Compressibility (1/GPa) = 0.10848934
#
# Stress axis : x y z
#
# Youngs Moduli (GPa) = 34.10118 59.91267 13.74459
#
# Poissons Ratio (x) = 0.32383 -0.14258
# Poissons Ratio (y) = 0.18432 0.13895
# Poissons Ratio (z) = -0.35375 0.60568
#
# Static dielectric constant tensor:
#      x y z
#    x 2.758100 -0.000010 0.212640 
#    y -0.000010 3.071840 0.000000 
#    z 0.212640 0.000000 3.063000 
# 
# 
# High freq. dielectric constant tensor:
#      x y z
#    x 1.561120 0.000000 0.014530 
#    y 0.000000 1.602980 0.000000 
#    z 0.014530 0.000000 1.595730 
# 
# From -- ./inp_files/348542.got.cif
#   From: 2010.06.25/outbox.cif.g09.slc.cpg/sg12_175_cif.got.tgz:348542.got - 2010.06.28 00:19:55.
