data_PCOD8084779
_publ_section_title
;
Structure prediction by ZEFSAII (Michael W. Deem and Ramdas Pophale) SiO2 
 PCOD8084779
Probable space group: C 2/M
;
_chemical_formula_sum "Si O2"
_cell_formula_units_Z 64
_cell_length_a 27.388047
_cell_length_b 9.134651
_cell_length_c 19.366604
_cell_angle_alpha 90.000000
_cell_angle_beta 58.553819
_cell_angle_gamma 90.000000
_cell_volume 4133.538679
_symmetry_space_group_name_H-M "C 2/M"
_symmetry_group_IT_number 12
_symmetry_cell_setting 'monoclinic'
loop_
_space_group_symop_operation_xyz
x,y,z
-x,y,-z
-x,-y,-z
x,-y,z
1/2+x,1/2+y,z
1/2-x,1/2+y,-z
1/2-x,1/2-y,-z
1/2+x,1/2-y,z
loop_
_atom_site_type_symbol
_atom_site_label
_atom_site_fract_x
_atom_site_fract_y
_atom_site_fract_z
Si Si1 0.294030 0.825073 0.018344
Si Si2 0.783398 0.663995 0.182049
Si Si3 0.696587 0.830532 0.506705
Si Si4 0.032747 0.166941 0.830741
Si Si5 0.408148 0.331372 0.949854
Si Si6 0.414695 0.166954 0.084577
Si Si7 0.866225 0.829584 0.340965
Si Si8 0.759121 0.167290 0.328670
O O1 0.276683 0.776513 0.108812
O O2 0.294378 0.000000 0.009929
O O3 0.250000 0.750000 0.000000
O O4 0.357385 0.764820 0.954151
O O5 0.760039 0.500000 0.201668
O O6 0.849137 0.674421 0.156392
O O7 0.746955 0.752879 0.265104
O O8 0.750000 0.750000 0.500000
O O9 0.639736 0.757204 0.581606
O O10 0.703050 0.811022 0.418942
O O11 0.698121 0.000000 0.525942
O O12 0.046115 0.277759 0.882458
O O13 0.071283 0.206547 0.735840
O O14 0.965565 0.182298 0.860663
O O15 0.046545 0.000000 0.844038
O O16 0.388124 0.500000 0.970144
O O17 0.425305 0.272056 0.012210
O O18 0.431414 0.000000 0.053014
O O19 0.816714 0.775421 0.324506
O O20 0.857989 0.000000 0.363165
O O21 0.768846 0.000000 0.302206
#
# Coordination Sequence:
#
# PCOD8084779 Si02
#       8
#     8   8   8   8   8   8   8   8
#     4  10  21  37  53  70  90 113 144 184 228 274
#     4   9  18  29  43  65  88 112 146 183 220 261
#     4   9  17  27  38  56  81 114 152 188 221 258
#     4  10  19  30  43  61  88 120 156 188 219 263
#     4  10  20  32  47  65  86 117 150 184 225 267
#     4  10  19  29  41  61  89 119 152 190 224 258
#     4   9  17  28  40  58  84 118 155 189 219 256
#     4   9  16  26  41  59  83 114 150 186 218 255
#
# _framework density 15.483103
#
# number of rings (size 3 to 8) (size 9 to 14) (size 15 to 20)
#    0.000    2.500    1.250    3.375    0.000    8.000 
#    0.000    0.000    0.000    0.000    0.000    0.000 
#    0.000    1.000    0.000   11.250    0.000    5.625 
#
# Total GULP energy -396611.509244 kJ/mol
# GULP energy per Si atom -12394.109664 kJ/mol
# Density = 1.544786 g / cm^3
# Si number density = 15.483103 Si / 1000 Ang^3
#
#
#
# Elastic Constant Matrix: (Units=GPa)
#
#
# Indices 1 2 3 4 5 6 
#
# 1 65.2512 35.4151 45.1670 0.0000 0.3940 -0.0002
# 2 35.4151 78.9773 48.9661 0.0000 -1.4060 -0.0002
# 3 45.1670 48.9661 107.6032 0.0000 -7.2935 0.0000
# 4 0.0000 0.0000 0.0000 28.3089 0.0000 2.0003
# 5 0.3940 -1.4060 -7.2935 0.0000 13.4487 0.0000
# 6 -0.0002 -0.0002 0.0000 2.0003 0.0000 19.0672
#
#
#
# Elastic Compliance Matrix: (Units=1/GPa)
#
#
# Indices 1 2 3 4 5 6 
#
# 1 0.023970 -0.006098 -0.007659 0.000000 -0.005493 0.000000
# 2 -0.006098 0.019278 -0.006296 0.000000 -0.001220 0.000000
# 3 -0.007659 -0.006296 0.015929 0.000000 0.008205 0.000000
# 4 0.000000 0.000000 0.000000 0.035588 0.000000 -0.003734
# 5 -0.005493 -0.001220 0.008205 0.000000 0.078840 0.000000
# 6 0.000000 0.000000 0.000000 -0.003734 0.000000 0.052838
#
#
# Mechanical properties :
#
#
# Convention : Reuss Voigt Hill
#
# Bulk Modulus (GPa) = 52.43270 56.76981 54.60125
# Shear Modulus (GPa) = 18.32139 20.31718 19.31929
#
# Velocity S-wave (km/s) = 3.44367 3.62638 3.53621
# Velocity P-wave (km/s) = 7.05335 7.36746 7.21212
#
# Compressibility (1/GPa) = 0.01907207
#
# Stress axis : x y z
#
# Youngs Moduli (GPa) = 41.71948 51.87281 62.77722
#
# Poissons Ratio (x) = 0.31631 0.48080
# Poissons Ratio (y) = 0.25440 0.39523
# Poissons Ratio (z) = 0.31952 0.32658
#
# Static dielectric constant tensor:
#      x y z
#    x 2.557360 0.000000 -0.126120 
#    y 0.000000 3.097260 0.000000 
#    z -0.126120 0.000000 3.318610 
# 
# 
# High freq. dielectric constant tensor:
#      x y z
#    x 1.531630 0.000000 -0.009140 
#    y 0.000000 1.606630 0.000000 
#    z -0.009140 0.000000 1.596880 
# 
# From -- ./inp_files/323686.got.cif
#   From: 2010.06.25/outbox.cif.g09.slc.cpg/sg12_162_cif.got.tgz:323686.got - 2010.06.28 00:19:55.
