data_PCOD8084771
_publ_section_title
;
Structure prediction by ZEFSAII (Michael W. Deem and Ramdas Pophale) SiO2 
 PCOD8084771
Probable space group: C 2/M
;
_chemical_formula_sum "Si O2"
_cell_formula_units_Z 64
_cell_length_a 25.124923
_cell_length_b 9.219732
_cell_length_c 22.163327
_cell_angle_alpha 90.000000
_cell_angle_beta 52.765023
_cell_angle_gamma 90.000000
_cell_volume 4087.508963
_symmetry_space_group_name_H-M "C 2/M"
_symmetry_group_IT_number 12
_symmetry_cell_setting 'monoclinic'
loop_
_space_group_symop_operation_xyz
x,y,z
-x,y,-z
-x,-y,-z
x,-y,z
1/2+x,1/2+y,z
1/2-x,1/2+y,-z
1/2-x,1/2-y,-z
1/2+x,1/2-y,z
loop_
_atom_site_type_symbol
_atom_site_label
_atom_site_fract_x
_atom_site_fract_y
_atom_site_fract_z
Si Si1 0.446255 0.830824 0.909351
Si Si2 0.364394 0.837005 0.651033
Si Si3 0.147297 0.666508 0.916901
Si Si4 0.909042 0.670624 0.800876
Si Si5 0.801058 0.830382 0.798861
Si Si6 0.567341 0.662942 0.492550
Si Si7 0.950865 0.836351 0.090128
Si Si8 0.999540 0.339922 0.633564
O O1 0.421599 0.781898 0.860620
O O2 0.514405 0.746011 0.878016
O O3 0.463451 0.000000 0.899140
O O4 0.387397 0.790026 0.996251
O O5 0.312033 0.746285 0.726835
O O6 0.375300 0.756852 0.579617
O O7 0.434063 0.844011 0.637537
O O8 0.337150 0.000000 0.658373
O O9 0.132352 0.500000 0.911460
O O10 0.225346 0.696808 0.870914
O O11 0.118292 0.759807 0.881270
O O12 0.892240 0.500000 0.805786
O O13 0.846386 0.761417 0.819881
O O14 0.976030 0.708463 0.716525
O O15 0.818236 0.000000 0.780459
O O16 0.500000 0.664154 0.500000
O O17 0.593992 0.500000 0.482796
O O18 0.553195 0.729281 0.568633
O O19 0.935207 0.000000 0.120766
O O20 0.000000 0.829184 0.000000
O O21 0.032255 0.500000 0.612610
#
# Coordination Sequence:
#
# PCOD8084771 Si02
#       8
#     8   8   8   8   8   8   8   8
#     4   9  17  31  48  63  83 113 146 177 213 258
#     4   9  16  26  39  54  76 108 141 172 208 249
#     4   9  18  31  46  63  84 113 145 177 216 258
#     4   9  18  30  43  60  85 118 149 175 208 252
#     4  10  19  29  41  60  87 116 146 179 212 249
#     4   9  15  22  35  55  76 101 135 172 208 245
#     4   9  17  29  46  67  85 102 133 180 226 259
#     4   8  14  24  36  52  76 106 139 171 203 243
#
# _framework density 15.657458
#
# number of rings (size 3 to 8) (size 9 to 14) (size 15 to 20)
#    0.000    3.000    0.000    2.250    0.000    8.000 
#    0.000    0.000    0.000    0.000    0.000    0.000 
#    0.000    1.000    0.000    3.000    0.000    5.250 
#
# Total GULP energy -396717.469083 kJ/mol
# GULP energy per Si atom -12397.420909 kJ/mol
# Density = 1.562182 g / cm^3
# Si number density = 15.657458 Si / 1000 Ang^3
#
#
#
# Elastic Constant Matrix: (Units=GPa)
#
#
# Indices 1 2 3 4 5 6 
#
# 1 67.0331 49.8621 46.8943 0.0029 5.6355 -0.0004
# 2 49.8621 107.6374 54.1270 0.0108 7.3883 -0.0040
# 3 46.8943 54.1270 91.6668 0.0004 14.1539 -0.0023
# 4 0.0029 0.0108 0.0004 24.5210 0.0016 -0.3460
# 5 5.6355 7.3883 14.1539 0.0016 3.4273 -0.0020
# 6 -0.0004 -0.0040 -0.0023 -0.3460 -0.0020 17.7317
#
#
#
# Elastic Compliance Matrix: (Units=1/GPa)
#
#
# Indices 1 2 3 4 5 6 
#
# 1 0.028468 -0.007949 -0.014594 -0.000002 0.030594 0.000000
# 2 -0.007949 0.015567 -0.005415 -0.000006 0.001875 0.000003
# 3 -0.014594 -0.005415 0.044336 0.000013 -0.147428 -0.000012
# 4 -0.000002 -0.000006 0.000013 0.040793 -0.000055 0.000796
# 5 0.030594 0.001875 -0.147428 -0.000055 0.846276 0.000076
# 6 0.000000 0.000003 -0.000012 0.000796 0.000076 0.056412
#
#
# Mechanical properties :
#
#
# Convention : Reuss Voigt Hill
#
# Bulk Modulus (GPa) = 30.81128 63.12268 46.96698
# Shear Modulus (GPa) = 4.55131 16.83291 10.69211
#
# Velocity S-wave (km/s) = 1.70678 3.28239 2.61603
# Velocity P-wave (km/s) = 4.85852 7.40052 6.25991
#
# Compressibility (1/GPa) = 0.03245565
#
# Stress axis : x y z
#
# Youngs Moduli (GPa) = 35.12714 64.23833 22.55501
#
# Poissons Ratio (x) = 0.51062 0.32916
# Poissons Ratio (y) = 0.27922 0.12214
# Poissons Ratio (z) = 0.51264 0.34785
#
# Static dielectric constant tensor:
#      x y z
#    x 2.615270 0.000000 0.132890 
#    y 0.000000 3.164370 0.000000 
#    z 0.132890 0.000000 3.068020 
# 
# 
# High freq. dielectric constant tensor:
#      x y z
#    x 1.548140 0.000000 0.009950 
#    y 0.000000 1.613010 0.000000 
#    z 0.009950 0.000000 1.593580 
# 
# From -- ./inp_files/326601.got.cif
#   From: 2010.06.25/outbox.cif.g09.slc.cpg/sg12_164_cif.got.tgz:326601.got - 2010.06.28 00:19:55.
