data_PCOD8084213
_publ_section_title
;
Structure prediction by ZEFSAII (Michael W. Deem and Ramdas Pophale) SiO2 
 PCOD8084213
Probable space group: C 2/M
;
_chemical_formula_sum "Si O2"
_cell_formula_units_Z 48
_cell_length_a 21.225419
_cell_length_b 16.938380
_cell_length_c 9.944564
_cell_angle_alpha 90.000000
_cell_angle_beta 134.064207
_cell_angle_gamma 90.000000
_cell_volume 2569.079074
_symmetry_space_group_name_H-M "C 2/M"
_symmetry_group_IT_number 12
_symmetry_cell_setting 'monoclinic'
loop_
_space_group_symop_operation_xyz
x,y,z
-x,y,-z
-x,-y,-z
x,-y,z
1/2+x,1/2+y,z
1/2-x,1/2+y,-z
1/2-x,1/2-y,-z
1/2+x,1/2-y,z
loop_
_atom_site_type_symbol
_atom_site_label
_atom_site_fract_x
_atom_site_fract_y
_atom_site_fract_z
Si Si1 0.738321 0.185178 0.369638
Si Si2 0.572428 0.906837 0.214536
Si Si3 0.404022 0.411465 0.194407
Si Si4 0.002990 0.686841 0.358017
Si Si5 0.676321 0.258133 0.001999
Si Si6 0.588565 0.643995 0.494398
O O1 0.750000 0.250000 0.500000
O O2 0.666458 0.121366 0.303289
O O3 0.713624 0.230567 0.198070
O O4 0.828734 0.136998 0.482110
O O5 0.552202 0.870560 0.329335
O O6 0.573102 0.000000 0.230327
O O7 0.500000 0.878157 0.000000
O O8 0.370338 0.500000 0.115552
O O9 0.385177 0.387855 0.320369
O O10 0.508047 0.407268 0.316794
O O11 0.351471 0.350124 0.023019
O O12 0.000000 0.644828 0.500000
O O13 0.059744 0.765462 0.463308
O O14 0.906215 0.704723 0.160550
O O15 0.750000 0.250000 0.000000
#
# Coordination Sequence:
#
# PCOD8084213 Si02
#       6
#     8   8   8   8   8   8
#     4  12  23  38  65  88 120 165 206 247 299 362
#     4  11  25  42  59  88 125 163 206 254 304 359
#     4  10  20  36  62  93 123 151 195 258 306 346
#     4  11  19  38  65  89 120 159 205 248 299 362
#     4  11  21  38  61  92 119 158 205 247 290 370
#     4  10  18  34  60  92 118 156 201 238 296 367
#
# _framework density 18.683737000000001
#
# number of rings (size 3 to 8) (size 9 to 14) (size 15 to 20)
#    0.000    1.167    8.333    1.000    0.000    1.667 
#    0.000    1.667    0.000    1.000    0.000    0.000 
#    0.000    0.000    0.000    0.000    0.000    0.000 
#
# Total GULP energy -297630.226316 kJ/mol
# GULP energy per Si atom -12401.259430 kJ/mol
# Density = 1.864121 g / cm^3
# Si number density = 18.683737 Si / 1000 Ang^3
#
#
#
# Elastic Constant Matrix: (Units=GPa)
#
#
# Indices 1 2 3 4 5 6 
#
# 1 155.1127 37.0304 39.3962 0.0000 4.2510 0.0000
# 2 37.0304 81.6796 22.4875 0.0000 -7.4811 0.0000
# 3 39.3962 22.4875 68.1028 0.0000 -13.4145 0.0000
# 4 0.0000 0.0000 0.0000 17.8002 0.0000 -3.4015
# 5 4.2510 -7.4811 -13.4145 0.0000 33.9023 0.0000
# 6 0.0000 0.0000 0.0000 -3.4015 0.0000 27.1187
#
#
#
# Elastic Compliance Matrix: (Units=1/GPa)
#
#
# Indices 1 2 3 4 5 6 
#
# 1 0.008395 -0.002860 -0.004602 0.000000 -0.003505 0.000000
# 2 -0.002860 0.014496 -0.002637 0.000000 0.002514 0.000000
# 3 -0.004602 -0.002637 0.019755 0.000000 0.007812 0.000000
# 4 0.000000 0.000000 0.000000 0.057559 0.000000 0.007220
# 5 -0.003505 0.002514 0.007812 0.000000 0.033582 0.000000
# 6 0.000000 0.000000 0.000000 0.007220 0.000000 0.037780
#
#
# Mechanical properties :
#
#
# Convention : Reuss Voigt Hill
#
# Bulk Modulus (GPa) = 44.54748 55.85813 50.20281
# Shear Modulus (GPa) = 25.09450 29.49633 27.29541
#
# Velocity S-wave (km/s) = 3.66884 3.97762 3.82634
# Velocity P-wave (km/s) = 6.46853 7.14541 6.81537
#
# Compressibility (1/GPa) = 0.02244796
#
# Stress axis : x y z
#
# Youngs Moduli (GPa) = 119.12498 68.98603 50.61901
#
# Poissons Ratio (x) = 0.19728 0.23295
# Poissons Ratio (y) = 0.34066 0.13348
# Poissons Ratio (z) = 0.54823 0.18192
#
# Static dielectric constant tensor:
#      x y z
#    x 3.120110 0.000000 0.328990 
#    y 0.000000 3.309100 0.000000 
#    z 0.328990 0.000000 3.424900 
# 
# 
# High freq. dielectric constant tensor:
#      x y z
#    x 1.737980 0.000000 0.009340 
#    y 0.000000 1.711450 0.000000 
#    z 0.009340 0.000000 1.719030 
# 
# From -- ./inp_files/88171.got.cif
#   From: 2010.06.25/outbox.cif.g09.slc.cpg/sg12_45_cif.got.tgz:88171.got - 2010.06.28 00:19:55.
