data_PCOD8084891
_publ_section_title
;
Structure prediction by ZEFSAII (Michael W. Deem and Ramdas Pophale) SiO2 
 PCOD8084891
Probable space group: C 2/M
;
_chemical_formula_sum "Si O2"
_cell_formula_units_Z 48
_cell_length_a 23.028266
_cell_length_b 9.104831
_cell_length_c 12.981508
_cell_angle_alpha 90.000000
_cell_angle_beta 90.343126
_cell_angle_gamma 90.000000
_cell_volume 2721.764115
_symmetry_space_group_name_H-M "C 2/M"
_symmetry_group_IT_number 12
_symmetry_cell_setting 'monoclinic'
loop_
_space_group_symop_operation_xyz
x,y,z
-x,y,-z
-x,-y,-z
x,-y,z
1/2+x,1/2+y,z
1/2-x,1/2+y,-z
1/2-x,1/2-y,-z
1/2+x,1/2-y,z
loop_
_atom_site_type_symbol
_atom_site_label
_atom_site_fract_x
_atom_site_fract_y
_atom_site_fract_z
Si Si1 0.273900 0.160182 0.908025
Si Si2 0.056817 0.329740 0.134598
Si Si3 0.753448 0.325638 0.390672
Si Si4 0.167656 0.162562 0.759712
Si Si5 0.424276 0.170817 0.099477
Si Si6 0.849628 0.827771 0.761979
O O1 0.224846 0.137276 0.824716
O O2 0.325713 0.256955 0.865938
O O3 0.297378 0.000000 0.943951
O O4 0.250000 0.250000 0.000000
O O5 0.069997 0.500000 0.152132
O O6 0.085622 0.241546 0.232416
O O7 0.988667 0.297364 0.141280
O O8 0.079954 0.282046 0.020736
O O9 0.760313 0.500000 0.400860
O O10 0.750000 0.250000 0.500000
O O11 0.811528 0.264661 0.335189
O O12 0.692247 0.285352 0.333591
O O13 0.118846 0.237511 0.828966
O O14 0.146238 0.000000 0.721789
O O15 0.408623 0.000000 0.111077
O O16 0.853922 0.000000 0.773454
#
# Coordination Sequence:
#
# PCOD8084891 Si02
#       6
#     8   8   8   8   8   8
#     4  10  19  29  43  66  97 130 162 197 239 289
#     4   9  18  32  50  72 102 140 175 205 239 284
#     4  10  21  37  56  76  98 125 159 204 256 306
#     4  10  20  32  48  72  99 129 165 203 246 295
#     4   9  18  32  49  72 103 139 175 206 239 282
#     4  10  20  32  48  72  99 127 161 201 246 294
#
# _framework density 17.635619999999999
#
# number of rings (size 3 to 8) (size 9 to 14) (size 15 to 20)
#    0.000    2.333    0.000    4.000    0.000    8.000 
#    0.000    1.667    0.000    1.000    0.000    7.000 
#    0.000    0.000    0.000    0.000    0.000    0.000 
#
# Total GULP energy -297335.403399 kJ/mol
# GULP energy per Si atom -12388.975142 kJ/mol
# Density = 1.759548 g / cm^3
# Si number density = 17.635620 Si / 1000 Ang^3
#
#
#
# Elastic Constant Matrix: (Units=GPa)
#
#
# Indices 1 2 3 4 5 6 
#
# 1 84.8827 50.0097 29.5507 0.0000 3.4692 0.0000
# 2 50.0097 101.0103 49.7483 0.0000 4.3057 0.0000
# 3 29.5507 49.7483 65.3297 0.0000 -1.8474 0.0000
# 4 0.0000 0.0000 0.0000 29.0040 0.0000 -0.1345
# 5 3.4692 4.3057 -1.8474 0.0000 25.4118 0.0000
# 6 0.0000 0.0000 0.0000 -0.1345 0.0000 30.6811
#
#
#
# Elastic Compliance Matrix: (Units=1/GPa)
#
#
# Indices 1 2 3 4 5 6 
#
# 1 0.016836 -0.007225 -0.002149 0.000000 -0.001231 0.000000
# 2 -0.007225 0.019271 -0.011495 0.000000 -0.003115 0.000000
# 3 -0.002149 -0.011495 0.025147 0.000000 0.004069 0.000000
# 4 0.000000 0.000000 0.000000 0.034479 0.000000 0.000151
# 5 -0.001231 -0.003115 0.004069 0.000000 0.040343 0.000000
# 6 0.000000 0.000000 0.000000 0.000151 0.000000 0.032594
#
#
# Mechanical properties :
#
#
# Convention : Reuss Voigt Hill
#
# Bulk Modulus (GPa) = 51.23563 56.64889 53.94226
# Shear Modulus (GPa) = 23.05081 25.14698 24.09889
#
# Velocity S-wave (km/s) = 3.61925 3.78023 3.70062
# Velocity P-wave (km/s) = 6.82501 7.15857 6.99378
#
# Compressibility (1/GPa) = 0.01951767
#
# Stress axis : x y z
#
# Youngs Moduli (GPa) = 59.39747 51.89159 39.76580
#
# Poissons Ratio (x) = 0.37490 0.08544
# Poissons Ratio (y) = 0.42912 0.45710
# Poissons Ratio (z) = 0.12762 0.59649
#
# Static dielectric constant tensor:
#      x y z
#    x 3.398010 0.000000 0.081150 
#    y 0.000000 3.499420 0.000000 
#    z 0.081150 0.000000 2.980970 
# 
# 
# High freq. dielectric constant tensor:
#      x y z
#    x 1.684120 0.000000 0.006620 
#    y 0.000000 1.694920 0.000000 
#    z 0.006620 0.000000 1.649540 
# 
# From -- ./inp_files/172071.got.cif
#   From: 2010.06.25/outbox.cif.g09.slc.cpg/sg12_87_cif.got.tgz:172071.got - 2010.06.28 00:19:55.
