data_PCOD8084291
_publ_section_title
;
Structure prediction by ZEFSAII (Michael W. Deem and Ramdas Pophale) SiO2 
 PCOD8084291
Probable space group: C 2/M
;
_chemical_formula_sum "Si O2"
_cell_formula_units_Z 48
_cell_length_a 26.825569
_cell_length_b 16.336584
_cell_length_c 10.885325
_cell_angle_alpha 90.000000
_cell_angle_beta 147.764793
_cell_angle_gamma 90.000000
_cell_volume 2544.494190
_symmetry_space_group_name_H-M "C 2/M"
_symmetry_group_IT_number 12
_symmetry_cell_setting 'monoclinic'
loop_
_space_group_symop_operation_xyz
x,y,z
-x,y,-z
-x,-y,-z
x,-y,z
1/2+x,1/2+y,z
1/2-x,1/2+y,-z
1/2-x,1/2-y,-z
1/2+x,1/2-y,z
loop_
_atom_site_type_symbol
_atom_site_label
_atom_site_fract_x
_atom_site_fract_y
_atom_site_fract_z
Si Si1 0.943935 0.672866 0.138489
Si Si2 0.911272 0.199288 0.582995
Si Si3 0.663295 0.000000 0.826776
Si Si4 0.500171 0.000000 0.684762
Si Si5 0.230233 0.673122 0.048073
Si Si6 0.856687 0.235362 0.740914
Si Si7 0.049723 0.912697 0.974163
O O1 0.980430 0.580964 0.196337
O O2 0.032087 0.728276 0.367407
O O3 0.866366 0.685575 0.081967
O O4 0.903878 0.694562 0.921156
O O5 0.813629 0.174541 0.320578
O O6 0.905765 0.230915 0.711806
O O7 0.975426 0.118196 0.717650
O O8 0.576791 0.000000 0.738062
O O9 0.609198 0.000000 0.583713
O O10 0.726068 0.083395 0.972525
O O11 0.250000 0.750000 0.000000
O O12 0.750000 0.250000 0.500000
O O13 0.865345 0.150676 0.835196
O O14 0.089805 0.000000 0.012732
O O15 0.000000 0.923384 0.000000
#
# Coordination Sequence:
#
# PCOD8084291 Si02
#       7
#     8   8   4   4   8   8   8
#     4  10  20  37  59  83 112 149 189 230 286 338
#     4  10  20  34  58  80 114 150 179 232 277 336
#     4   9  20  36  56  85 112 143 200 241 273 333
#     4   9  18  36  57  80 111 150 189 243 273 327
#     4  11  22  36  60  86 109 150 194 234 286 332
#     4  10  18  35  55  82 117 145 183 227 275 340
#     4   8  16  30  50  78 104 140 178 217 272 321
#
# _framework density 18.864260000000002
#
# number of rings (size 3 to 8) (size 9 to 14) (size 15 to 20)
#    0.000    2.333    1.667    2.500    1.167    2.000 
#    1.500    1.667    7.333    1.000    0.000    0.000 
#    0.000    0.000    0.000    0.000    0.000    0.000 
#
# Total GULP energy -297354.334510 kJ/mol
# GULP energy per Si atom -12389.763938 kJ/mol
# Density = 1.882132 g / cm^3
# Si number density = 18.864260 Si / 1000 Ang^3
#
#
#
# Elastic Constant Matrix: (Units=GPa)
#
#
# Indices 1 2 3 4 5 6 
#
# 1 43.7379 39.6951 28.1982 0.0000 -0.8546 0.0000
# 2 39.6951 187.9526 76.0480 0.0000 -3.4736 0.0000
# 3 28.1982 76.0480 115.1558 0.0000 -1.3229 0.0000
# 4 0.0000 0.0000 0.0000 17.7762 0.0000 -12.1260
# 5 -0.8546 -3.4736 -1.3229 0.0000 26.4670 0.0000
# 6 0.0000 0.0000 0.0000 -12.1260 0.0000 0.6918
#
#
#
# Elastic Compliance Matrix: (Units=1/GPa)
#
#
# Indices 1 2 3 4 5 6 
#
# 1 0.029755 -0.004550 -0.004280 0.000000 0.000150 0.000000
# 2 -0.004550 0.007970 -0.004141 0.000000 0.000692 0.000000
# 3 -0.004280 -0.004141 0.012466 0.000000 -0.000059 0.000000
# 4 0.000000 0.000000 0.000000 -0.005135 0.000000 -0.089995
# 5 0.000150 0.000692 -0.000059 0.000000 0.037876 0.000000
# 6 0.000000 0.000000 0.000000 -0.089995 0.000000 -0.131929
#
#
# Mechanical properties :
#
#
# Convention : Reuss Voigt Hill
#
# Bulk Modulus (GPa) = 41.23833 70.52544 55.88188
# Shear Modulus (GPa) = -333.92342 22.51402 -155.70470
#
# Velocity S-wave (km/s) = -13.31909 3.45842 -9.09498
# Velocity P-wave (km/s) = 14.65001 7.30852 8.97798
#
# Compressibility (1/GPa) = 0.02424929
#
# Stress axis : x y z
#
# Youngs Moduli (GPa) = 33.60812 125.47521 80.21861
#
# Poissons Ratio (x) = 0.57088 0.34331
# Poissons Ratio (y) = 0.15291 0.33219
# Poissons Ratio (z) = 0.14383 0.51960
#
# Static dielectric constant tensor:
#      x y z
#    x 3.447350 0.000000 0.200150 
#    y 0.000000 3.895200 0.000000 
#    z 0.200150 0.000000 3.711220 
# 
# 
# High freq. dielectric constant tensor:
#      x y z
#    x 1.694940 0.000000 0.002610 
#    y 0.000000 1.743100 0.000000 
#    z 0.002610 0.000000 1.744880 
# 
# From -- ./inp_files/142914.got.cif
#   From: 2010.06.25/outbox.cif.g09.slc.cpg/sg12_72_cif.got.tgz:142914.got - 2010.06.28 00:19:55.
