data_PCOD8084128
_publ_section_title
;
Structure prediction by ZEFSAII (Michael W. Deem and Ramdas Pophale) SiO2 
 PCOD8084128
Probable space group: C 2/M
;
_chemical_formula_sum "Si O2"
_cell_formula_units_Z 48
_cell_length_a 24.123404
_cell_length_b 11.874346
_cell_length_c 11.098340
_cell_angle_alpha 90.000000
_cell_angle_beta 49.207856
_cell_angle_gamma 90.000000
_cell_volume 2406.859564
_symmetry_space_group_name_H-M "C 2/M"
_symmetry_group_IT_number 12
_symmetry_cell_setting 'monoclinic'
loop_
_space_group_symop_operation_xyz
x,y,z
-x,y,-z
-x,-y,-z
x,-y,z
1/2+x,1/2+y,z
1/2-x,1/2+y,-z
1/2-x,1/2-y,-z
1/2+x,1/2-y,z
loop_
_atom_site_type_symbol
_atom_site_label
_atom_site_fract_x
_atom_site_fract_y
_atom_site_fract_z
Si Si1 0.383710 0.223846 0.832091
Si Si2 0.927452 0.274365 0.183317
Si Si3 0.556182 0.000000 0.312411
Si Si4 0.475112 0.000000 0.177640
Si Si5 0.685649 0.132639 0.829887
Si Si6 0.658311 0.627851 0.313513
Si Si7 0.528373 0.368684 0.674229
O O1 0.333292 0.301315 0.820058
O O2 0.456826 0.291274 0.767236
O O3 0.399471 0.114044 0.729496
O O4 0.338018 0.182871 0.009855
O O5 0.929673 0.386245 0.263842
O O6 0.853394 0.286924 0.211923
O O7 0.926039 0.164542 0.270177
O O8 0.000000 0.267325 0.000000
O O9 0.500000 0.000000 0.500000
O O10 0.534547 0.000000 0.200094
O O11 0.500000 0.000000 0.000000
O O12 0.773105 0.148818 0.694171
O O13 0.662907 0.000000 0.848096
O O14 0.659704 0.500000 0.268190
O O15 0.581235 0.655316 0.486434
O O16 0.506416 0.500000 0.712314
#
# Coordination Sequence:
#
# PCOD8084128 Si02
#       7
#     8   8   4   4   8   8   8
#     4  12  21  39  62  90 118 155 203 243 300 360
#     4  11  20  36  63  90 115 150 202 252 299 354
#     4  12  22  32  60  98 128 148 189 266 320 347
#     4  10  18  34  58  92 120 152 198 247 314 365
#     4  11  22  40  63  90 118 158 198 249 301 361
#     4  10  24  42  60  84 123 162 200 238 299 363
#     4  11  23  39  61  88 119 158 201 243 293 354
#
# _framework density 19.943000999999999
#
# number of rings (size 3 to 8) (size 9 to 14) (size 15 to 20)
#    0.000    1.000    5.000    3.500    0.000    2.333 
#    0.000    0.000    1.833    0.000    0.000    0.000 
#    0.000    0.000    0.000    0.000    0.000    0.000 
#
# Total GULP energy -297413.426430 kJ/mol
# GULP energy per Si atom -12392.226101 kJ/mol
# Density = 1.989761 g / cm^3
# Si number density = 19.943001 Si / 1000 Ang^3
#
#
#
# Elastic Constant Matrix: (Units=GPa)
#
#
# Indices 1 2 3 4 5 6 
#
# 1 93.0822 24.6404 5.1884 0.0000 1.5399 0.0000
# 2 24.6404 92.0686 20.3494 0.0000 1.0683 0.0000
# 3 5.1884 20.3494 34.4441 0.0000 -3.5979 0.0000
# 4 0.0000 0.0000 0.0000 17.5367 0.0000 9.5645
# 5 1.5399 1.0683 -3.5979 0.0000 27.6576 0.0000
# 6 0.0000 0.0000 0.0000 9.5645 0.0000 31.8891
#
#
#
# Elastic Compliance Matrix: (Units=1/GPa)
#
#
# Indices 1 2 3 4 5 6 
#
# 1 0.011570 -0.003098 0.000033 0.000000 -0.000520 0.000000
# 2 -0.003098 0.013381 -0.007578 0.000000 -0.001330 0.000000
# 3 0.000033 -0.007578 0.033997 0.000000 0.004713 0.000000
# 4 0.000000 0.000000 0.000000 0.068176 0.000000 -0.020448
# 5 -0.000520 -0.001330 0.004713 0.000000 0.036850 0.000000
# 6 0.000000 0.000000 0.000000 -0.020448 0.000000 0.037492
#
#
# Mechanical properties :
#
#
# Convention : Reuss Voigt Hill
#
# Bulk Modulus (GPa) = 26.55144 35.55013 31.05078
# Shear Modulus (GPa) = 21.24915 26.71114 23.98015
#
# Velocity S-wave (km/s) = 3.26773 3.66372 3.47138
# Velocity P-wave (km/s) = 5.25167 5.98011 5.62768
#
# Compressibility (1/GPa) = 0.03766274
#
# Stress axis : x y z
#
# Youngs Moduli (GPa) = 86.43061 74.73413 29.41462
#
# Poissons Ratio (x) = 0.23151 -0.00097
# Poissons Ratio (y) = 0.26774 0.22289
# Poissons Ratio (z) = -0.00285 0.56630
#
# Static dielectric constant tensor:
#      x y z
#    x 3.721190 0.000000 0.004710 
#    y 0.000000 2.596520 0.000000 
#    z 0.004710 0.000000 3.465760 
# 
# 
# High freq. dielectric constant tensor:
#      x y z
#    x 1.779570 0.000000 0.004350 
#    y 0.000000 1.788350 0.000000 
#    z 0.004350 0.000000 1.756930 
# 
# From -- ./inp_files/154328.got.cif
#   From: 2010.06.25/outbox.cif.g09.slc.cpg/sg12_78_cif.got.tgz:154328.got - 2010.06.28 00:19:55.
