data_PCOD8084674
_publ_section_title
;
Structure prediction by ZEFSAII (Michael W. Deem and Ramdas Pophale) SiO2 
 PCOD8084674
Probable space group: C 2/M
;
_chemical_formula_sum "Si O2"
_cell_formula_units_Z 64
_cell_length_a 32.092556
_cell_length_b 9.055107
_cell_length_c 15.763746
_cell_angle_alpha 90.000000
_cell_angle_beta 108.764565
_cell_angle_gamma 90.000000
_cell_volume 4337.482806
_symmetry_space_group_name_H-M "C 2/M"
_symmetry_group_IT_number 12
_symmetry_cell_setting 'monoclinic'
loop_
_space_group_symop_operation_xyz
x,y,z
-x,y,-z
-x,-y,-z
x,-y,z
1/2+x,1/2+y,z
1/2-x,1/2+y,-z
1/2-x,1/2-y,-z
1/2+x,1/2-y,z
loop_
_atom_site_type_symbol
_atom_site_label
_atom_site_fract_x
_atom_site_fract_y
_atom_site_fract_z
Si Si1 0.835147 0.826863 0.170238
Si Si2 0.597896 0.824424 0.479207
Si Si3 0.706167 0.170996 0.999800
Si Si4 0.242733 0.331998 0.197474
Si Si5 0.317272 0.328011 0.518436
Si Si6 0.591994 0.175946 0.670157
Si Si7 0.503244 0.838952 0.402102
Si Si8 0.754947 0.171393 0.631813
O O1 0.833864 0.750853 0.075814
O O2 0.790473 0.789434 0.191411
O O3 0.875997 0.760408 0.246512
O O4 0.841656 0.000000 0.162026
O O5 0.635035 0.746602 0.447536
O O6 0.605052 0.783736 0.582458
O O7 0.550381 0.760498 0.414409
O O8 0.599827 0.000000 0.467910
O O9 0.707810 0.000000 0.974377
O O10 0.750000 0.250000 0.000000
O O11 0.704496 0.187088 0.101066
O O12 0.243606 0.500000 0.231181
O O13 0.230263 0.224277 0.265938
O O14 0.322168 0.500000 0.502788
O O15 0.288606 0.258603 0.424188
O O16 0.294861 0.295721 0.594064
O O17 0.542284 0.237607 0.658400
O O18 0.594634 0.000000 0.685728
O O19 0.500000 0.860516 0.500000
O O20 0.504846 0.000000 0.360056
O O21 0.742703 0.000000 0.625628
#
# Coordination Sequence:
#
# PCOD8084674 Si02
#       8
#     8   8   8   8   8   8   8   8
#     4  10  19  28  39  59  85 110 136 165 197 235
#     4   9  16  27  44  61  77 105 141 169 199 239
#     4   9  17  29  43  59  79 104 133 164 200 238
#     4   9  18  30  43  59  80 105 133 168 204 234
#     4  10  20  31  41  57  82 107 134 171 206 233
#     4   9  16  26  41  60  82 108 137 168 199 233
#     4   7  12  24  40  58  79 102 132 168 199 231
#     4  10  20  31  43  58  77 106 140 169 200 238
#
# _framework density 14.755102000000001
#
# number of rings (size 3 to 8) (size 9 to 14) (size 15 to 20)
#    0.000    2.875    0.000    4.500    0.000    7.000 
#    0.000    0.625    0.000    2.250    0.000    0.000 
#    0.000    1.000    0.000   11.250    0.000    5.625 
#
# Total GULP energy -396514.608166 kJ/mol
# GULP energy per Si atom -12391.081505 kJ/mol
# Density = 1.472152 g / cm^3
# Si number density = 14.755102 Si / 1000 Ang^3
#
#
#
# Elastic Constant Matrix: (Units=GPa)
#
#
# Indices 1 2 3 4 5 6 
#
# 1 93.8980 40.9242 40.6550 0.0000 13.6087 0.0000
# 2 40.9242 66.6070 42.8870 0.0000 6.4278 0.0000
# 3 40.6550 42.8870 85.7409 0.0000 14.0541 0.0000
# 4 0.0000 0.0000 0.0000 23.9594 0.0000 -0.5411
# 5 13.6087 6.4278 14.0541 0.0000 20.0450 0.0000
# 6 0.0000 0.0000 0.0000 -0.5411 0.0000 17.2108
#
#
#
# Elastic Compliance Matrix: (Units=1/GPa)
#
#
# Indices 1 2 3 4 5 6 
#
# 1 0.016053 -0.007407 -0.002836 0.000000 -0.006535 0.000000
# 2 -0.007407 0.025573 -0.009897 0.000000 0.003767 0.000000
# 3 -0.002836 -0.009897 0.019346 0.000000 -0.008465 0.000000
# 4 0.000000 0.000000 0.000000 0.041767 0.000000 0.001313
# 5 -0.006535 0.003767 -0.008465 0.000000 0.059051 0.000000
# 6 0.000000 0.000000 0.000000 0.001313 0.000000 0.058144
#
#
# Mechanical properties :
#
#
# Convention : Reuss Voigt Hill
#
# Bulk Modulus (GPa) = 48.32582 55.01983 51.67283
# Shear Modulus (GPa) = 18.71882 20.36167 19.54024
#
# Velocity S-wave (km/s) = 3.56565 3.71883 3.64305
# Velocity P-wave (km/s) = 7.05513 7.47056 7.26581
#
# Compressibility (1/GPa) = 0.02069287
#
# Stress axis : x y z
#
# Youngs Moduli (GPa) = 62.29432 39.10350 51.69131
#
# Poissons Ratio (x) = 0.28962 0.14658
# Poissons Ratio (y) = 0.46139 0.51159
# Poissons Ratio (z) = 0.17665 0.38701
#
# Static dielectric constant tensor:
#      x y z
#    x 2.893630 0.000000 0.194130 
#    y 0.000000 2.840570 0.000000 
#    z 0.194130 0.000000 2.884420 
# 
# 
# High freq. dielectric constant tensor:
#      x y z
#    x 1.542640 0.000000 0.016410 
#    y 0.000000 1.563530 0.000000 
#    z 0.016410 0.000000 1.544820 
# 
# From -- ./inp_files/248511.got.cif
#   From: 2010.06.25/outbox.cif.g09.slc.cpg/sg12_125_cif.got.tgz:248511.got - 2010.06.28 00:19:55.
