data_PCOD8084247
_publ_section_title
;
Structure prediction by ZEFSAII (Michael W. Deem and Ramdas Pophale) SiO2 
 PCOD8084247
Probable space group: C 2/M
;
_chemical_formula_sum "Si O2"
_cell_formula_units_Z 52
_cell_length_a 9.139225
_cell_length_b 28.053812
_cell_length_c 15.852613
_cell_angle_alpha 90.000000
_cell_angle_beta 140.986877
_cell_angle_gamma 90.000000
_cell_volume 2558.566565
_symmetry_space_group_name_H-M "C 2/M"
_symmetry_group_IT_number 12
_symmetry_cell_setting 'monoclinic'
loop_
_space_group_symop_operation_xyz
x,y,z
-x,y,-z
-x,-y,-z
x,-y,z
1/2+x,1/2+y,z
1/2-x,1/2+y,-z
1/2-x,1/2-y,-z
1/2+x,1/2-y,z
loop_
_atom_site_type_symbol
_atom_site_label
_atom_site_fract_x
_atom_site_fract_y
_atom_site_fract_z
Si Si1 0.134560 0.500000 0.144344
Si Si2 0.052484 0.807647 0.706672
Si Si3 0.076243 0.603644 0.778799
Si Si4 0.644234 0.729371 0.217236
Si Si5 0.275995 0.000000 0.132764
Si Si6 0.000000 0.826778 0.000000
Si Si7 0.431101 0.838551 0.562418
Si Si8 0.676441 0.898411 0.157608
O O1 0.288586 0.451745 0.216468
O O2 0.917211 0.500000 0.109921
O O3 0.000000 0.500000 0.000000
O O4 0.274152 0.784296 0.758672
O O5 0.121310 0.860537 0.769067
O O6 0.001671 0.773183 0.762713
O O7 0.821625 0.813518 0.547311
O O8 0.152413 0.549481 0.789694
O O9 0.929355 0.619430 0.630795
O O10 0.935318 0.610280 0.801543
O O11 0.289340 0.638476 0.888315
O O12 0.475249 0.708725 0.068824
O O13 0.884428 0.701037 0.329337
O O14 0.000000 0.000000 0.000000
O O15 0.500000 0.858325 0.500000
O O16 0.500000 0.895398 0.000000
#
# Coordination Sequence:
#
# PCOD8084247 Si02
#       8
#     4   8   8   8   4   4   8   8
#     4   8  18  38  57  84 123 155 190 237 292 370
#     4  11  23  39  59  84 119 162 204 250 302 353
#     4  10  20  37  61  89 121 158 195 249 308 359
#     4  10  23  37  58  84 118 157 202 251 296 364
#     4  10  18  34  62  98 118 148 197 250 305 372
#     4  10  20  35  56  84 124 153 194 244 314 352
#     4   9  21  42  57  79 118 165 206 245 286 357
#     4  10  21  37  61  89 121 153 200 249 305 363
#
# _framework density 20.323881
#
# number of rings (size 3 to 8) (size 9 to 14) (size 15 to 20)
#    0.000    2.154    0.769    1.385    5.385    1.231 
#    2.769    1.154    0.000    2.769    0.000    0.000 
#    0.000    0.000    0.000    0.000    0.000    0.000 
#
# Total GULP energy -322141.557365 kJ/mol
# GULP energy per Si atom -12390.059899 kJ/mol
# Density = 2.027762 g / cm^3
# Si number density = 20.323881 Si / 1000 Ang^3
#
#
#
# Elastic Constant Matrix: (Units=GPa)
#
#
# Indices 1 2 3 4 5 6 
#
# 1 63.9305 42.1796 24.8429 0.0000 -14.2170 0.0000
# 2 42.1796 123.4074 33.9525 0.0000 -7.7532 0.0000
# 3 24.8429 33.9525 80.4313 0.0000 -24.5836 0.0000
# 4 0.0000 0.0000 0.0000 25.6545 0.0000 -1.0480
# 5 -14.2170 -7.7532 -24.5836 0.0000 30.6308 0.0000
# 6 0.0000 0.0000 0.0000 -1.0480 0.0000 27.9778
#
#
#
# Elastic Compliance Matrix: (Units=1/GPa)
#
#
# Indices 1 2 3 4 5 6 
#
# 1 0.022380 -0.006675 -0.001903 0.000000 0.007171 0.000000
# 2 -0.006675 0.011184 -0.003632 0.000000 -0.003182 0.000000
# 3 -0.001903 -0.003632 0.018555 0.000000 0.013089 0.000000
# 4 0.000000 0.000000 0.000000 0.039039 0.000000 0.001462
# 5 0.007171 -0.003182 0.013089 0.000000 0.045674 0.000000
# 6 0.000000 0.000000 0.000000 0.001462 0.000000 0.035797
#
#
# Mechanical properties :
#
#
# Convention : Reuss Voigt Hill
#
# Bulk Modulus (GPa) = 36.10357 52.19104 44.14730
# Shear Modulus (GPa) = 24.23844 27.97221 26.10533
#
# Velocity S-wave (km/s) = 3.45716 3.71391 3.58783
# Velocity P-wave (km/s) = 5.80850 6.64276 6.23959
#
# Compressibility (1/GPa) = 0.02769809
#
# Stress axis : x y z
#
# Youngs Moduli (GPa) = 44.68204 89.41230 53.89510
#
# Poissons Ratio (x) = 0.59686 0.10257
# Poissons Ratio (y) = 0.29827 0.19575
# Poissons Ratio (z) = 0.08503 0.32475
#
# Static dielectric constant tensor:
#      x y z
#    x 3.705030 0.000000 -0.189080 
#    y 0.000000 3.739270 0.000000 
#    z -0.189080 0.000000 3.790170 
# 
# 
# High freq. dielectric constant tensor:
#      x y z
#    x 1.788440 0.000000 -0.013100 
#    y 0.000000 1.806880 0.000000 
#    z -0.013100 0.000000 1.782030 
# 
# From -- ./inp_files/201406.got.cif
#   From: 2010.06.25/outbox.cif.g09.slc.cpg/sg12_101_cif.got.tgz:201406.got - 2010.06.28 00:19:55.
