data_PCOD8084694
_publ_section_title
;
Structure prediction by ZEFSAII (Michael W. Deem and Ramdas Pophale) SiO2 
 PCOD8084694
Probable space group: C 2/M
;
_chemical_formula_sum "Si O2"
_cell_formula_units_Z 64
_cell_length_a 31.440582
_cell_length_b 8.987319
_cell_length_c 15.818426
_cell_angle_alpha 90.000000
_cell_angle_beta 110.600823
_cell_angle_gamma 90.000000
_cell_volume 4183.936917
_symmetry_space_group_name_H-M "C 2/M"
_symmetry_group_IT_number 12
_symmetry_cell_setting 'monoclinic'
loop_
_space_group_symop_operation_xyz
x,y,z
-x,y,-z
-x,-y,-z
x,-y,z
1/2+x,1/2+y,z
1/2-x,1/2+y,-z
1/2-x,1/2-y,-z
1/2+x,1/2-y,z
loop_
_atom_site_type_symbol
_atom_site_label
_atom_site_fract_x
_atom_site_fract_y
_atom_site_fract_z
Si Si1 0.332759 0.831613 0.689550
Si Si2 0.411750 0.327008 0.837569
Si Si3 0.318236 0.172386 0.015055
Si Si4 0.998244 0.332223 0.099192
Si Si5 0.741328 0.172404 0.863309
Si Si6 0.907668 0.825528 0.030712
Si Si7 0.768292 0.173446 0.315472
Si Si8 0.707134 0.171837 0.510028
O O1 0.368239 0.716911 0.752666
O O2 0.283367 0.794765 0.692942
O O3 0.333123 0.813309 0.587452
O O4 0.346558 0.000000 0.723816
O O5 0.421771 0.500000 0.833838
O O6 0.455672 0.240299 0.832797
O O7 0.402147 0.286683 0.928132
O O8 0.288675 0.251784 0.922166
O O9 0.322082 0.000000 0.993266
O O10 0.296023 0.196051 0.090705
O O11 0.367599 0.245641 0.053577
O O12 0.994154 0.500000 0.130767
O O13 0.954995 0.237828 0.100147
O O14 0.000000 0.328238 0.000000
O O15 0.721576 0.249886 0.766533
O O16 0.751241 0.000000 0.852857
O O17 0.905910 0.000000 0.047002
O O18 0.803112 0.246113 0.408244
O O19 0.779064 0.000000 0.316467
O O20 0.750000 0.250000 0.500000
O O21 0.718395 0.000000 0.535520
#
# Coordination Sequence:
#
# PCOD8084694 Si02
#       8
#     8   8   8   8   8   8   8   8
#     4   9  18  29  41  60  85 113 143 174 209 251
#     4  10  19  28  41  62  86 112 142 176 211 250
#     4  10  20  32  45  62  85 113 146 181 216 254
#     4   9  17  29  44  60  81 110 141 174 211 251
#     4  10  20  32  45  62  85 113 145 182 219 252
#     4  10  19  30  44  62  85 113 145 178 213 252
#     4  10  19  30  45  63  84 113 147 180 216 258
#     4   9  17  29  43  60  84 112 143 178 214 253
#
# _framework density 15.296599000000001
#
# number of rings (size 3 to 8) (size 9 to 14) (size 15 to 20)
#    0.000    2.375    0.000    4.125    0.000    9.500 
#    0.000    0.000    0.000    0.000    0.000    0.000 
#    0.000    1.000    0.000   10.500    0.000    5.000 
#
# Total GULP energy -396802.080386 kJ/mol
# GULP energy per Si atom -12400.065012 kJ/mol
# Density = 1.526178 g / cm^3
# Si number density = 15.296599 Si / 1000 Ang^3
#
#
#
# Elastic Constant Matrix: (Units=GPa)
#
#
# Indices 1 2 3 4 5 6 
#
# 1 64.4388 38.4145 10.7538 0.0000 5.2275 0.0000
# 2 38.4145 109.2503 37.9711 0.0000 -0.0887 0.0000
# 3 10.7538 37.9711 66.3439 0.0000 -1.1995 0.0000
# 4 0.0000 0.0000 0.0000 27.3720 0.0000 3.1278
# 5 5.2275 -0.0887 -1.1995 0.0000 14.0869 0.0000
# 6 0.0000 0.0000 0.0000 3.1278 0.0000 27.4884
#
#
#
# Elastic Compliance Matrix: (Units=1/GPa)
#
#
# Indices 1 2 3 4 5 6 
#
# 1 0.020458 -0.007489 0.000833 0.000000 -0.007568 0.000000
# 2 -0.007489 0.014171 -0.006855 0.000000 0.002285 0.000000
# 3 0.000833 -0.006855 0.018884 0.000000 0.001256 0.000000
# 4 0.000000 0.000000 0.000000 0.037015 0.000000 -0.004212
# 5 -0.007568 0.002285 0.001256 0.000000 0.073918 0.000000
# 6 0.000000 0.000000 0.000000 -0.004212 0.000000 0.036858
#
#
# Mechanical properties :
#
#
# Convention : Reuss Voigt Hill
#
# Bulk Modulus (GPa) = 37.74865 46.03463 41.89164
# Shear Modulus (GPa) = 21.08305 23.98237 22.53271
#
# Velocity S-wave (km/s) = 3.71655 3.96387 3.84220
# Velocity P-wave (km/s) = 6.56874 7.14911 6.86506
#
# Compressibility (1/GPa) = 0.02649101
#
# Stress axis : x y z
#
# Youngs Moduli (GPa) = 48.88030 70.56555 52.95431
#
# Poissons Ratio (x) = 0.52849 -0.04414
# Poissons Ratio (y) = 0.36608 0.36303
# Poissons Ratio (z) = -0.04074 0.48376
#
# Static dielectric constant tensor:
#      x y z
#    x 2.744020 0.000000 0.073520 
#    y 0.000000 3.136390 0.000000 
#    z 0.073520 0.000000 2.960820 
# 
# 
# High freq. dielectric constant tensor:
#      x y z
#    x 1.555890 0.000000 0.008330 
#    y 0.000000 1.608520 0.000000 
#    z 0.008330 0.000000 1.564880 
# 
# From -- ./inp_files/244025.got.cif
#   From: 2010.06.25/outbox.cif.g09.slc.cpg/sg12_123_cif.got.tgz:244025.got - 2010.06.28 00:19:55.
