data_PCOD8084274
_publ_section_title
;
Structure prediction by ZEFSAII (Michael W. Deem and Ramdas Pophale) SiO2 
 PCOD8084274
Probable space group: C 2/M
;
_chemical_formula_sum "Si O2"
_cell_formula_units_Z 40
_cell_length_a 14.199331
_cell_length_b 14.080166
_cell_length_c 24.912475
_cell_angle_alpha 90.000000
_cell_angle_beta 152.684983
_cell_angle_gamma 90.000000
_cell_volume 2285.567094
_symmetry_space_group_name_H-M "C 2/M"
_symmetry_group_IT_number 12
_symmetry_cell_setting 'monoclinic'
loop_
_space_group_symop_operation_xyz
x,y,z
-x,y,-z
-x,-y,-z
x,-y,z
1/2+x,1/2+y,z
1/2-x,1/2+y,-z
1/2-x,1/2-y,-z
1/2+x,1/2-y,z
loop_
_atom_site_type_symbol
_atom_site_label
_atom_site_fract_x
_atom_site_fract_y
_atom_site_fract_z
Si Si1 0.460028 0.228511 0.749530
Si Si2 0.776231 0.247915 0.264657
Si Si3 0.710164 0.609574 0.136995
Si Si4 0.631882 0.814477 0.518896
Si Si5 0.453752 0.607201 0.275878
O O1 0.403089 0.228719 0.783313
O O2 0.603827 0.139891 0.808117
O O3 0.252880 0.224605 0.607804
O O4 0.576826 0.327919 0.793217
O O5 0.705320 0.331186 0.189338
O O6 0.991822 0.280007 0.399443
O O7 0.813724 0.149651 0.252409
O O8 0.739157 0.500000 0.166935
O O9 0.500000 0.628518 0.000000
O O10 0.500000 0.863456 0.500000
O O11 0.803702 0.888760 0.584521
O O12 0.383803 0.500000 0.228948
#
# Coordination Sequence:
#
# PCOD8084274 Si02
#       5
#     8   8   8   8   8
#     4   8  19  35  52  73 105 133 163 211 256 301
#     4  10  18  35  54  73 104 139 168 200 260 306
#     4  10  22  37  53  76 101 132 178 216 245 294
#     4   8  16  32  50  75 105 132 164 203 250 311
#     4   9  18  29  48  76 105 129 164 206 244 300
#
# _framework density 17.501127
#
# number of rings (size 3 to 8) (size 9 to 14) (size 15 to 20)
#    1.200    1.800    0.000    0.600    0.000    3.600 
#    0.000    0.000    0.000   13.200    0.000    0.000 
#    0.000    0.000    0.000    0.000    0.000    0.000 
#
# Total GULP energy -247770.144528 kJ/mol
# GULP energy per Si atom -12388.507226 kJ/mol
# Density = 1.746129 g / cm^3
# Si number density = 17.501127 Si / 1000 Ang^3
#
#
#
# Elastic Constant Matrix: (Units=GPa)
#
#
# Indices 1 2 3 4 5 6 
#
# 1 134.8973 35.2992 29.8412 -0.0005 0.0944 0.0005
# 2 35.2992 76.0389 32.7212 0.0003 -3.5387 0.0006
# 3 29.8412 32.7212 65.4361 -0.0009 -4.0782 0.0010
# 4 -0.0005 0.0003 -0.0009 12.6503 -0.0001 -2.0408
# 5 0.0944 -3.5387 -4.0782 -0.0001 8.2174 0.0004
# 6 0.0005 0.0006 0.0010 -2.0408 0.0004 11.5571
#
#
#
# Elastic Compliance Matrix: (Units=1/GPa)
#
#
# Indices 1 2 3 4 5 6 
#
# 1 0.008806 -0.003076 -0.002649 0.000000 -0.002740 0.000000
# 2 -0.003076 0.017911 -0.007296 -0.000001 0.004127 0.000000
# 3 -0.002649 -0.007296 0.020581 0.000001 0.007103 -0.000001
# 4 0.000000 -0.000001 0.000001 0.081368 0.000001 0.014368
# 5 -0.002740 0.004127 0.007103 0.000001 0.127027 -0.000005
# 6 0.000000 0.000000 -0.000001 0.014368 -0.000005 0.089064
#
#
# Mechanical properties :
#
#
# Convention : Reuss Voigt Hill
#
# Bulk Modulus (GPa) = 47.04456 52.45507 49.74982
# Shear Modulus (GPa) = 13.23161 18.38566 15.80864
#
# Velocity S-wave (km/s) = 2.75261 3.24472 3.00874
# Velocity P-wave (km/s) = 6.08619 6.63891 6.36855
#
# Compressibility (1/GPa) = 0.02125644
#
# Stress axis : x y z
#
# Youngs Moduli (GPa) = 113.56328 55.83211 48.58817
#
# Poissons Ratio (x) = 0.17172 0.12869
# Poissons Ratio (y) = 0.34928 0.35452
# Poissons Ratio (z) = 0.30077 0.40738
#
# Static dielectric constant tensor:
#      x y z
#    x 3.301560 0.000000 0.110100 
#    y 0.000000 2.920140 0.000000 
#    z 0.110100 0.000000 3.043370 
# 
# 
# High freq. dielectric constant tensor:
#      x y z
#    x 1.687810 0.000000 0.009410 
#    y 0.000000 1.647050 0.000000 
#    z 0.009410 0.000000 1.654820 
# 
# From -- ./inp_files/142212.got.cif
#   From: 2010.06.25/outbox.cif.g09.slc.cpg/sg12_72_cif.got.tgz:142212.got - 2010.06.28 00:19:55.
