data_PCOD8084644
_publ_section_title
;
Structure prediction by ZEFSAII (Michael W. Deem and Ramdas Pophale) SiO2 
 PCOD8084644
Probable space group: C 2/M
;
_chemical_formula_sum "Si O2"
_cell_formula_units_Z 48
_cell_length_a 24.346567
_cell_length_b 17.368223
_cell_length_c 26.217009
_cell_angle_alpha 90.000000
_cell_angle_beta 163.717627
_cell_angle_gamma 90.000000
_cell_volume 3108.207407
_symmetry_space_group_name_H-M "C 2/M"
_symmetry_group_IT_number 12
_symmetry_cell_setting 'monoclinic'
loop_
_space_group_symop_operation_xyz
x,y,z
-x,y,-z
-x,-y,-z
x,-y,z
1/2+x,1/2+y,z
1/2-x,1/2+y,-z
1/2-x,1/2-y,-z
1/2+x,1/2-y,z
loop_
_atom_site_type_symbol
_atom_site_label
_atom_site_fract_x
_atom_site_fract_y
_atom_site_fract_z
Si Si1 0.109822 0.693913 0.905683
Si Si2 0.052803 0.838390 0.195974
Si Si3 0.868407 0.411872 0.615916
Si Si4 0.439043 0.588789 0.200663
Si Si5 0.557760 0.087950 0.433808
Si Si6 0.882065 0.910816 0.944126
O O1 0.980175 0.746127 0.828070
O O2 0.961938 0.647337 0.738205
O O3 0.250000 0.750000 0.000000
O O4 0.257364 0.633991 0.065195
O O5 0.284846 0.855849 0.399465
O O6 0.961125 0.885227 0.161552
O O7 0.946943 0.862057 0.050165
O O8 0.909040 0.500000 0.668948
O O9 0.636377 0.394831 0.407874
O O10 0.960449 0.395836 0.642634
O O11 0.384247 0.500000 0.151848
O O12 0.347537 0.102925 0.271830
O O13 0.628578 0.000000 0.505454
O O14 0.925637 0.000000 0.994426
O O15 0.000000 0.881920 0.000000
#
# Coordination Sequence:
#
# PCOD8084644 Si02
#       6
#     8   8   8   8   8   8
#     4  10  19  26  40  63  88 116 143 175 210 248
#     4  10  19  29  42  63  88 114 143 177 215 252
#     4   9  17  29  44  62  86 117 148 173 202 247
#     4   9  17  29  45  63  87 119 148 173 202 245
#     4   9  17  29  45  61  82 114 145 176 210 246
#     4  10  20  32  46  62  80 109 150 188 216 245
#
# _framework density 15.442985
#
# number of rings (size 3 to 8) (size 9 to 14) (size 15 to 20)
#    0.000    2.500    0.000    5.000    0.000    9.333 
#    0.000    2.500    0.000    0.000    0.000    0.000 
#    0.000    2.667    0.000   11.333    0.000    1.333 
#
# Total GULP energy -297508.293021 kJ/mol
# GULP energy per Si atom -12396.178876 kJ/mol
# Density = 1.540784 g / cm^3
# Si number density = 15.442985 Si / 1000 Ang^3
#
#
#
# Elastic Constant Matrix: (Units=GPa)
#
#
# Indices 1 2 3 4 5 6 
#
# 1 38.1212 31.9360 33.3601 0.0296 10.7296 0.0454
# 2 31.9360 94.2971 57.9479 0.3347 6.2826 0.1151
# 3 33.3601 57.9479 92.5399 0.1717 11.1193 0.0672
# 4 0.0296 0.3347 0.1717 28.2792 0.0248 -3.2710
# 5 10.7296 6.2826 11.1193 0.0248 19.6782 -0.0020
# 6 0.0454 0.1151 0.0672 -3.2710 -0.0020 10.4082
#
#
#
# Elastic Compliance Matrix: (Units=1/GPa)
#
#
# Indices 1 2 3 4 5 6 
#
# 1 0.046660 -0.009090 -0.009034 0.000128 -0.017435 -0.000008
# 2 -0.009090 0.019017 -0.009116 -0.000183 0.004036 -0.000169
# 3 -0.009034 -0.009116 0.020201 -0.000001 -0.003579 0.000009
# 4 0.000128 -0.000183 -0.000001 0.036698 -0.000056 0.011535
# 5 -0.017435 0.004036 -0.003579 -0.000056 0.061058 0.000049
# 6 -0.000008 -0.000169 0.000009 0.011535 0.000049 0.099705
#
#
# Mechanical properties :
#
#
# Convention : Reuss Voigt Hill
#
# Bulk Modulus (GPa) = 31.84850 52.38291 42.11570
# Shear Modulus (GPa) = 14.35603 18.45407 16.40505
#
# Velocity S-wave (km/s) = 3.05227 3.46060 3.26283
# Velocity P-wave (km/s) = 5.75238 7.06834 6.44404
#
# Compressibility (1/GPa) = 0.03139866
#
# Stress axis : x y z
#
# Youngs Moduli (GPa) = 21.43172 52.58353 49.50150
#
# Poissons Ratio (x) = 0.47797 0.44720
# Poissons Ratio (y) = 0.19481 0.45127
# Poissons Ratio (z) = 0.19361 0.47937
#
# Static dielectric constant tensor:
#      x y z
#    x 2.684390 -0.000090 0.274380 
#    y -0.000090 3.241860 -0.000670 
#    z 0.274380 -0.000670 3.165910 
# 
# 
# High freq. dielectric constant tensor:
#      x y z
#    x 1.535050 -0.000010 0.013730 
#    y -0.000010 1.585350 -0.000030 
#    z 0.013730 -0.000030 1.612810 
# 
# From -- ./inp_files/322525.got.cif
#   From: 2010.06.25/outbox.cif.g09.slc.cpg/sg12_162_cif.got.tgz:322525.got - 2010.06.28 00:19:55.
