data_PCOD8084070
_publ_section_title
;
Structure prediction by ZEFSAII (Michael W. Deem and Ramdas Pophale) SiO2 
 PCOD8084070
Probable space group: C 2/M
;
_chemical_formula_sum "Si O2"
_cell_formula_units_Z 48
_cell_length_a 20.192553
_cell_length_b 8.678790
_cell_length_c 13.912295
_cell_angle_alpha 90.000000
_cell_angle_beta 89.759610
_cell_angle_gamma 90.000000
_cell_volume 2438.065488
_symmetry_space_group_name_H-M "C 2/M"
_symmetry_group_IT_number 12
_symmetry_cell_setting 'monoclinic'
loop_
_space_group_symop_operation_xyz
x,y,z
-x,y,-z
-x,-y,-z
x,-y,z
1/2+x,1/2+y,z
1/2-x,1/2+y,-z
1/2-x,1/2-y,-z
1/2+x,1/2-y,z
loop_
_atom_site_type_symbol
_atom_site_label
_atom_site_fract_x
_atom_site_fract_y
_atom_site_fract_z
Si Si1 0.051345 0.816285 0.421059
Si Si2 0.122063 0.181553 0.869515
Si Si3 0.700080 0.681138 0.423939
Si Si4 0.486106 0.682488 0.787569
Si Si5 0.258141 0.180307 0.775852
Si Si6 0.138424 0.182578 0.085115
O O1 0.125552 0.759323 0.445890
O O2 0.030535 0.749252 0.317343
O O3 0.000000 0.750735 0.500000
O O4 0.049506 0.000000 0.419181
O O5 0.182453 0.224381 0.799413
O O6 0.055370 0.253624 0.824502
O O7 0.113346 0.000000 0.879318
O O8 0.134014 0.245462 0.976562
O O9 0.702969 0.500000 0.434087
O O10 0.750000 0.750000 0.500000
O O11 0.719868 0.724978 0.316502
O O12 0.491859 0.500000 0.780036
O O13 0.429173 0.730260 0.861869
O O14 0.301253 0.227774 0.867006
O O15 0.265936 0.000000 0.754764
O O16 0.151284 0.000000 0.091635
#
# Coordination Sequence:
#
# PCOD8084070 Si02
#       6
#     8   8   8   8   8   8
#     4   9  18  32  55  84 108 135 179 232 278 321
#     4   9  19  31  52  84 113 145 189 233 273 320
#     4  11  23  40  61  86 111 143 181 226 278 329
#     4   9  16  30  53  81 109 139 183 238 280 315
#     4  11  22  36  55  82 115 151 183 222 273 333
#     4  10  18  34  57  82 110 144 188 237 280 320
#
# _framework density 19.687738
#
# number of rings (size 3 to 8) (size 9 to 14) (size 15 to 20)
#    0.000    2.167    1.667    2.000    2.333    2.000 
#    0.000    0.833    0.000    8.000    0.000    0.000 
#    0.000    0.000    0.000    0.000    0.000    0.000 
#
# Total GULP energy -297616.344051 kJ/mol
# GULP energy per Si atom -12400.681002 kJ/mol
# Density = 1.964293 g / cm^3
# Si number density = 19.687738 Si / 1000 Ang^3
#
#
#
# Elastic Constant Matrix: (Units=GPa)
#
#
# Indices 1 2 3 4 5 6 
#
# 1 142.1977 27.7419 54.9873 0.0000 13.2917 0.0000
# 2 27.7419 23.7668 16.6885 0.0000 0.2478 0.0000
# 3 54.9873 16.6885 123.1130 0.0000 6.1021 0.0000
# 4 0.0000 0.0000 0.0000 23.7391 0.0000 5.3019
# 5 13.2917 0.2478 6.1021 0.0000 41.8427 0.0000
# 6 0.0000 0.0000 0.0000 5.3019 0.0000 21.5074
#
#
#
# Elastic Compliance Matrix: (Units=1/GPa)
#
#
# Indices 1 2 3 4 5 6 
#
# 1 0.010469 -0.009952 -0.003188 0.000000 -0.002802 0.000000
# 2 -0.009952 0.055980 -0.003308 0.000000 0.003312 0.000000
# 3 -0.003188 -0.003308 0.010016 0.000000 -0.000428 0.000000
# 4 0.000000 0.000000 0.000000 0.044579 0.000000 -0.010989
# 5 -0.002802 0.003312 -0.000428 0.000000 0.024832 0.000000
# 6 0.000000 0.000000 0.000000 -0.010989 0.000000 0.049205
#
#
# Mechanical properties :
#
#
# Convention : Reuss Voigt Hill
#
# Bulk Modulus (GPa) = 22.95163 54.21253 38.58208
# Shear Modulus (GPa) = 20.61877 30.06184 25.34031
#
# Velocity S-wave (km/s) = 3.23970 3.91184 3.59153
# Velocity P-wave (km/s) = 5.06728 6.92815 6.06946
#
# Compressibility (1/GPa) = 0.04356989
#
# Stress axis : x y z
#
# Youngs Moduli (GPa) = 95.52375 17.86360 99.84003
#
# Poissons Ratio (x) = 0.17778 0.31827
# Poissons Ratio (y) = 0.95064 0.33023
# Poissons Ratio (z) = 0.30451 0.05908
#
# Static dielectric constant tensor:
#      x y z
#    x 3.982690 0.000000 0.025900 
#    y 0.000000 3.078130 0.000000 
#    z 0.025900 0.000000 3.871220 
# 
# 
# High freq. dielectric constant tensor:
#      x y z
#    x 1.787030 0.000000 0.001020 
#    y 0.000000 1.713510 0.000000 
#    z 0.001020 0.000000 1.780960 
# 
# From -- ./inp_files/221686.got.cif
#   From: 2010.06.25/outbox.cif.g09.slc.cpg/sg12_111_cif.got.tgz:221686.got - 2010.06.28 00:19:55.
