data_PCOD8084429
_publ_section_title
;
Structure prediction by ZEFSAII (Michael W. Deem and Ramdas Pophale) SiO2 
 PCOD8084429
Probable space group: C 2/M
;
_chemical_formula_sum "Si O2"
_cell_formula_units_Z 48
_cell_length_a 18.854592
_cell_length_b 13.516906
_cell_length_c 15.688924
_cell_angle_alpha 90.000000
_cell_angle_beta 32.386664
_cell_angle_gamma 90.000000
_cell_volume 2141.670693
_symmetry_space_group_name_H-M "C 2/M"
_symmetry_group_IT_number 12
_symmetry_cell_setting 'monoclinic'
loop_
_space_group_symop_operation_xyz
x,y,z
-x,y,-z
-x,-y,-z
x,-y,z
1/2+x,1/2+y,z
1/2-x,1/2+y,-z
1/2-x,1/2-y,-z
1/2+x,1/2-y,z
loop_
_atom_site_type_symbol
_atom_site_label
_atom_site_fract_x
_atom_site_fract_y
_atom_site_fract_z
Si Si1 0.407548 0.611476 0.345582
Si Si2 0.634778 0.392253 0.894740
Si Si3 0.387148 0.309351 0.546500
Si Si4 0.677873 0.892453 0.453515
Si Si5 0.356829 0.888064 0.104466
Si Si6 0.144014 0.239271 0.034672
O O1 0.453302 0.500000 0.274583
O O2 0.395855 0.614559 0.459612
O O3 0.263567 0.632968 0.450566
O O4 0.508414 0.693616 0.208027
O O5 0.595452 0.500000 0.971279
O O6 0.729319 0.405152 0.720660
O O7 0.500000 0.337046 0.000000
O O8 0.703028 0.331617 0.901355
O O9 0.500000 0.334038 0.500000
O O10 0.415019 0.200478 0.475891
O O11 0.243975 0.320353 0.737309
O O12 0.603579 0.000000 0.541336
O O13 0.301179 0.000000 0.155530
O O14 0.500000 0.886470 0.000000
O O15 0.374367 0.846512 0.990485
O O16 0.250000 0.250000 0.000000
#
# Coordination Sequence:
#
# PCOD8084429 Si02
#       6
#     8   8   8   8   8   8
#     4  11  24  42  67  97 128 171 227 276 324 389
#     4  10  18  35  64  91 119 161 217 273 322 380
#     4  12  25  43  68  99 140 177 213 268 339 403
#     4  10  21  39  65  93 123 167 219 269 320 386
#     4  11  25  46  70  94 129 180 229 270 320 392
#     4  12  23  37  62  95 132 167 214 277 329 386
#
# _framework density 22.412409
#
# number of rings (size 3 to 8) (size 9 to 14) (size 15 to 20)
#    0.000    1.000    3.333    4.000    0.000    4.333 
#    0.000    2.500    0.000    0.000    0.000    0.000 
#    0.000    0.000    0.000    0.000    0.000    0.000 
#
# Total GULP energy -297469.724480 kJ/mol
# GULP energy per Si atom -12394.571853 kJ/mol
# Density = 2.236140 g / cm^3
# Si number density = 22.412409 Si / 1000 Ang^3
#
#
#
# Elastic Constant Matrix: (Units=GPa)
#
#
# Indices 1 2 3 4 5 6 
#
# 1 159.3992 40.7173 21.9427 0.0000 25.3502 0.0000
# 2 40.7173 118.2298 11.1377 0.0000 7.5117 0.0000
# 3 21.9427 11.1377 65.0996 0.0000 10.9468 0.0000
# 4 0.0000 0.0000 0.0000 31.2051 0.0000 14.2117
# 5 25.3502 7.5117 10.9468 0.0000 29.9985 0.0000
# 6 0.0000 0.0000 0.0000 14.2117 0.0000 36.7985
#
#
#
# Elastic Compliance Matrix: (Units=1/GPa)
#
#
# Indices 1 2 3 4 5 6 
#
# 1 0.007930 -0.002246 -0.001339 0.000000 -0.005651 0.000000
# 2 -0.002246 0.009317 -0.000814 0.000000 -0.000138 0.000000
# 3 -0.001339 -0.000814 0.016755 0.000000 -0.004779 0.000000
# 4 0.000000 0.000000 0.000000 0.038886 0.000000 -0.015018
# 5 -0.005651 -0.000138 -0.004779 0.000000 0.039888 0.000000
# 6 0.000000 0.000000 0.000000 -0.015018 0.000000 0.032975
#
#
# Mechanical properties :
#
#
# Convention : Reuss Voigt Hill
#
# Bulk Modulus (GPa) = 39.67351 54.48045 47.07698
# Shear Modulus (GPa) = 30.68428 37.52914 34.10671
#
# Velocity S-wave (km/s) = 3.70412 4.09648 3.90523
# Velocity P-wave (km/s) = 6.00283 6.83636 6.43311
#
# Compressibility (1/GPa) = 0.02520574
#
# Stress axis : x y z
#
# Youngs Moduli (GPa) = 126.10062 107.33034 59.68320
#
# Poissons Ratio (x) = 0.24106 0.07989
# Poissons Ratio (y) = 0.28322 0.04857
# Poissons Ratio (z) = 0.16879 0.08734
#
# Static dielectric constant tensor:
#      x y z
#    x 4.025490 0.000000 0.281190 
#    y 0.000000 5.041440 0.000000 
#    z 0.281190 0.000000 3.779870 
# 
# 
# High freq. dielectric constant tensor:
#      x y z
#    x 1.881940 0.000000 0.023620 
#    y 0.000000 1.902770 0.000000 
#    z 0.023620 0.000000 1.859210 
# 
# From -- ./inp_files/225080.got.cif
#   From: 2010.06.25/outbox.cif.g09.slc.cpg/sg12_113_cif.got.tgz:225080.got - 2010.06.28 00:19:55.
