data_PCOD8084608
_publ_section_title
;
Structure prediction by ZEFSAII (Michael W. Deem and Ramdas Pophale) SiO2 
 PCOD8084608
Probable space group: C 2/M
;
_chemical_formula_sum "Si O2"
_cell_formula_units_Z 48
_cell_length_a 12.284605
_cell_length_b 26.863201
_cell_length_c 14.837054
_cell_angle_alpha 90.000000
_cell_angle_beta 153.014318
_cell_angle_gamma 90.000000
_cell_volume 2221.776329
_symmetry_space_group_name_H-M "C 2/M"
_symmetry_group_IT_number 12
_symmetry_cell_setting 'monoclinic'
loop_
_space_group_symop_operation_xyz
x,y,z
-x,y,-z
-x,-y,-z
x,-y,z
1/2+x,1/2+y,z
1/2-x,1/2+y,-z
1/2-x,1/2-y,-z
1/2+x,1/2-y,z
loop_
_atom_site_type_symbol
_atom_site_label
_atom_site_fract_x
_atom_site_fract_y
_atom_site_fract_z
Si Si1 0.503456 0.500000 0.749569
Si Si2 0.237547 0.000000 0.733568
Si Si3 0.605555 0.264054 0.806102
Si Si4 0.767667 0.000000 0.888129
Si Si5 0.616218 0.917783 0.425807
Si Si6 0.717246 0.897251 0.299973
Si Si7 0.110412 0.311505 0.486996
Si Si8 0.000000 0.675466 0.000000
O O1 0.688630 0.500000 0.803438
O O2 0.340648 0.450652 0.624766
O O3 0.663704 0.500000 0.956640
O O4 0.378248 0.950276 0.809173
O O5 0.000000 0.000000 0.500000
O O6 0.389419 0.298228 0.682395
O O7 0.523081 0.213865 0.695585
O O8 0.750000 0.250000 0.000000
O O9 0.768209 0.292790 0.854239
O O10 0.620849 0.048989 0.753365
O O11 0.000000 0.000000 0.000000
O O12 0.662689 0.893042 0.364112
O O13 0.577169 0.871289 0.463048
O O14 0.568328 0.855941 0.138102
O O15 0.000000 0.889576 0.500000
O O16 0.000000 0.291731 0.500000
#
# Coordination Sequence:
#
# PCOD8084608 Si02
#       8
#     4   4   8   4   8   8   8   4
#     4  11  23  42  70  92 141 176 223 280 338 391
#     4  10  18  38  64  98 136 179 208 267 333 407
#     4  11  25  48  70 103 139 172 228 285 349 411
#     4  11  29  46  64  96 136 185 235 288 327 398
#     4  11  24  44  67  99 131 180 229 273 334 413
#     4  11  22  40  64 100 138 176 217 270 340 411
#     4  11  26  46  74  98 134 185 228 282 342 410
#     4  12  26  39  70 102 134 177 216 284 346 402
#
# _framework density 21.604334000000001
#
# number of rings (size 3 to 8) (size 9 to 14) (size 15 to 20)
#    0.000    1.000    3.333    3.500    4.667    5.667 
#    1.500    0.000    0.000    0.000    0.000    0.000 
#    0.000    0.000    0.000    0.000    0.000    0.000 
#
# Total GULP energy -297661.333234 kJ/mol
# GULP energy per Si atom -12402.555551 kJ/mol
# Density = 2.155516 g / cm^3
# Si number density = 21.604334 Si / 1000 Ang^3
#
#
#
# Elastic Constant Matrix: (Units=GPa)
#
#
# Indices 1 2 3 4 5 6 
#
# 1 108.5496 20.1248 23.2200 0.0002 4.1351 0.0008
# 2 20.1248 122.2423 44.1032 0.0006 -4.9360 -0.0009
# 3 23.2200 44.1032 98.6115 0.0012 -10.6306 -0.0025
# 4 0.0002 0.0006 0.0012 24.3448 0.0000 10.5156
# 5 4.1351 -4.9360 -10.6306 0.0000 38.5258 -0.0002
# 6 0.0008 -0.0009 -0.0025 10.5156 -0.0002 -16.5011
#
#
#
# Elastic Compliance Matrix: (Units=1/GPa)
#
#
# Indices 1 2 3 4 5 6 
#
# 1 0.009904 -0.000944 -0.002100 0.000000 -0.001763 0.000001
# 2 -0.000944 0.009845 -0.004157 0.000000 0.000215 0.000000
# 3 -0.002100 -0.004157 0.012844 0.000000 0.003237 -0.000002
# 4 0.000000 0.000000 0.000000 0.032210 0.000000 0.020527
# 5 -0.001763 0.000215 0.003237 0.000000 0.027067 -0.000001
# 6 0.000001 0.000000 -0.000002 0.020527 -0.000001 -0.047521
#
#
# Mechanical properties :
#
#
# Convention : Reuss Voigt Hill
#
# Bulk Modulus (GPa) = 54.97773 56.03326 55.50549
# Shear Modulus (GPa) = 77.14459 25.40425 51.27442
#
# Velocity S-wave (km/s) = 5.98209 3.43284 4.87698
# Velocity P-wave (km/s) = 8.55668 6.45794 7.58029
#
# Compressibility (1/GPa) = 0.01818918
#
# Stress axis : x y z
#
# Youngs Moduli (GPa) = 100.97157 101.57946 77.86015
#
# Poissons Ratio (x) = 0.09590 0.16350
# Poissons Ratio (y) = 0.09532 0.32369
# Poissons Ratio (z) = 0.21203 0.42230
#
# Static dielectric constant tensor:
#      x y z
#    x 4.199200 0.000020 0.116180 
#    y 0.000020 3.286460 0.000030 
#    z 0.116180 0.000030 4.013120 
# 
# 
# High freq. dielectric constant tensor:
#      x y z
#    x 1.856860 0.000000 -0.004090 
#    y 0.000000 1.855690 0.000000 
#    z -0.004090 0.000000 1.857980 
# 
# From -- ./inp_files/209513.got.cif
#   From: 2010.06.25/outbox.cif.g09.slc.cpg/sg12_105_cif.got.tgz:209513.got - 2010.06.28 00:19:55.
