data_PCOD8084403
_publ_section_title
;
Structure prediction by ZEFSAII (Michael W. Deem and Ramdas Pophale) SiO2 
 PCOD8084403
Probable space group: C 2/M
;
_chemical_formula_sum "Si O2"
_cell_formula_units_Z 64
_cell_length_a 24.348734
_cell_length_b 8.618055
_cell_length_c 16.089230
_cell_angle_alpha 90.000000
_cell_angle_beta 88.683983
_cell_angle_gamma 90.000000
_cell_volume 3375.253038
_symmetry_space_group_name_H-M "C 2/M"
_symmetry_group_IT_number 12
_symmetry_cell_setting 'monoclinic'
loop_
_space_group_symop_operation_xyz
x,y,z
-x,y,-z
-x,-y,-z
x,-y,z
1/2+x,1/2+y,z
1/2-x,1/2+y,-z
1/2-x,1/2-y,-z
1/2+x,1/2-y,z
loop_
_atom_site_type_symbol
_atom_site_label
_atom_site_fract_x
_atom_site_fract_y
_atom_site_fract_z
Si Si1 0.321151 0.181124 0.211901
Si Si2 0.289926 0.182498 0.741510
Si Si3 0.559116 0.178057 0.539417
Si Si4 0.304969 0.679139 0.034927
Si Si5 0.368731 0.678122 0.870698
Si Si6 0.039070 0.682743 0.232003
Si Si7 0.071616 0.819768 0.715555
Si Si8 0.615829 0.817286 0.376954
O O1 0.272753 0.265451 0.265031
O O2 0.377572 0.220268 0.254625
O O3 0.309809 0.000000 0.216060
O O4 0.323387 0.233832 0.116836
O O5 0.316280 0.263797 0.820599
O O6 0.323188 0.230036 0.656317
O O7 0.294440 0.000000 0.755874
O O8 0.500000 0.190977 0.500000
O O9 0.562026 0.286496 0.619034
O O10 0.603488 0.243424 0.470411
O O11 0.571169 0.000000 0.565095
O O12 0.293917 0.500000 0.056472
O O13 0.354674 0.698629 0.968042
O O14 0.250000 0.750000 0.000000
O O15 0.379806 0.500000 0.847521
O O16 0.423607 0.776319 0.849241
O O17 0.028030 0.500000 0.235642
O O18 0.071298 0.745404 0.312248
O O19 0.981344 0.770864 0.228923
O O20 0.083765 0.000000 0.729140
O O21 0.608090 0.000000 0.379308
#
# Coordination Sequence:
#
# PCOD8084403 Si02
#       8
#     8   8   8   8   8   8   8   8
#     4  12  25  41  60  83 115 157 201 243 295 352
#     4  10  19  34  57  85 118 154 194 239 292 347
#     4  10  18  35  61  87 117 152 195 238 284 346
#     4  11  22  37  60  89 121 153 194 242 290 343
#     4  10  20  34  56  89 121 151 189 239 291 342
#     4  10  19  36  59  85 116 155 195 236 289 345
#     4  12  25  40  58  85 120 155 194 242 297 354
#     4   8  16  31  56  87 115 148 188 236 285 339
#
# _framework density 18.961541
#
# number of rings (size 3 to 8) (size 9 to 14) (size 15 to 20)
#    0.000    1.625    2.500    4.500    0.000    1.750 
#    0.000    2.500    0.000    3.750    0.000    0.000 
#    0.000    0.000    0.000    0.000    0.000    0.000 
#
# Total GULP energy -396832.339252 kJ/mol
# GULP energy per Si atom -12401.010602 kJ/mol
# Density = 1.891838 g / cm^3
# Si number density = 18.961541 Si / 1000 Ang^3
#
#
#
# Elastic Constant Matrix: (Units=GPa)
#
#
# Indices 1 2 3 4 5 6 
#
# 1 104.6162 6.2480 39.3661 0.0000 -16.9500 0.0000
# 2 6.2480 59.4771 22.3397 0.0000 -7.3682 0.0000
# 3 39.3661 22.3397 74.0005 0.0000 -14.6037 0.0000
# 4 0.0000 0.0000 0.0000 26.9997 0.0000 -1.9563
# 5 -16.9500 -7.3682 -14.6037 0.0000 29.4555 0.0000
# 6 0.0000 0.0000 0.0000 -1.9563 0.0000 31.1893
#
#
#
# Elastic Compliance Matrix: (Units=1/GPa)
#
#
# Indices 1 2 3 4 5 6 
#
# 1 0.012554 0.001595 -0.006269 0.000000 0.004515 0.000000
# 2 0.001595 0.019285 -0.006138 0.000000 0.002699 0.000000
# 3 -0.006269 -0.006138 0.019604 0.000000 0.004577 0.000000
# 4 0.000000 0.000000 0.000000 0.037207 0.000000 0.002334
# 5 0.004515 0.002699 0.004577 0.000000 0.039492 0.000000
# 6 0.000000 0.000000 0.000000 0.002334 0.000000 0.032209
#
#
# Mechanical properties :
#
#
# Convention : Reuss Voigt Hill
#
# Bulk Modulus (GPa) = 33.53395 41.55572 37.54483
# Shear Modulus (GPa) = 26.05328 28.87157 27.46243
#
# Velocity S-wave (km/s) = 3.71078 3.90633 3.80981
# Velocity P-wave (km/s) = 6.00695 6.50456 6.26070
#
# Compressibility (1/GPa) = 0.02982053
#
# Stress axis : x y z
#
# Youngs Moduli (GPa) = 79.65635 51.85274 51.00883
#
# Poissons Ratio (x) = -0.08271 0.31977
# Poissons Ratio (y) = -0.12706 0.31309
# Poissons Ratio (z) = 0.49935 0.31827
#
# Static dielectric constant tensor:
#      x y z
#    x 3.493110 0.000000 -0.388260 
#    y 0.000000 3.457470 0.000000 
#    z -0.388260 0.000000 3.778670 
# 
# 
# High freq. dielectric constant tensor:
#      x y z
#    x 1.733840 0.000000 -0.028320 
#    y 0.000000 1.736720 0.000000 
#    z -0.028320 0.000000 1.727470 
# 
# From -- ./inp_files/281254.got.cif
#   From: 2010.06.25/outbox.cif.g09.slc.cpg/sg12_141_cif.got.tgz:281254.got - 2010.06.28 00:19:55.
