data_PCOD8084787
_publ_section_title
;
Structure prediction by ZEFSAII (Michael W. Deem and Ramdas Pophale) SiO2 
 PCOD8084787
Probable space group: C 2/M
;
_chemical_formula_sum "Si O2"
_cell_formula_units_Z 64
_cell_length_a 28.345473
_cell_length_b 9.039389
_cell_length_c 20.272998
_cell_angle_alpha 90.000000
_cell_angle_beta 53.716521
_cell_angle_gamma 90.000000
_cell_volume 4187.252200
_symmetry_space_group_name_H-M "C 2/M"
_symmetry_group_IT_number 12
_symmetry_cell_setting 'monoclinic'
loop_
_space_group_symop_operation_xyz
x,y,z
-x,y,-z
-x,-y,-z
x,-y,z
1/2+x,1/2+y,z
1/2-x,1/2+y,-z
1/2-x,1/2-y,-z
1/2+x,1/2-y,z
loop_
_atom_site_type_symbol
_atom_site_label
_atom_site_fract_x
_atom_site_fract_y
_atom_site_fract_z
Si Si1 0.950102 0.828620 0.967491
Si Si2 0.099227 0.172186 0.518847
Si Si3 0.012662 0.829089 0.201299
Si Si4 0.687844 0.675244 0.558636
Si Si5 0.107677 0.670813 0.725734
Si Si6 0.566626 0.167443 0.422192
Si Si7 0.070940 0.670810 0.895862
Si Si8 0.530047 0.670078 0.331701
O O1 0.940512 0.801718 0.896811
O O2 0.016001 0.774380 0.925303
O O3 0.943066 0.000000 0.991426
O O4 0.906200 0.733191 0.051547
O O5 0.149558 0.223385 0.527232
O O6 0.108035 0.253677 0.441560
O O7 0.037619 0.215727 0.602744
O O8 0.103026 0.000000 0.500849
O O9 0.956594 0.724225 0.241922
O O10 0.046071 0.795535 0.242326
O O11 0.990554 0.000000 0.218944
O O12 0.694465 0.500000 0.557947
O O13 0.750000 0.750000 0.500000
O O14 0.657668 0.733116 0.650165
O O15 0.114010 0.500000 0.699420
O O16 0.116660 0.688546 0.797817
O O17 0.500000 0.185454 0.500000
O O18 0.572807 0.238702 0.344477
O O19 0.587304 0.000000 0.400021
O O20 0.052161 0.500000 0.918492
O O21 0.539387 0.500000 0.342358
#
# Coordination Sequence:
#
# PCOD8084787 Si02
#       8
#     8   8   8   8   8   8   8   8
#     4   9  15  22  35  54  75 101 134 167 198 232
#     4   9  17  30  45  57  74 104 135 165 204 248
#     4   9  16  26  39  57  81 109 139 170 202 240
#     4  11  22  35  48  63  81 104 137 176 215 252
#     4  10  19  29  42  58  76 104 137 172 210 246
#     4   9  17  26  38  59  81 100 129 168 203 237
#     4   9  16  25  36  51  74 101 132 165 200 240
#     4   9  15  26  41  57  79 108 138 165 199 243
#
# _framework density 15.284485999999999
#
# number of rings (size 3 to 8) (size 9 to 14) (size 15 to 20)
#    0.000    2.625    1.250    2.625    0.000    5.000 
#    0.000    0.000    0.000    0.000    0.000    0.000 
#    0.000    0.000    0.000    1.125    0.000   13.500 
#
# Total GULP energy -396535.243700 kJ/mol
# GULP energy per Si atom -12391.726366 kJ/mol
# Density = 1.524970 g / cm^3
# Si number density = 15.284486 Si / 1000 Ang^3
#
#
#
# Elastic Constant Matrix: (Units=GPa)
#
#
# Indices 1 2 3 4 5 6 
#
# 1 56.8664 35.8758 49.9245 -0.0031 20.4634 0.0010
# 2 35.8758 72.9342 47.5510 -0.0098 14.9544 0.0084
# 3 49.9245 47.5510 102.2106 0.0007 31.9968 -0.0020
# 4 -0.0031 -0.0098 0.0007 24.0330 -0.0008 4.1180
# 5 20.4634 14.9544 31.9968 -0.0008 25.6047 -0.0005
# 6 0.0010 0.0084 -0.0020 4.1180 -0.0005 16.3759
#
#
#
# Elastic Compliance Matrix: (Units=1/GPa)
#
#
# Indices 1 2 3 4 5 6 
#
# 1 0.035916 -0.008926 -0.009916 0.000001 -0.011100 0.000001
# 2 -0.008926 0.021899 -0.006664 0.000010 0.002672 -0.000014
# 3 -0.009916 -0.006664 0.023042 -0.000007 -0.016978 0.000008
# 4 0.000001 0.000010 -0.000007 0.043483 0.000003 -0.010935
# 5 -0.011100 0.002672 -0.016978 0.000003 0.067582 -0.000001
# 6 0.000001 -0.000014 0.000008 -0.010935 -0.000001 0.063815
#
#
# Mechanical properties :
#
#
# Convention : Reuss Voigt Hill
#
# Bulk Modulus (GPa) = 33.50680 55.41263 44.45972
# Shear Modulus (GPa) = 15.78796 19.78007 17.78401
#
# Velocity S-wave (km/s) = 3.21743 3.60130 3.41476
# Velocity P-wave (km/s) = 5.98098 7.32293 6.68571
#
# Compressibility (1/GPa) = 0.02984468
#
# Stress axis : x y z
#
# Youngs Moduli (GPa) = 27.84296 45.66454 43.39860
#
# Poissons Ratio (x) = 0.40761 0.43032
# Poissons Ratio (y) = 0.24853 0.28922
# Poissons Ratio (z) = 0.27608 0.30433
#
# Static dielectric constant tensor:
#      x y z
#    x 2.647490 0.000000 0.559580 
#    y 0.000000 3.028770 0.000000 
#    z 0.559580 0.000000 3.367770 
# 
# 
# High freq. dielectric constant tensor:
#      x y z
#    x 1.527040 0.000000 0.050380 
#    y 0.000000 1.599930 0.000000 
#    z 0.050380 0.000000 1.577880 
# 
# From -- ./inp_files/326573.got.cif
#   From: 2010.06.25/outbox.cif.g09.slc.cpg/sg12_164_cif.got.tgz:326573.got - 2010.06.28 00:19:55.
