data_PCOD8084937
_publ_section_title
;
Structure prediction by ZEFSAII (Michael W. Deem and Ramdas Pophale) SiO2 
 PCOD8084937
Probable space group: C 2/M
;
_chemical_formula_sum "Si O2"
_cell_formula_units_Z 56
_cell_length_a 27.349088
_cell_length_b 9.205345
_cell_length_c 18.006552
_cell_angle_alpha 90.000000
_cell_angle_beta 130.145448
_cell_angle_gamma 90.000000
_cell_volume 3465.293059
_symmetry_space_group_name_H-M "C 2/M"
_symmetry_group_IT_number 12
_symmetry_cell_setting 'monoclinic'
loop_
_space_group_symop_operation_xyz
x,y,z
-x,y,-z
-x,-y,-z
x,-y,z
1/2+x,1/2+y,z
1/2-x,1/2+y,-z
1/2-x,1/2-y,-z
1/2+x,1/2-y,z
loop_
_atom_site_type_symbol
_atom_site_label
_atom_site_fract_x
_atom_site_fract_y
_atom_site_fract_z
Si Si1 0.256571 0.330008 0.679181
Si Si2 0.249583 0.835279 0.821621
Si Si3 0.003713 0.171990 0.420000
Si Si4 0.804586 0.667788 0.597088
Si Si5 0.377889 0.164597 0.528173
Si Si6 0.810934 0.667179 0.029853
Si Si7 0.122249 0.169388 0.788320
O O1 0.271153 0.500000 0.689269
O O2 0.262722 0.276911 0.769165
O O3 0.310582 0.246141 0.683011
O O4 0.186263 0.292347 0.579227
O O5 0.182350 0.795632 0.794421
O O6 0.246362 0.000000 0.787571
O O7 0.308531 0.820346 0.937870
O O8 0.066247 0.228979 0.440542
O O9 0.000000 0.233650 0.500000
O O10 0.941127 0.225108 0.314881
O O11 0.007913 0.000000 0.425370
O O12 0.785585 0.500000 0.589833
O O13 0.750000 0.750000 0.500000
O O14 0.867862 0.680355 0.607636
O O15 0.397148 0.000000 0.527174
O O16 0.807878 0.500000 0.051714
O O17 0.872460 0.742926 0.128349
O O18 0.750000 0.750000 0.000000
O O19 0.119037 0.000000 0.804558
#
# Coordination Sequence:
#
# PCOD8084937 Si02
#       7
#     8   8   8   8   8   8   8
#     4  10  19  29  44  68  93 117 148 184 225 269
#     4   9  17  29  45  65  90 118 147 182 224 267
#     4  10  20  32  46  65  90 122 156 185 215 255
#     4   9  17  30  46  64  88 116 148 185 224 267
#     4   9  19  32  44  63  90 119 151 184 217 258
#     4   9  17  29  45  64  87 117 150 184 225 269
#     4   9  18  31  45  64  90 120 155 188 219 261
#
# _framework density 16.160249
#
# number of rings (size 3 to 8) (size 9 to 14) (size 15 to 20)
#    0.000    2.714    0.000    3.857    0.000    8.286 
#    0.000    0.000    0.000    0.000    0.000    1.000 
#    0.000    8.000    0.000    0.000    0.000    0.000 
#
# Total GULP energy -347050.975138 kJ/mol
# GULP energy per Si atom -12394.677684 kJ/mol
# Density = 1.612347 g / cm^3
# Si number density = 16.160249 Si / 1000 Ang^3
#
#
#
# Elastic Constant Matrix: (Units=GPa)
#
#
# Indices 1 2 3 4 5 6 
#
# 1 72.4342 38.9161 42.6207 0.0000 -12.0342 0.0000
# 2 38.9161 81.0541 48.9868 0.0000 -11.5041 0.0000
# 3 42.6207 48.9868 107.2308 0.0000 -9.0872 0.0000
# 4 0.0000 0.0000 0.0000 28.6966 0.0000 -4.2455
# 5 -12.0342 -11.5041 -9.0872 0.0000 19.0069 0.0000
# 6 0.0000 0.0000 0.0000 -4.2455 0.0000 28.3848
#
#
#
# Elastic Compliance Matrix: (Units=1/GPa)
#
#
# Indices 1 2 3 4 5 6 
#
# 1 0.021285 -0.006132 -0.005035 0.000000 0.007358 0.000000
# 2 -0.006132 0.019716 -0.006136 0.000000 0.005117 0.000000
# 3 -0.005035 -0.006136 0.014117 0.000000 -0.000153 0.000000
# 4 0.000000 0.000000 0.000000 0.035636 0.000000 0.005330
# 5 0.007358 0.005117 -0.000153 0.000000 0.060295 0.000000
# 6 0.000000 0.000000 0.000000 0.005330 0.000000 0.036027
#
#
# Mechanical properties :
#
#
# Convention : Reuss Voigt Hill
#
# Bulk Modulus (GPa) = 48.75216 57.97404 53.36310
# Shear Modulus (GPa) = 21.87969 23.89737 22.88853
#
# Velocity S-wave (km/s) = 3.68356 3.84966 3.76752
# Velocity P-wave (km/s) = 6.95161 7.46406 7.21239
#
# Compressibility (1/GPa) = 0.02051191
#
# Stress axis : x y z
#
# Youngs Moduli (GPa) = 46.98045 50.71903 70.83474
#
# Poissons Ratio (x) = 0.31102 0.35668
# Poissons Ratio (y) = 0.28809 0.43466
# Poissons Ratio (z) = 0.23656 0.31122
#
# Static dielectric constant tensor:
#      x y z
#    x 3.139770 0.000000 -0.335890 
#    y 0.000000 3.188440 0.000000 
#    z -0.335890 0.000000 3.471210 
# 
# 
# High freq. dielectric constant tensor:
#      x y z
#    x 1.592820 0.000000 -0.022340 
#    y 0.000000 1.631870 0.000000 
#    z -0.022340 0.000000 1.608010 
# 
# From -- ./inp_files/291677.got.cif
#   From: 2010.06.25/outbox.cif.g09.slc.cpg/sg12_146_cif.got.tgz:291677.got - 2010.06.28 00:19:55.
