data_PCOD8084610
_publ_section_title
;
Structure prediction by ZEFSAII (Michael W. Deem and Ramdas Pophale) SiO2 
 PCOD8084610
Probable space group: C 2/M
;
_chemical_formula_sum "Si O2"
_cell_formula_units_Z 52
_cell_length_a 5.659343
_cell_length_b 26.638340
_cell_length_c 16.447275
_cell_angle_alpha 90.000000
_cell_angle_beta 71.781656
_cell_angle_gamma 90.000000
_cell_volume 2355.223988
_symmetry_space_group_name_H-M "C 2/M"
_symmetry_group_IT_number 12
_symmetry_cell_setting 'monoclinic'
loop_
_space_group_symop_operation_xyz
x,y,z
-x,y,-z
-x,-y,-z
x,-y,z
1/2+x,1/2+y,z
1/2-x,1/2+y,-z
1/2-x,1/2-y,-z
1/2+x,1/2-y,z
loop_
_atom_site_type_symbol
_atom_site_label
_atom_site_fract_x
_atom_site_fract_y
_atom_site_fract_z
Si Si1 0.561429 0.054861 0.372496
Si Si2 0.768835 0.856413 0.581555
Si Si3 0.470256 0.393729 0.721995
Si Si4 0.238149 0.846841 0.838485
Si Si5 0.470466 0.221071 0.298801
Si Si6 0.000000 0.219105 0.000000
Si Si7 0.506475 0.055396 0.812301
O O1 0.372517 0.093809 0.436450
O O2 0.844692 0.072111 0.352204
O O3 0.517077 0.053441 0.281597
O O4 0.519185 0.000000 0.416345
O O5 0.585053 0.808928 0.610028
O O6 0.000000 0.843729 0.500000
O O7 0.831888 0.861191 0.669976
O O8 0.598067 0.355003 0.768592
O O9 0.293026 0.429264 0.796560
O O10 0.473652 0.813333 0.787114
O O11 0.325585 0.900927 0.867043
O O12 0.063415 0.817405 0.919013
O O13 0.723713 0.249930 0.295668
O O14 0.750000 0.250000 0.000000
O O15 0.448824 0.000000 0.856562
#
# Coordination Sequence:
#
# PCOD8084610 Si02
#       7
#     8   8   8   8   8   4   8
#     4   9  18  35  59  92 127 172 224 276 341 406
#     4  11  24  40  59  91 132 173 228 290 339 399
#     4  10  18  38  65  92 132 180 220 273 339 405
#     4  11  23  44  70  99 137 173 222 279 343 409
#     4  12  25  43  68  91 123 173 226 274 336 399
#     4  12  30  48  75 112 143 178 230 290 344 400
#     4   9  18  34  66 100 131 173 223 269 331 414
#
# _framework density 22.078579999999999
#
# number of rings (size 3 to 8) (size 9 to 14) (size 15 to 20)
#    0.000    1.538    4.615    2.308    2.154    2.769 
#    0.000    1.154    0.000    0.923    0.000    0.000 
#    0.000    0.000    0.000    0.000    0.000    0.000 
#
# Total GULP energy -322094.614864 kJ/mol
# GULP energy per Si atom -12388.254418 kJ/mol
# Density = 2.202833 g / cm^3
# Si number density = 22.078580 Si / 1000 Ang^3
#
#
#
# Elastic Constant Matrix: (Units=GPa)
#
#
# Indices 1 2 3 4 5 6 
#
# 1 121.4980 57.1064 25.6616 0.0000 -20.4260 0.0000
# 2 57.1064 159.1850 55.6472 0.0000 -25.4165 0.0000
# 3 25.6616 55.6472 82.7699 0.0000 -30.4629 0.0000
# 4 0.0000 0.0000 0.0000 9.9790 0.0000 -22.6462
# 5 -20.4260 -25.4165 -30.4629 0.0000 31.0840 0.0000
# 6 0.0000 0.0000 0.0000 -22.6462 0.0000 31.5980
#
#
#
# Elastic Compliance Matrix: (Units=1/GPa)
#
#
# Indices 1 2 3 4 5 6 
#
# 1 0.010412 -0.003207 0.000752 0.000000 0.004957 0.000000
# 2 -0.003207 0.009283 -0.005051 0.000000 0.000534 0.000000
# 3 0.000752 -0.005051 0.021752 0.000000 0.017682 0.000000
# 4 0.000000 0.000000 0.000000 -0.159962 0.000000 -0.114644
# 5 0.004957 0.000534 0.017682 0.000000 0.053193 0.000000
# 6 0.000000 0.000000 0.000000 -0.114644 0.000000 -0.050518
#
#
# Mechanical properties :
#
#
# Convention : Reuss Voigt Hill
#
# Bulk Modulus (GPa) = 37.82572 71.14260 54.48416
# Shear Modulus (GPa) = -54.33809 29.53471 -12.40169
#
# Velocity S-wave (km/s) = -4.96635 3.66144 -2.37261
# Velocity P-wave (km/s) = 3.96443 7.08288 4.15033
#
# Compressibility (1/GPa) = 0.02643704
#
# Stress axis : x y z
#
# Youngs Moduli (GPa) = 96.03939 107.72157 45.97359
#
# Poissons Ratio (x) = 0.34545 -0.03459
# Poissons Ratio (y) = 0.30798 0.23219
# Poissons Ratio (z) = -0.07225 0.54406
#
# Static dielectric constant tensor:
#      x y z
#    x 4.515680 0.000000 -0.295750 
#    y 0.000000 4.640400 0.000000 
#    z -0.295750 0.000000 3.520570 
# 
# 
# High freq. dielectric constant tensor:
#      x y z
#    x 1.880000 0.000000 -0.020300 
#    y 0.000000 1.885840 0.000000 
#    z -0.020300 0.000000 1.822180 
# 
# From -- ./inp_files/253441.got.cif
#   From: 2010.06.25/outbox.cif.g09.slc.cpg/sg12_127_cif.got.tgz:253441.got - 2010.06.28 00:19:55.
