data_PCOD8084533
_publ_section_title
;
Structure prediction by ZEFSAII (Michael W. Deem and Ramdas Pophale) SiO2 
 PCOD8084533
Probable space group: C 2/M
;
_chemical_formula_sum "Si O2"
_cell_formula_units_Z 48
_cell_length_a 15.533219
_cell_length_b 10.885868
_cell_length_c 22.563395
_cell_angle_alpha 90.000000
_cell_angle_beta 35.560648
_cell_angle_gamma 90.000000
_cell_volume 2218.844015
_symmetry_space_group_name_H-M "C 2/M"
_symmetry_group_IT_number 12
_symmetry_cell_setting 'monoclinic'
loop_
_space_group_symop_operation_xyz
x,y,z
-x,y,-z
-x,-y,-z
x,-y,z
1/2+x,1/2+y,z
1/2-x,1/2+y,-z
1/2-x,1/2-y,-z
1/2+x,1/2-y,z
loop_
_atom_site_type_symbol
_atom_site_label
_atom_site_fract_x
_atom_site_fract_y
_atom_site_fract_z
Si Si1 0.546828 0.500000 0.040791
Si Si2 0.602985 0.637096 0.698123
Si Si3 0.109024 0.743830 0.494555
Si Si4 0.601346 0.237036 0.277610
Si Si5 0.935442 0.500000 0.190812
Si Si6 0.642836 0.000000 0.179709
Si Si7 0.170359 0.000000 0.419600
Si Si8 0.901692 0.754040 0.173939
O O1 0.490025 0.372337 0.100914
O O2 0.500000 0.500000 0.000000
O O3 0.724016 0.500000 0.942998
O O4 0.574101 0.500000 0.737153
O O5 0.758892 0.644298 0.576341
O O6 0.461463 0.671492 0.737167
O O7 0.627098 0.725218 0.740694
O O8 0.000000 0.722651 0.500000
O O9 0.021029 0.720887 0.603838
O O10 0.192898 0.876406 0.445855
O O11 0.753279 0.281258 0.222064
O O12 0.648420 0.112268 0.220741
O O13 0.760062 0.500000 0.306599
O O14 0.987301 0.621734 0.124949
O O15 0.996235 0.500000 0.223604
O O16 0.000000 0.000000 0.500000
#
# Coordination Sequence:
#
# PCOD8084533 Si02
#       8
#     4   8   8   8   4   4   4   8
#     4  12  26  50  79 107 137 185 240 307 379 433
#     4  12  26  43  64 106 145 184 241 295 352 425
#     4  11  22  39  66  99 142 196 243 281 350 423
#     4  12  25  43  70 101 139 194 236 299 348 430
#     4  12  24  46  70 109 145 188 239 293 354 437
#     4  12  26  48  76  99 140 184 246 298 373 430
#     4  10  18  36  65  98 143 186 230 280 337 417
#     4  12  24  47  76 102 142 187 237 297 366 427
#
# _framework density 21.632885999999999
#
# number of rings (size 3 to 8) (size 9 to 14) (size 15 to 20)
#    0.000    0.333    7.500    1.500    3.500    1.000 
#    0.000    0.417    0.000    0.000    0.000    0.000 
#    0.000    0.000    0.000    0.000    0.000    0.000 
#
# Total GULP energy -297436.292711 kJ/mol
# GULP energy per Si atom -12393.178863 kJ/mol
# Density = 2.158365 g / cm^3
# Si number density = 21.632886 Si / 1000 Ang^3
#
#
#
# Elastic Constant Matrix: (Units=GPa)
#
#
# Indices 1 2 3 4 5 6 
#
# 1 122.9132 44.3141 7.8557 -0.0001 7.7836 0.0000
# 2 44.3141 148.8493 50.5460 0.0000 -2.4693 0.0000
# 3 7.8557 50.5460 86.4894 -0.0003 5.9409 0.0001
# 4 -0.0001 0.0000 -0.0003 26.8098 0.0002 6.0114
# 5 7.7836 -2.4693 5.9409 0.0002 19.1654 -0.0001
# 6 0.0000 0.0000 0.0001 6.0114 -0.0001 30.4998
#
#
#
# Elastic Compliance Matrix: (Units=1/GPa)
#
#
# Indices 1 2 3 4 5 6 
#
# 1 0.009582 -0.003428 0.001462 0.000000 -0.004786 0.000000
# 2 -0.003428 0.009743 -0.005685 0.000000 0.004410 0.000000
# 3 0.001462 -0.005685 0.015166 0.000000 -0.006027 0.000000
# 4 0.000000 0.000000 0.000000 0.039024 -0.000001 -0.007692
# 5 -0.004786 0.004410 -0.006027 -0.000001 0.056558 0.000000
# 6 0.000000 0.000000 0.000000 -0.007692 0.000000 0.034303
#
#
# Mechanical properties :
#
#
# Convention : Reuss Voigt Hill
#
# Bulk Modulus (GPa) = 52.11894 62.63149 57.37522
# Shear Modulus (GPa) = 26.87102 32.33075 29.60088
#
# Velocity S-wave (km/s) = 3.52822 3.87009 3.70310
# Velocity P-wave (km/s) = 6.38299 6.99893 6.69804
#
# Compressibility (1/GPa) = 0.01918688
#
# Stress axis : x y z
#
# Youngs Moduli (GPa) = 104.36749 102.64142 65.93732
#
# Poissons Ratio (x) = 0.35190 -0.09641
# Poissons Ratio (y) = 0.35782 0.37487
# Poissons Ratio (z) = -0.15260 0.58355
#
# Static dielectric constant tensor:
#      x y z
#    x 4.060390 0.000000 -0.211610 
#    y 0.000000 5.026620 0.000000 
#    z -0.211610 0.000000 5.069820 
# 
# 
# High freq. dielectric constant tensor:
#      x y z
#    x 1.858730 0.000000 -0.002790 
#    y 0.000000 1.861640 0.000000 
#    z -0.002790 0.000000 1.830230 
# 
# From -- ./inp_files/310248.got.cif
#   From: 2010.06.25/outbox.cif.g09.slc.cpg/sg12_156_cif.got.tgz:310248.got - 2010.06.28 00:19:55.
