data_PCOD8084238
_publ_section_title
;
Structure prediction by ZEFSAII (Michael W. Deem and Ramdas Pophale) SiO2 
 PCOD8084238
Probable space group: C 2/M
;
_chemical_formula_sum "Si O2"
_cell_formula_units_Z 56
_cell_length_a 30.335879
_cell_length_b 8.978436
_cell_length_c 11.726113
_cell_angle_alpha 90.000000
_cell_angle_beta 63.709731
_cell_angle_gamma 90.000000
_cell_volume 2863.462609
_symmetry_space_group_name_H-M "C 2/M"
_symmetry_group_IT_number 12
_symmetry_cell_setting 'monoclinic'
loop_
_space_group_symop_operation_xyz
x,y,z
-x,y,-z
-x,-y,-z
x,-y,z
1/2+x,1/2+y,z
1/2-x,1/2+y,-z
1/2-x,1/2-y,-z
1/2+x,1/2-y,z
loop_
_atom_site_type_symbol
_atom_site_label
_atom_site_fract_x
_atom_site_fract_y
_atom_site_fract_z
Si Si1 0.735665 0.172289 0.185359
Si Si2 0.708728 0.825076 0.471932
Si Si3 0.578298 0.675798 0.176919
Si Si4 0.508070 0.824588 0.861275
Si Si5 0.558157 0.170442 0.428541
Si Si6 0.100158 0.676003 0.617237
Si Si7 0.323398 0.826940 0.970591
O O1 0.714381 0.216650 0.332599
O O2 0.694142 0.206222 0.138483
O O3 0.751479 0.000000 0.161539
O O4 0.783234 0.272286 0.107336
O O5 0.750000 0.750000 0.500000
O O6 0.655440 0.764346 0.575242
O O7 0.713221 0.000000 0.485117
O O8 0.578022 0.500000 0.167686
O O9 0.529911 0.739330 0.173854
O O10 0.579745 0.725819 0.305972
O O11 0.626625 0.739262 0.059799
O O12 0.563422 0.776756 0.761413
O O13 0.499718 0.000000 0.852713
O O14 0.500000 0.775507 0.000000
O O15 0.500000 0.179765 0.500000
O O16 0.579468 0.236887 0.521328
O O17 0.575261 0.000000 0.386547
O O18 0.101941 0.500000 0.604737
O O19 0.333105 0.000000 0.980492
#
# Coordination Sequence:
#
# PCOD8084238 Si02
#       7
#     8   8   8   8   8   8   8
#     4   9  19  37  58  83 114 146 187 247 305 342
#     4  10  21  37  57  81 114 153 195 237 286 341
#     4  12  24  36  54  85 125 155 185 231 290 352
#     4  10  21  39  61  83 110 150 202 244 279 336
#     4  10  18  34  62  86 110 146 194 242 288 342
#     4   9  18  36  60  85 112 147 189 242 291 334
#     4  10  20  36  61  86 112 148 192 235 287 354
#
# _framework density 19.556740999999999
#
# number of rings (size 3 to 8) (size 9 to 14) (size 15 to 20)
#    0.000    2.000    1.429    2.571    0.000    5.143 
#    0.000    4.286    0.000    0.000    0.000    0.000 
#    0.000    0.000    0.000    0.000    0.000    0.000 
#
# Total GULP energy -347252.266822 kJ/mol
# GULP energy per Si atom -12401.866672 kJ/mol
# Density = 1.951223 g / cm^3
# Si number density = 19.556741 Si / 1000 Ang^3
#
#
#
# Elastic Constant Matrix: (Units=GPa)
#
#
# Indices 1 2 3 4 5 6 
#
# 1 136.5945 37.5426 68.1944 0.0000 -19.7299 0.0000
# 2 37.5426 54.5864 42.9720 0.0000 -9.2779 0.0000
# 3 68.1944 42.9720 133.2725 0.0000 -14.2148 0.0000
# 4 0.0000 0.0000 0.0000 24.8953 0.0000 -4.9897
# 5 -19.7299 -9.2779 -14.2148 0.0000 29.0565 0.0000
# 6 0.0000 0.0000 0.0000 -4.9897 0.0000 26.1300
#
#
#
# Elastic Compliance Matrix: (Units=1/GPa)
#
#
# Indices 1 2 3 4 5 6 
#
# 1 0.010923 -0.003674 -0.003944 0.000000 0.004314 0.000000
# 2 -0.003674 0.026279 -0.006293 0.000000 0.002818 0.000000
# 3 -0.003944 -0.006293 0.011659 0.000000 0.001016 0.000000
# 4 0.000000 0.000000 0.000000 0.041767 0.000000 0.007976
# 5 0.004314 0.002818 0.001016 0.000000 0.038742 0.000000
# 6 0.000000 0.000000 0.000000 0.007976 0.000000 0.039793
#
#
# Mechanical properties :
#
#
# Convention : Reuss Voigt Hill
#
# Bulk Modulus (GPa) = 47.53111 69.09683 58.31397
# Shear Modulus (GPa) = 24.50984 27.73264 26.12124
#
# Velocity S-wave (km/s) = 3.54399 3.76980 3.65864
# Velocity P-wave (km/s) = 6.41120 7.37270 6.90870
#
# Compressibility (1/GPa) = 0.02103885
#
# Stress axis : x y z
#
# Youngs Moduli (GPa) = 91.54849 38.05259 85.76899
#
# Poissons Ratio (x) = 0.13981 0.33831
# Poissons Ratio (y) = 0.33636 0.53974
# Poissons Ratio (z) = 0.36111 0.23946
#
# Static dielectric constant tensor:
#      x y z
#    x 3.667530 0.000000 -0.163810 
#    y 0.000000 3.327770 0.000000 
#    z -0.163810 0.000000 3.721490 
# 
# 
# High freq. dielectric constant tensor:
#      x y z
#    x 1.767920 0.000000 -0.012730 
#    y 0.000000 1.735410 0.000000 
#    z -0.012730 0.000000 1.767060 
# 
# From -- ./inp_files/186362.got.cif
#   From: 2010.06.25/outbox.cif.g09.slc.cpg/sg12_94_cif.got.tgz:186362.got - 2010.06.28 00:19:55.
