data_PCOD8084302
_publ_section_title
;
Structure prediction by ZEFSAII (Michael W. Deem and Ramdas Pophale) SiO2 
 PCOD8084302
Probable space group: C 2/M
;
_chemical_formula_sum "Si O2"
_cell_formula_units_Z 36
_cell_length_a 14.403082
_cell_length_b 18.832867
_cell_length_c 9.244728
_cell_angle_alpha 90.000000
_cell_angle_beta 127.452910
_cell_angle_gamma 90.000000
_cell_volume 1990.702302
_symmetry_space_group_name_H-M "C 2/M"
_symmetry_group_IT_number 12
_symmetry_cell_setting 'monoclinic'
loop_
_space_group_symop_operation_xyz
x,y,z
-x,y,-z
-x,-y,-z
x,-y,z
1/2+x,1/2+y,z
1/2-x,1/2+y,-z
1/2-x,1/2-y,-z
1/2+x,1/2-y,z
loop_
_atom_site_type_symbol
_atom_site_label
_atom_site_fract_x
_atom_site_fract_y
_atom_site_fract_z
Si Si1 0.200096 0.825915 0.485818
Si Si2 0.811485 0.081216 0.103301
Si Si3 0.361908 0.840021 0.877375
Si Si4 0.135314 0.178461 0.116692
Si Si5 0.500000 0.633706 0.500000
O O1 0.250000 0.750000 0.500000
O O2 0.301077 0.867589 0.670127
O O3 0.177456 0.859721 0.306038
O O4 0.080600 0.819604 0.468196
O O5 0.687570 0.110022 0.043747
O O6 0.914902 0.086187 0.319871
O O7 0.797295 0.000000 0.043417
O O8 0.836378 0.126696 0.985718
O O9 0.316034 0.758902 0.861192
O O10 0.500000 0.849297 0.000000
O O11 0.000000 0.191558 0.000000
#
# Coordination Sequence:
#
# PCOD8084302 Si02
#       5
#     8   8   8   8   4
#     4   9  18  34  55  83 108 142 181 229 277 319
#     4  11  22  35  55  82 113 150 183 224 278 330
#     4   9  20  37  58  78 108 145 189 227 269 325
#     4  10  18  35  56  83 111 136 183 234 280 318
#     4  10  19  36  54  80 114 146 185 226 269 334
#
# _framework density 18.084070000000001
#
# number of rings (size 3 to 8) (size 9 to 14) (size 15 to 20)
#    0.000    2.222    2.222    1.000    0.000    0.889 
#    0.000    1.111    0.000    1.333    0.000    0.000 
#    0.000    0.000    0.000    0.000    0.000    0.000 
#
# Total GULP energy -222987.069728 kJ/mol
# GULP energy per Si atom -12388.170540 kJ/mol
# Density = 1.804291 g / cm^3
# Si number density = 18.084070 Si / 1000 Ang^3
#
#
#
# Elastic Constant Matrix: (Units=GPa)
#
#
# Indices 1 2 3 4 5 6 
#
# 1 98.6539 31.5249 43.5240 0.0000 5.3086 0.0000
# 2 31.5249 67.5266 27.2455 0.0000 -0.3379 0.0000
# 3 43.5240 27.2455 111.2882 0.0000 -9.9771 0.0000
# 4 0.0000 0.0000 0.0000 16.7822 0.0000 0.6122
# 5 5.3086 -0.3379 -9.9771 0.0000 30.7753 0.0000
# 6 0.0000 0.0000 0.0000 0.6122 0.0000 3.9948
#
#
#
# Elastic Compliance Matrix: (Units=1/GPa)
#
#
# Indices 1 2 3 4 5 6 
#
# 1 0.013878 -0.004622 -0.004650 0.000000 -0.003952 0.000000
# 2 -0.004622 0.018012 -0.002588 0.000000 0.000156 0.000000
# 3 -0.004650 -0.002588 0.011852 0.000000 0.004616 0.000000
# 4 0.000000 0.000000 0.000000 0.059922 0.000000 -0.009183
# 5 -0.003952 0.000156 0.004616 0.000000 0.034674 0.000000
# 6 0.000000 0.000000 0.000000 -0.009183 0.000000 0.251734
#
#
# Mechanical properties :
#
#
# Convention : Reuss Voigt Hill
#
# Bulk Modulus (GPa) = 49.94880 53.56195 51.75538
# Shear Modulus (GPa) = 11.89160 21.98874 16.94017
#
# Velocity S-wave (km/s) = 2.56710 3.49078 3.06395
# Velocity P-wave (km/s) = 6.03879 6.77717 6.41861
#
# Compressibility (1/GPa) = 0.02002050
#
# Stress axis : x y z
#
# Youngs Moduli (GPa) = 72.05777 55.51890 84.37607
#
# Poissons Ratio (x) = 0.25663 0.39236
# Poissons Ratio (y) = 0.33308 0.21836
# Poissons Ratio (z) = 0.33508 0.14368
#
# Static dielectric constant tensor:
#      x y z
#    x 3.330470 0.000000 -0.141660 
#    y 0.000000 3.038600 0.000000 
#    z -0.141660 0.000000 4.170600 
# 
# 
# High freq. dielectric constant tensor:
#      x y z
#    x 1.702470 0.000000 -0.003480 
#    y 0.000000 1.661200 0.000000 
#    z -0.003480 0.000000 1.719730 
# 
# From -- ./inp_files/48964.got.cif
#   From: 2010.06.25/outbox.cif.g09.slc.cpg/sg12_25_cif.got.tgz:48964.got - 2010.06.28 00:19:55.
