data_PCOD8084570
_publ_section_title
;
Structure prediction by ZEFSAII (Michael W. Deem and Ramdas Pophale) SiO2 
 PCOD8084570
Probable space group: C 2/M
;
_chemical_formula_sum "Si O2"
_cell_formula_units_Z 56
_cell_length_a 18.157799
_cell_length_b 17.603589
_cell_length_c 18.369923
_cell_angle_alpha 90.000000
_cell_angle_beta 30.086011
_cell_angle_gamma 90.000000
_cell_volume 2943.533786
_symmetry_space_group_name_H-M "C 2/M"
_symmetry_group_IT_number 12
_symmetry_cell_setting 'monoclinic'
loop_
_space_group_symop_operation_xyz
x,y,z
-x,y,-z
-x,-y,-z
x,-y,z
1/2+x,1/2+y,z
1/2-x,1/2+y,-z
1/2-x,1/2-y,-z
1/2+x,1/2-y,z
loop_
_atom_site_type_symbol
_atom_site_label
_atom_site_fract_x
_atom_site_fract_y
_atom_site_fract_z
Si Si1 0.831464 0.137862 0.560726
Si Si2 0.396809 0.829824 0.022855
Si Si3 0.663337 0.334309 0.866691
Si Si4 0.647797 0.412838 0.296978
Si Si5 0.132399 0.298952 0.437577
Si Si6 0.029705 0.413621 0.778542
Si Si7 0.056345 0.587696 0.310610
O O1 0.811225 0.132972 0.665205
O O2 0.829292 0.227778 0.542975
O O3 0.705861 0.094568 0.623446
O O4 0.983102 0.098066 0.409217
O O5 0.355727 0.741734 0.068545
O O6 0.250551 0.880653 0.145851
O O7 0.500000 0.858270 0.000000
O O8 0.474612 0.847930 0.880067
O O9 0.724467 0.319560 0.732870
O O10 0.778823 0.388305 0.808464
O O11 0.500000 0.371890 0.000000
O O12 0.678915 0.500000 0.286880
O O13 0.000000 0.270080 0.500000
O O14 0.073256 0.369545 0.535103
O O15 0.991012 0.500000 0.836542
O O16 0.959481 0.396072 0.760916
O O17 0.034793 0.500000 0.348404
#
# Coordination Sequence:
#
# PCOD8084570 Si02
#       7
#     8   8   8   8   8   8   8
#     4  11  18  33  52  81 112 148 188 233 276 323
#     4  11  20  35  56  84 118 154 193 228 278 344
#     4  10  20  38  63  88 110 138 186 250 294 338
#     4  11  19  28  49  82 113 148 190 232 268 317
#     4  10  18  37  62  82 111 145 189 244 286 336
#     4  11  23  38  55  81 124 162 190 227 274 341
#     4  10  24  42  59  83 113 151 194 236 293 349
#
# _framework density 19.024751999999999
#
# number of rings (size 3 to 8) (size 9 to 14) (size 15 to 20)
#    0.000    1.429    4.286    3.857    0.000    4.571 
#    0.000    1.429    0.000    3.429    0.000    0.000 
#    0.000    0.000    0.000    0.000    0.000    0.000 
#
# Total GULP energy -347159.394251 kJ/mol
# GULP energy per Si atom -12398.549795 kJ/mol
# Density = 1.898145 g / cm^3
# Si number density = 19.024752 Si / 1000 Ang^3
#
#
#
# Elastic Constant Matrix: (Units=GPa)
#
#
# Indices 1 2 3 4 5 6 
#
# 1 69.3213 37.5321 24.3579 -0.0007 -2.3945 0.0027
# 2 37.5321 109.0105 27.3677 0.0016 8.7330 0.0020
# 3 24.3579 27.3677 88.5148 0.0046 -6.3117 0.0016
# 4 -0.0007 0.0016 0.0046 27.9307 0.0005 1.5846
# 5 -2.3945 8.7330 -6.3117 0.0005 21.6060 -0.0027
# 6 0.0027 0.0020 0.0016 1.5846 -0.0027 21.6079
#
#
#
# Elastic Compliance Matrix: (Units=1/GPa)
#
#
# Indices 1 2 3 4 5 6 
#
# 1 0.018894 -0.006023 -0.003078 0.000001 0.003629 -0.000001
# 2 -0.006023 0.012429 -0.002647 0.000000 -0.006465 -0.000001
# 3 -0.003078 -0.002647 0.013292 -0.000002 0.004611 0.000000
# 4 0.000001 0.000000 -0.000002 0.035953 -0.000002 -0.002637
# 5 0.003629 -0.006465 0.004611 -0.000002 0.050646 0.000006
# 6 -0.000001 -0.000001 0.000000 -0.002637 0.000006 0.046473
#
#
# Mechanical properties :
#
#
# Convention : Reuss Voigt Hill
#
# Bulk Modulus (GPa) = 47.35017 49.48468 48.41742
# Shear Modulus (GPa) = 24.01296 26.06816 25.04056
#
# Velocity S-wave (km/s) = 3.55659 3.70567 3.63190
# Velocity P-wave (km/s) = 6.46595 6.66157 6.56449
#
# Compressibility (1/GPa) = 0.02111925
#
# Stress axis : x y z
#
# Youngs Moduli (GPa) = 52.92821 80.45412 75.23467
#
# Poissons Ratio (x) = 0.48457 0.23159
# Poissons Ratio (y) = 0.31878 0.19911
# Poissons Ratio (z) = 0.16292 0.21293
#
# Static dielectric constant tensor:
#      x y z
#    x 3.173440 -0.000010 -0.159250 
#    y -0.000010 3.404920 0.000020 
#    z -0.159250 0.000020 3.754600 
# 
# 
# High freq. dielectric constant tensor:
#      x y z
#    x 1.700710 0.000000 -0.012400 
#    y 0.000000 1.741810 0.000000 
#    z -0.012400 0.000000 1.751460 
# 
# From -- ./inp_files/317142.got.cif
#   From: 2010.06.25/outbox.cif.g09.slc.cpg/sg12_159_cif.got.tgz:317142.got - 2010.06.28 00:19:55.
