data_PCOD8084560
_publ_section_title
;
Structure prediction by ZEFSAII (Michael W. Deem and Ramdas Pophale) SiO2 
 PCOD8084560
Probable space group: C 2/M
;
_chemical_formula_sum "Si O2"
_cell_formula_units_Z 56
_cell_length_a 9.317414
_cell_length_b 28.781426
_cell_length_c 16.796467
_cell_angle_alpha 90.000000
_cell_angle_beta 38.805353
_cell_angle_gamma 90.000000
_cell_volume 2822.728668
_symmetry_space_group_name_H-M "C 2/M"
_symmetry_group_IT_number 12
_symmetry_cell_setting 'monoclinic'
loop_
_space_group_symop_operation_xyz
x,y,z
-x,y,-z
-x,-y,-z
x,-y,z
1/2+x,1/2+y,z
1/2-x,1/2+y,-z
1/2-x,1/2-y,-z
1/2+x,1/2-y,z
loop_
_atom_site_type_symbol
_atom_site_label
_atom_site_fract_x
_atom_site_fract_y
_atom_site_fract_z
Si Si1 0.666871 0.818808 0.271495
Si Si2 0.106659 0.398493 0.539257
Si Si3 0.398196 0.628575 0.697807
Si Si4 0.909024 0.626676 0.847247
Si Si5 0.586998 0.620765 0.128089
Si Si6 0.508721 0.272108 0.589790
Si Si7 0.241570 0.446292 0.205765
O O1 0.459138 0.846638 0.403550
O O2 0.638004 0.828069 0.188641
O O3 0.670644 0.765470 0.297437
O O4 0.906041 0.837935 0.199296
O O5 0.382424 0.403048 0.420688
O O6 0.000000 0.407901 0.500000
O O7 0.995545 0.437229 0.644443
O O8 0.326050 0.617558 0.819338
O O9 0.466050 0.682154 0.659238
O O10 0.181257 0.617172 0.735758
O O11 0.780173 0.581760 0.867269
O O12 0.802818 0.634144 0.980057
O O13 0.462076 0.572420 0.158706
O O14 0.500000 0.282923 0.500000
O O15 0.750000 0.250000 0.500000
O O16 0.275838 0.500000 0.172097
#
# Coordination Sequence:
#
# PCOD8084560 Si02
#       7
#     8   8   8   8   8   8   8
#     4  10  19  37  58  85 113 157 209 244 281 330
#     4  10  18  37  60  87 118 152 187 240 296 357
#     4  12  22  37  58  89 124 155 192 241 303 352
#     4  10  23  39  59  86 121 158 194 242 303 347
#     4  10  21  41  62  80 118 162 201 238 285 357
#     4  12  23  34  57  89 121 154 205 247 285 347
#     4  10  22  40  68  91 109 148 200 246 290 358
#
# _framework density 19.83896
#
# number of rings (size 3 to 8) (size 9 to 14) (size 15 to 20)
#    0.000    1.714    4.286    4.286    2.000    1.429 
#    0.000    6.429    0.000    1.714    0.000    0.000 
#    0.000    0.000    0.000    0.000    0.000    0.000 
#
# Total GULP energy -347109.935867 kJ/mol
# GULP energy per Si atom -12396.783424 kJ/mol
# Density = 1.979381 g / cm^3
# Si number density = 19.838960 Si / 1000 Ang^3
#
#
#
# Elastic Constant Matrix: (Units=GPa)
#
#
# Indices 1 2 3 4 5 6 
#
# 1 78.9672 9.1073 4.6668 0.0000 5.0801 0.0000
# 2 9.1073 83.7545 7.9377 0.0000 2.4174 0.0000
# 3 4.6668 7.9377 77.4336 0.0000 13.4822 0.0000
# 4 0.0000 0.0000 0.0000 8.4746 0.0000 1.8285
# 5 5.0801 2.4174 13.4822 0.0000 38.0095 0.0000
# 6 0.0000 0.0000 0.0000 1.8285 0.0000 10.2673
#
#
#
# Elastic Compliance Matrix: (Units=1/GPa)
#
#
# Indices 1 2 3 4 5 6 
#
# 1 0.012936 -0.001327 -0.000381 0.000000 -0.001509 0.000000
# 2 -0.001327 0.012197 -0.001136 0.000000 -0.000195 0.000000
# 3 -0.000381 -0.001136 0.013890 0.000000 -0.004804 0.000000
# 4 0.000000 0.000000 0.000000 0.122715 0.000000 -0.021854
# 5 -0.001509 -0.000195 -0.004804 0.000000 0.028227 0.000000
# 6 0.000000 0.000000 0.000000 -0.021854 0.000000 0.101289
#
#
# Mechanical properties :
#
#
# Convention : Reuss Voigt Hill
#
# Bulk Modulus (GPa) = 29.99825 31.50876 30.75350
# Shear Modulus (GPa) = 16.23088 25.91318 21.07203
#
# Velocity S-wave (km/s) = 2.86340 3.61803 3.26261
# Velocity P-wave (km/s) = 5.10743 5.77670 5.45234
#
# Compressibility (1/GPa) = 0.03333527
#
# Stress axis : x y z
#
# Youngs Moduli (GPa) = 77.30281 81.98551 71.99361
#
# Poissons Ratio (x) = 0.10879 0.02741
# Poissons Ratio (y) = 0.10258 0.08181
# Poissons Ratio (z) = 0.02944 0.09316
#
# Static dielectric constant tensor:
#      x y z
#    x 3.605630 0.000000 0.080310 
#    y 0.000000 3.453590 0.000000 
#    z 0.080310 0.000000 3.743080 
# 
# 
# High freq. dielectric constant tensor:
#      x y z
#    x 1.778320 0.000000 0.005410 
#    y 0.000000 1.736300 0.000000 
#    z 0.005410 0.000000 1.783790 
# 
# From -- ./inp_files/260101.got.cif
#   From: 2010.06.25/outbox.cif.g09.slc.cpg/sg12_131_cif.got.tgz:260101.got - 2010.06.28 00:19:55.
