data_PCOD8084719
_publ_section_title
;
Structure prediction by ZEFSAII (Michael W. Deem and Ramdas Pophale) SiO2 
 PCOD8084719
Probable space group: C 2/M
;
_chemical_formula_sum "Si O2"
_cell_formula_units_Z 64
_cell_length_a 18.971554
_cell_length_b 9.081155
_cell_length_c 28.678142
_cell_angle_alpha 90.000000
_cell_angle_beta 135.462660
_cell_angle_gamma 90.000000
_cell_volume 3465.330284
_symmetry_space_group_name_H-M "C 2/M"
_symmetry_group_IT_number 12
_symmetry_cell_setting 'monoclinic'
loop_
_space_group_symop_operation_xyz
x,y,z
-x,y,-z
-x,-y,-z
x,-y,z
1/2+x,1/2+y,z
1/2-x,1/2+y,-z
1/2-x,1/2-y,-z
1/2+x,1/2-y,z
loop_
_atom_site_type_symbol
_atom_site_label
_atom_site_fract_x
_atom_site_fract_y
_atom_site_fract_z
Si Si1 0.951912 0.663408 0.528370
Si Si2 0.954566 0.170877 0.840366
Si Si3 0.731825 0.828515 0.202028
Si Si4 0.266673 0.172276 0.388665
Si Si5 0.452925 0.667833 0.730936
Si Si6 0.841313 0.328683 0.067998
Si Si7 0.848685 0.669595 0.180757
Si Si8 0.370008 0.669654 0.353302
O O1 0.954149 0.500000 0.551120
O O2 0.836264 0.718004 0.466002
O O3 0.000000 0.664433 0.500000
O O4 0.015895 0.767827 0.592570
O O5 0.866655 0.243020 0.828620
O O6 0.930177 0.192510 0.774605
O O7 0.057248 0.252680 0.902219
O O8 0.964466 0.000000 0.858451
O O9 0.765253 0.763889 0.168205
O O10 0.823704 0.802323 0.280806
O O11 0.705420 0.000000 0.184725
O O12 0.298229 0.255667 0.356982
O O13 0.150138 0.206303 0.345162
O O14 0.282466 0.000000 0.385312
O O15 0.487062 0.500000 0.737641
O O16 0.539671 0.774595 0.753470
O O17 0.844225 0.500000 0.055969
O O18 0.828212 0.305796 0.116829
O O19 0.750000 0.250000 0.000000
O O20 0.840596 0.500000 0.191720
O O21 0.376037 0.500000 0.369090
#
# Coordination Sequence:
#
# PCOD8084719 Si02
#       8
#     8   8   8   8   8   8   8   8
#     4   8  15  26  41  63  95 132 171 215 263 316
#     4  10  19  33  57  84 109 141 178 216 260 309
#     4  11  22  35  52  77 110 144 178 220 266 312
#     4   9  16  28  46  70  98 132 174 217 263 317
#     4   9  17  31  52  76 103 136 174 217 266 317
#     4  10  21  39  62  87 114 142 174 211 253 305
#     4  10  22  37  55  80 109 139 174 216 259 308
#     4  10  19  28  43  69 101 135 172 217 267 311
#
# _framework density 18.468658000000001
#
# number of rings (size 3 to 8) (size 9 to 14) (size 15 to 20)
#    0.000    2.375    1.250    2.625    0.000    6.250 
#    0.000    0.625    0.000    4.500    0.000    0.000 
#    0.000    0.000    0.000    0.000    0.000    0.000 
#
# Total GULP energy -396772.941376 kJ/mol
# GULP energy per Si atom -12399.154418 kJ/mol
# Density = 1.842662 g / cm^3
# Si number density = 18.468658 Si / 1000 Ang^3
#
#
#
# Elastic Constant Matrix: (Units=GPa)
#
#
# Indices 1 2 3 4 5 6 
#
# 1 80.5197 52.0761 34.5495 0.0000 16.9388 0.0000
# 2 52.0761 120.4950 60.0255 0.0000 13.8779 0.0000
# 3 34.5495 60.0255 113.4254 0.0000 29.6385 0.0000
# 4 0.0000 0.0000 0.0000 33.2245 0.0000 5.5569
# 5 16.9388 13.8779 29.6385 0.0000 21.2567 0.0000
# 6 0.0000 0.0000 0.0000 5.5569 0.0000 29.6686
#
#
#
# Elastic Compliance Matrix: (Units=1/GPa)
#
#
# Indices 1 2 3 4 5 6 
#
# 1 0.019365 -0.007627 0.001367 0.000000 -0.012358 0.000000
# 2 -0.007627 0.014305 -0.006914 0.000000 0.006378 0.000000
# 3 0.001367 -0.006914 0.017563 0.000000 -0.021063 0.000000
# 4 0.000000 0.000000 0.000000 0.031072 0.000000 -0.005820
# 5 -0.012358 0.006378 -0.021063 0.000000 0.082096 0.000000
# 6 0.000000 0.000000 0.000000 -0.005820 0.000000 0.034796
#
#
# Mechanical properties :
#
#
# Convention : Reuss Voigt Hill
#
# Bulk Modulus (GPa) = 40.18489 67.52693 53.85591
# Shear Modulus (GPa) = 21.38219 28.01590 24.69905
#
# Velocity S-wave (km/s) = 3.40627 3.89902 3.66095
# Velocity P-wave (km/s) = 6.10540 7.54402 6.86251
#
# Compressibility (1/GPa) = 0.02488497
#
# Stress axis : x y z
#
# Youngs Moduli (GPa) = 51.63871 69.90633 56.93852
#
# Poissons Ratio (x) = 0.53317 -0.07782
# Poissons Ratio (y) = 0.39384 0.39366
# Poissons Ratio (z) = -0.07057 0.48331
#
# Static dielectric constant tensor:
#      x y z
#    x 3.105410 0.000000 0.269880 
#    y 0.000000 3.504800 0.000000 
#    z 0.269880 0.000000 3.652780 
# 
# 
# High freq. dielectric constant tensor:
#      x y z
#    x 1.684610 0.000000 0.021260 
#    y 0.000000 1.725230 0.000000 
#    z 0.021260 0.000000 1.716860 
# 
# From -- ./inp_files/378358.got.cif
#   From: 2010.06.25/outbox.cif.g09.slc.cpg/sg12_190_cif.got.tgz:378358.got - 2010.06.28 00:19:55.
