data_PCOD8084997
_publ_section_title
;
Structure prediction by ZEFSAII (Michael W. Deem and Ramdas Pophale) SiO2 
 PCOD8084997
Probable space group: C 2/M
;
_chemical_formula_sum "Si O2"
_cell_formula_units_Z 48
_cell_length_a 25.225572
_cell_length_b 13.586838
_cell_length_c 9.304065
_cell_angle_alpha 90.000000
_cell_angle_beta 68.356235
_cell_angle_gamma 90.000000
_cell_volume 2964.007004
_symmetry_space_group_name_H-M "C 2/M"
_symmetry_group_IT_number 12
_symmetry_cell_setting 'monoclinic'
loop_
_space_group_symop_operation_xyz
x,y,z
-x,y,-z
-x,-y,-z
x,-y,z
1/2+x,1/2+y,z
1/2-x,1/2+y,-z
1/2-x,1/2-y,-z
1/2+x,1/2-y,z
loop_
_atom_site_type_symbol
_atom_site_label
_atom_site_fract_x
_atom_site_fract_y
_atom_site_fract_z
Si Si1 0.434574 0.886868 0.899075
Si Si2 0.934574 0.386868 0.231776
Si Si3 0.665195 0.201980 0.502593
Si Si4 0.334805 0.201980 0.832982
Si Si5 0.234623 0.889711 0.429608
Si Si6 0.734623 0.610289 0.101145
O O1 0.500000 0.861591 0.799290
O O2 0.396244 0.815000 0.841817
O O3 0.421460 0.000000 0.872726
O O4 0.420944 0.867858 0.079056
O O5 0.921460 0.500000 0.284353
O O6 0.896244 0.315000 0.365695
O O7 0.661090 0.179632 0.338910
O O8 0.711132 0.127866 0.523989
O O9 0.683582 0.314446 0.516898
O O10 0.316418 0.314446 0.884062
O O11 0.288868 0.127866 0.946253
O O12 0.254983 0.874883 0.245017
O O13 0.211517 0.000000 0.478913
O O14 0.711517 0.500000 0.098053
#
# Coordination Sequence:
#
# PCOD8084997 Si02
#       6
#     8   8   8   8   8   8
#     4   9  18  32  48  65  88 120 151 176 213 269
#     4   9  18  32  48  65  88 120 151 176 213 269
#     4  10  19  29  45  70  93 113 145 188 224 253
#     4  10  19  29  45  70  93 113 145 188 224 253
#     4   9  18  32  47  63  89 124 152 174 212 268
#     4   9  18  32  47  63  89 124 152 174 212 268
#
# _framework density 16.194293999999999
#
# number of rings (size 3 to 8) (size 9 to 14) (size 15 to 20)
#    0.000    2.667    0.000    3.000    0.000    7.333 
#    0.000    1.667    0.000    1.000    0.000    7.000 
#    0.000    0.000    0.000    0.000    0.000    0.000 
#
# Total GULP energy -297621.112652 kJ/mol
# GULP energy per Si atom -12400.879694 kJ/mol
# Density = 1.615744 g / cm^3
# Si number density = 16.194294 Si / 1000 Ang^3
#
#
#
# Elastic Constant Matrix: (Units=GPa)
#
#
# Indices 1 2 3 4 5 6 
#
# 1 115.6346 56.5031 56.3657 0.0000 4.4402 0.0000
# 2 56.5031 103.1194 49.4813 0.0000 -3.1618 0.0000
# 3 56.3657 49.4813 96.2045 0.0000 -13.1892 0.0000
# 4 0.0000 0.0000 0.0000 24.1899 0.0000 0.3145
# 5 4.4402 -3.1618 -13.1892 0.0000 26.6268 0.0000
# 6 0.0000 0.0000 0.0000 0.3145 0.0000 23.4914
#
#
#
# Elastic Compliance Matrix: (Units=1/GPa)
#
#
# Indices 1 2 3 4 5 6 
#
# 1 0.014693 -0.004902 -0.006977 0.000000 -0.006488 0.000000
# 2 -0.004902 0.014599 -0.004599 0.000000 0.000273 0.000000
# 3 -0.006977 -0.004599 0.018166 0.000000 0.009616 0.000000
# 4 0.000000 0.000000 0.000000 0.041347 0.000000 -0.000554
# 5 -0.006488 0.000273 0.009616 0.000000 0.043433 0.000000
# 6 0.000000 0.000000 0.000000 -0.000554 0.000000 0.042576
#
#
# Mechanical properties :
#
#
# Convention : Reuss Voigt Hill
#
# Bulk Modulus (GPa) = 68.95699 71.07316 70.01508
# Shear Modulus (GPa) = 23.51784 25.03551 24.27668
#
# Velocity S-wave (km/s) = 3.81495 3.93612 3.87601
# Velocity P-wave (km/s) = 7.87900 8.03993 7.95987
#
# Compressibility (1/GPa) = 0.01450179
#
# Stress axis : x y z
#
# Youngs Moduli (GPa) = 68.05840 68.49882 55.04803
#
# Poissons Ratio (x) = 0.33579 0.38406
# Poissons Ratio (y) = 0.33363 0.25317
# Poissons Ratio (z) = 0.47483 0.31503
#
# Static dielectric constant tensor:
#      x y z
#    x 2.949360 0.000000 0.057810 
#    y 0.000000 3.046250 0.000000 
#    z 0.057810 0.000000 3.077730 
# 
# 
# High freq. dielectric constant tensor:
#      x y z
#    x 1.611950 0.000000 0.006810 
#    y 0.000000 1.612710 0.000000 
#    z 0.006810 0.000000 1.627080 
# 
# From -- ./inp_files/95683.got.cif
#   From: 2010.06.25/outbox.cif.g09.slc.cpg/sg12_48_cif.got.tgz:95683.got - 2010.06.28 00:19:55.
