data_PCOD8084457
_publ_section_title
;
Structure prediction by ZEFSAII (Michael W. Deem and Ramdas Pophale) SiO2 
 PCOD8084457
Probable space group: C 2/M
;
_chemical_formula_sum "Si O2"
_cell_formula_units_Z 64
_cell_length_a 14.654659
_cell_length_b 16.475149
_cell_length_c 18.175651
_cell_angle_alpha 90.000000
_cell_angle_beta 137.539660
_cell_angle_gamma 90.000000
_cell_volume 2962.443626
_symmetry_space_group_name_H-M "C 2/M"
_symmetry_group_IT_number 12
_symmetry_cell_setting 'monoclinic'
loop_
_space_group_symop_operation_xyz
x,y,z
-x,y,-z
-x,-y,-z
x,-y,z
1/2+x,1/2+y,z
1/2-x,1/2+y,-z
1/2-x,1/2-y,-z
1/2+x,1/2-y,z
loop_
_atom_site_type_symbol
_atom_site_label
_atom_site_fract_x
_atom_site_fract_y
_atom_site_fract_z
Si Si1 0.083208 0.688607 0.453797
Si Si2 0.669515 0.323959 0.297739
Si Si3 0.629765 0.096478 0.029952
Si Si4 0.321398 0.097036 0.263637
Si Si5 0.880651 0.409451 0.138895
Si Si6 0.651714 0.845256 0.337083
Si Si7 0.560916 0.627500 0.464332
Si Si8 0.568829 0.591130 0.763859
O O1 0.212292 0.651422 0.573962
O O2 0.115035 0.706005 0.387895
O O3 0.039096 0.775649 0.457744
O O4 0.958502 0.626198 0.385883
O O5 0.696215 0.365690 0.234461
O O6 0.669842 0.226007 0.286884
O O7 0.521386 0.352764 0.236629
O O8 0.774757 0.121073 0.151179
O O9 0.610323 0.000000 0.013003
O O10 0.500000 0.130821 0.000000
O O11 0.640059 0.134239 0.952541
O O12 0.313023 0.129200 0.172897
O O13 0.317963 0.000000 0.263079
O O14 0.824843 0.500000 0.099062
O O15 0.041575 0.410576 0.247911
O O16 0.782483 0.896445 0.436473
O O17 0.500000 0.585934 0.500000
O O18 0.492744 0.588535 0.353527
O O19 0.567031 0.500000 0.795470
#
# Coordination Sequence:
#
# PCOD8084457 Si02
#       8
#     8   8   8   8   8   8   8   8
#     4  10  18  36  55  80 119 162 194 225 274 350
#     4  11  19  36  55  83 124 157 192 229 286 360
#     4   9  20  41  63  80 108 153 198 242 298 351
#     4  10  21  34  57  89 117 154 196 238 283 336
#     4   9  20  39  61  86 113 145 200 250 283 341
#     4  10  19  35  58  85 115 160 188 230 293 342
#     4  11  21  34  53  83 117 152 186 229 295 352
#     4  11  23  37  57  84 114 151 195 244 291 346
#
# _framework density 21.603788000000002
#
# number of rings (size 3 to 8) (size 9 to 14) (size 15 to 20)
#    0.000    1.875    2.500    3.000    1.750    2.250 
#    0.000    1.250    0.000    3.000    0.000    0.000 
#    0.000    0.000    0.000    0.000    0.000    0.000 
#
# Total GULP energy -396441.004348 kJ/mol
# GULP energy per Si atom -12388.781386 kJ/mol
# Density = 2.155462 g / cm^3
# Si number density = 21.603788 Si / 1000 Ang^3
#
#
#
# Elastic Constant Matrix: (Units=GPa)
#
#
# Indices 1 2 3 4 5 6 
#
# 1 133.7785 11.6272 45.9267 0.0000 3.7389 0.0000
# 2 11.6272 31.3240 3.0141 0.0000 0.8497 0.0001
# 3 45.9267 3.0141 83.9112 0.0000 7.7666 0.0001
# 4 0.0000 0.0000 0.0000 11.9716 0.0000 -11.9339
# 5 3.7389 0.8497 7.7666 0.0000 32.3897 0.0001
# 6 0.0000 0.0001 0.0001 -11.9339 0.0001 15.6058
#
#
#
# Elastic Compliance Matrix: (Units=1/GPa)
#
#
# Indices 1 2 3 4 5 6 
#
# 1 0.009484 -0.003035 -0.005101 0.000000 0.000208 0.000000
# 2 -0.003035 0.033017 0.000535 0.000000 -0.000644 0.000000
# 3 -0.005101 0.000535 0.014969 0.000000 -0.003015 0.000000
# 4 0.000000 0.000000 0.000000 0.351410 0.000000 0.268725
# 5 0.000208 -0.000644 -0.003015 0.000000 0.031590 0.000000
# 6 0.000000 0.000000 0.000000 0.268725 0.000000 0.269575
#
#
# Mechanical properties :
#
#
# Convention : Reuss Voigt Hill
#
# Bulk Modulus (GPa) = 23.65887 41.12773 32.39330
# Shear Modulus (GPa) = 6.76282 24.55648 15.65965
#
# Velocity S-wave (km/s) = 1.77121 3.37512 2.69524
# Velocity P-wave (km/s) = 3.89332 5.85382 4.97117
#
# Compressibility (1/GPa) = 0.04226744
#
# Stress axis : x y z
#
# Youngs Moduli (GPa) = 105.43728 30.28733 66.80384
#
# Poissons Ratio (x) = 0.09193 0.34078
# Poissons Ratio (y) = 0.32003 -0.03574
# Poissons Ratio (z) = 0.53786 -0.01620
#
# Static dielectric constant tensor:
#      x y z
#    x 4.290390 0.000000 -0.095850 
#    y 0.000000 3.446750 0.000000 
#    z -0.095850 0.000000 3.836570 
# 
# 
# High freq. dielectric constant tensor:
#      x y z
#    x 1.861940 0.000000 -0.004910 
#    y 0.000000 1.813270 0.000000 
#    z -0.004910 0.000000 1.829940 
# 
# From -- ./inp_files/271743.got.cif
#   From: 2010.06.25/outbox.cif.g09.slc.cpg/sg12_136_cif.got.tgz:271743.got - 2010.06.28 00:19:55.
