data_PCOD8084000
_publ_section_title
;
Structure prediction by ZEFSAII (Michael W. Deem and Ramdas Pophale) SiO2 
 PCOD8084000
Probable space group: C 2/M
;
_chemical_formula_sum "Si O2"
_cell_formula_units_Z 56
_cell_length_a 8.898356
_cell_length_b 19.034367
_cell_length_c 24.406135
_cell_angle_alpha 90.000000
_cell_angle_beta 46.517781
_cell_angle_gamma 90.000000
_cell_volume 2999.420056
_symmetry_space_group_name_H-M "C 2/M"
_symmetry_group_IT_number 12
_symmetry_cell_setting 'monoclinic'
loop_
_space_group_symop_operation_xyz
x,y,z
-x,y,-z
-x,-y,-z
x,-y,z
1/2+x,1/2+y,z
1/2-x,1/2+y,-z
1/2-x,1/2-y,-z
1/2+x,1/2-y,z
loop_
_atom_site_type_symbol
_atom_site_label
_atom_site_fract_x
_atom_site_fract_y
_atom_site_fract_z
Si Si1 0.398866 0.078278 0.755261
Si Si2 0.605636 0.801466 0.649438
Si Si3 0.659864 0.419047 0.006832
Si Si4 0.513369 0.333739 0.852956
Si Si5 0.957737 0.577853 0.161644
Si Si6 0.020647 0.721114 0.552678
Si Si7 0.303700 0.291904 0.794738
O O1 0.588399 0.125521 0.686083
O O2 0.181445 0.109740 0.789801
O O3 0.396455 0.080034 0.821596
O O4 0.426301 0.000000 0.725085
O O5 0.496001 0.817318 0.617383
O O6 0.482329 0.738210 0.710278
O O7 0.848335 0.782366 0.588082
O O8 0.619266 0.500000 0.034183
O O9 0.635878 0.368481 0.064827
O O10 0.500000 0.396050 0.000000
O O11 0.894490 0.408536 0.927296
O O12 0.382035 0.309688 0.834757
O O13 0.624784 0.265109 0.849121
O O14 0.854829 0.500000 0.182923
O O15 0.781533 0.636636 0.210956
O O16 0.250000 0.750000 0.500000
O O17 0.000000 0.676228 0.500000
#
# Coordination Sequence:
#
# PCOD8084000 Si02
#       7
#     8   8   8   8   8   8   8
#     4  10  19  34  57  81 107 146 187 222 274 334
#     4  10  18  34  55  80 114 139 172 223 267 316
#     4  10  20  37  58  74 100 146 191 234 283 331
#     4  11  22  36  54  77 108 142 188 235 280 332
#     4  10  21  37  55  77 107 143 188 235 279 331
#     4   9  18  32  56  84 107 138 175 212 256 315
#     4  11  23  37  54  83 111 142 178 231 285 323
#
# _framework density 18.670276000000001
#
# number of rings (size 3 to 8) (size 9 to 14) (size 15 to 20)
#    0.000    1.857    1.429    4.714    0.000    2.286 
#    0.000    1.429    0.000    4.286    0.000    4.000 
#    0.000    0.000    0.000    0.000    0.000    0.000 
#
# Total GULP energy -347014.764566 kJ/mol
# GULP energy per Si atom -12393.384449 kJ/mol
# Density = 1.862778 g / cm^3
# Si number density = 18.670276 Si / 1000 Ang^3
#
#
#
# Elastic Constant Matrix: (Units=GPa)
#
#
# Indices 1 2 3 4 5 6 
#
# 1 95.1348 40.6831 25.3980 -0.0025 15.3347 0.0002
# 2 40.6831 124.2163 42.0376 -0.0106 -3.7957 0.0047
# 3 25.3980 42.0376 76.0183 -0.0186 16.1469 0.0126
# 4 -0.0025 -0.0106 -0.0186 10.4382 0.0069 2.3748
# 5 15.3347 -3.7957 16.1469 0.0069 32.5569 -0.0023
# 6 0.0002 0.0047 0.0126 2.3748 -0.0023 21.9322
#
#
#
# Elastic Compliance Matrix: (Units=1/GPa)
#
#
# Indices 1 2 3 4 5 6 
#
# 1 0.013662 -0.004436 -0.000709 0.000002 -0.006600 0.000000
# 2 -0.004436 0.011921 -0.006538 -0.000006 0.006722 0.000003
# 3 -0.000709 -0.006538 0.019112 0.000037 -0.009907 -0.000015
# 4 0.000002 -0.000006 0.000037 0.098222 -0.000042 -0.010635
# 5 -0.006600 0.006722 -0.009907 -0.000042 0.039521 0.000013
# 6 0.000000 0.000003 -0.000015 -0.010635 0.000013 0.046747
#
#
# Mechanical properties :
#
#
# Convention : Reuss Voigt Hill
#
# Bulk Modulus (GPa) = 46.88790 56.84520 51.86655
# Shear Modulus (GPa) = 19.25587 25.46883 22.36235
#
# Velocity S-wave (km/s) = 3.21497 3.69743 3.46461
# Velocity P-wave (km/s) = 6.24096 6.98147 6.62158
#
# Compressibility (1/GPa) = 0.02132746
#
# Stress axis : x y z
#
# Youngs Moduli (GPa) = 73.19744 83.88248 52.32433
#
# Poissons Ratio (x) = 0.37211 0.03712
# Poissons Ratio (y) = 0.32471 0.34211
# Poissons Ratio (z) = 0.05192 0.54844
#
# Static dielectric constant tensor:
#      x y z
#    x 3.627610 -0.000010 0.264260 
#    y -0.000010 3.452790 0.000010 
#    z 0.264260 0.000010 3.729380 
# 
# 
# High freq. dielectric constant tensor:
#      x y z
#    x 1.728430 0.000000 0.006700 
#    y 0.000000 1.705030 0.000000 
#    z 0.006700 0.000000 1.725380 
# 
# From -- ./inp_files/256984.got.cif
#   From: 2010.06.25/outbox.cif.g09.slc.cpg/sg12_129_cif.got.tgz:256984.got - 2010.06.28 00:19:55.
