data_PCOD8084046
_publ_section_title
;
Structure prediction by ZEFSAII (Michael W. Deem and Ramdas Pophale) SiO2 
 PCOD8084046
Probable space group: C 2/M
;
_chemical_formula_sum "Si O2"
_cell_formula_units_Z 36
_cell_length_a 14.842015
_cell_length_b 11.077505
_cell_length_c 10.919293
_cell_angle_alpha 90.000000
_cell_angle_beta 72.809003
_cell_angle_gamma 90.000000
_cell_volume 1715.064271
_symmetry_space_group_name_H-M "C 2/M"
_symmetry_group_IT_number 12
_symmetry_cell_setting 'monoclinic'
loop_
_space_group_symop_operation_xyz
x,y,z
-x,y,-z
-x,-y,-z
x,-y,z
1/2+x,1/2+y,z
1/2-x,1/2+y,-z
1/2-x,1/2-y,-z
1/2+x,1/2-y,z
loop_
_atom_site_type_symbol
_atom_site_label
_atom_site_fract_x
_atom_site_fract_y
_atom_site_fract_z
Si Si1 0.665183 0.132244 0.952790
Si Si2 0.783484 0.860416 0.401535
Si Si3 0.000095 0.131472 0.266357
Si Si4 0.000000 0.804415 0.000000
Si Si5 0.325604 0.218812 0.787291
O O1 0.666174 0.130240 0.100181
O O2 0.638291 0.000000 0.916953
O O3 0.589212 0.223126 0.929130
O O4 0.766014 0.165265 0.855028
O O5 0.750000 0.750000 0.500000
O O6 0.892765 0.831532 0.334409
O O7 0.722796 0.854648 0.301999
O O8 0.771150 0.000000 0.457180
O O9 0.019500 0.117393 0.112589
O O10 0.071219 0.230706 0.295145
O O11 0.020667 0.000000 0.316478
#
# Coordination Sequence:
#
# PCOD8084046 Si02
#       5
#     8   8   8   4   8
#     4  10  19  32  55  89 129 162 196 251 314 374
#     4  11  25  46  66  90 124 169 215 262 310 368
#     4  10  21  38  63  91 124 162 210 257 308 375
#     4  10  18  34  56  92 124 160 204 244 320 366
#     4  10  21  38  59  90 122 162 208 254 311 370
#
# _framework density 20.990466999999999
#
# number of rings (size 3 to 8) (size 9 to 14) (size 15 to 20)
#    0.000    1.778    2.222    2.000    0.000    2.667 
#    0.000    5.556    0.000    0.000    0.000    0.000 
#    0.000    0.000    0.000    0.000    0.000    0.000 
#
# Total GULP energy -223087.246449 kJ/mol
# GULP energy per Si atom -12393.735914 kJ/mol
# Density = 2.094269 g / cm^3
# Si number density = 20.990467 Si / 1000 Ang^3
#
#
#
# Elastic Constant Matrix: (Units=GPa)
#
#
# Indices 1 2 3 4 5 6 
#
# 1 120.9311 38.0177 19.7507 0.0000 -19.0870 0.0000
# 2 38.0177 123.6705 31.6432 0.0000 -16.4418 0.0000
# 3 19.7507 31.6432 47.6209 0.0000 -10.4449 0.0000
# 4 0.0000 0.0000 0.0000 6.9461 0.0000 -5.3999
# 5 -19.0870 -16.4418 -10.4449 0.0000 32.0624 0.0000
# 6 0.0000 0.0000 0.0000 -5.3999 0.0000 9.3748
#
#
#
# Elastic Compliance Matrix: (Units=1/GPa)
#
#
# Indices 1 2 3 4 5 6 
#
# 1 0.009868 -0.002000 -0.001831 0.000000 0.004253 0.000000
# 2 -0.002000 0.010444 -0.005597 0.000000 0.002342 0.000000
# 3 -0.001831 -0.005597 0.026503 0.000000 0.004673 0.000000
# 4 0.000000 0.000000 0.000000 0.260711 0.000000 0.150171
# 5 0.004253 0.002342 0.004673 0.000000 0.036444 0.000000
# 6 0.000000 0.000000 0.000000 0.150171 0.000000 0.193168
#
#
# Mechanical properties :
#
#
# Convention : Reuss Voigt Hill
#
# Bulk Modulus (GPa) = 35.76620 52.33840 44.05230
# Shear Modulus (GPa) = 8.84464 23.19739 16.02102
#
# Velocity S-wave (km/s) = 2.05494 3.32797 2.76570
# Velocity P-wave (km/s) = 4.76515 6.30521 5.58848
#
# Compressibility (1/GPa) = 0.02795936
#
# Stress axis : x y z
#
# Youngs Moduli (GPa) = 101.33681 95.74736 37.73187
#
# Poissons Ratio (x) = 0.19146 0.06910
# Poissons Ratio (y) = 0.20263 0.21118
# Poissons Ratio (z) = 0.18558 0.53589
#
# Static dielectric constant tensor:
#      x y z
#    x 3.954680 0.000000 -0.052900 
#    y 0.000000 3.601160 0.000000 
#    z -0.052900 0.000000 3.518160 
# 
# 
# High freq. dielectric constant tensor:
#      x y z
#    x 1.835410 0.000000 -0.006960 
#    y 0.000000 1.819560 0.000000 
#    z -0.006960 0.000000 1.791980 
# 
# From -- ./inp_files/140134.got.cif
#   From: 2010.06.25/outbox.cif.g09.slc.cpg/sg12_71_cif.got.tgz:140134.got - 2010.06.28 00:19:55.
