data_PCOD8084349
_publ_section_title
;
Structure prediction by ZEFSAII (Michael W. Deem and Ramdas Pophale) SiO2 
 PCOD8084349
Probable space group: C 2/M
;
_chemical_formula_sum "Si O2"
_cell_formula_units_Z 64
_cell_length_a 19.002043
_cell_length_b 17.651780
_cell_length_c 12.159039
_cell_angle_alpha 90.000000
_cell_angle_beta 125.638130
_cell_angle_gamma 90.000000
_cell_volume 3314.555976
_symmetry_space_group_name_H-M "C 2/M"
_symmetry_group_IT_number 12
_symmetry_cell_setting 'monoclinic'
loop_
_space_group_symop_operation_xyz
x,y,z
-x,y,-z
-x,-y,-z
x,-y,z
1/2+x,1/2+y,z
1/2-x,1/2+y,-z
1/2-x,1/2-y,-z
1/2+x,1/2-y,z
loop_
_atom_site_type_symbol
_atom_site_label
_atom_site_fract_x
_atom_site_fract_y
_atom_site_fract_z
Si Si1 0.639143 0.412644 0.921792
Si Si2 0.997567 0.805895 0.870401
Si Si3 0.046194 0.414977 0.154262
Si Si4 0.589848 0.839386 0.853400
Si Si5 0.222921 0.659420 0.357744
Si Si6 0.797378 0.167864 0.645365
Si Si7 0.224046 0.346033 0.804424
Si Si8 0.755199 0.170682 0.149058
O O1 0.625400 0.500000 0.875455
O O2 0.553493 0.381574 0.903016
O O3 0.659373 0.360091 0.833978
O O4 0.720245 0.406374 0.077093
O O5 0.900594 0.831006 0.750915
O O6 0.037491 0.738384 0.832280
O O7 0.000000 0.780819 0.000000
O O8 0.082031 0.500000 0.176039
O O9 0.121820 0.358608 0.258138
O O10 0.975822 0.408875 0.187559
O O11 0.000000 0.387399 0.000000
O O12 0.624300 0.845584 0.758133
O O13 0.669122 0.855575 0.008369
O O14 0.238183 0.747668 0.387139
O O15 0.270281 0.623136 0.508041
O O16 0.263762 0.634218 0.278573
O O17 0.742078 0.129983 0.694768
O O18 0.256295 0.261064 0.859175
#
# Coordination Sequence:
#
# PCOD8084349 Si02
#       8
#     8   8   8   8   8   8   8   8
#     4  11  22  34  55  87 116 145 189 243 289 338
#     4  12  19  35  59  86 112 148 197 245 285 328
#     4  11  22  35  56  90 119 147 188 237 294 343
#     4  11  18  32  61  86 110 147 189 240 286 337
#     4  10  20  37  59  86 117 145 192 242 281 341
#     4  10  21  36  62  86 109 154 199 233 280 342
#     4  10  19  37  56  84 116 149 190 228 287 342
#     4  10  18  35  59  83 115 148 185 232 296 340
#
# _framework density 19.308769999999999
#
# number of rings (size 3 to 8) (size 9 to 14) (size 15 to 20)
#    0.000    1.375    6.250    1.875    0.000    2.750 
#    0.000    2.500    0.000    1.500    0.000    0.000 
#    0.000    0.000    0.000    0.000    0.000    0.000 
#
# Total GULP energy -396455.889783 kJ/mol
# GULP energy per Si atom -12389.246556 kJ/mol
# Density = 1.926482 g / cm^3
# Si number density = 19.308770 Si / 1000 Ang^3
#
#
#
# Elastic Constant Matrix: (Units=GPa)
#
#
# Indices 1 2 3 4 5 6 
#
# 1 135.1007 9.2153 48.6544 0.0000 -18.8728 0.0000
# 2 9.2153 39.5675 4.8173 0.0000 -7.5297 0.0000
# 3 48.6544 4.8173 103.1838 0.0000 -10.9170 0.0000
# 4 0.0000 0.0000 0.0000 8.9405 0.0000 -0.2518
# 5 -18.8728 -7.5297 -10.9170 0.0000 23.5638 0.0000
# 6 0.0000 0.0000 0.0000 -0.2518 0.0000 13.8481
#
#
#
# Elastic Compliance Matrix: (Units=1/GPa)
#
#
# Indices 1 2 3 4 5 6 
#
# 1 0.009656 -0.000687 -0.003918 0.000000 0.005699 0.000000
# 2 -0.000687 0.026972 -0.000086 0.000000 0.008028 0.000000
# 3 -0.003918 -0.000086 0.011786 0.000000 0.002295 0.000000
# 4 0.000000 0.000000 0.000000 0.111908 0.000000 0.002035
# 5 0.005699 0.008028 0.002295 0.000000 0.050631 0.000000
# 6 0.000000 0.000000 0.000000 0.002035 0.000000 0.072249
#
#
# Mechanical properties :
#
#
# Convention : Reuss Voigt Hill
#
# Bulk Modulus (GPa) = 25.62061 44.80290 35.21176
# Shear Modulus (GPa) = 16.36158 23.61480 19.98819
#
# Velocity S-wave (km/s) = 2.91411 3.50095 3.22092
# Velocity P-wave (km/s) = 4.96190 6.29253 5.66641
#
# Compressibility (1/GPa) = 0.03903107
#
# Stress axis : x y z
#
# Youngs Moduli (GPa) = 103.56382 37.07600 84.84853
#
# Poissons Ratio (x) = 0.02548 0.33244
# Poissons Ratio (y) = 0.07119 0.00727
# Poissons Ratio (z) = 0.40577 0.00318
#
# Static dielectric constant tensor:
#      x y z
#    x 3.913870 0.000000 -0.384630 
#    y 0.000000 3.187530 0.000000 
#    z -0.384630 0.000000 3.608450 
# 
# 
# High freq. dielectric constant tensor:
#      x y z
#    x 1.769330 0.000000 -0.016400 
#    y 0.000000 1.720660 0.000000 
#    z -0.016400 0.000000 1.719560 
# 
# From -- ./inp_files/168481.got.cif
#   From: 2010.06.25/outbox.cif.g09.slc.cpg/sg12_85_cif.got.tgz:168481.got - 2010.06.28 00:19:55.
