data_PCOD8084071
_publ_section_title
;
Structure prediction by ZEFSAII (Michael W. Deem and Ramdas Pophale) SiO2 
 PCOD8084071
Probable space group: C 2/M
;
_chemical_formula_sum "Si O2"
_cell_formula_units_Z 40
_cell_length_a 17.259554
_cell_length_b 13.093523
_cell_length_c 11.510340
_cell_angle_alpha 90.000000
_cell_angle_beta 53.605448
_cell_angle_gamma 90.000000
_cell_volume 2093.838880
_symmetry_space_group_name_H-M "C 2/M"
_symmetry_group_IT_number 12
_symmetry_cell_setting 'monoclinic'
loop_
_space_group_symop_operation_xyz
x,y,z
-x,y,-z
-x,-y,-z
x,-y,z
1/2+x,1/2+y,z
1/2-x,1/2+y,-z
1/2-x,1/2-y,-z
1/2+x,1/2-y,z
loop_
_atom_site_type_symbol
_atom_site_label
_atom_site_fract_x
_atom_site_fract_y
_atom_site_fract_z
Si Si1 0.848858 0.679511 0.626563
Si Si2 0.504905 0.116408 0.313211
Si Si3 0.095922 0.887140 0.340276
Si Si4 0.536906 0.306017 0.146919
Si Si5 0.363847 0.617114 0.160037
O O1 0.906028 0.620860 0.677035
O O2 0.834393 0.799372 0.671298
O O3 0.744909 0.631018 0.701666
O O4 0.908414 0.663919 0.455368
O O5 0.529274 0.184974 0.179574
O O6 0.488082 0.000000 0.289034
O O7 0.072278 0.868116 0.227101
O O8 0.000000 0.879025 0.500000
O O9 0.142930 0.000000 0.311418
O O10 0.432959 0.348424 0.202667
O O11 0.614656 0.318274 0.975233
O O12 0.384640 0.500000 0.111676
#
# Coordination Sequence:
#
# PCOD8084071 Si02
#       5
#     8   8   8   8   8
#     4  10  19  36  56  86 110 141 188 227 267 333
#     4  10  19  36  57  80 110 145 181 228 277 323
#     4  10  18  34  57  82 113 145 176 225 277 318
#     4  10  21  38  55  81 110 147 189 227 269 330
#     4  11  22  37  58  81 111 147 184 229 274 325
#
# _framework density 19.103664999999999
#
# number of rings (size 3 to 8) (size 9 to 14) (size 15 to 20)
#    0.000    1.800    4.000    4.800    0.000    4.000 
#    0.000    6.000    0.000    0.000    0.000    0.000 
#    0.000    0.000    0.000    0.000    0.000    0.000 
#
# Total GULP energy -247992.259418 kJ/mol
# GULP energy per Si atom -12399.612971 kJ/mol
# Density = 1.906018 g / cm^3
# Si number density = 19.103665 Si / 1000 Ang^3
#
#
#
# Elastic Constant Matrix: (Units=GPa)
#
#
# Indices 1 2 3 4 5 6 
#
# 1 28.0150 15.6182 4.6645 0.0000 -15.8591 0.0000
# 2 15.6182 163.9750 27.9161 0.0000 10.3221 0.0000
# 3 4.6645 27.9161 32.2287 0.0000 -1.0658 0.0000
# 4 0.0000 0.0000 0.0000 28.7362 0.0000 -3.0059
# 5 -15.8591 10.3221 -1.0658 0.0000 31.0111 0.0000
# 6 0.0000 0.0000 0.0000 -3.0059 0.0000 18.6623
#
#
#
# Elastic Compliance Matrix: (Units=1/GPa)
#
#
# Indices 1 2 3 4 5 6 
#
# 1 0.058216 -0.007412 -0.000940 0.000000 0.032206 0.000000
# 2 -0.007412 0.008312 -0.006351 0.000000 -0.006776 0.000000
# 3 -0.000940 -0.006351 0.036762 0.000000 0.002897 0.000000
# 4 0.000000 0.000000 0.000000 0.035396 0.000000 0.005701
# 5 0.032206 -0.006776 0.002897 0.000000 0.051072 0.000000
# 6 0.000000 0.000000 0.000000 0.005701 0.000000 0.054502
#
#
# Mechanical properties :
#
#
# Convention : Reuss Voigt Hill
#
# Bulk Modulus (GPa) = 13.53507 35.62402 24.57955
# Shear Modulus (GPa) = 16.76200 27.41659 22.08929
#
# Velocity S-wave (km/s) = 2.96535 3.79244 3.40411
# Velocity P-wave (km/s) = 4.33876 6.15346 5.32400
#
# Compressibility (1/GPa) = 0.07388212
#
# Stress axis : x y z
#
# Youngs Moduli (GPa) = 17.17748 120.30395 27.20235
#
# Poissons Ratio (x) = 0.89171 0.02558
# Poissons Ratio (y) = 0.12732 0.17277
# Poissons Ratio (z) = 0.01615 0.76408
#
# Static dielectric constant tensor:
#      x y z
#    x 3.218200 0.000000 0.062330 
#    y 0.000000 3.861580 0.000000 
#    z 0.062330 0.000000 3.386020 
# 
# 
# High freq. dielectric constant tensor:
#      x y z
#    x 1.714990 0.000000 0.002610 
#    y 0.000000 1.757720 0.000000 
#    z 0.002610 0.000000 1.735790 
# 
# From -- ./inp_files/155090.got.cif
#   From: 2010.06.25/outbox.cif.g09.slc.cpg/sg12_78_cif.got.tgz:155090.got - 2010.06.28 00:19:55.
