data_PCOD8084789
_publ_section_title
;
Structure prediction by ZEFSAII (Michael W. Deem and Ramdas Pophale) SiO2 
 PCOD8084789
Probable space group: C 2/M
;
_chemical_formula_sum "Si O2"
_cell_formula_units_Z 64
_cell_length_a 26.592534
_cell_length_b 9.529217
_cell_length_c 26.157854
_cell_angle_alpha 90.000000
_cell_angle_beta 41.296904
_cell_angle_gamma 90.000000
_cell_volume 4374.590151
_symmetry_space_group_name_H-M "C 2/M"
_symmetry_group_IT_number 12
_symmetry_cell_setting 'monoclinic'
loop_
_space_group_symop_operation_xyz
x,y,z
-x,y,-z
-x,-y,-z
x,-y,z
1/2+x,1/2+y,z
1/2-x,1/2+y,-z
1/2-x,1/2-y,-z
1/2+x,1/2-y,z
loop_
_atom_site_type_symbol
_atom_site_label
_atom_site_fract_x
_atom_site_fract_y
_atom_site_fract_z
Si Si1 0.656579 0.836950 0.023440
Si Si2 0.302312 0.838988 0.893155
Si Si3 0.608913 0.335131 0.883859
Si Si4 0.271773 0.163949 0.727117
Si Si5 0.550499 0.665736 0.037214
Si Si6 0.889239 0.661180 0.726480
Si Si7 0.995789 0.842338 0.585864
Si Si8 0.122755 0.841736 0.415465
O O1 0.655731 0.819218 0.085047
O O2 0.581973 0.757149 0.060039
O O3 0.655919 0.000000 0.007884
O O4 0.730584 0.763428 0.942743
O O5 0.362468 0.797301 0.803616
O O6 0.274140 0.000000 0.907386
O O7 0.617730 0.500000 0.882197
O O8 0.687455 0.272861 0.801576
O O9 0.539164 0.298557 0.899458
O O10 0.592883 0.280893 0.953449
O O11 0.320883 0.196808 0.739952
O O12 0.306249 0.240567 0.650862
O O13 0.269801 0.000000 0.715909
O O14 0.563074 0.500000 0.037455
O O15 0.912216 0.500000 0.705206
O O16 0.966418 0.745571 0.654505
O O17 0.935719 0.835118 0.586279
O O18 0.078114 0.792318 0.501006
O O19 0.002736 0.000000 0.601618
O O20 0.153155 0.000000 0.399307
#
# Coordination Sequence:
#
# PCOD8084789 Si02
#       8
#     8   8   8   8   8   8   8   8
#     4  10  19  29  42  60  80 102 131 166 199 230
#     4   9  18  31  43  56  78 107 134 160 194 236
#     4   8  15  27  43  60  76 102 137 164 191 233
#     4   9  15  23  37  57  77  97 129 167 190 213
#     4   9  16  29  46  58  75 105 135 162 196 236
#     4   9  16  25  39  57  76 100 130 162 191 220
#     4   8  14  24  36  50  73 103 130 154 182 224
#     4   8  14  24  35  49  73 105 131 149 183 230
#
# _framework density 14.629942
#
# number of rings (size 3 to 8) (size 9 to 14) (size 15 to 20)
#    0.000    3.250    0.000    2.625    0.000    3.500 
#    0.000    7.500    0.000    0.000    0.000    0.000 
#    0.000    1.000    0.000    2.250    0.000    4.000 
#
# Total GULP energy -396629.058857 kJ/mol
# GULP energy per Si atom -12394.658089 kJ/mol
# Density = 1.459664 g / cm^3
# Si number density = 14.629942 Si / 1000 Ang^3
#
#
#
# Elastic Constant Matrix: (Units=GPa)
#
#
# Indices 1 2 3 4 5 6 
#
# 1 52.1818 32.2718 35.9181 0.0026 -5.1885 -0.0116
# 2 32.2718 64.4442 55.0954 0.0109 -3.1012 -0.0318
# 3 35.9181 55.0954 134.1492 0.0012 -13.0597 -0.0066
# 4 0.0026 0.0109 0.0012 23.9387 -0.0003 -0.1252
# 5 -5.1885 -3.1012 -13.0597 -0.0003 17.9884 0.0031
# 6 -0.0116 -0.0318 -0.0066 -0.1252 0.0031 18.2445
#
#
#
# Elastic Compliance Matrix: (Units=1/GPa)
#
#
# Indices 1 2 3 4 5 6 
#
# 1 0.028732 -0.012285 -0.002202 0.000003 0.004570 -0.000005
# 2 -0.012285 0.029343 -0.009270 -0.000011 -0.005215 0.000041
# 3 -0.002202 -0.009270 0.012519 0.000004 0.006855 -0.000014
# 4 0.000003 -0.000011 0.000004 0.041775 0.000002 0.000287
# 5 0.004570 -0.005215 0.006855 0.000002 0.060988 -0.000014
# 6 -0.000005 0.000041 -0.000014 0.000287 -0.000014 0.054813
#
#
# Mechanical properties :
#
#
# Convention : Reuss Voigt Hill
#
# Bulk Modulus (GPa) = 43.32909 55.26063 49.29486
# Shear Modulus (GPa) = 17.64432 20.53366 19.08899
#
# Velocity S-wave (km/s) = 3.47658 3.75045 3.61611
# Velocity P-wave (km/s) = 6.76731 7.52388 7.15560
#
# Compressibility (1/GPa) = 0.02307918
#
# Stress axis : x y z
#
# Youngs Moduli (GPa) = 34.80438 34.07912 79.88170
#
# Poissons Ratio (x) = 0.41867 0.17593
# Poissons Ratio (y) = 0.42758 0.74048
# Poissons Ratio (z) = 0.07665 0.31590
#
# Static dielectric constant tensor:
#      x y z
#    x 2.587190 0.000000 -0.148040 
#    y 0.000000 2.824570 0.000000 
#    z -0.148040 0.000000 3.139390 
# 
# 
# High freq. dielectric constant tensor:
#      x y z
#    x 1.515450 0.000000 -0.007740 
#    y 0.000000 1.552220 0.000000 
#    z -0.007740 0.000000 1.559870 
# 
# From -- ./inp_files/350937.got.cif
#   From: 2010.06.25/outbox.cif.g09.slc.cpg/sg12_176_cif.got.tgz:350937.got - 2010.06.28 00:19:55.
