data_PCOD8084260
_publ_section_title
;
Structure prediction by ZEFSAII (Michael W. Deem and Ramdas Pophale) SiO2 
 PCOD8084260
Probable space group: C 2/M
;
_chemical_formula_sum "Si O2"
_cell_formula_units_Z 36
_cell_length_a 23.680015
_cell_length_b 9.705927
_cell_length_c 13.053008
_cell_angle_alpha 90.000000
_cell_angle_beta 132.011414
_cell_angle_gamma 90.000000
_cell_volume 2229.077358
_symmetry_space_group_name_H-M "C 2/M"
_symmetry_group_IT_number 12
_symmetry_cell_setting 'monoclinic'
loop_
_space_group_symop_operation_xyz
x,y,z
-x,y,-z
-x,-y,-z
x,-y,z
1/2+x,1/2+y,z
1/2-x,1/2+y,-z
1/2-x,1/2-y,-z
1/2+x,1/2-y,z
loop_
_atom_site_type_symbol
_atom_site_label
_atom_site_fract_x
_atom_site_fract_y
_atom_site_fract_z
Si Si1 0.585449 0.787685 0.719539
Si Si2 0.648120 0.500000 0.802110
Si Si3 0.185286 0.500000 0.953924
Si Si4 0.740833 0.000000 0.234277
Si Si5 0.087488 0.344948 0.485276
Si Si6 0.706778 0.343717 0.528230
O O1 0.594089 0.628564 0.758165
O O2 0.647044 0.864759 0.863050
O O3 0.603803 0.815647 0.623698
O O4 0.501705 0.835973 0.647221
O O5 0.675466 0.500000 0.717067
O O6 0.724745 0.500000 0.965489
O O7 0.175941 0.500000 0.067921
O O8 0.738961 0.136442 0.304987
O O9 0.115125 0.500000 0.492804
O O10 0.129996 0.235882 0.465114
O O11 0.687496 0.500000 0.463232
O O12 0.750000 0.250000 0.500000
#
# Coordination Sequence:
#
# PCOD8084260 Si02
#       6
#     8   4   4   4   8   8
#     4  11  19  32  51  80 113 147 166 213 259 319
#     4  10  20  30  52  74 115 138 174 207 257 311
#     4  10  18  35  48  76 116 139 181 196 259 318
#     4   8  20  33  53  79 102 135 177 219 250 317
#     4  11  20  32  51  81 111 139 178 212 264 308
#     4  10  20  37  56  79 100 132 178 227 265 302
#
# _framework density 16.150179000000001
#
# number of rings (size 3 to 8) (size 9 to 14) (size 15 to 20)
#    1.333    0.444    4.444    2.000    1.556    0.889 
#    0.000    0.000    2.444    2.667    0.000    1.556 
#    0.000    0.000    0.000    0.000    0.000    0.000 
#
# Total GULP energy -222999.887345 kJ/mol
# GULP energy per Si atom -12388.882630 kJ/mol
# Density = 1.611342 g / cm^3
# Si number density = 16.150179 Si / 1000 Ang^3
#
#
#
# Elastic Constant Matrix: (Units=GPa)
#
#
# Indices 1 2 3 4 5 6 
#
# 1 76.9963 38.8234 18.8384 0.0000 -4.4086 0.0000
# 2 38.8234 146.0943 26.9423 0.0000 4.2091 0.0000
# 3 18.8384 26.9423 69.6538 0.0000 10.5248 0.0000
# 4 0.0000 0.0000 0.0000 23.9185 0.0000 -3.1042
# 5 -4.4086 4.2091 10.5248 0.0000 13.2378 0.0000
# 6 0.0000 0.0000 0.0000 -3.1042 0.0000 33.9478
#
#
#
# Elastic Compliance Matrix: (Units=1/GPa)
#
#
# Indices 1 2 3 4 5 6 
#
# 1 0.016663 -0.003884 -0.004580 0.000000 0.010425 0.000000
# 2 -0.003884 0.008276 -0.001770 0.000000 -0.002517 0.000000
# 3 -0.004580 -0.001770 0.018668 0.000000 -0.015804 0.000000
# 4 0.000000 0.000000 0.000000 0.042311 0.000000 0.003869
# 5 0.010425 -0.002517 -0.015804 0.000000 0.092379 0.000000
# 6 0.000000 0.000000 0.000000 0.003869 0.000000 0.029811
#
#
# Mechanical properties :
#
#
# Convention : Reuss Voigt Hill
#
# Bulk Modulus (GPa) = 43.21601 51.32807 47.27204
# Shear Modulus (GPa) = 21.16052 28.09686 24.62869
#
# Velocity S-wave (km/s) = 3.62364 4.17553 3.90933
# Velocity P-wave (km/s) = 6.65768 7.42276 7.05060
#
# Compressibility (1/GPa) = 0.02313957
#
# Stress axis : x y z
#
# Youngs Moduli (GPa) = 60.01152 120.83072 53.56703
#
# Poissons Ratio (x) = 0.46930 0.24532
# Poissons Ratio (y) = 0.23308 0.09483
# Poissons Ratio (z) = 0.27484 0.21392
#
# Static dielectric constant tensor:
#      x y z
#    x 2.836720 0.000000 0.007880 
#    y 0.000000 3.182200 0.000000 
#    z 0.007880 0.000000 2.924830 
# 
# 
# High freq. dielectric constant tensor:
#      x y z
#    x 1.593290 0.000000 0.005090 
#    y 0.000000 1.639170 0.000000 
#    z 0.005090 0.000000 1.603030 
# 
# From -- ./inp_files/171644.got.cif
#   From: 2010.06.25/outbox.cif.g09.slc.cpg/sg12_86_cif.got.tgz:171644.got - 2010.06.28 00:19:55.
