data_PCOD8084301
_publ_section_title
;
Structure prediction by ZEFSAII (Michael W. Deem and Ramdas Pophale) SiO2 
 PCOD8084301
Probable space group: C 2/M
;
_chemical_formula_sum "Si O2"
_cell_formula_units_Z 60
_cell_length_a 19.327394
_cell_length_b 12.758894
_cell_length_c 13.208205
_cell_angle_alpha 90.000000
_cell_angle_beta 96.188226
_cell_angle_gamma 90.000000
_cell_volume 3238.114148
_symmetry_space_group_name_H-M "C 2/M"
_symmetry_group_IT_number 12
_symmetry_cell_setting 'monoclinic'
loop_
_space_group_symop_operation_xyz
x,y,z
-x,y,-z
-x,-y,-z
x,-y,z
1/2+x,1/2+y,z
1/2-x,1/2+y,-z
1/2-x,1/2-y,-z
1/2+x,1/2-y,z
loop_
_atom_site_type_symbol
_atom_site_label
_atom_site_fract_x
_atom_site_fract_y
_atom_site_fract_z
Si Si1 0.500000 0.314305 0.000000
Si Si2 0.231155 0.240152 0.646362
Si Si3 0.349834 0.374538 0.757829
Si Si4 0.176717 0.382347 0.480052
Si Si5 0.524560 0.119544 0.394701
Si Si6 0.999531 0.781366 0.777631
Si Si7 0.647447 0.375752 0.802689
Si Si8 0.351319 0.384527 0.977656
O O1 0.499311 0.244048 0.896287
O O2 0.565063 0.391936 0.010163
O O3 0.295919 0.317773 0.676108
O O4 0.172976 0.307104 0.577537
O O5 0.257694 0.146203 0.579661
O O6 0.197173 0.190042 0.738787
O O7 0.342302 0.500000 0.748952
O O8 0.428872 0.344522 0.740740
O O9 0.329274 0.331249 0.868035
O O10 0.185928 0.500000 0.521549
O O11 0.107654 0.371479 0.402028
O O12 0.500000 0.164215 0.500000
O O13 0.492800 0.182231 0.295214
O O14 0.498433 0.000000 0.379338
O O15 0.066165 0.855191 0.767499
O O16 0.660752 0.500000 0.794057
O O17 0.670058 0.332145 0.918636
O O18 0.319558 0.500000 0.972886
#
# Coordination Sequence:
#
# PCOD8084301 Si02
#       8
#     4   8   8   8   8   8   8   8
#     4   8  15  26  51  78 106 140 172 214 266 316
#     4  11  21  34  54  78 105 140 175 221 267 317
#     4  10  19  33  55  82 109 141 177 220 265 310
#     4  10  21  37  53  72 101 139 180 217 260 320
#     4  10  20  35  56  78 102 139 183 223 265 318
#     4  10  18  35  56  82 109 138 179 224 268 316
#     4  10  20  34  54  80 110 143 174 216 267 320
#     4   8  15  28  48  76 108 139 175 210 256 317
#
# _framework density 18.529305000000001
#
# number of rings (size 3 to 8) (size 9 to 14) (size 15 to 20)
#    0.000    2.267    1.333    2.200    0.000    3.733 
#    0.000    1.000    0.000    1.600    0.000    0.933 
#    0.000    0.000    0.000    0.000    0.000    0.000 
#
# Total GULP energy -371686.352981 kJ/mol
# GULP energy per Si atom -12389.545099 kJ/mol
# Density = 1.848713 g / cm^3
# Si number density = 18.529305 Si / 1000 Ang^3
#
#
#
# Elastic Constant Matrix: (Units=GPa)
#
#
# Indices 1 2 3 4 5 6 
#
# 1 46.2426 16.3611 9.5939 0.0000 -5.6205 0.0000
# 2 16.3611 70.4193 34.5043 0.0000 -4.7205 0.0000
# 3 9.5939 34.5043 88.4596 0.0000 -10.7474 0.0000
# 4 0.0000 0.0000 0.0000 29.2165 0.0000 -0.3889
# 5 -5.6205 -4.7205 -10.7474 0.0000 29.6686 0.0000
# 6 0.0000 0.0000 0.0000 -0.3889 0.0000 21.0834
#
#
#
# Elastic Compliance Matrix: (Units=1/GPa)
#
#
# Indices 1 2 3 4 5 6 
#
# 1 0.023956 -0.005273 -0.000096 0.000000 0.003664 0.000000
# 2 -0.005273 0.018720 -0.006788 0.000000 -0.000479 0.000000
# 3 -0.000096 -0.006788 0.014466 0.000000 0.004142 0.000000
# 4 0.000000 0.000000 0.000000 0.034236 0.000000 0.000631
# 5 0.003664 -0.000479 0.004142 0.000000 0.035824 0.000000
# 6 0.000000 0.000000 0.000000 0.000631 0.000000 0.047442
#
#
# Mechanical properties :
#
#
# Convention : Reuss Voigt Hill
#
# Bulk Modulus (GPa) = 30.46270 36.22668 33.34469
# Shear Modulus (GPa) = 23.82074 25.63784 24.72929
#
# Velocity S-wave (km/s) = 3.58938 3.72376 3.65719
# Velocity P-wave (km/s) = 5.80122 6.17106 5.98900
#
# Compressibility (1/GPa) = 0.03282703
#
# Stress axis : x y z
#
# Youngs Moduli (GPa) = 41.74299 53.41955 69.12759
#
# Poissons Ratio (x) = 0.28169 0.00664
# Poissons Ratio (y) = 0.22012 0.46925
# Poissons Ratio (z) = 0.00401 0.36262
#
# Static dielectric constant tensor:
#      x y z
#    x 3.236830 0.000000 0.009700 
#    y 0.000000 3.126780 0.000000 
#    z 0.009700 0.000000 3.669240 
# 
# 
# High freq. dielectric constant tensor:
#      x y z
#    x 1.710360 0.000000 -0.001440 
#    y 0.000000 1.692040 0.000000 
#    z -0.001440 0.000000 1.732340 
# 
# From -- ./inp_files/165675.got.cif
#   From: 2010.06.25/outbox.cif.g09.slc.cpg/sg12_83_cif.got.tgz:165675.got - 2010.06.28 00:19:55.
