data_PCOD8084471
_publ_section_title
;
Structure prediction by ZEFSAII (Michael W. Deem and Ramdas Pophale) SiO2 
 PCOD8084471
Probable space group: C 2/M
;
_chemical_formula_sum "Si O2"
_cell_formula_units_Z 64
_cell_length_a 17.505702
_cell_length_b 17.528919
_cell_length_c 10.621006
_cell_angle_alpha 90.000000
_cell_angle_beta 101.084990
_cell_angle_gamma 90.000000
_cell_volume 3198.314579
_symmetry_space_group_name_H-M "C 2/M"
_symmetry_group_IT_number 12
_symmetry_cell_setting 'monoclinic'
loop_
_space_group_symop_operation_xyz
x,y,z
-x,y,-z
-x,-y,-z
x,-y,z
1/2+x,1/2+y,z
1/2-x,1/2+y,-z
1/2-x,1/2-y,-z
1/2+x,1/2-y,z
loop_
_atom_site_type_symbol
_atom_site_label
_atom_site_fract_x
_atom_site_fract_y
_atom_site_fract_z
Si Si1 0.795596 0.864712 0.711773
Si Si2 0.591577 0.196170 0.007157
Si Si3 0.430630 0.413668 0.289327
Si Si4 0.789232 0.695798 0.751769
Si Si5 0.322051 0.338953 0.073501
Si Si6 0.808382 0.912356 0.437960
Si Si7 0.314979 0.910765 0.126093
Si Si8 0.953097 0.909546 0.863573
O O1 0.799332 0.775325 0.682176
O O2 0.812516 0.908910 0.588647
O O3 0.711209 0.891793 0.738215
O O4 0.862788 0.885427 0.836365
O O5 0.631949 0.169316 0.151232
O O6 0.500000 0.200313 0.000000
O O7 0.625500 0.280123 0.988826
O O8 0.610012 0.136818 0.899076
O O9 0.449693 0.500000 0.328164
O O10 0.371658 0.406083 0.152958
O O11 0.389315 0.378309 0.401306
O O12 0.509714 0.375991 0.257103
O O13 0.721924 0.710748 0.833945
O O14 0.765823 0.632586 0.641150
O O15 0.258702 0.384101 0.975809
O O16 0.799310 0.000000 0.392122
O O17 0.333518 0.000000 0.116242
O O18 0.961455 0.000000 0.865439
O O19 0.000000 0.876824 0.000000
#
# Coordination Sequence:
#
# PCOD8084471 Si02
#       8
#     8   8   8   8   8   8   8   8
#     4  12  21  36  58  87 116 155 203 249 291 345
#     4  11  23  38  60  89 123 156 190 245 307 368
#     4   9  19  33  52  82 120 156 190 229 279 351
#     4  10  21  38  59  84 116 151 195 248 293 349
#     4  10  18  36  57  85 115 152 189 237 295 359
#     4  10  22  39  59  82 111 159 207 246 291 344
#     4  11  21  36  59  87 119 154 199 249 295 351
#     4  10  21  33  51  86 124 155 184 226 293 362
#
# _framework density 20.010539999999999
#
# number of rings (size 3 to 8) (size 9 to 14) (size 15 to 20)
#    0.000    1.625    2.500    3.375    1.750    4.750 
#    0.000    1.875    0.000    1.125    0.000    1.750 
#    0.000    0.000    0.000    0.000    0.000    0.000 
#
# Total GULP energy -396474.044883 kJ/mol
# GULP energy per Si atom -12389.813903 kJ/mol
# Density = 1.996499 g / cm^3
# Si number density = 20.010540 Si / 1000 Ang^3
#
#
#
# Elastic Constant Matrix: (Units=GPa)
#
#
# Indices 1 2 3 4 5 6 
#
# 1 86.0946 11.3987 19.4636 0.0000 -4.8019 0.0000
# 2 11.3987 64.9266 19.3043 0.0000 -3.1605 0.0000
# 3 19.4636 19.3043 75.9494 0.0000 -8.9339 0.0000
# 4 0.0000 0.0000 0.0000 25.2279 0.0000 -1.2333
# 5 -4.8019 -3.1605 -8.9339 0.0000 24.5155 0.0000
# 6 0.0000 0.0000 0.0000 -1.2333 0.0000 24.0069
#
#
#
# Elastic Compliance Matrix: (Units=1/GPa)
#
#
# Indices 1 2 3 4 5 6 
#
# 1 0.012474 -0.001322 -0.002710 0.000000 0.001286 0.000000
# 2 -0.001322 0.016811 -0.003876 0.000000 0.000496 0.000000
# 3 -0.002710 -0.003876 0.015384 0.000000 0.004576 0.000000
# 4 0.000000 0.000000 0.000000 0.039739 0.000000 0.002041
# 5 0.001286 0.000496 0.004576 0.000000 0.042774 0.000000
# 6 0.000000 0.000000 0.000000 0.002041 0.000000 0.041760
#
#
# Mechanical properties :
#
#
# Convention : Reuss Voigt Hill
#
# Bulk Modulus (GPa) = 34.65599 36.36709 35.51154
# Shear Modulus (GPa) = 25.72360 26.53698 26.13029
#
# Velocity S-wave (km/s) = 3.58928 3.64559 3.61754
# Velocity P-wave (km/s) = 5.87654 5.99448 5.93580
#
# Compressibility (1/GPa) = 0.02885504
#
# Stress axis : x y z
#
# Youngs Moduli (GPa) = 80.16413 59.48640 65.00069
#
# Poissons Ratio (x) = 0.07863 0.17613
# Poissons Ratio (y) = 0.10596 0.25193
# Poissons Ratio (z) = 0.21722 0.23055
#
# Static dielectric constant tensor:
#      x y z
#    x 3.847310 0.000000 -0.374130 
#    y 0.000000 3.521310 0.000000 
#    z -0.374130 0.000000 3.716710 
# 
# 
# High freq. dielectric constant tensor:
#      x y z
#    x 1.769160 0.000000 -0.026440 
#    y 0.000000 1.768210 0.000000 
#    z -0.026440 0.000000 1.773640 
# 
# From -- ./inp_files/157864.got.cif
#   From: 2010.06.25/outbox.cif.g09.slc.cpg/sg12_79_cif.got.tgz:157864.got - 2010.06.28 00:19:55.
