data_PCOD8084803
_publ_section_title
;
Structure prediction by ZEFSAII (Michael W. Deem and Ramdas Pophale) SiO2 
 PCOD8084803
Probable space group: C 2/M
;
_chemical_formula_sum "Si O2"
_cell_formula_units_Z 56
_cell_length_a 24.840212
_cell_length_b 9.552659
_cell_length_c 20.012507
_cell_angle_alpha 90.000000
_cell_angle_beta 130.947834
_cell_angle_gamma 90.000000
_cell_volume 3586.776725
_symmetry_space_group_name_H-M "C 2/M"
_symmetry_group_IT_number 12
_symmetry_cell_setting 'monoclinic'
loop_
_space_group_symop_operation_xyz
x,y,z
-x,y,-z
-x,-y,-z
x,-y,z
1/2+x,1/2+y,z
1/2-x,1/2+y,-z
1/2-x,1/2-y,-z
1/2+x,1/2-y,z
loop_
_atom_site_type_symbol
_atom_site_label
_atom_site_fract_x
_atom_site_fract_y
_atom_site_fract_z
Si Si1 0.980503 0.342250 0.590907
Si Si2 0.061542 0.163202 0.752975
Si Si3 0.562347 0.346184 0.104512
Si Si4 0.647656 0.836140 0.081599
Si Si5 0.439927 0.664015 0.095573
Si Si6 0.189899 0.839739 0.762585
Si Si7 0.385255 0.157304 0.396716
O O1 0.969540 0.500000 0.608402
O O2 0.910817 0.294045 0.491628
O O3 0.994012 0.241529 0.664849
O O4 0.047743 0.335170 0.597323
O O5 0.068936 0.210802 0.835361
O O6 0.135141 0.204898 0.776334
O O7 0.045015 0.000000 0.734010
O O8 0.599116 0.500000 0.139497
O O9 0.619408 0.229496 0.128655
O O10 0.522453 0.307124 0.141441
O O11 0.500000 0.352596 0.000000
O O12 0.731774 0.811011 0.145781
O O13 0.627667 0.000000 0.063571
O O14 0.614183 0.757717 0.991172
O O15 0.420981 0.500000 0.069346
O O16 0.176846 0.754968 0.683284
O O17 0.178864 0.000000 0.733907
O O18 0.355218 0.000000 0.375972
#
# Coordination Sequence:
#
# PCOD8084803 Si02
#       7
#     8   8   8   8   8   8   8
#     4   8  14  25  40  60  84 107 136 173 205 237
#     4   9  17  29  43  60  85 115 141 165 200 247
#     4   8  15  29  46  61  77 101 137 178 212 242
#     4  10  19  29  42  62  86 110 138 173 209 242
#     4   9  18  31  45  61  82 109 142 175 204 241
#     4   9  18  29  40  60  89 114 138 168 201 244
#     4   8  14  25  41  59  81 110 140 169 202 240
#
# _framework density 15.612902999999999
#
# number of rings (size 3 to 8) (size 9 to 14) (size 15 to 20)
#    0.000    3.286    0.000    2.143    0.000    5.429 
#    0.000    2.857    0.000    0.000    0.000    1.000 
#    0.000    0.000    0.000    0.000    0.000    0.000 
#
# Total GULP energy -346999.387145 kJ/mol
# GULP energy per Si atom -12392.835255 kJ/mol
# Density = 1.557737 g / cm^3
# Si number density = 15.612903 Si / 1000 Ang^3
#
#
#
# Elastic Constant Matrix: (Units=GPa)
#
#
# Indices 1 2 3 4 5 6 
#
# 1 65.4343 41.3382 46.8705 0.0000 -8.2878 0.0000
# 2 41.3382 84.0534 65.1305 0.0000 -8.5811 0.0000
# 3 46.8705 65.1305 99.9781 0.0000 -12.7554 0.0000
# 4 0.0000 0.0000 0.0000 29.3342 0.0000 0.4556
# 5 -8.2878 -8.5811 -12.7554 0.0000 3.7286 0.0000
# 6 0.0000 0.0000 0.0000 0.4556 0.0000 18.7016
#
#
#
# Elastic Compliance Matrix: (Units=1/GPa)
#
#
# Indices 1 2 3 4 5 6 
#
# 1 0.026129 -0.006601 -0.004397 0.000000 0.027846 0.000000
# 2 -0.006601 0.025712 -0.014157 0.000000 -0.003927 0.000000
# 3 -0.004397 -0.014157 0.028183 0.000000 0.054058 0.000000
# 4 0.000000 0.000000 0.000000 0.034103 0.000000 -0.000831
# 5 0.027846 -0.003927 0.054058 0.000000 0.505984 0.000000
# 6 0.000000 0.000000 0.000000 -0.000831 0.000000 0.053492
#
#
# Mechanical properties :
#
#
# Convention : Reuss Voigt Hill
#
# Bulk Modulus (GPa) = 33.65249 61.79381 47.72315
# Shear Modulus (GPa) = 6.81371 16.76132 11.78751
#
# Velocity S-wave (km/s) = 2.09132 3.28007 2.75068
# Velocity P-wave (km/s) = 5.23761 7.34913 6.38131
#
# Compressibility (1/GPa) = 0.02971549
#
# Stress axis : x y z
#
# Youngs Moduli (GPa) = 38.27189 38.89211 35.48291
#
# Poissons Ratio (x) = 0.25671 0.15601
# Poissons Ratio (y) = 0.25262 0.50232
# Poissons Ratio (z) = 0.16827 0.55058
#
# Static dielectric constant tensor:
#      x y z
#    x 3.019790 0.000000 -0.132070 
#    y 0.000000 3.096070 0.000000 
#    z -0.132070 0.000000 3.043440 
# 
# 
# High freq. dielectric constant tensor:
#      x y z
#    x 1.566720 0.000000 -0.006650 
#    y 0.000000 1.602940 0.000000 
#    z -0.006650 0.000000 1.585150 
# 
# From -- ./inp_files/291842.got.cif
#   From: 2010.06.25/outbox.cif.g09.slc.cpg/sg12_146_cif.got.tgz:291842.got - 2010.06.28 00:19:55.
