data_PCOD8084614
_publ_section_title
;
Structure prediction by ZEFSAII (Michael W. Deem and Ramdas Pophale) SiO2 
 PCOD8084614
Probable space group: C 2/M
;
_chemical_formula_sum "Si O2"
_cell_formula_units_Z 48
_cell_length_a 16.583137
_cell_length_b 31.154650
_cell_length_c 8.528179
_cell_angle_alpha 90.000000
_cell_angle_beta 33.847373
_cell_angle_gamma 90.000000
_cell_volume 2454.072672
_symmetry_space_group_name_H-M "C 2/M"
_symmetry_group_IT_number 12
_symmetry_cell_setting 'monoclinic'
loop_
_space_group_symop_operation_xyz
x,y,z
-x,y,-z
-x,-y,-z
x,-y,z
1/2+x,1/2+y,z
1/2-x,1/2+y,-z
1/2-x,1/2-y,-z
1/2+x,1/2-y,z
loop_
_atom_site_type_symbol
_atom_site_label
_atom_site_fract_x
_atom_site_fract_y
_atom_site_fract_z
Si Si1 0.916243 0.500000 0.798250
Si Si2 0.548699 0.083433 0.602482
Si Si3 0.911288 0.247123 0.792626
Si Si4 0.050726 0.325672 0.740000
Si Si5 0.881214 0.078968 0.053829
Si Si6 0.901589 0.000000 0.804895
Si Si7 0.370028 0.327484 0.096014
O O1 0.000000 0.500000 0.500000
O O2 0.957506 0.543747 0.823715
O O3 0.752138 0.500000 0.023038
O O4 0.500000 0.090367 0.500000
O O5 0.506320 0.126265 0.764764
O O6 0.714672 0.069026 0.368216
O O7 0.000000 0.231314 0.500000
O O8 0.966285 0.292821 0.765064
O O9 0.750000 0.250000 0.000000
O O10 0.919784 0.211757 0.911570
O O11 0.222257 0.318481 0.432399
O O12 0.000000 0.316922 0.000000
O O13 0.934185 0.043358 0.847289
O O14 0.864580 0.127431 0.008411
O O15 0.000000 0.077198 0.000000
O O16 0.000000 0.000000 0.500000
O O17 0.500000 0.335099 0.000000
#
# Coordination Sequence:
#
# PCOD8084614 Si02
#       7
#     4   8   8   8   8   4   8
#     4  10  18  38  66  90 117 167 214 250 309 364
#     4  10  19  40  71  88 120 169 219 256 305 378
#     4  12  25  41  65  94 121 163 214 258 312 376
#     4  11  25  42  64  94 129 166 206 264 322 372
#     4  10  21  41  64  91 125 169 206 252 319 380
#     4  12  23  38  62  98 129 164 207 268 314 371
#     4  10  24  44  64  90 128 167 207 259 318 377
#
# _framework density 19.559324
#
# number of rings (size 3 to 8) (size 9 to 14) (size 15 to 20)
#    0.000    1.333    5.000    1.250    4.667    2.000 
#    9.000    0.417    0.000    0.000    0.000    0.000 
#    0.000    0.000    0.000    0.000    0.000    0.000 
#
# Total GULP energy -297336.840052 kJ/mol
# GULP energy per Si atom -12389.035002 kJ/mol
# Density = 1.951481 g / cm^3
# Si number density = 19.559324 Si / 1000 Ang^3
#
#
#
# Elastic Constant Matrix: (Units=GPa)
#
#
# Indices 1 2 3 4 5 6 
#
# 1 81.4992 34.5645 49.8554 0.0000 -24.8658 0.0000
# 2 34.5645 147.1879 52.5417 0.0000 2.4822 0.0000
# 3 49.8554 52.5417 126.4144 0.0000 -4.2804 0.0000
# 4 0.0000 0.0000 0.0000 32.8471 0.0000 15.1859
# 5 -24.8658 2.4822 -4.2804 0.0000 40.1365 0.0000
# 6 0.0000 0.0000 0.0000 15.1859 0.0000 3.1543
#
#
#
# Elastic Compliance Matrix: (Units=1/GPa)
#
#
# Indices 1 2 3 4 5 6 
#
# 1 0.021611 -0.002823 -0.006915 0.000000 0.012825 0.000000
# 2 -0.002823 0.008375 -0.002453 0.000000 -0.002528 0.000000
# 3 -0.006915 -0.002453 0.011559 0.000000 -0.002900 0.000000
# 4 0.000000 0.000000 0.000000 -0.024837 0.000000 0.119573
# 5 0.012825 -0.002528 -0.002900 0.000000 0.032708 0.000000
# 6 0.000000 0.000000 0.000000 0.119573 0.000000 -0.258637
#
#
# Mechanical properties :
#
#
# Convention : Reuss Voigt Hill
#
# Bulk Modulus (GPa) = 58.26697 69.89163 64.07930
# Shear Modulus (GPa) = -27.91461 29.77026 0.92782
#
# Velocity S-wave (km/s) = -3.78190 3.90558 0.68949
# Velocity P-wave (km/s) = 3.28393 7.49325 5.78502
#
# Compressibility (1/GPa) = 0.01716238
#
# Stress axis : x y z
#
# Youngs Moduli (GPa) = 46.27362 119.39842 86.51016
#
# Poissons Ratio (x) = 0.33701 0.59825
# Poissons Ratio (y) = 0.13061 0.21225
# Poissons Ratio (z) = 0.32000 0.29294
#
# Static dielectric constant tensor:
#      x y z
#    x 3.580770 0.000000 -0.260500 
#    y 0.000000 3.758130 0.000000 
#    z -0.260500 0.000000 3.453440 
# 
# 
# High freq. dielectric constant tensor:
#      x y z
#    x 1.761010 0.000000 -0.029470 
#    y 0.000000 1.792180 0.000000 
#    z -0.029470 0.000000 1.748450 
# 
# From -- ./inp_files/80660.got.cif
#   From: 2010.06.25/outbox.cif.g09.slc.cpg/sg12_41_cif.got.tgz:80660.got - 2010.06.28 00:19:55.
