data_PCOD8084915
_publ_section_title
;
Structure prediction by ZEFSAII (Michael W. Deem and Ramdas Pophale) SiO2 
 PCOD8084915
Probable space group: C 2/M
;
_chemical_formula_sum "Si O2"
_cell_formula_units_Z 48
_cell_length_a 18.103554
_cell_length_b 10.864340
_cell_length_c 22.435957
_cell_angle_alpha 90.000000
_cell_angle_beta 143.543117
_cell_angle_gamma 90.000000
_cell_volume 2622.148994
_symmetry_space_group_name_H-M "C 2/M"
_symmetry_group_IT_number 12
_symmetry_cell_setting 'monoclinic'
loop_
_space_group_symop_operation_xyz
x,y,z
-x,y,-z
-x,-y,-z
x,-y,z
1/2+x,1/2+y,z
1/2-x,1/2+y,-z
1/2-x,1/2-y,-z
1/2+x,1/2-y,z
loop_
_atom_site_type_symbol
_atom_site_label
_atom_site_fract_x
_atom_site_fract_y
_atom_site_fract_z
Si Si1 0.044599 0.635731 0.711913
Si Si2 0.190421 0.634851 0.019527
Si Si3 0.421743 0.852640 0.393859
Si Si4 0.161679 0.863390 0.083011
Si Si5 0.354606 0.358065 0.794639
Si Si6 0.556011 0.739614 0.835560
O O1 0.987145 0.500000 0.682709
O O2 0.010621 0.688945 0.624184
O O3 0.193179 0.629674 0.809792
O O4 0.993764 0.719935 0.732553
O O5 0.154513 0.500000 0.022723
O O6 0.134704 0.749094 0.021533
O O7 0.340212 0.635887 0.110594
O O8 0.130652 0.646715 0.914734
O O9 0.500000 0.798948 0.500000
O O10 0.281575 0.798294 0.304488
O O11 0.417495 0.000000 0.392227
O O12 0.095610 0.837982 0.104683
O O13 0.119581 0.000000 0.030703
O O14 0.343956 0.500000 0.772987
O O15 0.447840 0.300764 0.808503
#
# Coordination Sequence:
#
# PCOD8084915 Si02
#       6
#     8   8   8   8   8   8
#     4   8  14  27  45  64  90 121 150 183 233 288
#     4  10  20  32  46  65  93 129 167 199 229 271
#     4   8  14  27  49  71  88 111 147 193 238 279
#     4   8  16  31  49  66  89 125 162 196 234 275
#     4   9  17  30  47  68  92 118 153 194 235 277
#     4  10  19  29  44  65  94 126 157 191 234 276
#
# _framework density 18.305596999999999
#
# number of rings (size 3 to 8) (size 9 to 14) (size 15 to 20)
#    0.000    3.167    0.000    3.000    0.000    5.333 
#    0.000    5.000    0.000    0.000    0.000    0.000 
#    0.000   74.667    0.000    0.000    0.000    0.000 
#
# Total GULP energy -297320.675069 kJ/mol
# GULP energy per Si atom -12388.361461 kJ/mol
# Density = 1.826393 g / cm^3
# Si number density = 18.305597 Si / 1000 Ang^3
#
#
#
# Elastic Constant Matrix: (Units=GPa)
#
#
# Indices 1 2 3 4 5 6 
#
# 1 122.6259 44.4532 36.7947 0.0000 -23.3038 0.0000
# 2 44.4532 92.1832 27.8212 0.0001 -15.6154 0.0000
# 3 36.7947 27.8212 77.2197 0.0002 -32.1390 0.0001
# 4 0.0000 0.0001 0.0002 10.0126 0.0001 -5.7573
# 5 -23.3038 -15.6154 -32.1390 0.0001 30.6956 0.0000
# 6 0.0000 0.0000 0.0001 -5.7573 0.0000 24.8748
#
#
#
# Elastic Compliance Matrix: (Units=1/GPa)
#
#
# Indices 1 2 3 4 5 6 
#
# 1 0.011012 -0.003977 -0.002086 0.000000 0.004153 0.000000
# 2 -0.003977 0.013749 -0.002489 0.000000 0.001369 0.000000
# 3 -0.002086 -0.002489 0.024200 -0.000001 0.022489 0.000000
# 4 0.000000 0.000000 -0.000001 0.115206 -0.000001 0.026665
# 5 0.004153 0.001369 0.022489 -0.000001 0.059974 0.000000
# 6 0.000000 0.000000 0.000000 0.026665 0.000000 0.046373
#
#
# Mechanical properties :
#
#
# Convention : Reuss Voigt Hill
#
# Bulk Modulus (GPa) = 31.38885 56.68522 44.03703
# Shear Modulus (GPa) = 16.76524 25.31391 21.03957
#
# Velocity S-wave (km/s) = 3.02959 3.72270 3.39389
# Velocity P-wave (km/s) = 5.42423 7.03643 6.28226
#
# Compressibility (1/GPa) = 0.03185845
#
# Stress axis : x y z
#
# Youngs Moduli (GPa) = 90.81248 72.73324 41.32163
#
# Poissons Ratio (x) = 0.28927 0.08618
# Poissons Ratio (y) = 0.36118 0.10283
# Poissons Ratio (z) = 0.18939 0.18100
#
# Static dielectric constant tensor:
#      x y z
#    x 3.574060 0.000000 -0.248020 
#    y 0.000000 3.059310 0.000000 
#    z -0.248020 0.000000 3.565030 
# 
# 
# High freq. dielectric constant tensor:
#      x y z
#    x 1.714470 0.000000 -0.017080 
#    y 0.000000 1.665880 0.000000 
#    z -0.017080 0.000000 1.687980 
# 
# From -- ./inp_files/222057.got.cif
#   From: 2010.06.25/outbox.cif.g09.slc.cpg/sg12_112_cif.got.tgz:222057.got - 2010.06.28 00:19:55.
