data_PCOD8084315
_publ_section_title
;
Structure prediction by ZEFSAII (Michael W. Deem and Ramdas Pophale) SiO2 
 PCOD8084315
Probable space group: C 2/M
;
_chemical_formula_sum "Si O2"
_cell_formula_units_Z 64
_cell_length_a 14.406864
_cell_length_b 17.358607
_cell_length_c 22.190441
_cell_angle_alpha 90.000000
_cell_angle_beta 147.280077
_cell_angle_gamma 90.000000
_cell_volume 2999.662494
_symmetry_space_group_name_H-M "C 2/M"
_symmetry_group_IT_number 12
_symmetry_cell_setting 'monoclinic'
loop_
_space_group_symop_operation_xyz
x,y,z
-x,y,-z
-x,-y,-z
x,-y,z
1/2+x,1/2+y,z
1/2-x,1/2+y,-z
1/2-x,1/2-y,-z
1/2+x,1/2-y,z
loop_
_atom_site_type_symbol
_atom_site_label
_atom_site_fract_x
_atom_site_fract_y
_atom_site_fract_z
Si Si1 0.548302 0.584514 0.720884
Si Si2 0.125524 0.876150 0.119099
Si Si3 0.442600 0.804384 0.406865
Si Si4 0.923110 0.714010 0.122439
Si Si5 0.453119 0.085097 0.236772
Si Si6 0.715305 0.789183 0.195862
Si Si7 0.807987 0.410892 0.528859
Si Si8 0.406865 0.368304 0.765119
O O1 0.620538 0.500000 0.744250
O O2 0.705750 0.644294 0.802805
O O3 0.394967 0.605697 0.590686
O O4 0.478652 0.578314 0.751596
O O5 0.310616 0.916037 0.212402
O O6 0.152795 0.784380 0.123493
O O7 0.040202 0.894662 0.137865
O O8 0.000000 0.909596 0.000000
O O9 0.500000 0.763224 0.500000
O O10 0.366521 0.738209 0.323014
O O11 0.599517 0.849793 0.463260
O O12 0.298947 0.867749 0.346063
O O13 0.892085 0.646453 0.153661
O O14 0.047823 0.678296 0.139194
O O15 0.024084 0.782419 0.210749
O O16 0.750000 0.750000 0.000000
O O17 0.632954 0.104475 0.369235
O O18 0.464513 0.000000 0.213406
O O19 0.848315 0.500000 0.533454
#
# Coordination Sequence:
#
# PCOD8084315 Si02
#       8
#     8   8   8   8   8   8   8   8
#     4  11  24  39  58  87 130 173 202 242 306 376
#     4  10  20  39  63  89 119 153 200 267 329 358
#     4  10  18  35  57  91 119 154 208 257 302 357
#     4  10  22  43  66  87 116 160 208 264 316 362
#     4  11  21  36  61  93 124 159 206 255 312 375
#     4  10  23  39  60  88 118 157 208 257 305 366
#     4  10  21  35  56  90 131 169 198 242 313 376
#     4  10  21  35  60  90 118 159 208 252 304 366
#
# _framework density 21.335733999999999
#
# number of rings (size 3 to 8) (size 9 to 14) (size 15 to 20)
#    0.000    2.000    3.750    2.250    0.000    4.500 
#    0.000    1.875    0.000    5.250    0.000    0.000 
#    0.000    0.000    0.000    0.000    0.000    0.000 
#
# Total GULP energy -396534.353585 kJ/mol
# GULP energy per Si atom -12391.698550 kJ/mol
# Density = 2.128717 g / cm^3
# Si number density = 21.335734 Si / 1000 Ang^3
#
#
#
# Elastic Constant Matrix: (Units=GPa)
#
#
# Indices 1 2 3 4 5 6 
#
# 1 87.1389 34.3597 28.1275 0.0001 0.5288 0.0002
# 2 34.3597 71.9719 18.1712 0.0000 2.0170 -0.0002
# 3 28.1275 18.1712 80.3471 -0.0007 -15.6391 -0.0004
# 4 0.0001 0.0000 -0.0007 19.4168 -0.0009 -6.4045
# 5 0.5288 2.0170 -15.6391 -0.0009 36.1996 -0.0001
# 6 0.0002 -0.0002 -0.0004 -6.4045 -0.0001 18.5426
#
#
#
# Elastic Compliance Matrix: (Units=1/GPa)
#
#
# Indices 1 2 3 4 5 6 
#
# 1 0.015309 -0.006174 -0.004301 -0.000001 -0.001738 0.000000
# 2 -0.006174 0.017430 -0.002131 0.000000 -0.001802 0.000000
# 3 -0.004301 -0.002131 0.015798 0.000001 0.007007 0.000001
# 4 -0.000001 0.000000 0.000001 0.058124 0.000002 0.020075
# 5 -0.001738 -0.001802 0.007007 0.000002 0.030777 0.000001
# 6 0.000000 0.000000 0.000001 0.020075 0.000001 0.060864
#
#
# Mechanical properties :
#
#
# Convention : Reuss Voigt Hill
#
# Bulk Modulus (GPa) = 42.87467 44.53053 43.70260
# Shear Modulus (GPa) = 21.61782 25.41844 23.51813
#
# Velocity S-wave (km/s) = 3.18657 3.45535 3.32367
# Velocity P-wave (km/s) = 5.80326 6.06926 5.93775
#
# Compressibility (1/GPa) = 0.02332380
#
# Stress axis : x y z
#
# Youngs Moduli (GPa) = 65.31931 57.37085 63.30067
#
# Poissons Ratio (x) = 0.35421 0.27228
# Poissons Ratio (y) = 0.40329 0.13492
# Poissons Ratio (z) = 0.28096 0.12228
#
# Static dielectric constant tensor:
#      x y z
#    x 3.781880 0.000000 0.007680 
#    y 0.000000 3.562020 0.000000 
#    z 0.007680 0.000000 3.891740 
# 
# 
# High freq. dielectric constant tensor:
#      x y z
#    x 1.821040 0.000000 -0.003260 
#    y 0.000000 1.815250 0.000000 
#    z -0.003260 0.000000 1.841120 
# 
# From -- ./inp_files/340880.got.cif
#   From: 2010.06.25/outbox.cif.g09.slc.cpg/sg12_171_cif.got.tgz:340880.got - 2010.06.28 00:19:55.
