data_PCOD8084785
_publ_section_title
;
Structure prediction by ZEFSAII (Michael W. Deem and Ramdas Pophale) SiO2 
 PCOD8084785
Probable space group: C 2/M
;
_chemical_formula_sum "Si O2"
_cell_formula_units_Z 56
_cell_length_a 27.025388
_cell_length_b 9.034101
_cell_length_c 14.592901
_cell_angle_alpha 90.000000
_cell_angle_beta 77.182499
_cell_angle_gamma 90.000000
_cell_volume 3474.077426
_symmetry_space_group_name_H-M "C 2/M"
_symmetry_group_IT_number 12
_symmetry_cell_setting 'monoclinic'
loop_
_space_group_symop_operation_xyz
x,y,z
-x,y,-z
-x,-y,-z
x,-y,z
1/2+x,1/2+y,z
1/2-x,1/2+y,-z
1/2-x,1/2-y,-z
1/2+x,1/2-y,z
loop_
_atom_site_type_symbol
_atom_site_label
_atom_site_fract_x
_atom_site_fract_y
_atom_site_fract_z
Si Si1 0.802818 0.170203 0.469907
Si Si2 0.116782 0.171164 0.704725
Si Si3 0.435621 0.671709 0.097827
Si Si4 0.454255 0.675392 0.892225
Si Si5 0.542905 0.172354 0.603373
Si Si6 0.892384 0.175333 0.567130
Si Si7 0.068941 0.327102 0.281839
O O1 0.750000 0.250000 0.500000
O O2 0.827177 0.201763 0.359012
O O3 0.842037 0.223738 0.531947
O O4 0.790837 0.000000 0.488509
O O5 0.112777 0.203520 0.815859
O O6 0.076956 0.279333 0.674525
O O7 0.101727 0.000000 0.689565
O O8 0.445978 0.500000 0.080741
O O9 0.487319 0.731437 0.123859
O O10 0.426567 0.730200 0.998185
O O11 0.449742 0.500000 0.876479
O O12 0.426513 0.759136 0.821142
O O13 0.558401 0.262902 0.506564
O O14 0.485523 0.208416 0.652619
O O15 0.551042 0.000000 0.579040
O O16 0.889892 0.248351 0.668876
O O17 0.896874 0.000000 0.573390
O O18 0.080813 0.500000 0.271455
#
# Coordination Sequence:
#
# PCOD8084785 Si02
#       7
#     8   8   8   8   8   8   8
#     4   9  19  33  50  71  91 113 144 185 233 277
#     4   9  16  29  48  68  91 121 157 190 220 265
#     4   8  14  26  45  67  89 118 161 197 219 252
#     4   9  16  27  45  65  88 125 162 191 220 254
#     4  10  19  29  41  63  94 124 153 185 223 265
#     4  10  21  34  48  65  85 117 158 190 221 270
#     4  11  21  30  41  64  96 127 154 185 226 267
#
# _framework density 16.119388000000001
#
# number of rings (size 3 to 8) (size 9 to 14) (size 15 to 20)
#    0.000    2.571    1.429    3.429    0.000    6.286 
#    0.000    2.143    0.000    0.000    0.000    1.000 
#    0.000    0.000    0.000    0.000    0.000    0.000 
#
# Total GULP energy -347002.068494 kJ/mol
# GULP energy per Si atom -12392.931018 kJ/mol
# Density = 1.608270 g / cm^3
# Si number density = 16.119388 Si / 1000 Ang^3
#
#
#
# Elastic Constant Matrix: (Units=GPa)
#
#
# Indices 1 2 3 4 5 6 
#
# 1 59.6492 26.2082 53.0456 0.0000 -2.2142 0.0000
# 2 26.2082 47.7237 38.2797 0.0000 3.0591 0.0000
# 3 53.0456 38.2797 144.4233 0.0000 11.2784 0.0000
# 4 0.0000 0.0000 0.0000 17.1614 0.0000 -1.0297
# 5 -2.2142 3.0591 11.2784 0.0000 20.3544 0.0000
# 6 0.0000 0.0000 0.0000 -1.0297 0.0000 21.0802
#
#
#
# Elastic Compliance Matrix: (Units=1/GPa)
#
#
# Indices 1 2 3 4 5 6 
#
# 1 0.029284 -0.009485 -0.008991 0.000000 0.009593 0.000000
# 2 -0.009485 0.029684 -0.004134 0.000000 -0.003202 0.000000
# 3 -0.008991 -0.004134 0.011863 0.000000 -0.006930 0.000000
# 4 0.000000 0.000000 0.000000 0.058441 0.000000 0.002855
# 5 0.009593 -0.003202 -0.006930 0.000000 0.054494 0.000000
# 6 0.000000 0.000000 0.000000 0.002855 0.000000 0.047577
#
#
# Mechanical properties :
#
#
# Convention : Reuss Voigt Hill
#
# Bulk Modulus (GPa) = 39.04496 54.09591 46.57043
# Shear Modulus (GPa) = 17.53770 20.67007 19.10389
#
# Velocity S-wave (km/s) = 3.30204 3.58482 3.44634
# Velocity P-wave (km/s) = 6.23000 7.12510 6.69253
#
# Compressibility (1/GPa) = 0.02561150
#
# Stress axis : x y z
#
# Youngs Moduli (GPa) = 34.14880 33.68831 84.29394
#
# Poissons Ratio (x) = 0.31953 0.75787
# Poissons Ratio (y) = 0.32390 0.34847
# Poissons Ratio (z) = 0.30702 0.13927
#
# Static dielectric constant tensor:
#      x y z
#    x 2.733090 0.000000 0.104440 
#    y 0.000000 2.942780 0.000000 
#    z 0.104440 0.000000 3.306820 
# 
# 
# High freq. dielectric constant tensor:
#      x y z
#    x 1.570280 0.000000 0.011000 
#    y 0.000000 1.613000 0.000000 
#    z 0.011000 0.000000 1.628260 
# 
# From -- ./inp_files/243055.got.cif
#   From: 2010.06.25/outbox.cif.g09.slc.cpg/sg12_122_cif.got.tgz:243055.got - 2010.06.28 00:19:55.
