data_PCOD8084016
_publ_section_title
;
Structure prediction by ZEFSAII (Michael W. Deem and Ramdas Pophale) SiO2 
 PCOD8084016
Probable space group: C 2/M
;
_chemical_formula_sum "Si O2"
_cell_formula_units_Z 40
_cell_length_a 18.360258
_cell_length_b 14.609371
_cell_length_c 10.727517
_cell_angle_alpha 90.000000
_cell_angle_beta 131.306956
_cell_angle_gamma 90.000000
_cell_volume 2161.502978
_symmetry_space_group_name_H-M "C 2/M"
_symmetry_group_IT_number 12
_symmetry_cell_setting 'monoclinic'
loop_
_space_group_symop_operation_xyz
x,y,z
-x,y,-z
-x,-y,-z
x,-y,z
1/2+x,1/2+y,z
1/2-x,1/2+y,-z
1/2-x,1/2-y,-z
1/2+x,1/2-y,z
loop_
_atom_site_type_symbol
_atom_site_label
_atom_site_fract_x
_atom_site_fract_y
_atom_site_fract_z
Si Si1 0.506924 0.500000 0.153848
Si Si2 0.173073 0.353916 0.704734
Si Si3 0.887639 0.845639 0.376091
Si Si4 0.445259 0.000000 0.309278
Si Si5 0.684516 0.500000 0.525443
Si Si6 0.350798 0.000000 0.529305
Si Si7 0.161951 0.898246 0.948473
O O1 0.615816 0.500000 0.326424
O O2 0.451058 0.408683 0.139385
O O3 0.500000 0.500000 0.000000
O O4 0.122185 0.260896 0.602107
O O5 0.116434 0.405642 0.755248
O O6 0.179658 0.411950 0.585948
O O7 0.280117 0.336908 0.884695
O O8 0.832395 0.909182 0.412460
O O9 0.834730 0.855287 0.184029
O O10 0.000000 0.876128 0.500000
O O11 0.500000 0.000000 0.500000
O O12 0.532603 0.000000 0.305796
O O13 0.794025 0.500000 0.596434
O O14 0.210467 0.000000 0.001082
#
# Coordination Sequence:
#
# PCOD8084016 Si02
#       7
#     4   8   8   4   4   4   8
#     4  10  18  34  56  75 111 151 179 219 271 335
#     4  10  19  35  60  82 105 139 191 234 265 323
#     4  12  21  36  55  84 114 144 184 224 281 320
#     4   8  15  34  55  76 104 133 186 234 257 314
#     4  12  22  35  55  79 123 147 172 231 272 338
#     4  10  20  36  53  84 106 148 184 221 282 315
#     4  10  18  34  56  81 110 141 187 223 270 330
#
# _framework density 18.505642999999999
#
# number of rings (size 3 to 8) (size 9 to 14) (size 15 to 20)
#    0.600    1.200    5.000    3.900    0.000    0.800 
#    0.000    0.000    0.000    2.400    0.000    0.000 
#    0.000    0.000    0.000    0.000    0.000    0.000 
#
# Total GULP energy -247811.776121 kJ/mol
# GULP energy per Si atom -12390.588806 kJ/mol
# Density = 1.846352 g / cm^3
# Si number density = 18.505643 Si / 1000 Ang^3
#
#
#
# Elastic Constant Matrix: (Units=GPa)
#
#
# Indices 1 2 3 4 5 6 
#
# 1 121.0799 46.6484 7.3035 0.0000 -3.4790 0.0000
# 2 46.6484 103.5487 14.9568 0.0000 -8.3101 0.0000
# 3 7.3035 14.9568 40.3889 0.0000 -7.0888 0.0000
# 4 0.0000 0.0000 0.0000 19.0924 0.0000 5.5992
# 5 -3.4790 -8.3101 -7.0888 0.0000 29.0596 0.0000
# 6 0.0000 0.0000 0.0000 5.5992 0.0000 13.9002
#
#
#
# Elastic Compliance Matrix: (Units=1/GPa)
#
#
# Indices 1 2 3 4 5 6 
#
# 1 0.009995 -0.004489 -0.000168 0.000000 -0.000128 0.000000
# 2 -0.004489 0.012341 -0.003378 0.000000 0.002168 0.000000
# 3 -0.000168 -0.003378 0.027025 0.000000 0.005606 0.000000
# 4 0.000000 0.000000 0.000000 0.059393 0.000000 -0.023924
# 5 -0.000128 0.002168 0.005606 0.000000 0.036384 0.000000
# 6 0.000000 0.000000 0.000000 -0.023924 0.000000 0.081579
#
#
# Mechanical properties :
#
#
# Convention : Reuss Voigt Hill
#
# Bulk Modulus (GPa) = 30.03723 44.75944 37.39834
# Shear Modulus (GPa) = 19.69414 25.48434 22.58924
#
# Velocity S-wave (km/s) = 3.26578 3.71497 3.49760
# Velocity P-wave (km/s) = 5.52151 6.52999 6.04681
#
# Compressibility (1/GPa) = 0.03329201
#
# Stress axis : x y z
#
# Youngs Moduli (GPa) = 100.05204 81.02844 37.00339
#
# Poissons Ratio (x) = 0.36371 0.00620
# Poissons Ratio (y) = 0.44910 0.12500
# Poissons Ratio (z) = 0.01676 0.27372
#
# Static dielectric constant tensor:
#      x y z
#    x 4.291800 0.000000 0.632700 
#    y 0.000000 3.197830 0.000000 
#    z 0.632700 0.000000 3.427070 
# 
# 
# High freq. dielectric constant tensor:
#      x y z
#    x 1.698310 0.000000 0.016360 
#    y 0.000000 1.703050 0.000000 
#    z 0.016360 0.000000 1.712570 
# 
# From -- ./inp_files/166402.got.cif
#   From: 2010.06.25/outbox.cif.g09.slc.cpg/sg12_84_cif.got.tgz:166402.got - 2010.06.28 00:19:55.
