data_PCOD8084355
_publ_section_title
;
Structure prediction by ZEFSAII (Michael W. Deem and Ramdas Pophale) SiO2 
 PCOD8084355
Probable space group: C 2/M
;
_chemical_formula_sum "Si O2"
_cell_formula_units_Z 48
_cell_length_a 18.710493
_cell_length_b 17.097982
_cell_length_c 15.321812
_cell_angle_alpha 90.000000
_cell_angle_beta 156.065477
_cell_angle_gamma 90.000000
_cell_volume 1988.552560
_symmetry_space_group_name_H-M "C 2/M"
_symmetry_group_IT_number 12
_symmetry_cell_setting 'monoclinic'
loop_
_space_group_symop_operation_xyz
x,y,z
-x,y,-z
-x,-y,-z
x,-y,z
1/2+x,1/2+y,z
1/2-x,1/2+y,-z
1/2-x,1/2-y,-z
1/2+x,1/2-y,z
loop_
_atom_site_type_symbol
_atom_site_label
_atom_site_fract_x
_atom_site_fract_y
_atom_site_fract_z
Si Si1 0.002072 0.408314 0.858831
Si Si2 0.428953 0.410741 0.111609
Si Si3 0.694984 0.337191 0.187922
Si Si4 0.203977 0.335509 0.520130
Si Si5 0.227731 0.814006 0.648830
Si Si6 0.609963 0.411788 0.733923
O O1 0.967473 0.500000 0.806775
O O2 0.957709 0.364108 0.718704
O O3 0.878579 0.378134 0.799210
O O4 0.207056 0.391966 0.111977
O O5 0.464141 0.500000 0.124460
O O6 0.613108 0.365032 0.317219
O O7 0.280783 0.374224 0.880606
O O8 0.347673 0.402957 0.116583
O O9 0.819942 0.369640 0.406155
O O10 0.718153 0.242363 0.209601
O O11 0.500000 0.359277 0.000000
O O12 0.210606 0.240183 0.540805
O O13 0.045460 0.855494 0.471349
O O14 0.548989 0.500000 0.645113
#
# Coordination Sequence:
#
# PCOD8084355 Si02
#       6
#     8   8   8   8   8   8
#     4  11  21  35  58  88 117 152 198 246 294 346
#     4  10  18  35  59  87 126 157 187 240 293 356
#     4   8  19  34  56  83 116 157 198 226 286 359
#     4   9  19  32  54  86 116 153 194 232 291 354
#     4  10  20  38  57  84 120 155 194 250 287 346
#     4  10  22  36  60  91 116 153 198 241 299 352
#
# _framework density 24.138159999999999
#
# number of rings (size 3 to 8) (size 9 to 14) (size 15 to 20)
#    1.000    1.333    1.667    1.500    0.000    4.333 
#    0.000    0.833    7.333    5.000    0.000    2.333 
#    0.000    0.000    0.000    0.000    0.000    0.000 
#
# Total GULP energy -297414.203491 kJ/mol
# GULP energy per Si atom -12392.258479 kJ/mol
# Density = 2.408322 g / cm^3
# Si number density = 24.138160 Si / 1000 Ang^3
#
#
#
# Elastic Constant Matrix: (Units=GPa)
#
#
# Indices 1 2 3 4 5 6 
#
# 1 62.7656 19.9820 28.9348 -0.0001 12.6908 0.0001
# 2 19.9820 117.5948 35.8634 0.0000 20.9342 0.0001
# 3 28.9348 35.8634 105.0968 0.0004 10.4590 0.0026
# 4 -0.0001 0.0000 0.0004 41.0540 0.0002 -3.2104
# 5 12.6908 20.9342 10.4590 0.0002 30.6667 0.0017
# 6 0.0001 0.0001 0.0026 -3.2104 0.0017 8.7099
#
#
#
# Elastic Compliance Matrix: (Units=1/GPa)
#
#
# Indices 1 2 3 4 5 6 
#
# 1 0.019474 -0.000892 -0.004467 0.000000 -0.005927 0.000002
# 2 -0.000892 0.010547 -0.002768 0.000000 -0.005887 0.000002
# 3 -0.004467 -0.002768 0.011715 0.000000 -0.000257 -0.000004
# 4 0.000000 0.000000 0.000000 0.025081 -0.000001 0.009245
# 5 -0.005927 -0.005887 -0.000257 -0.000001 0.039168 -0.000008
# 6 0.000002 0.000002 -0.000004 0.009245 -0.000008 0.118220
#
#
# Mechanical properties :
#
#
# Convention : Reuss Voigt Hill
#
# Bulk Modulus (GPa) = 39.24226 50.55751 44.89988
# Shear Modulus (GPa) = 20.08411 29.46458 24.77435
#
# Velocity S-wave (km/s) = 2.88765 3.49759 3.20715
# Velocity P-wave (km/s) = 5.23552 6.10749 5.68824
#
# Compressibility (1/GPa) = 0.02548273
#
# Stress axis : x y z
#
# Youngs Moduli (GPa) = 51.35074 94.80986 85.35986
#
# Poissons Ratio (x) = 0.08453 0.38134
# Poissons Ratio (y) = 0.04578 0.23627
# Poissons Ratio (z) = 0.22941 0.26242
#
# Static dielectric constant tensor:
#      x y z
#    x 4.382540 0.000000 -0.447060 
#    y 0.000000 4.307950 0.000000 
#    z -0.447060 0.000000 4.242060 
# 
# 
# High freq. dielectric constant tensor:
#      x y z
#    x 1.960950 0.000000 -0.024740 
#    y 0.000000 1.955320 0.000000 
#    z -0.024740 0.000000 1.944570 
# 
# From -- ./inp_files/285442.got.cif
#   From: 2010.06.25/outbox.cif.g09.slc.cpg/sg12_143_cif.got.tgz:285442.got - 2010.06.28 00:19:55.
