data_PCOD8084044
_publ_section_title
;
Structure prediction by ZEFSAII (Michael W. Deem and Ramdas Pophale) SiO2 
 PCOD8084044
Probable space group: C 2/M
;
_chemical_formula_sum "Si O2"
_cell_formula_units_Z 40
_cell_length_a 9.569062
_cell_length_b 24.866017
_cell_length_c 9.323236
_cell_angle_alpha 90.000000
_cell_angle_beta 70.372004
_cell_angle_gamma 90.000000
_cell_volume 2089.508011
_symmetry_space_group_name_H-M "C 2/M"
_symmetry_group_IT_number 12
_symmetry_cell_setting 'monoclinic'
loop_
_space_group_symop_operation_xyz
x,y,z
-x,y,-z
-x,-y,-z
x,-y,z
1/2+x,1/2+y,z
1/2-x,1/2+y,-z
1/2-x,1/2-y,-z
1/2+x,1/2-y,z
loop_
_atom_site_type_symbol
_atom_site_label
_atom_site_fract_x
_atom_site_fract_y
_atom_site_fract_z
Si Si1 0.664102 0.593506 0.603449
Si Si2 0.421066 0.940113 0.671911
Si Si3 0.838185 0.938026 0.715097
Si Si4 0.074983 0.365813 0.832031
Si Si5 0.344578 0.803718 0.468186
O O1 0.745102 0.560147 0.701558
O O2 0.695178 0.563081 0.443103
O O3 0.490133 0.593477 0.697756
O O4 0.734805 0.652876 0.578075
O O5 0.500000 0.916703 0.500000
O O6 0.454950 0.902705 0.793588
O O7 0.478307 0.000000 0.686265
O O8 0.710087 0.904180 0.837354
O O9 0.843386 0.000000 0.765697
O O10 0.125489 0.318299 0.708922
O O11 0.000000 0.340717 0.000000
O O12 0.500000 0.797191 0.500000
O O13 0.250000 0.750000 0.500000
#
# Coordination Sequence:
#
# PCOD8084044 Si02
#       5
#     8   8   8   8   8
#     4  10  18  34  56  87 119 149 201 254 287 337
#     4  11  18  32  59  87 118 161 203 239 282 350
#     4  10  19  31  55  90 123 158 195 238 289 342
#     4  11  23  40  58  87 126 158 196 245 304 361
#     4  11  23  41  68  89 109 149 206 258 307 356
#
# _framework density 19.143263000000001
#
# number of rings (size 3 to 8) (size 9 to 14) (size 15 to 20)
#    0.000    1.400    6.000    3.000    5.600    1.600 
#    0.000    2.000    0.000    2.400    0.000    0.000 
#    0.000    0.000    0.000    0.000    0.000    0.000 
#
# Total GULP energy -247946.211536 kJ/mol
# GULP energy per Si atom -12397.310577 kJ/mol
# Density = 1.909969 g / cm^3
# Si number density = 19.143263 Si / 1000 Ang^3
#
#
#
# Elastic Constant Matrix: (Units=GPa)
#
#
# Indices 1 2 3 4 5 6 
#
# 1 138.5619 56.9251 36.2617 0.0000 -2.5351 0.0000
# 2 56.9251 117.2813 34.0901 0.0000 -4.4052 0.0000
# 3 36.2617 34.0901 85.0845 0.0000 -7.1542 0.0000
# 4 0.0000 0.0000 0.0000 14.0084 0.0000 -0.4631
# 5 -2.5351 -4.4052 -7.1542 0.0000 18.5258 0.0000
# 6 0.0000 0.0000 0.0000 -0.4631 0.0000 35.2152
#
#
#
# Elastic Compliance Matrix: (Units=1/GPa)
#
#
# Indices 1 2 3 4 5 6 
#
# 1 0.009462 -0.003880 -0.002529 0.000000 -0.000604 0.000000
# 2 -0.003880 0.011254 -0.002765 0.000000 0.001077 0.000000
# 3 -0.002529 -0.002765 0.014319 0.000000 0.004526 0.000000
# 4 0.000000 0.000000 0.000000 0.071417 0.000000 0.000939
# 5 -0.000604 0.001077 0.004526 0.000000 0.055900 0.000000
# 6 0.000000 0.000000 0.000000 0.000939 0.000000 0.028409
#
#
# Mechanical properties :
#
#
# Convention : Reuss Voigt Hill
#
# Bulk Modulus (GPa) = 59.92489 66.16458 63.04473
# Shear Modulus (GPa) = 23.29155 27.79329 25.54242
#
# Velocity S-wave (km/s) = 3.49190 3.81446 3.65674
# Velocity P-wave (km/s) = 6.90139 7.35106 7.12977
#
# Compressibility (1/GPa) = 0.01668756
#
# Stress axis : x y z
#
# Youngs Moduli (GPa) = 105.68848 88.85776 69.83729
#
# Poissons Ratio (x) = 0.34478 0.17659
# Poissons Ratio (y) = 0.41009 0.19308
# Poissons Ratio (z) = 0.26725 0.24567
#
# Static dielectric constant tensor:
#      x y z
#    x 3.909840 0.000000 0.015260 
#    y 0.000000 3.415280 0.000000 
#    z 0.015260 0.000000 3.062190 
# 
# 
# High freq. dielectric constant tensor:
#      x y z
#    x 1.769260 0.000000 0.005570 
#    y 0.000000 1.732730 0.000000 
#    z 0.005570 0.000000 1.692960 
# 
# From -- ./inp_files/40310.got.cif
#   From: 2010.06.25/outbox.cif.g09.slc.cpg/sg12_21_cif.got.tgz:40310.got - 2010.06.28 00:19:55.
