data_PCOD8084616
_publ_section_title
;
Structure prediction by ZEFSAII (Michael W. Deem and Ramdas Pophale) SiO2 
 PCOD8084616
Probable space group: C 2/M
;
_chemical_formula_sum "Si O2"
_cell_formula_units_Z 44
_cell_length_a 12.515862
_cell_length_b 19.865115
_cell_length_c 12.882419
_cell_angle_alpha 90.000000
_cell_angle_beta 147.313988
_cell_angle_gamma 90.000000
_cell_volume 1729.701116
_symmetry_space_group_name_H-M "C 2/M"
_symmetry_group_IT_number 12
_symmetry_cell_setting 'monoclinic'
loop_
_space_group_symop_operation_xyz
x,y,z
-x,y,-z
-x,-y,-z
x,-y,z
1/2+x,1/2+y,z
1/2-x,1/2+y,-z
1/2-x,1/2-y,-z
1/2+x,1/2-y,z
loop_
_atom_site_type_symbol
_atom_site_label
_atom_site_fract_x
_atom_site_fract_y
_atom_site_fract_z
Si Si1 0.011569 0.000000 0.252259
Si Si2 0.778755 0.500000 0.272442
Si Si3 0.712790 0.500000 0.617798
Si Si4 0.548662 0.644120 0.771012
Si Si5 0.240900 0.361520 0.861803
Si Si6 0.852449 0.361736 0.681117
Si Si7 0.296153 0.271703 0.277812
O O1 0.880190 0.065516 0.172343
O O2 0.106859 0.000000 0.216738
O O3 0.198664 0.000000 0.481637
O O4 0.739476 0.435259 0.169555
O O5 0.000000 0.500000 0.500000
O O6 0.500000 0.500000 0.500000
O O7 0.827372 0.429702 0.731369
O O8 0.324525 0.650923 0.547118
O O9 0.701027 0.688834 0.829524
O O10 0.571934 0.660754 0.913063
O O11 0.231804 0.307677 0.761461
O O12 0.048217 0.359793 0.775167
O O13 0.868587 0.300928 0.778227
O O14 0.500000 0.288843 0.500000
#
# Coordination Sequence:
#
# PCOD8084616 Si02
#       7
#     4   4   4   8   8   8   8
#     4  10  21  39  66  94 129 166 202 262 323 368
#     4  12  25  43  65  96 131 171 218 264 319 382
#     4  10  18  38  69  96 127 166 209 257 314 378
#     4  10  22  42  64  96 130 163 213 267 320 385
#     4  12  25  42  66  95 128 170 221 265 316 389
#     4  10  22  42  67  94 128 170 211 266 330 380
#     4  10  23  42  64  93 129 168 213 266 323 387
#
# _framework density 25.437920999999999
#
# number of rings (size 3 to 8) (size 9 to 14) (size 15 to 20)
#    0.000    1.455    0.000    7.091    0.000    6.545 
#    0.000    5.455    0.000    7.636    0.000    0.000 
#    0.000    0.000    0.000    0.000    0.000    0.000 
#
# Total GULP energy -272626.706432 kJ/mol
# GULP energy per Si atom -12392.123020 kJ/mol
# Density = 2.538002 g / cm^3
# Si number density = 25.437921 Si / 1000 Ang^3
#
#
#
# Elastic Constant Matrix: (Units=GPa)
#
#
# Indices 1 2 3 4 5 6 
#
# 1 134.4206 91.3407 25.7245 0.0001 -8.3170 0.0000
# 2 91.3407 193.2910 33.3021 0.0000 -10.1943 0.0000
# 3 25.7245 33.3021 64.4443 0.0001 -16.7574 0.0000
# 4 0.0001 0.0000 0.0001 24.3090 0.0001 -21.1182
# 5 -8.3170 -10.1943 -16.7574 0.0001 36.9096 0.0000
# 6 0.0000 0.0000 0.0000 -21.1182 0.0000 41.3224
#
#
#
# Elastic Compliance Matrix: (Units=1/GPa)
#
#
# Indices 1 2 3 4 5 6 
#
# 1 0.011169 -0.004948 -0.001817 0.000000 0.000325 0.000000
# 2 -0.004948 0.007873 -0.002061 0.000000 0.000124 0.000000
# 3 -0.001817 -0.002061 0.019336 0.000000 0.007800 0.000000
# 4 0.000000 0.000000 0.000000 0.073985 0.000000 0.037811
# 5 0.000325 0.000124 0.007800 0.000000 0.030742 0.000000
# 6 0.000000 0.000000 0.000000 0.037811 0.000000 0.043523
#
#
# Mechanical properties :
#
#
# Convention : Reuss Voigt Hill
#
# Bulk Modulus (GPa) = 48.24827 76.98783 62.61805
# Shear Modulus (GPa) = 23.67532 36.62743 30.15138
#
# Velocity S-wave (km/s) = 3.05406 3.79869 3.44654
# Velocity P-wave (km/s) = 5.60755 7.04065 6.36456
#
# Compressibility (1/GPa) = 0.02072613
#
# Stress axis : x y z
#
# Youngs Moduli (GPa) = 89.53037 127.00991 51.71680
#
# Poissons Ratio (x) = 0.62844 0.09397
# Poissons Ratio (y) = 0.44299 0.10661
# Poissons Ratio (z) = 0.16268 0.26181
#
# Static dielectric constant tensor:
#      x y z
#    x 4.486810 0.000000 -0.371130 
#    y 0.000000 5.077630 0.000000 
#    z -0.371130 0.000000 4.744910 
# 
# 
# High freq. dielectric constant tensor:
#      x y z
#    x 2.011430 0.000000 -0.017650 
#    y 0.000000 2.032510 0.000000 
#    z -0.017650 0.000000 2.010860 
# 
# From -- ./inp_files/136133.got.cif
#   From: 2010.06.25/outbox.cif.g09.slc.cpg/sg12_69_cif.got.tgz:136133.got - 2010.06.28 00:19:55.
