data_PCOD8084954
_publ_section_title
;
Structure prediction by ZEFSAII (Michael W. Deem and Ramdas Pophale) SiO2 
 PCOD8084954
Probable space group: C 2/M
;
_chemical_formula_sum "Si O2"
_cell_formula_units_Z 64
_cell_length_a 30.271920
_cell_length_b 17.878558
_cell_length_c 12.774288
_cell_angle_alpha 90.000000
_cell_angle_beta 148.528251
_cell_angle_gamma 90.000000
_cell_volume 3609.479864
_symmetry_space_group_name_H-M "C 2/M"
_symmetry_group_IT_number 12
_symmetry_cell_setting 'monoclinic'
loop_
_space_group_symop_operation_xyz
x,y,z
-x,y,-z
-x,-y,-z
x,-y,z
1/2+x,1/2+y,z
1/2-x,1/2+y,-z
1/2-x,1/2-y,-z
1/2+x,1/2-y,z
loop_
_atom_site_type_symbol
_atom_site_label
_atom_site_fract_x
_atom_site_fract_y
_atom_site_fract_z
Si Si1 0.858251 0.370971 0.336691
Si Si2 0.375954 0.871512 0.142429
Si Si3 0.314676 0.415715 0.257866
Si Si4 0.332184 0.268501 0.411416
Si Si5 0.504119 0.231527 0.129091
Si Si6 0.855373 0.773714 0.974703
Si Si7 0.495996 0.919014 0.766731
Si Si8 0.828703 0.916622 0.052329
O O1 0.908530 0.375082 0.328331
O O2 0.845140 0.283012 0.335236
O O3 0.906375 0.408351 0.530077
O O4 0.772164 0.415861 0.153965
O O5 0.435549 0.917576 0.186868
O O6 0.285460 0.909509 0.953504
O O7 0.375020 0.784927 0.106187
O O8 0.338067 0.500000 0.343156
O O9 0.345313 0.354713 0.404163
O O10 0.357060 0.400182 0.229703
O O11 0.402954 0.253776 0.642010
O O12 0.237211 0.247664 0.261664
O O13 0.488710 0.142905 0.113748
O O14 0.500000 0.252729 0.000000
O O15 0.427481 0.273804 0.031893
O O16 0.863579 0.855881 0.041634
O O17 0.499320 0.000000 0.828675
O O18 0.859508 0.000000 0.081362
#
# Coordination Sequence:
#
# PCOD8084954 Si02
#       8
#     8   8   8   8   8   8   8   8
#     4   9  16  26  43  70 104 137 162 183 218 280
#     4   9  16  26  43  70 104 137 162 183 218 280
#     4   9  16  27  46  72 101 132 162 192 230 278
#     4   9  18  33  52  72  97 129 162 198 239 283
#     4  10  22  38  54  71  89 118 165 211 249 290
#     4   9  18  33  52  72  97 129 162 198 239 283
#     4  10  19  29  44  70 101 128 154 190 237 286
#     4   9  16  27  46  72 101 132 162 192 230 278
#
# _framework density 17.731086000000001
#
# number of rings (size 3 to 8) (size 9 to 14) (size 15 to 20)
#    0.000    2.750    0.000    1.875    0.000    5.750 
#    0.000    2.500    0.000    3.000    0.000    0.000 
#    0.000    0.000    0.000    0.000    0.000    0.000 
#
# Total GULP energy -396575.934001 kJ/mol
# GULP energy per Si atom -12392.997938 kJ/mol
# Density = 1.769073 g / cm^3
# Si number density = 17.731086 Si / 1000 Ang^3
#
#
#
# Elastic Constant Matrix: (Units=GPa)
#
#
# Indices 1 2 3 4 5 6 
#
# 1 67.3393 26.1548 18.6696 0.0000 -2.8229 0.0000
# 2 26.1548 121.4813 10.8159 0.0000 -3.9115 0.0000
# 3 18.6696 10.8159 40.6757 0.0000 -2.0028 0.0000
# 4 0.0000 0.0000 0.0000 13.8548 0.0000 1.4850
# 5 -2.8229 -3.9115 -2.0028 0.0000 21.2687 0.0000
# 6 0.0000 0.0000 0.0000 1.4850 0.0000 11.9458
#
#
#
# Elastic Compliance Matrix: (Units=1/GPa)
#
#
# Indices 1 2 3 4 5 6 
#
# 1 0.018214 -0.003222 -0.007448 0.000000 0.001123 0.000000
# 2 -0.003222 0.009040 -0.000868 0.000000 0.001153 0.000000
# 3 -0.007448 -0.000868 0.028309 0.000000 0.001518 0.000000
# 4 0.000000 0.000000 0.000000 0.073152 0.000000 -0.009094
# 5 0.001123 0.001153 0.001518 0.000000 0.047522 0.000000
# 6 0.000000 0.000000 0.000000 -0.009094 0.000000 0.084842
#
#
# Mechanical properties :
#
#
# Convention : Reuss Voigt Hill
#
# Bulk Modulus (GPa) = 30.78214 37.86409 34.32311
# Shear Modulus (GPa) = 16.95015 21.00423 18.97719
#
# Velocity S-wave (km/s) = 3.09521 3.44553 3.27506
# Velocity P-wave (km/s) = 5.49290 6.10163 5.80525
#
# Compressibility (1/GPa) = 0.03248637
#
# Stress axis : x y z
#
# Youngs Moduli (GPa) = 54.90404 110.62128 35.32486
#
# Poissons Ratio (x) = 0.35643 0.26309
# Poissons Ratio (y) = 0.17691 0.03066
# Poissons Ratio (z) = 0.40891 0.09603
#
# Static dielectric constant tensor:
#      x y z
#    x 3.062680 0.000000 0.189720 
#    y 0.000000 3.362420 0.000000 
#    z 0.189720 0.000000 3.109400 
# 
# 
# High freq. dielectric constant tensor:
#      x y z
#    x 1.657300 0.000000 0.016480 
#    y 0.000000 1.692670 0.000000 
#    z 0.016480 0.000000 1.665500 
# 
# From -- ./inp_files/157871.got.cif
#   From: 2010.06.25/outbox.cif.g09.slc.cpg/sg12_79_cif.got.tgz:157871.got - 2010.06.28 00:19:55.
