data_PCOD8084259
_publ_section_title
;
Structure prediction by ZEFSAII (Michael W. Deem and Ramdas Pophale) SiO2 
 PCOD8084259
Probable space group: C 2/M
;
_chemical_formula_sum "Si O2"
_cell_formula_units_Z 36
_cell_length_a 8.947377
_cell_length_b 30.464704
_cell_length_c 9.693708
_cell_angle_alpha 90.000000
_cell_angle_beta 135.433350
_cell_angle_gamma 90.000000
_cell_volume 1854.205775
_symmetry_space_group_name_H-M "C 2/M"
_symmetry_group_IT_number 12
_symmetry_cell_setting 'monoclinic'
loop_
_space_group_symop_operation_xyz
x,y,z
-x,y,-z
-x,-y,-z
x,-y,z
1/2+x,1/2+y,z
1/2-x,1/2+y,-z
1/2-x,1/2-y,-z
1/2+x,1/2-y,z
loop_
_atom_site_type_symbol
_atom_site_label
_atom_site_fract_x
_atom_site_fract_y
_atom_site_fract_z
Si Si1 0.823442 0.118126 0.128098
Si Si2 0.148967 0.809744 0.373895
Si Si3 0.107319 0.048415 0.423167
Si Si4 0.500000 0.753768 0.500000
Si Si5 0.618353 0.877605 0.291729
O O1 0.739699 0.126424 0.227017
O O2 0.990204 0.156099 0.196547
O O3 0.943471 0.071082 0.207273
O O4 0.635044 0.118575 0.893425
O O5 0.286656 0.783704 0.350585
O O6 0.319879 0.834152 0.584574
O O7 0.006812 0.775684 0.367464
O O8 0.313969 0.079193 0.577797
O O9 0.000000 0.043138 0.500000
O O10 0.170888 0.000000 0.408795
#
# Coordination Sequence:
#
# PCOD8084259 Si02
#       5
#     8   8   8   4   8
#     4   9  16  28  46  66  94 127 155 188 234 278
#     4  10  18  35  47  69  92 125 153 198 232 280
#     4   8  14  24  40  66  98 127 155 187 225 274
#     4  10  20  32  54  66  92 120 160 196 240 270
#     4   9  16  28  46  66  94 127 155 188 234 278
#
# _framework density 19.415320999999999
#
# number of rings (size 3 to 8) (size 9 to 14) (size 15 to 20)
#    0.000    2.889    2.222    1.333    0.000    0.889 
#    0.000   12.222    0.000    0.000    0.000   12.444 
#    0.000   14.222    0.000    0.000    0.000    0.000 
#
# Total GULP energy -223112.029845 kJ/mol
# GULP energy per Si atom -12395.112769 kJ/mol
# Density = 1.937113 g / cm^3
# Si number density = 19.415321 Si / 1000 Ang^3
#
#
#
# Elastic Constant Matrix: (Units=GPa)
#
#
# Indices 1 2 3 4 5 6 
#
# 1 67.6582 49.6977 27.9039 0.0000 18.5398 0.0000
# 2 49.6977 155.6223 55.0341 0.0000 24.1574 0.0000
# 3 27.9039 55.0341 116.4258 0.0000 41.2149 0.0000
# 4 0.0000 0.0000 0.0000 9.7894 0.0000 9.2994
# 5 18.5398 24.1574 41.2149 0.0000 25.1508 0.0000
# 6 0.0000 0.0000 0.0000 9.2994 0.0000 12.4449
#
#
#
# Elastic Compliance Matrix: (Units=1/GPa)
#
#
# Indices 1 2 3 4 5 6 
#
# 1 0.021980 -0.005631 0.002893 0.000000 -0.015535 0.000000
# 2 -0.005631 0.009283 -0.003219 0.000000 0.000509 0.000000
# 3 0.002893 -0.003219 0.021619 0.000000 -0.034469 0.000000
# 4 0.000000 0.000000 0.000000 0.352059 0.000000 -0.263075
# 5 -0.015535 0.000509 -0.034469 0.000000 0.107207 0.000000
# 6 0.000000 0.000000 0.000000 -0.263075 0.000000 0.276937
#
#
# Mechanical properties :
#
#
# Convention : Reuss Voigt Hill
#
# Bulk Modulus (GPa) = 24.40831 67.21977 45.81404
# Shear Modulus (GPa) = 6.13757 23.28172 14.70965
#
# Velocity S-wave (km/s) = 1.77990 3.46662 2.75550
# Velocity P-wave (km/s) = 4.10159 7.12183 5.81135
#
# Compressibility (1/GPa) = 0.04096966
#
# Stress axis : x y z
#
# Youngs Moduli (GPa) = 45.49586 107.72000 46.25522
#
# Poissons Ratio (x) = 0.60656 -0.13382
# Poissons Ratio (y) = 0.25618 0.14888
# Poissons Ratio (z) = -0.13163 0.34672
#
# Static dielectric constant tensor:
#      x y z
#    x 3.241130 0.000000 0.322640 
#    y 0.000000 3.901850 0.000000 
#    z 0.322640 0.000000 3.299640 
# 
# 
# High freq. dielectric constant tensor:
#      x y z
#    x 1.722700 0.000000 0.027520 
#    y 0.000000 1.769560 0.000000 
#    z 0.027520 0.000000 1.725540 
# 
# From -- ./inp_files/41966.got.cif
#   From: 2010.06.25/outbox.cif.g09.slc.cpg/sg12_21_cif.got.tgz:41966.got - 2010.06.28 00:19:55.
