data_PCOD8084790
_publ_section_title
;
Structure prediction by ZEFSAII (Michael W. Deem and Ramdas Pophale) SiO2 
 PCOD8084790
Probable space group: C 2/M
;
_chemical_formula_sum "Si O2"
_cell_formula_units_Z 64
_cell_length_a 22.692485
_cell_length_b 9.398486
_cell_length_c 19.024725
_cell_angle_alpha 90.000000
_cell_angle_beta 81.429829
_cell_angle_gamma 90.000000
_cell_volume 4012.192642
_symmetry_space_group_name_H-M "C 2/M"
_symmetry_group_IT_number 12
_symmetry_cell_setting 'monoclinic'
loop_
_space_group_symop_operation_xyz
x,y,z
-x,y,-z
-x,-y,-z
x,-y,z
1/2+x,1/2+y,z
1/2-x,1/2+y,-z
1/2-x,1/2-y,-z
1/2+x,1/2-y,z
loop_
_atom_site_type_symbol
_atom_site_label
_atom_site_fract_x
_atom_site_fract_y
_atom_site_fract_z
Si Si1 0.544257 0.331658 0.432937
Si Si2 0.867500 0.832457 0.277125
Si Si3 0.332239 0.335934 0.524330
Si Si4 0.796938 0.665393 0.397711
Si Si5 0.097530 0.842762 0.881220
Si Si6 0.068600 0.659547 0.010260
Si Si7 0.498392 0.669445 0.293799
Si Si8 0.461218 0.658785 0.859733
O O1 0.500000 0.268938 0.500000
O O2 0.536585 0.500000 0.430683
O O3 0.611829 0.288523 0.438452
O O4 0.526526 0.267028 0.360199
O O5 0.815134 0.742186 0.322362
O O6 0.865511 0.796436 0.194405
O O7 0.930051 0.779969 0.299371
O O8 0.857605 0.000000 0.291844
O O9 0.338306 0.500000 0.498684
O O10 0.273704 0.312783 0.581488
O O11 0.331776 0.238558 0.455647
O O12 0.814277 0.500000 0.392459
O O13 0.028560 0.848266 0.874019
O O14 0.117691 0.000000 0.902229
O O15 0.108715 0.734163 0.943110
O O16 0.092336 0.500000 0.015288
O O17 0.077414 0.739976 0.082868
O O18 0.000000 0.661386 0.000000
O O19 0.498899 0.500000 0.291962
O O20 0.537936 0.721563 0.220016
O O21 0.433459 0.500000 0.867164
#
# Coordination Sequence:
#
# PCOD8084790 Si02
#       8
#     8   8   8   8   8   8   8   8
#     4   9  15  24  43  66  82  99 130 172 207 233
#     4   9  16  27  43  61  81 106 136 167 200 239
#     4   9  18  31  45  61  80 104 135 168 201 239
#     4  10  19  29  42  60  82 107 134 165 201 240
#     4   8  14  23  35  52  74 101 131 161 193 230
#     4   9  15  21  31  49  74 104 135 162 189 226
#     4   8  14  24  40  62  81 101 135 173 204 236
#     4   8  13  22  35  50  72 101 131 162 194 231
#
# _framework density 15.951377000000001
#
# number of rings (size 3 to 8) (size 9 to 14) (size 15 to 20)
#    0.000    3.250    0.000    3.000    0.000    4.500 
#    0.000    1.875    0.000    4.125    0.000    0.000 
#    0.000    1.000    0.000    2.000    0.000    2.625 
#
# Total GULP energy -396640.523693 kJ/mol
# GULP energy per Si atom -12395.016365 kJ/mol
# Density = 1.591507 g / cm^3
# Si number density = 15.951377 Si / 1000 Ang^3
#
#
#
# Elastic Constant Matrix: (Units=GPa)
#
#
# Indices 1 2 3 4 5 6 
#
# 1 47.2440 22.1378 38.8951 0.0000 -2.0675 0.0000
# 2 22.1378 77.8237 63.3320 0.0000 -11.7601 0.0000
# 3 38.8951 63.3320 151.6504 0.0000 -11.3300 0.0000
# 4 0.0000 0.0000 0.0000 22.1033 0.0000 -6.3631
# 5 -2.0675 -11.7601 -11.3300 0.0000 16.7132 0.0000
# 6 0.0000 0.0000 0.0000 -6.3631 0.0000 12.0430
#
#
#
# Elastic Compliance Matrix: (Units=1/GPa)
#
#
# Indices 1 2 3 4 5 6 
#
# 1 0.027465 -0.003566 -0.005781 0.000000 -0.003031 0.000000
# 2 -0.003566 0.021183 -0.007217 0.000000 0.009572 0.000000
# 3 -0.005781 -0.007217 0.011227 0.000000 0.001817 0.000000
# 4 0.000000 0.000000 0.000000 0.053358 0.000000 0.028193
# 5 -0.003031 0.009572 0.001817 0.000000 0.067425 0.000000
# 6 0.000000 0.000000 0.000000 0.028193 0.000000 0.097932
#
#
# Mechanical properties :
#
#
# Convention : Reuss Voigt Hill
#
# Bulk Modulus (GPa) = 37.38805 58.38308 47.88557
# Shear Modulus (GPa) = 15.59411 20.32878 17.96145
#
# Velocity S-wave (km/s) = 3.13006 3.57378 3.35925
# Velocity P-wave (km/s) = 6.04588 7.32866 6.71796
#
# Compressibility (1/GPa) = 0.02674651
#
# Stress axis : x y z
#
# Youngs Moduli (GPa) = 36.41041 47.20696 89.07421
#
# Poissons Ratio (x) = 0.16833 0.51497
# Poissons Ratio (y) = 0.12983 0.64284
# Poissons Ratio (z) = 0.21050 0.34069
#
# Static dielectric constant tensor:
#      x y z
#    x 2.621240 0.000000 -0.036570 
#    y 0.000000 2.928140 0.000000 
#    z -0.036570 0.000000 3.348770 
# 
# 
# High freq. dielectric constant tensor:
#      x y z
#    x 1.554330 0.000000 -0.011890 
#    y 0.000000 1.591460 0.000000 
#    z -0.011890 0.000000 1.626460 
# 
# From -- ./inp_files/323379.got.cif
#   From: 2010.06.25/outbox.cif.g09.slc.cpg/sg12_162_cif.got.tgz:323379.got - 2010.06.28 00:19:55.
