data_PCOD8084212
_publ_section_title
;
Structure prediction by ZEFSAII (Michael W. Deem and Ramdas Pophale) SiO2 
 PCOD8084212
Probable space group: C 2/M
;
_chemical_formula_sum "Si O2"
_cell_formula_units_Z 64
_cell_length_a 18.335034
_cell_length_b 14.693868
_cell_length_c 17.105743
_cell_angle_alpha 90.000000
_cell_angle_beta 136.424052
_cell_angle_gamma 90.000000
_cell_volume 3176.711912
_symmetry_space_group_name_H-M "C 2/M"
_symmetry_group_IT_number 12
_symmetry_cell_setting 'monoclinic'
loop_
_space_group_symop_operation_xyz
x,y,z
-x,y,-z
-x,-y,-z
x,-y,z
1/2+x,1/2+y,z
1/2-x,1/2+y,-z
1/2-x,1/2-y,-z
1/2+x,1/2-y,z
loop_
_atom_site_type_symbol
_atom_site_label
_atom_site_fract_x
_atom_site_fract_y
_atom_site_fract_z
Si Si1 0.603963 0.211100 0.115915
Si Si2 0.183590 0.102051 0.141015
Si Si3 0.850114 0.896425 0.056386
Si Si4 0.210184 0.894522 0.822042
Si Si5 0.233200 0.396399 0.632367
Si Si6 0.862171 0.257654 0.547368
Si Si7 0.514096 0.399959 0.419694
Si Si8 0.938576 0.784967 0.762285
O O1 0.598674 0.318890 0.090608
O O2 0.708801 0.164932 0.164845
O O3 0.595832 0.205808 0.203462
O O4 0.500000 0.162733 0.000000
O O5 0.275423 0.114530 0.278888
O O6 0.134267 0.000000 0.114046
O O7 0.220020 0.112729 0.078054
O O8 0.777433 0.873124 0.075504
O O9 0.949601 0.829079 0.128650
O O10 0.892016 0.000000 0.098676
O O11 0.092721 0.865350 0.705150
O O12 0.231951 0.000000 0.819633
O O13 0.217886 0.500000 0.594875
O O14 0.139128 0.340050 0.516424
O O15 0.348436 0.363219 0.692310
O O16 0.750000 0.250000 0.500000
O O17 0.946328 0.265826 0.684060
O O18 0.888163 0.165580 0.521426
O O19 0.500000 0.403913 0.500000
O O20 0.542541 0.500000 0.409074
#
# Coordination Sequence:
#
# PCOD8084212 Si02
#       8
#     8   8   8   8   8   8   8   8
#     4  11  22  37  59  89 124 164 200 246 309 371
#     4   9  19  34  57  89 120 152 194 247 304 364
#     4  10  18  34  60  91 119 150 196 254 312 361
#     4  10  23  40  60  87 122 163 203 248 307 365
#     4   9  19  33  53  83 120 159 196 240 298 356
#     4  10  21  35  58  86 120 156 201 254 303 357
#     4  10  22  39  61  89 118 156 206 260 310 359
#     4  10  19  34  55  87 118 155 201 255 301 359
#
# _framework density 20.146616999999999
#
# number of rings (size 3 to 8) (size 9 to 14) (size 15 to 20)
#    0.000    2.125    2.500    0.375    5.250    3.500 
#    0.000    0.625    0.000    1.125    0.000    0.000 
#    0.000    0.000    0.000    0.000    0.000    0.000 
#
# Total GULP energy -396423.016174 kJ/mol
# GULP energy per Si atom -12388.219255 kJ/mol
# Density = 2.010076 g / cm^3
# Si number density = 20.146617 Si / 1000 Ang^3
#
#
#
# Elastic Constant Matrix: (Units=GPa)
#
#
# Indices 1 2 3 4 5 6 
#
# 1 92.4701 53.6401 48.4360 0.0000 -17.9756 0.0000
# 2 53.6401 96.7087 60.7202 0.0000 -1.2401 0.0000
# 3 48.4360 60.7202 97.9043 0.0000 -32.1155 0.0000
# 4 0.0000 0.0000 0.0000 23.5078 0.0000 -3.9236
# 5 -17.9756 -1.2401 -32.1155 0.0000 40.8256 0.0000
# 6 0.0000 0.0000 0.0000 -3.9236 0.0000 22.7452
#
#
#
# Elastic Compliance Matrix: (Units=1/GPa)
#
#
# Indices 1 2 3 4 5 6 
#
# 1 0.018072 -0.009462 -0.000750 0.000000 0.007080 0.000000
# 2 -0.009462 0.025992 -0.016910 0.000000 -0.016679 0.000000
# 3 -0.000750 -0.016910 0.028029 0.000000 0.021205 0.000000
# 4 0.000000 0.000000 0.000000 0.043800 0.000000 0.007556
# 5 0.007080 -0.016679 0.021205 0.000000 0.043786 0.000000
# 6 0.000000 0.000000 0.000000 0.007556 0.000000 0.045269
#
#
# Mechanical properties :
#
#
# Convention : Reuss Voigt Hill
#
# Bulk Modulus (GPa) = 56.02871 68.07508 62.05190
# Shear Modulus (GPa) = 18.85776 25.70153 22.27965
#
# Velocity S-wave (km/s) = 3.06277 3.57560 3.32908
# Velocity P-wave (km/s) = 6.35439 7.13511 6.75604
#
# Compressibility (1/GPa) = 0.01784799
#
# Stress axis : x y z
#
# Youngs Moduli (GPa) = 55.33327 38.47298 35.67760
#
# Poissons Ratio (x) = 0.36404 0.02676
# Poissons Ratio (y) = 0.52358 0.60332
# Poissons Ratio (z) = 0.04150 0.65060
#
# Static dielectric constant tensor:
#      x y z
#    x 3.602930 0.000000 -0.683310 
#    y 0.000000 3.725300 0.000000 
#    z -0.683310 0.000000 4.015140 
# 
# 
# High freq. dielectric constant tensor:
#      x y z
#    x 1.772650 0.000000 -0.042200 
#    y 0.000000 1.769720 0.000000 
#    z -0.042200 0.000000 1.781130 
# 
# From -- ./inp_files/278209.got.cif
#   From: 2010.06.25/outbox.cif.g09.slc.cpg/sg12_140_cif.got.tgz:278209.got - 2010.06.28 00:19:55.
