data_PCOD8084734
_publ_section_title
;
Structure prediction by ZEFSAII (Michael W. Deem and Ramdas Pophale) SiO2 
 PCOD8084734
Probable space group: C 2/M
;
_chemical_formula_sum "Si O2"
_cell_formula_units_Z 64
_cell_length_a 11.655197
_cell_length_b 25.478565
_cell_length_c 20.969686
_cell_angle_alpha 90.000000
_cell_angle_beta 35.259920
_cell_angle_gamma 90.000000
_cell_volume 3594.826758
_symmetry_space_group_name_H-M "C 2/M"
_symmetry_group_IT_number 12
_symmetry_cell_setting 'monoclinic'
loop_
_space_group_symop_operation_xyz
x,y,z
-x,y,-z
-x,-y,-z
x,-y,z
1/2+x,1/2+y,z
1/2-x,1/2+y,-z
1/2-x,1/2-y,-z
1/2+x,1/2-y,z
loop_
_atom_site_type_symbol
_atom_site_label
_atom_site_fract_x
_atom_site_fract_y
_atom_site_fract_z
Si Si1 0.716733 0.609768 0.878767
Si Si2 0.601488 0.849240 0.887421
Si Si3 0.153956 0.303125 0.263649
Si Si4 0.993613 0.205891 0.726867
Si Si5 0.922926 0.939911 0.184378
Si Si6 0.463616 0.754156 0.874164
Si Si7 0.325331 0.862767 0.622944
Si Si8 0.141180 0.561282 0.057764
O O1 0.851555 0.659477 0.796316
O O2 0.688622 0.571068 0.831410
O O3 0.834399 0.578648 0.880038
O O4 0.500000 0.629015 0.000000
O O5 0.837905 0.842023 0.788937
O O6 0.537524 0.812333 0.857630
O O7 0.538938 0.908150 0.895531
O O8 0.500000 0.832419 0.000000
O O9 0.022494 0.249877 0.321326
O O10 0.387855 0.289567 0.164951
O O11 0.077088 0.334821 0.360063
O O12 0.941734 0.243258 0.809757
O O13 0.210801 0.180800 0.632426
O O14 0.829366 0.907056 0.284797
O O15 0.892440 0.000000 0.216122
O O16 0.156370 0.925984 0.072628
O O17 0.250000 0.750000 0.000000
O O18 0.500000 0.886979 0.500000
O O19 0.088663 0.500000 0.079573
#
# Coordination Sequence:
#
# PCOD8084734 Si02
#       8
#     8   8   8   8   8   8   8   8
#     4   9  17  28  49  74 103 131 160 195 237 285
#     4  11  20  29  46  69 101 137 164 194 230 289
#     4   9  20  30  48  76  98 132 164 197 240 288
#     4  10  20  34  47  72 103 129 166 200 238 289
#     4   9  18  33  51  73  98 123 163 209 247 289
#     4  10  19  28  46  71 103 134 164 191 232 287
#     4  10  21  37  53  70  94 126 168 215 252 282
#     4  10  20  32  48  72 104 139 162 187 239 302
#
# _framework density 17.803360999999999
#
# number of rings (size 3 to 8) (size 9 to 14) (size 15 to 20)
#    0.000    2.250    1.250    1.875    7.000    2.500 
#    0.000    0.625    0.000    0.000    0.000    0.000 
#    0.000    5.000    0.000    0.000    0.000    0.000 
#
# Total GULP energy -396636.952745 kJ/mol
# GULP energy per Si atom -12394.904773 kJ/mol
# Density = 1.776284 g / cm^3
# Si number density = 17.803361 Si / 1000 Ang^3
#
#
#
# Elastic Constant Matrix: (Units=GPa)
#
#
# Indices 1 2 3 4 5 6 
#
# 1 63.0971 34.6866 20.3005 -0.0001 4.0590 0.0041
# 2 34.6866 102.5838 34.3692 -0.0007 5.4854 0.0015
# 3 20.3005 34.3692 68.9992 -0.0077 8.0405 0.0027
# 4 -0.0001 -0.0007 -0.0077 15.8577 -0.0016 -1.0433
# 5 4.0590 5.4854 8.0405 -0.0016 11.3086 -0.0002
# 6 0.0041 0.0015 0.0027 -1.0433 -0.0002 29.8027
#
#
#
# Elastic Compliance Matrix: (Units=1/GPa)
#
#
# Indices 1 2 3 4 5 6 
#
# 1 0.020039 -0.005720 -0.002761 -0.000002 -0.002455 -0.000002
# 2 -0.005720 0.013362 -0.004860 -0.000002 -0.000973 0.000000
# 3 -0.002761 -0.004860 0.018902 0.000008 -0.010091 -0.000001
# 4 -0.000002 -0.000002 0.000008 0.063206 0.000005 0.002213
# 5 -0.002455 -0.000973 -0.010091 0.000005 0.096957 0.000002
# 6 -0.000002 0.000000 -0.000001 0.002213 0.000002 0.033631
#
#
# Mechanical properties :
#
#
# Convention : Reuss Voigt Hill
#
# Bulk Modulus (GPa) = 39.02711 45.93252 42.47981
# Shear Modulus (GPa) = 17.77347 21.08207 19.42777
#
# Velocity S-wave (km/s) = 3.16305 3.44490 3.30698
# Velocity P-wave (km/s) = 5.94211 6.45593 6.20434
#
# Compressibility (1/GPa) = 0.02562321
#
# Stress axis : x y z
#
# Youngs Moduli (GPa) = 49.90281 74.83751 52.90523
#
# Poissons Ratio (x) = 0.42804 0.14605
# Poissons Ratio (y) = 0.28542 0.25710
# Poissons Ratio (z) = 0.13776 0.36369
#
# Static dielectric constant tensor:
#      x y z
#    x 3.178920 0.000050 0.064030 
#    y 0.000050 3.335710 -0.000050 
#    z 0.064030 -0.000050 2.901600 
# 
# 
# High freq. dielectric constant tensor:
#      x y z
#    x 1.691850 0.000000 0.011020 
#    y 0.000000 1.690210 0.000000 
#    z 0.011020 0.000000 1.643110 
# 
# From -- ./inp_files/307113.got.cif
#   From: 2010.06.25/outbox.cif.g09.slc.cpg/sg12_154_cif.got.tgz:307113.got - 2010.06.28 00:19:55.
