data_PCOD8084970
_publ_section_title
;
Structure prediction by ZEFSAII (Michael W. Deem and Ramdas Pophale) SiO2 
 PCOD8084970
Probable space group: C 2/M
;
_chemical_formula_sum "Si O2"
_cell_formula_units_Z 64
_cell_length_a 23.522002
_cell_length_b 9.344378
_cell_length_c 18.151116
_cell_angle_alpha 90.000000
_cell_angle_beta 90.037695
_cell_angle_gamma 90.000000
_cell_volume 3989.586807
_symmetry_space_group_name_H-M "C 2/M"
_symmetry_group_IT_number 12
_symmetry_cell_setting 'monoclinic'
loop_
_space_group_symop_operation_xyz
x,y,z
-x,y,-z
-x,-y,-z
x,-y,z
1/2+x,1/2+y,z
1/2-x,1/2+y,-z
1/2-x,1/2-y,-z
1/2+x,1/2-y,z
loop_
_atom_site_type_symbol
_atom_site_label
_atom_site_fract_x
_atom_site_fract_y
_atom_site_fract_z
Si Si1 0.681589 0.338039 0.230812
Si Si2 0.802297 0.837857 0.929014
Si Si3 0.808250 0.332032 0.504505
Si Si4 0.685962 0.168249 0.774441
Si Si5 0.380289 0.832122 0.646697
Si Si6 0.309324 0.663894 0.087001
Si Si7 0.001767 0.670482 0.416667
Si Si8 0.118998 0.669803 0.633040
O O1 0.674996 0.500000 0.259208
O O2 0.660517 0.322610 0.145603
O O3 0.747869 0.291702 0.237602
O O4 0.641148 0.239109 0.278706
O O5 0.754890 0.715928 0.925201
O O6 0.775403 0.000000 0.928717
O O7 0.838547 0.818638 0.005323
O O8 0.796748 0.500000 0.496938
O O9 0.750000 0.250000 0.500000
O O10 0.837528 0.293056 0.581275
O O11 0.847953 0.275077 0.438810
O O12 0.661509 0.242582 0.848715
O O13 0.649391 0.229937 0.706297
O O14 0.677773 0.000000 0.783854
O O15 0.442679 0.772083 0.625834
O O16 0.382836 0.000000 0.660661
O O17 0.309797 0.500000 0.113126
O O18 0.004022 0.500000 0.421087
O O19 0.000000 0.731354 0.500000
O O20 0.946114 0.723665 0.372074
O O21 0.120785 0.500000 0.634249
#
# Coordination Sequence:
#
# PCOD8084970 Si02
#       8
#     8   8   8   8   8   8   8   8
#     4   9  17  29  43  61  91 123 143 166 208 266
#     4   8  15  27  41  59  85 119 152 174 203 257
#     4  10  19  30  44  63  87 115 144 173 210 258
#     4   9  17  28  42  63  90 119 148 174 209 264
#     4  10  19  29  45  68  87 106 143 190 223 247
#     4   9  15  24  41  63  87 115 145 179 215 249
#     4   9  15  28  48  67  83 105 145 194 227 250
#     4   9  16  28  46  63  83 115 149 178 215 261
#
# _framework density 16.041761999999999
#
# number of rings (size 3 to 8) (size 9 to 14) (size 15 to 20)
#    0.000    2.875    1.250    1.875    0.000    4.000 
#    0.000    0.625    0.000    1.875    0.000    0.875 
#    0.000    7.000    0.000    0.000    0.000    0.000 
#
# Total GULP energy -396523.258732 kJ/mol
# GULP energy per Si atom -12391.351835 kJ/mol
# Density = 1.600525 g / cm^3
# Si number density = 16.041762 Si / 1000 Ang^3
#
#
#
# Elastic Constant Matrix: (Units=GPa)
#
#
# Indices 1 2 3 4 5 6 
#
# 1 89.4470 24.2902 53.3017 0.0000 -11.1081 0.0000
# 2 24.2902 34.1065 38.3507 0.0000 -3.8061 0.0000
# 3 53.3017 38.3507 146.1146 0.0000 -4.5264 0.0000
# 4 0.0000 0.0000 0.0000 26.8521 0.0000 -1.7914
# 5 -11.1081 -3.8061 -4.5264 0.0000 10.5182 0.0000
# 6 0.0000 0.0000 0.0000 -1.7914 0.0000 14.0215
#
#
#
# Elastic Compliance Matrix: (Units=1/GPa)
#
#
# Indices 1 2 3 4 5 6 
#
# 1 0.017034 -0.005766 -0.004265 0.000000 0.014068 0.000000
# 2 -0.005766 0.044723 -0.009448 0.000000 0.006028 0.000000
# 3 -0.004265 -0.009448 0.010778 0.000000 -0.003285 0.000000
# 4 0.000000 0.000000 0.000000 0.037561 0.000000 0.004799
# 5 0.014068 0.006028 -0.003285 0.000000 0.110697 0.000000
# 6 0.000000 0.000000 0.000000 0.004799 0.000000 0.071932
#
#
# Mechanical properties :
#
#
# Convention : Reuss Voigt Hill
#
# Bulk Modulus (GPa) = 29.78249 55.72812 42.75531
# Shear Modulus (GPa) = 14.58252 20.52674 17.55463
#
# Velocity S-wave (km/s) = 3.01829 3.58100 3.31162
# Velocity P-wave (km/s) = 5.54551 7.20506 6.42906
#
# Compressibility (1/GPa) = 0.03357678
#
# Stress axis : x y z
#
# Youngs Moduli (GPa) = 58.70612 22.35969 92.78330
#
# Poissons Ratio (x) = 0.12893 0.39569
# Poissons Ratio (y) = 0.33851 0.87665
# Poissons Ratio (z) = 0.25036 0.21126
#
# Static dielectric constant tensor:
#      x y z
#    x 2.865480 0.000000 0.127640 
#    y 0.000000 2.819000 0.000000 
#    z 0.127640 0.000000 3.467130 
# 
# 
# High freq. dielectric constant tensor:
#      x y z
#    x 1.573650 0.000000 0.007090 
#    y 0.000000 1.593650 0.000000 
#    z 0.007090 0.000000 1.633660 
# 
# From -- ./inp_files/287494.got.cif
#   From: 2010.06.25/outbox.cif.g09.slc.cpg/sg12_144_cif.got.tgz:287494.got - 2010.06.28 00:19:55.
