data_PCOD8084949
_publ_section_title
;
Structure prediction by ZEFSAII (Michael W. Deem and Ramdas Pophale) SiO2 
 PCOD8084949
Probable space group: C 2/M
;
_chemical_formula_sum "Si O2"
_cell_formula_units_Z 48
_cell_length_a 26.214202
_cell_length_b 9.205954
_cell_length_c 11.849996
_cell_angle_alpha 90.000000
_cell_angle_beta 75.290467
_cell_angle_gamma 90.000000
_cell_volume 2765.995008
_symmetry_space_group_name_H-M "C 2/M"
_symmetry_group_IT_number 12
_symmetry_cell_setting 'monoclinic'
loop_
_space_group_symop_operation_xyz
x,y,z
-x,y,-z
-x,-y,-z
x,-y,z
1/2+x,1/2+y,z
1/2-x,1/2+y,-z
1/2-x,1/2-y,-z
1/2+x,1/2-y,z
loop_
_atom_site_type_symbol
_atom_site_label
_atom_site_fract_x
_atom_site_fract_y
_atom_site_fract_z
Si Si1 0.624355 0.663721 0.256139
Si Si2 0.062096 0.664064 0.730047
Si Si3 0.104841 0.665540 0.935490
Si Si4 0.466375 0.339274 0.874652
Si Si5 0.438796 0.168056 0.522594
Si Si6 0.804631 0.672616 0.946529
O O1 0.644095 0.500000 0.273683
O O2 0.581870 0.657416 0.182810
O O3 0.599294 0.734717 0.380798
O O4 0.672274 0.762820 0.183220
O O5 0.040376 0.500000 0.748082
O O6 0.108741 0.686400 0.797052
O O7 0.082358 0.695841 0.592657
O O8 0.013657 0.766485 0.782663
O O9 0.093352 0.500000 0.975555
O O10 0.052958 0.755061 0.002709
O O11 0.158350 0.714725 0.967149
O O12 0.483388 0.500000 0.901923
O O13 0.500000 0.216387 0.500000
O O14 0.433231 0.000000 0.562045
O O15 0.797299 0.500000 0.938172
O O16 0.750000 0.750000 0.000000
#
# Coordination Sequence:
#
# PCOD8084949 Si02
#       6
#     8   8   8   8   8   8
#     4  10  20  33  50  74 104 135 170 208 248 292
#     4  10  19  31  47  68  99 137 171 200 238 291
#     4   9  19  33  49  70  97 130 164 201 248 302
#     4  10  19  29  44  69 101 134 167 205 243 285
#     4  10  19  31  49  72 101 139 177 208 239 283
#     4  10  20  36  58  79  99 124 161 209 261 306
#
# _framework density 17.35361
#
# number of rings (size 3 to 8) (size 9 to 14) (size 15 to 20)
#    0.000    2.167    1.667    2.000    0.000    5.667 
#    0.000    0.000    0.000    1.000    0.000    0.000 
#    0.000    0.000    0.000    0.000    0.000    0.000 
#
# Total GULP energy -297519.167281 kJ/mol
# GULP energy per Si atom -12396.631970 kJ/mol
# Density = 1.731411 g / cm^3
# Si number density = 17.353610 Si / 1000 Ang^3
#
#
#
# Elastic Constant Matrix: (Units=GPa)
#
#
# Indices 1 2 3 4 5 6 
#
# 1 59.0843 45.2022 44.2528 0.0000 -15.8843 0.0000
# 2 45.2022 107.8484 58.7054 0.0000 -12.1033 0.0000
# 3 44.2528 58.7054 122.1096 0.0000 -3.2112 0.0000
# 4 0.0000 0.0000 0.0000 24.4505 0.0000 -8.5576
# 5 -15.8843 -12.1033 -3.2112 0.0000 23.8994 0.0000
# 6 0.0000 0.0000 0.0000 -8.5576 0.0000 21.8458
#
#
#
# Elastic Compliance Matrix: (Units=1/GPa)
#
#
# Indices 1 2 3 4 5 6 
#
# 1 0.033436 -0.007763 -0.007932 0.000000 0.017225 0.000000
# 2 -0.007763 0.015146 -0.004418 0.000000 0.001917 0.000000
# 3 -0.007932 -0.004418 0.013036 0.000000 -0.005758 0.000000
# 4 0.000000 0.000000 0.000000 0.047397 0.000000 0.018567
# 5 0.017225 0.001917 -0.005758 0.000000 0.053488 0.000000
# 6 0.000000 0.000000 0.000000 0.018567 0.000000 0.053049
#
#
# Mechanical properties :
#
#
# Convention : Reuss Voigt Hill
#
# Bulk Modulus (GPa) = 46.74565 65.04034 55.89300
# Shear Modulus (GPa) = 19.01802 23.43126 21.22464
#
# Velocity S-wave (km/s) = 3.31405 3.67853 3.50103
# Velocity P-wave (km/s) = 6.45287 7.45673 6.97289
#
# Compressibility (1/GPa) = 0.02139236
#
# Stress axis : x y z
#
# Youngs Moduli (GPa) = 29.90798 66.02467 76.70811
#
# Poissons Ratio (x) = 0.51255 0.60846
# Poissons Ratio (y) = 0.23218 0.33888
# Poissons Ratio (z) = 0.23723 0.29168
#
# Static dielectric constant tensor:
#      x y z
#    x 3.049340 0.000000 0.199950 
#    y 0.000000 3.510920 0.000000 
#    z 0.199950 0.000000 3.341420 
# 
# 
# High freq. dielectric constant tensor:
#      x y z
#    x 1.637340 0.000000 0.014710 
#    y 0.000000 1.680830 0.000000 
#    z 0.014710 0.000000 1.670090 
# 
# From -- ./inp_files/172088.got.cif
#   From: 2010.06.25/outbox.cif.g09.slc.cpg/sg12_87_cif.got.tgz:172088.got - 2010.06.28 00:19:55.
