data_PCOD8084975
_publ_section_title
;
Structure prediction by ZEFSAII (Michael W. Deem and Ramdas Pophale) SiO2 
 PCOD8084975
Probable space group: C 2/M
;
_chemical_formula_sum "Si O2"
_cell_formula_units_Z 56
_cell_length_a 14.322249
_cell_length_b 30.747558
_cell_length_c 7.927465
_cell_angle_alpha 90.000000
_cell_angle_beta 77.271227
_cell_angle_gamma 90.000000
_cell_volume 3405.254908
_symmetry_space_group_name_H-M "C 2/M"
_symmetry_group_IT_number 12
_symmetry_cell_setting 'monoclinic'
loop_
_space_group_symop_operation_xyz
x,y,z
-x,y,-z
-x,-y,-z
x,-y,z
1/2+x,1/2+y,z
1/2-x,1/2+y,-z
1/2-x,1/2-y,-z
1/2+x,1/2-y,z
loop_
_atom_site_type_symbol
_atom_site_label
_atom_site_fract_x
_atom_site_fract_y
_atom_site_fract_z
Si Si1 0.910008 0.750981 0.945693
Si Si2 0.693449 0.865859 0.617738
Si Si3 0.895863 0.549079 0.243011
Si Si4 0.694147 0.131797 0.236523
Si Si5 0.746781 0.686978 0.101877
Si Si6 0.503490 0.178839 0.312424
Si Si7 0.612734 0.951079 0.149327
O O1 0.835060 0.721316 0.084049
O O2 0.972100 0.719408 0.808174
O O3 0.851834 0.786201 0.861379
O O4 0.000000 0.775170 0.000000
O O5 0.677406 0.917704 0.637901
O O6 0.731570 0.856673 0.411544
O O7 0.594761 0.842654 0.704232
O O8 0.762810 0.845449 0.733325
O O9 0.862414 0.500000 0.299609
O O10 0.004948 0.555834 0.263796
O O11 0.890003 0.558010 0.047563
O O12 0.750843 0.159874 0.074977
O O13 0.582232 0.141589 0.265394
O O14 0.693580 0.080090 0.200555
O O15 0.500000 0.197936 0.500000
O O16 0.646684 0.000000 0.175184
#
# Coordination Sequence:
#
# PCOD8084975 Si02
#       7
#     8   8   8   8   8   8   8
#     4  10  19  35  52  67  91 123 157 198 248 280
#     4  11  18  30  49  66  95 129 159 196 232 277
#     4   9  17  26  42  67  95 131 165 192 228 273
#     4  10  19  29  45  68  93 126 164 192 231 275
#     4  10  21  34  49  70  92 122 162 200 234 288
#     4   9  18  30  45  69  89 123 161 194 232 280
#     4   9  16  26  41  64  95 129 163 195 225 273
#
# _framework density 16.445170000000001
#
# number of rings (size 3 to 8) (size 9 to 14) (size 15 to 20)
#    0.000    2.286    4.286    0.857    0.000    0.571 
#    2.571    4.286    0.000    0.000    0.000    0.000 
#    0.000    2.286    0.000    2.571    0.000    0.000 
#
# Total GULP energy -346883.592284 kJ/mol
# GULP energy per Si atom -12388.699724 kJ/mol
# Density = 1.640774 g / cm^3
# Si number density = 16.445170 Si / 1000 Ang^3
#
#
#
# Elastic Constant Matrix: (Units=GPa)
#
#
# Indices 1 2 3 4 5 6 
#
# 1 53.1457 31.0861 15.5241 0.0000 8.7535 0.0000
# 2 31.0861 74.5416 22.5563 0.0000 13.2400 0.0000
# 3 15.5241 22.5563 62.2535 0.0000 16.6488 0.0000
# 4 0.0000 0.0000 0.0000 -10.2457 0.0000 18.3323
# 5 8.7535 13.2400 16.6488 0.0000 11.5611 0.0000
# 6 0.0000 0.0000 0.0000 18.3323 0.0000 10.1520
#
#
#
# Elastic Compliance Matrix: (Units=1/GPa)
#
#
# Indices 1 2 3 4 5 6 
#
# 1 0.025659 -0.009034 -0.001133 0.000000 -0.007450 0.000000
# 2 -0.009034 0.020113 -0.001145 0.000000 -0.014544 0.000000
# 3 -0.001133 -0.001145 0.026315 0.000000 -0.035727 0.000000
# 4 0.000000 0.000000 0.000000 -0.023068 0.000000 0.041656
# 5 -0.007450 -0.014544 -0.035727 0.000000 0.160244 0.000000
# 6 0.000000 0.000000 0.000000 0.041656 0.000000 0.023281
#
#
# Mechanical properties :
#
#
# Convention : Reuss Voigt Hill
#
# Bulk Modulus (GPa) = 20.21716 36.47487 28.34602
# Shear Modulus (GPa) = 18.40567 10.34509 14.37538
#
# Velocity S-wave (km/s) = 3.34910 2.51084 2.95979
# Velocity P-wave (km/s) = 5.22261 5.53476 5.38095
#
# Compressibility (1/GPa) = 0.04946292
#
# Stress axis : x y z
#
# Youngs Moduli (GPa) = 38.97342 49.71974 38.00062
#
# Poissons Ratio (x) = 0.44919 0.04304
# Poissons Ratio (y) = 0.35210 0.04350
# Poissons Ratio (z) = 0.04414 0.05692
#
# Static dielectric constant tensor:
#      x y z
#    x 2.744920 0.000000 0.515590 
#    y 0.000000 3.149780 0.000000 
#    z 0.515590 0.000000 7.933790 
# 
# 
# High freq. dielectric constant tensor:
#      x y z
#    x 1.568980 0.000000 0.021560 
#    y 0.000000 1.636280 0.000000 
#    z 0.021560 0.000000 1.630200 
# 
# From -- ./inp_files/67613.got.cif
#   From: 2010.06.25/outbox.cif.g09.slc.cpg/sg12_34_cif.got.tgz:67613.got - 2010.06.28 00:19:55.
