data_PCOD8084850
_publ_section_title
;
Structure prediction by ZEFSAII (Michael W. Deem and Ramdas Pophale) SiO2 
 PCOD8084850
Probable space group: C 2/M
;
_chemical_formula_sum "Si O2"
_cell_formula_units_Z 56
_cell_length_a 28.943009
_cell_length_b 8.883044
_cell_length_c 13.676150
_cell_angle_alpha 90.000000
_cell_angle_beta 76.364515
_cell_angle_gamma 90.000000
_cell_volume 3417.063336
_symmetry_space_group_name_H-M "C 2/M"
_symmetry_group_IT_number 12
_symmetry_cell_setting 'monoclinic'
loop_
_space_group_symop_operation_xyz
x,y,z
-x,y,-z
-x,-y,-z
x,-y,z
1/2+x,1/2+y,z
1/2-x,1/2+y,-z
1/2-x,1/2-y,-z
1/2+x,1/2-y,z
loop_
_atom_site_type_symbol
_atom_site_label
_atom_site_fract_x
_atom_site_fract_y
_atom_site_fract_z
Si Si1 0.444268 0.327804 0.928242
Si Si2 0.600073 0.829331 0.226914
Si Si3 0.011136 0.674738 0.387572
Si Si4 0.106818 0.676990 0.871319
Si Si5 0.304469 0.324557 0.084015
Si Si6 0.961704 0.173899 0.230797
Si Si7 0.300438 0.172004 0.881598
O O1 0.434228 0.500000 0.963754
O O2 0.413618 0.289402 0.848627
O O3 0.499528 0.303305 0.874850
O O4 0.428479 0.220727 0.023446
O O5 0.567564 0.799159 0.338496
O O6 0.656706 0.808606 0.218964
O O7 0.590158 0.000000 0.194180
O O8 0.997429 0.500000 0.390623
O O9 0.000000 0.742349 0.500000
O O10 0.979021 0.756878 0.323786
O O11 0.108925 0.500000 0.859934
O O12 0.160045 0.737261 0.862137
O O13 0.086502 0.745511 0.780534
O O14 0.315989 0.500000 0.087113
O O15 0.250026 0.285512 0.142612
O O16 0.312126 0.275786 0.968325
O O17 0.951175 0.000000 0.254552
O O18 0.297742 0.000000 0.921078
#
# Coordination Sequence:
#
# PCOD8084850 Si02
#       7
#     8   8   8   8   8   8   8
#     4  10  19  30  44  65  92 123 157 192 228 269
#     4   9  16  28  47  69  94 124 157 190 226 273
#     4   9  18  33  52  74  98 122 150 187 232 281
#     4  12  22  31  44  64  92 127 162 191 229 277
#     4  10  19  29  43  63  92 126 161 198 231 265
#     4  10  21  34  48  67  92 121 156 194 233 277
#     4   9  17  29  44  65  91 124 162 196 230 268
#
# _framework density 16.388341
#
# number of rings (size 3 to 8) (size 9 to 14) (size 15 to 20)
#    0.000    2.143    1.429    3.000    0.000    4.286 
#    0.000    0.000    0.000    0.000    0.000    1.000 
#    0.000    0.000    0.000    0.000    0.000    0.000 
#
# Total GULP energy -347085.646893 kJ/mol
# GULP energy per Si atom -12395.915960 kJ/mol
# Density = 1.635104 g / cm^3
# Si number density = 16.388341 Si / 1000 Ang^3
#
#
#
# Elastic Constant Matrix: (Units=GPa)
#
#
# Indices 1 2 3 4 5 6 
#
# 1 139.6380 53.0277 55.6259 0.0000 -0.0904 0.0000
# 2 53.0277 86.9646 31.7867 0.0000 3.9784 0.0000
# 3 55.6259 31.7867 73.8371 0.0000 -3.4338 0.0000
# 4 0.0000 0.0000 0.0000 14.2829 0.0000 1.5972
# 5 -0.0904 3.9784 -3.4338 0.0000 14.9462 0.0000
# 6 0.0000 0.0000 0.0000 1.5972 0.0000 22.1851
#
#
#
# Elastic Compliance Matrix: (Units=1/GPa)
#
#
# Indices 1 2 3 4 5 6 
#
# 1 0.011603 -0.004585 -0.006780 0.000000 -0.000267 0.000000
# 2 -0.004585 0.015843 -0.003602 0.000000 -0.005073 0.000000
# 3 -0.006780 -0.003602 0.020463 0.000000 0.005619 0.000000
# 4 0.000000 0.000000 0.000000 0.070582 0.000000 -0.005081
# 5 -0.000267 -0.005073 0.005619 0.000000 0.069546 0.000000
# 6 0.000000 0.000000 0.000000 -0.005081 0.000000 0.045441
#
#
# Mechanical properties :
#
#
# Convention : Reuss Voigt Hill
#
# Bulk Modulus (GPa) = 55.63189 64.59114 60.11152
# Shear Modulus (GPa) = 18.55939 20.94947 19.75443
#
# Velocity S-wave (km/s) = 3.36888 3.57923 3.47565
# Velocity P-wave (km/s) = 7.01086 7.52194 7.27089
#
# Compressibility (1/GPa) = 0.01797530
#
# Stress axis : x y z
#
# Youngs Moduli (GPa) = 86.18349 63.11798 48.86800
#
# Poissons Ratio (x) = 0.28938 0.33133
# Poissons Ratio (y) = 0.39513 0.17604
# Poissons Ratio (z) = 0.58433 0.22738
#
# Static dielectric constant tensor:
#      x y z
#    x 3.347720 0.000000 -0.130990 
#    y 0.000000 3.152720 0.000000 
#    z -0.130990 0.000000 2.802260 
# 
# 
# High freq. dielectric constant tensor:
#      x y z
#    x 1.638270 0.000000 -0.005330 
#    y 0.000000 1.641560 0.000000 
#    z -0.005330 0.000000 1.576070 
# 
# From -- ./inp_files/247765.got.cif
#   From: 2010.06.25/outbox.cif.g09.slc.cpg/sg12_124_cif.got.tgz:247765.got - 2010.06.28 00:19:55.
