data_PCOD8084955
_publ_section_title
;
Structure prediction by ZEFSAII (Michael W. Deem and Ramdas Pophale) SiO2 
 PCOD8084955
Probable space group: C 2/M
;
_chemical_formula_sum "Si O2"
_cell_formula_units_Z 64
_cell_length_a 24.517605
_cell_length_b 9.773644
_cell_length_c 13.897230
_cell_angle_alpha 90.000000
_cell_angle_beta 79.348507
_cell_angle_gamma 90.000000
_cell_volume 3272.762820
_symmetry_space_group_name_H-M "C 2/M"
_symmetry_group_IT_number 12
_symmetry_cell_setting 'monoclinic'
loop_
_space_group_symop_operation_xyz
x,y,z
-x,y,-z
-x,-y,-z
x,-y,z
1/2+x,1/2+y,z
1/2-x,1/2+y,-z
1/2-x,1/2-y,-z
1/2+x,1/2-y,z
loop_
_atom_site_type_symbol
_atom_site_label
_atom_site_fract_x
_atom_site_fract_y
_atom_site_fract_z
Si Si1 0.230164 0.162026 0.191298
Si Si2 0.330852 0.660398 0.598466
Si Si3 0.631784 0.346743 0.100815
Si Si4 0.935355 0.338301 0.023477
Si Si5 0.935548 0.148495 0.683021
Si Si6 0.347869 0.161207 0.204993
Si Si7 0.021769 0.347989 0.599280
Si Si8 0.351096 0.839565 0.419374
O O1 0.209343 0.212623 0.302870
O O2 0.192466 0.214078 0.113418
O O3 0.294480 0.209922 0.158768
O O4 0.223337 0.000000 0.192719
O O5 0.321173 0.500000 0.578738
O O6 0.394041 0.690209 0.610360
O O7 0.316707 0.750040 0.508026
O O8 0.636080 0.500000 0.052572
O O9 0.597762 0.358924 0.208680
O O10 0.600440 0.241110 0.043257
O O11 0.930712 0.500000 0.004278
O O12 0.906173 0.298470 0.134950
O O13 0.000000 0.291894 0.000000
O O14 0.986259 0.251837 0.680410
O O15 0.961109 0.000000 0.651093
O O16 0.341324 0.219215 0.315010
O O17 0.346041 0.000000 0.216350
O O18 0.012236 0.500000 0.642167
O O19 0.085254 0.309683 0.580498
O O20 0.000000 0.328744 0.500000
O O21 0.335391 0.000000 0.435452
#
# Coordination Sequence:
#
# PCOD8084955 Si02
#       8
#     8   8   8   8   8   8   8   8
#     4   8  16  34  58  80 105 139 178 219 263 317
#     4   9  17  31  51  75 103 135 174 216 257 306
#     4   9  19  36  58  82 104 134 175 222 273 316
#     4  10  22  38  57  82 110 140 176 217 263 321
#     4   9  18  31  48  72 101 134 174 214 259 314
#     4   9  19  36  55  76 105 143 183 218 262 321
#     4  10  19  29  44  70 104 140 178 219 259 300
#     4  10  20  32  48  73 105 143 179 213 260 312
#
# _framework density 19.555343000000001
#
# number of rings (size 3 to 8) (size 9 to 14) (size 15 to 20)
#    0.000    2.750    1.250    1.500    1.750    2.500 
#    0.000    2.500    0.000    1.500    0.000    0.000 
#    0.000    0.000    0.000    0.000    0.000    0.000 
#
# Total GULP energy -396486.607449 kJ/mol
# GULP energy per Si atom -12390.206483 kJ/mol
# Density = 1.951083 g / cm^3
# Si number density = 19.555343 Si / 1000 Ang^3
#
#
#
# Elastic Constant Matrix: (Units=GPa)
#
#
# Indices 1 2 3 4 5 6 
#
# 1 110.5243 20.3689 34.0964 0.0000 1.3933 0.0000
# 2 20.3689 48.4730 28.3032 0.0000 4.9597 0.0000
# 3 34.0964 28.3032 81.9141 0.0000 18.9549 0.0000
# 4 0.0000 0.0000 0.0000 11.6658 0.0000 12.6187
# 5 1.3933 4.9597 18.9549 0.0000 29.4319 0.0000
# 6 0.0000 0.0000 0.0000 12.6187 0.0000 6.0802
#
#
#
# Elastic Compliance Matrix: (Units=1/GPa)
#
#
# Indices 1 2 3 4 5 6 
#
# 1 0.010763 -0.002280 -0.004305 0.000000 0.002647 0.000000
# 2 -0.002280 0.026395 -0.008422 0.000000 0.001084 0.000000
# 3 -0.004305 -0.008422 0.019430 0.000000 -0.010890 0.000000
# 4 0.000000 0.000000 0.000000 -0.068857 0.000000 0.142905
# 5 0.002647 0.001084 -0.010890 0.000000 0.040682 0.000000
# 6 0.000000 0.000000 0.000000 0.142905 0.000000 -0.132113
#
#
# Mechanical properties :
#
#
# Convention : Reuss Voigt Hill
#
# Bulk Modulus (GPa) = 37.63050 45.16092 41.39571
# Shear Modulus (GPa) = -77.12404 19.97845 -28.57279
#
# Velocity S-wave (km/s) = -6.28685 3.19977 -3.82661
# Velocity P-wave (km/s) = 5.78052 6.06592 1.30019
#
# Compressibility (1/GPa) = 0.02657419
#
# Stress axis : x y z
#
# Youngs Moduli (GPa) = 92.91481 37.88648 51.46789
#
# Poissons Ratio (x) = 0.08638 0.22155
# Poissons Ratio (y) = 0.21184 0.43345
# Poissons Ratio (z) = 0.39996 0.31907
#
# Static dielectric constant tensor:
#      x y z
#    x 3.882640 0.000000 0.101400 
#    y 0.000000 3.439360 0.000000 
#    z 0.101400 0.000000 3.593450 
# 
# 
# High freq. dielectric constant tensor:
#      x y z
#    x 1.769040 0.000000 0.000780 
#    y 0.000000 1.727190 0.000000 
#    z 0.000780 0.000000 1.753320 
# 
# From -- ./inp_files/238791.got.cif
#   From: 2010.06.25/outbox.cif.g09.slc.cpg/sg12_120_cif.got.tgz:238791.got - 2010.06.28 00:19:55.
