data_PCOD8084135
_publ_section_title
;
Structure prediction by ZEFSAII (Michael W. Deem and Ramdas Pophale) SiO2 
 PCOD8084135
Probable space group: C 2/M
;
_chemical_formula_sum "Si O2"
_cell_formula_units_Z 40
_cell_length_a 20.714926
_cell_length_b 8.793200
_cell_length_c 19.302779
_cell_angle_alpha 90.000000
_cell_angle_beta 143.271726
_cell_angle_gamma 90.000000
_cell_volume 2102.647226
_symmetry_space_group_name_H-M "C 2/M"
_symmetry_group_IT_number 12
_symmetry_cell_setting 'monoclinic'
loop_
_space_group_symop_operation_xyz
x,y,z
-x,y,-z
-x,-y,-z
x,-y,z
1/2+x,1/2+y,z
1/2-x,1/2+y,-z
1/2-x,1/2-y,-z
1/2+x,1/2-y,z
loop_
_atom_site_type_symbol
_atom_site_label
_atom_site_fract_x
_atom_site_fract_y
_atom_site_fract_z
Si Si1 0.299734 0.680514 0.741402
Si Si2 0.435364 0.679258 0.257329
Si Si3 0.713641 0.680929 0.114074
Si Si4 0.486949 0.680576 0.148035
Si Si5 0.431515 0.178006 0.508859
O O1 0.305559 0.500000 0.749892
O O2 0.299401 0.744629 0.819288
O O3 0.402316 0.747953 0.788550
O O4 0.191221 0.730909 0.608787
O O5 0.418366 0.500000 0.244521
O O6 0.322497 0.758286 0.174645
O O7 0.476199 0.735793 0.217593
O O8 0.525333 0.726693 0.389727
O O9 0.719350 0.500000 0.118834
O O10 0.613513 0.742549 0.983033
O O11 0.489679 0.500000 0.146058
O O12 0.500000 0.218630 0.500000
O O13 0.441199 0.000000 0.534319
#
# Coordination Sequence:
#
# PCOD8084135 Si02
#       5
#     8   8   8   8   8
#     4   9  17  32  56  81 103 131 177 227 258 294
#     4  11  22  34  51  79 113 142 169 209 266 319
#     4  10  18  34  59  80 101 137 183 219 252 301
#     4   9  19  33  52  81 110 136 171 217 265 310
#     4  10  19  35  57  80 101 132 181 223 255 301
#
# _framework density 19.023638999999999
#
# number of rings (size 3 to 8) (size 9 to 14) (size 15 to 20)
#    0.000    2.200    2.000    1.800    0.000    3.600 
#    0.000    1.000    0.000    7.200    0.000    0.000 
#    0.000    0.000    0.000    0.000    0.000    0.000 
#
# Total GULP energy -248028.275340 kJ/mol
# GULP energy per Si atom -12401.413767 kJ/mol
# Density = 1.898034 g / cm^3
# Si number density = 19.023639 Si / 1000 Ang^3
#
#
#
# Elastic Constant Matrix: (Units=GPa)
#
#
# Indices 1 2 3 4 5 6 
#
# 1 167.5023 17.4208 83.9698 0.0000 7.3457 0.0000
# 2 17.4208 15.9735 16.0271 0.0000 -0.9292 0.0000
# 3 83.9698 16.0271 158.7139 0.0000 13.1170 0.0000
# 4 0.0000 0.0000 0.0000 21.6201 0.0000 -2.8699
# 5 7.3457 -0.9292 13.1170 0.0000 28.1774 0.0000
# 6 0.0000 0.0000 0.0000 -2.8699 0.0000 18.3877
#
#
#
# Elastic Compliance Matrix: (Units=1/GPa)
#
#
# Indices 1 2 3 4 5 6 
#
# 1 0.008519 -0.005397 -0.003914 0.000000 -0.000577 0.000000
# 2 -0.005397 0.074002 -0.005133 0.000000 0.006237 0.000000
# 3 -0.003914 -0.005133 0.009173 0.000000 -0.003419 0.000000
# 4 0.000000 0.000000 0.000000 0.047232 0.000000 0.007372
# 5 -0.000577 0.006237 -0.003419 0.000000 0.037437 0.000000
# 6 0.000000 0.000000 0.000000 0.007372 0.000000 0.055535
#
#
# Mechanical properties :
#
#
# Convention : Reuss Voigt Hill
#
# Bulk Modulus (GPa) = 15.92222 64.11389 40.01805
# Shear Modulus (GPa) = 17.74805 28.62183 23.18494
#
# Velocity S-wave (km/s) = 3.05773 3.88305 3.49484
# Velocity P-wave (km/s) = 4.56664 7.34026 6.11284
#
# Compressibility (1/GPa) = 0.06280532
#
# Stress axis : x y z
#
# Youngs Moduli (GPa) = 117.38508 13.51308 109.02117
#
# Poissons Ratio (x) = 0.07293 0.42676
# Poissons Ratio (y) = 0.63350 0.55961
# Poissons Ratio (z) = 0.45950 0.06936
#
# Static dielectric constant tensor:
#      x y z
#    x 3.732400 0.000000 0.009810 
#    y 0.000000 3.022020 0.000000 
#    z 0.009810 0.000000 3.763110 
# 
# 
# High freq. dielectric constant tensor:
#      x y z
#    x 1.751350 0.000000 0.001440 
#    y 0.000000 1.691850 0.000000 
#    z 0.001440 0.000000 1.757980 
# 
# From -- ./inp_files/151721.got.cif
#   From: 2010.06.25/outbox.cif.g09.slc.cpg/sg12_76_cif.got.tgz:151721.got - 2010.06.28 00:19:55.
