data_PCOD8084332
_publ_section_title
;
Structure prediction by ZEFSAII (Michael W. Deem and Ramdas Pophale) SiO2 
 PCOD8084332
Probable space group: C 2/M
;
_chemical_formula_sum "Si O2"
_cell_formula_units_Z 64
_cell_length_a 27.838232
_cell_length_b 8.908415
_cell_length_c 22.317205
_cell_angle_alpha 90.000000
_cell_angle_beta 36.872847
_cell_angle_gamma 90.000000
_cell_volume 3320.954685
_symmetry_space_group_name_H-M "C 2/M"
_symmetry_group_IT_number 12
_symmetry_cell_setting 'monoclinic'
loop_
_space_group_symop_operation_xyz
x,y,z
-x,y,-z
-x,-y,-z
x,-y,z
1/2+x,1/2+y,z
1/2-x,1/2+y,-z
1/2-x,1/2-y,-z
1/2+x,1/2-y,z
loop_
_atom_site_type_symbol
_atom_site_label
_atom_site_fract_x
_atom_site_fract_y
_atom_site_fract_z
Si Si1 0.151210 0.323575 0.488111
Si Si2 0.595603 0.821879 0.672179
Si Si3 0.685313 0.178348 0.699687
Si Si4 0.409455 0.821037 0.089805
Si Si5 0.177605 0.322202 0.941132
Si Si6 0.356399 0.322864 0.787511
Si Si7 0.914477 0.678777 0.850131
Si Si8 0.991624 0.673965 0.577998
O O1 0.166845 0.500000 0.469040
O O2 0.140342 0.268360 0.567384
O O3 0.225147 0.239099 0.384527
O O4 0.072894 0.277224 0.529411
O O5 0.643261 0.757374 0.681687
O O6 0.505176 0.760099 0.762676
O O7 0.592277 0.000000 0.678278
O O8 0.635574 0.237926 0.806127
O O9 0.688028 0.000000 0.695878
O O10 0.364016 0.755884 0.076904
O O11 0.409756 0.000000 0.088478
O O12 0.500000 0.759262 0.000000
O O13 0.170722 0.500000 0.946957
O O14 0.269550 0.270621 0.850904
O O15 0.131333 0.260956 0.045585
O O16 0.360802 0.500000 0.792109
O O17 0.371070 0.244976 0.835990
O O18 0.419696 0.272877 0.674732
O O19 0.912316 0.500000 0.847372
O O20 0.972641 0.500000 0.609823
O O21 0.000000 0.708431 0.500000
#
# Coordination Sequence:
#
# PCOD8084332 Si02
#       8
#     8   8   8   8   8   8   8   8
#     4  10  20  36  54  76 108 140 178 225 267 315
#     4   9  17  32  54  79 104 138 182 224 264 311
#     4  10  20  32  54  83 108 137 178 223 270 323
#     4   9  17  32  53  80 110 139 177 219 262 318
#     4   9  19  32  51  79 110 143 177 223 273 317
#     4  11  22  35  53  83 117 140 172 226 284 323
#     4  10  18  35  59  77 105 148 189 221 259 318
#     4  10  22  40  60  79 104 146 193 222 255 322
#
# _framework density 19.271567000000001
#
# number of rings (size 3 to 8) (size 9 to 14) (size 15 to 20)
#    0.000    2.250    1.250    1.875    1.750    3.750 
#    0.000    1.250    0.000    1.125    0.000    0.000 
#    0.000    0.000    0.000    0.000    0.000    0.000 
#
# Total GULP energy -396869.884844 kJ/mol
# GULP energy per Si atom -12402.183901 kJ/mol
# Density = 1.922770 g / cm^3
# Si number density = 19.271567 Si / 1000 Ang^3
#
#
#
# Elastic Constant Matrix: (Units=GPa)
#
#
# Indices 1 2 3 4 5 6 
#
# 1 140.3653 18.0865 80.8935 -0.0065 2.8427 0.0065
# 2 18.0865 21.5310 25.9035 -0.0214 -1.7646 0.0177
# 3 80.8935 25.9035 175.4479 -0.0034 -3.0045 0.0054
# 4 -0.0065 -0.0214 -0.0034 23.5234 0.0067 -1.9158
# 5 2.8427 -1.7646 -3.0045 0.0067 38.2418 -0.0051
# 6 0.0065 0.0177 0.0054 -1.9158 -0.0051 13.3034
#
#
#
# Elastic Compliance Matrix: (Units=1/GPa)
#
#
# Indices 1 2 3 4 5 6 
#
# 1 0.009964 -0.003548 -0.004091 -0.000001 -0.001226 0.000001
# 2 -0.003548 0.057886 -0.006869 0.000045 0.002395 -0.000065
# 3 -0.004091 -0.006869 0.008612 -0.000006 0.000664 0.000007
# 4 -0.000001 0.000045 -0.000006 0.043015 -0.000005 0.006195
# 5 -0.001226 0.002395 0.000664 -0.000005 0.026403 0.000006
# 6 0.000001 -0.000065 0.000007 0.006195 0.000006 0.076061
#
#
# Mechanical properties :
#
#
# Convention : Reuss Voigt Hill
#
# Bulk Modulus (GPa) = 21.07755 65.23459 43.15607
# Shear Modulus (GPa) = 18.74242 29.17775 23.96009
#
# Velocity S-wave (km/s) = 3.12195 3.89528 3.52985
# Velocity P-wave (km/s) = 4.89451 7.35898 6.24943
#
# Compressibility (1/GPa) = 0.04744385
#
# Stress axis : x y z
#
# Youngs Moduli (GPa) = 100.35995 17.27527 116.12222
#
# Poissons Ratio (x) = 0.06130 0.47508
# Poissons Ratio (y) = 0.35612 0.79769
# Poissons Ratio (z) = 0.41060 0.11867
#
# Static dielectric constant tensor:
#      x y z
#    x 3.784420 -0.000020 0.022330 
#    y -0.000020 3.037460 0.000020 
#    z 0.022330 0.000020 3.683540 
# 
# 
# High freq. dielectric constant tensor:
#      x y z
#    x 1.767030 0.000000 0.000210 
#    y 0.000000 1.699920 0.000000 
#    z 0.000210 0.000000 1.766580 
# 
# From -- ./inp_files/353269.got.cif
#   From: 2010.06.25/outbox.cif.g09.slc.cpg/sg12_177_cif.got.tgz:353269.got - 2010.06.28 00:19:55.
