data_PCOD8084081
_publ_section_title
;
Structure prediction by ZEFSAII (Michael W. Deem and Ramdas Pophale) SiO2 
 PCOD8084081
Probable space group: C 2/M
;
_chemical_formula_sum "Si O2"
_cell_formula_units_Z 40
_cell_length_a 9.042385
_cell_length_b 17.793515
_cell_length_c 18.943714
_cell_angle_alpha 90.000000
_cell_angle_beta 134.188558
_cell_angle_gamma 90.000000
_cell_volume 2185.542222
_symmetry_space_group_name_H-M "C 2/M"
_symmetry_group_IT_number 12
_symmetry_cell_setting 'monoclinic'
loop_
_space_group_symop_operation_xyz
x,y,z
-x,y,-z
-x,-y,-z
x,-y,z
1/2+x,1/2+y,z
1/2-x,1/2+y,-z
1/2-x,1/2-y,-z
1/2+x,1/2-y,z
loop_
_atom_site_type_symbol
_atom_site_label
_atom_site_fract_x
_atom_site_fract_y
_atom_site_fract_z
Si Si1 0.567036 0.701784 0.309588
Si Si2 0.687165 0.671379 0.010596
Si Si3 0.062609 0.913583 0.184409
Si Si4 0.873755 0.175405 0.391404
Si Si5 0.069290 0.645655 0.779491
O O1 0.554435 0.630697 0.254721
O O2 0.795312 0.739259 0.381493
O O3 0.523044 0.673900 0.373892
O O4 0.399870 0.765718 0.231070
O O5 0.872656 0.635334 0.118523
O O6 0.500000 0.687741 0.000000
O O7 0.750000 0.750000 0.000000
O O8 0.621397 0.613767 0.927722
O O9 0.285001 0.904289 0.221356
O O10 0.025776 0.000000 0.189985
O O11 0.671259 0.122797 0.310867
O O12 0.000000 0.143688 0.500000
#
# Coordination Sequence:
#
# PCOD8084081 Si02
#       5
#     8   8   8   8   8
#     4  10  18  34  57  89 111 150 186 237 285 326
#     4  10  19  31  55  82 111 151 188 226 272 337
#     4  11  22  37  57  87 119 150 189 232 286 343
#     4  10  19  33  61  88 108 143 204 243 273 328
#     4   9  19  34  55  85 110 153 187 234 275 333
#
# _framework density 18.302094
#
# number of rings (size 3 to 8) (size 9 to 14) (size 15 to 20)
#    1.200    0.800    4.000    0.600    2.800    3.600 
#    0.000    1.000    0.000   10.800    0.000    0.000 
#    0.000    0.000    0.000    0.000    0.000    0.000 
#
# Total GULP energy -247885.353968 kJ/mol
# GULP energy per Si atom -12394.267698 kJ/mol
# Density = 1.826044 g / cm^3
# Si number density = 18.302094 Si / 1000 Ang^3
#
#
#
# Elastic Constant Matrix: (Units=GPa)
#
#
# Indices 1 2 3 4 5 6 
#
# 1 76.8369 17.2577 54.6314 0.0000 -18.3964 0.0000
# 2 17.2577 68.4539 17.4847 0.0000 0.5693 0.0000
# 3 54.6314 17.4847 142.8576 0.0000 -2.2296 0.0000
# 4 0.0000 0.0000 0.0000 11.9623 0.0000 -4.4213
# 5 -18.3964 0.5693 -2.2296 0.0000 32.1895 0.0000
# 6 0.0000 0.0000 0.0000 -4.4213 0.0000 19.6586
#
#
#
# Elastic Compliance Matrix: (Units=1/GPa)
#
#
# Indices 1 2 3 4 5 6 
#
# 1 0.022453 -0.003736 -0.007936 0.000000 0.012348 0.000000
# 2 -0.003736 0.015706 -0.000532 0.000000 -0.002450 0.000000
# 3 -0.007936 -0.000532 0.010040 0.000000 -0.003831 0.000000
# 4 0.000000 0.000000 0.000000 0.091175 0.000000 0.020505
# 5 0.012348 -0.002450 -0.003831 0.000000 0.037901 0.000000
# 6 0.000000 0.000000 0.000000 0.020505 0.000000 0.055480
#
#
# Mechanical properties :
#
#
# Convention : Reuss Voigt Hill
#
# Bulk Modulus (GPa) = 42.03261 51.87732 46.95496
# Shear Modulus (GPa) = 18.86119 26.01373 22.43746
#
# Velocity S-wave (km/s) = 3.21370 3.77417 3.50516
# Velocity P-wave (km/s) = 6.06517 6.88470 6.48789
#
# Compressibility (1/GPa) = 0.02379105
#
# Stress axis : x y z
#
# Youngs Moduli (GPa) = 44.53746 63.66795 99.59833
#
# Poissons Ratio (x) = 0.23787 0.79046
# Poissons Ratio (y) = 0.16640 0.05297
# Poissons Ratio (z) = 0.35347 0.03386
#
# Static dielectric constant tensor:
#      x y z
#    x 3.245160 0.000000 0.002800 
#    y 0.000000 2.842020 0.000000 
#    z 0.002800 0.000000 3.381890 
# 
# 
# High freq. dielectric constant tensor:
#      x y z
#    x 1.706360 0.000000 -0.007160 
#    y 0.000000 1.662150 0.000000 
#    z -0.007160 0.000000 1.716850 
# 
# From -- ./inp_files/194551.got.cif
#   From: 2010.06.25/outbox.cif.g09.slc.cpg/sg12_98_cif.got.tgz:194551.got - 2010.06.28 00:19:55.
