data_PCOD8084689
_publ_section_title
;
Structure prediction by ZEFSAII (Michael W. Deem and Ramdas Pophale) SiO2 
 PCOD8084689
Probable space group: C 2/M
;
_chemical_formula_sum "Si O2"
_cell_formula_units_Z 48
_cell_length_a 24.653762
_cell_length_b 8.937652
_cell_length_c 12.172587
_cell_angle_alpha 90.000000
_cell_angle_beta 77.886068
_cell_angle_gamma 90.000000
_cell_volume 2622.463557
_symmetry_space_group_name_H-M "C 2/M"
_symmetry_group_IT_number 12
_symmetry_cell_setting 'monoclinic'
loop_
_space_group_symop_operation_xyz
x,y,z
-x,y,-z
-x,-y,-z
x,-y,z
1/2+x,1/2+y,z
1/2-x,1/2+y,-z
1/2-x,1/2-y,-z
1/2+x,1/2-y,z
loop_
_atom_site_type_symbol
_atom_site_label
_atom_site_fract_x
_atom_site_fract_y
_atom_site_fract_z
Si Si1 0.418271 0.178545 0.318783
Si Si2 0.716748 0.176146 0.244914
Si Si3 0.385749 0.822847 0.569683
Si Si4 0.042349 0.678356 0.261477
Si Si5 0.142036 0.677468 0.076596
Si Si6 0.331995 0.822067 0.175369
O O1 0.395933 0.243809 0.444171
O O2 0.480325 0.240766 0.270930
O O3 0.378947 0.237685 0.238463
O O4 0.418521 0.000000 0.321447
O O5 0.675053 0.222909 0.360677
O O6 0.690396 0.227625 0.139800
O O7 0.773256 0.263200 0.242122
O O8 0.728245 0.000000 0.240232
O O9 0.433000 0.762722 0.633058
O O10 0.390216 0.000000 0.564022
O O11 0.041946 0.500000 0.262889
O O12 0.082201 0.735405 0.145749
O O13 0.140452 0.500000 0.071753
O O14 0.154167 0.744450 0.951126
O O15 0.330272 0.000000 0.174319
#
# Coordination Sequence:
#
# PCOD8084689 Si02
#       6
#     8   8   8   8   8   8
#     4   9  16  24  37  61  89 111 131 165 214 254
#     4   9  17  30  46  60  79 112 148 173 196 237
#     4   8  14  25  41  60  81 107 141 175 202 237
#     4   8  13  23  40  60  83 110 137 167 206 249
#     4   8  15  27  42  61  83 108 139 173 206 241
#     4  10  19  28  40  63  92 112 131 168 212 248
#
# _framework density 18.303401000000001
#
# number of rings (size 3 to 8) (size 9 to 14) (size 15 to 20)
#    0.000    3.333    0.000    3.000    0.000    3.333 
#    0.000    3.333    0.000    0.000    0.000    7.000 
#    0.000    6.667    0.000    0.000    0.000    0.000 
#
# Total GULP energy -297456.290064 kJ/mol
# GULP energy per Si atom -12394.012086 kJ/mol
# Density = 1.826174 g / cm^3
# Si number density = 18.303401 Si / 1000 Ang^3
#
#
#
# Elastic Constant Matrix: (Units=GPa)
#
#
# Indices 1 2 3 4 5 6 
#
# 1 165.7849 14.2040 71.6432 0.0000 -6.1831 0.0000
# 2 14.2040 6.0803 9.5500 0.0000 0.0150 0.0000
# 3 71.6432 9.5500 89.7930 0.0000 -5.6965 0.0000
# 4 0.0000 0.0000 0.0000 8.4298 0.0000 -3.9170
# 5 -6.1831 0.0150 -5.6965 0.0000 25.2806 0.0000
# 6 0.0000 0.0000 0.0000 -3.9170 0.0000 20.0646
#
#
#
# Elastic Compliance Matrix: (Units=1/GPa)
#
#
# Indices 1 2 3 4 5 6 
#
# 1 0.010018 -0.013145 -0.006532 0.000000 0.000986 0.000000
# 2 -0.013145 0.215300 -0.012806 0.000000 -0.006228 0.000000
# 3 -0.006532 -0.012806 0.017865 0.000000 0.002435 0.000000
# 4 0.000000 0.000000 0.000000 0.130462 0.000000 0.025469
# 5 0.000986 -0.006228 0.002435 0.000000 0.040350 0.000000
# 6 0.000000 0.000000 0.000000 0.025469 0.000000 0.054811
#
#
# Mechanical properties :
#
#
# Convention : Reuss Voigt Hill
#
# Bulk Modulus (GPa) = 5.61114 50.27254 27.94184
# Shear Modulus (GPa) = 8.42919 21.83904 15.13412
#
# Velocity S-wave (km/s) = 2.14832 3.45797 2.87861
# Velocity P-wave (km/s) = 3.03743 6.59313 5.13299
#
# Compressibility (1/GPa) = 0.17821697
#
# Stress axis : x y z
#
# Youngs Moduli (GPa) = 99.82217 4.64469 55.97475
#
# Poissons Ratio (x) = 0.06105 0.36565
# Poissons Ratio (y) = 1.31212 0.71681
# Poissons Ratio (z) = 0.65207 0.05948
#
# Static dielectric constant tensor:
#      x y z
#    x 3.526800 0.000000 -0.054720 
#    y 0.000000 2.597050 0.000000 
#    z -0.054720 0.000000 3.837600 
# 
# 
# High freq. dielectric constant tensor:
#      x y z
#    x 1.717650 0.000000 -0.008140 
#    y 0.000000 1.628390 0.000000 
#    z -0.008140 0.000000 1.719400 
# 
# From -- ./inp_files/163992.got.cif
#   From: 2010.06.25/outbox.cif.g09.slc.cpg/sg12_82_cif.got.tgz:163992.got - 2010.06.28 00:19:55.
