data_PCOD8084231
_publ_section_title
;
Structure prediction by ZEFSAII (Michael W. Deem and Ramdas Pophale) SiO2 
 PCOD8084231
Probable space group: C 2/M
;
_chemical_formula_sum "Si O2"
_cell_formula_units_Z 44
_cell_length_a 8.906965
_cell_length_b 22.684393
_cell_length_c 9.805232
_cell_angle_alpha 90.000000
_cell_angle_beta 71.550026
_cell_angle_gamma 90.000000
_cell_volume 1879.308411
_symmetry_space_group_name_H-M "C 2/M"
_symmetry_group_IT_number 12
_symmetry_cell_setting 'monoclinic'
loop_
_space_group_symop_operation_xyz
x,y,z
-x,y,-z
-x,-y,-z
x,-y,z
1/2+x,1/2+y,z
1/2-x,1/2+y,-z
1/2-x,1/2-y,-z
1/2+x,1/2-y,z
loop_
_atom_site_type_symbol
_atom_site_label
_atom_site_fract_x
_atom_site_fract_y
_atom_site_fract_z
Si Si1 0.608193 0.066715 0.228483
Si Si2 0.418378 0.680828 0.770711
Si Si3 0.143176 0.326279 0.051674
Si Si4 0.000000 0.639925 0.500000
Si Si5 0.032143 0.934638 0.834535
Si Si6 0.768454 0.722808 0.686704
O O1 0.616933 0.103218 0.084251
O O2 0.490147 0.097967 0.369987
O O3 0.781416 0.067091 0.248054
O O4 0.551995 0.000000 0.213673
O O5 0.450188 0.610557 0.751519
O O6 0.581986 0.715830 0.744385
O O7 0.324299 0.707745 0.665433
O O8 0.309101 0.690093 0.934926
O O9 0.144149 0.296906 0.199291
O O10 0.000000 0.302284 0.000000
O O11 0.846009 0.683570 0.544222
O O12 0.962169 0.000000 0.828982
O O13 0.000000 0.915081 0.000000
#
# Coordination Sequence:
#
# PCOD8084231 Si02
#       6
#     8   8   8   4   8   8
#     4  10  20  37  63  91 124 166 213 259 306 368
#     4  12  21  40  60  92 127 161 206 262 311 377
#     4  11  22  37  59  93 131 159 199 255 325 382
#     4  10  21  40  58  92 125 164 220 256 306 362
#     4  10  18  34  61  90 119 156 206 259 308 370
#     4  11  24  38  61  88 126 168 210 256 313 369
#
# _framework density 23.412866999999999
#
# number of rings (size 3 to 8) (size 9 to 14) (size 15 to 20)
#    0.000    1.273    5.455    2.455    0.000    1.818 
#    0.000    0.000    0.000    0.000    0.000    1.909 
#    0.000    0.000    0.000    0.000    0.000    0.000 
#
# Total GULP energy -272609.844952 kJ/mol
# GULP energy per Si atom -12391.356589 kJ/mol
# Density = 2.335958 g / cm^3
# Si number density = 23.412867 Si / 1000 Ang^3
#
#
#
# Elastic Constant Matrix: (Units=GPa)
#
#
# Indices 1 2 3 4 5 6 
#
# 1 102.1142 40.2047 42.8032 0.0000 -25.2105 0.0000
# 2 40.2047 143.7155 36.8519 0.0000 -12.2134 0.0000
# 3 42.8032 36.8519 92.1083 0.0000 -27.2040 0.0000
# 4 0.0000 0.0000 0.0000 37.9922 0.0000 -2.8335
# 5 -25.2105 -12.2134 -27.2040 0.0000 26.3347 0.0000
# 6 0.0000 0.0000 0.0000 -2.8335 0.0000 25.3231
#
#
#
# Elastic Compliance Matrix: (Units=1/GPa)
#
#
# Indices 1 2 3 4 5 6 
#
# 1 0.014331 -0.002465 -0.002819 0.000000 0.009664 0.000000
# 2 -0.002465 0.008183 -0.002453 0.000000 -0.001099 0.000000
# 3 -0.002819 -0.002453 0.017291 0.000000 0.014025 0.000000
# 4 0.000000 0.000000 0.000000 0.026543 0.000000 0.002970
# 5 0.009664 -0.001099 0.014025 0.000000 0.061202 0.000000
# 6 0.000000 0.000000 0.000000 0.002970 0.000000 0.039822
#
#
# Mechanical properties :
#
#
# Convention : Reuss Voigt Hill
#
# Bulk Modulus (GPa) = 41.10106 64.18420 52.64263
# Shear Modulus (GPa) = 26.18391 32.46854 29.32622
#
# Velocity S-wave (km/s) = 3.34781 3.72799 3.54300
# Velocity P-wave (km/s) = 5.70410 6.78264 6.26662
#
# Compressibility (1/GPa) = 0.02433027
#
# Stress axis : x y z
#
# Youngs Moduli (GPa) = 69.77836 122.19794 57.83492
#
# Poissons Ratio (x) = 0.30121 0.16306
# Poissons Ratio (y) = 0.17200 0.14188
# Poissons Ratio (z) = 0.19673 0.29977
#
# Static dielectric constant tensor:
#      x y z
#    x 3.838230 0.000000 -0.248920 
#    y 0.000000 5.054070 0.000000 
#    z -0.248920 0.000000 4.183160 
# 
# 
# High freq. dielectric constant tensor:
#      x y z
#    x 1.889040 0.000000 -0.036940 
#    y 0.000000 1.949130 0.000000 
#    z -0.036940 0.000000 1.910140 
# 
# From -- ./inp_files/122347.got.cif
#   From: 2010.06.25/outbox.cif.g09.slc.cpg/sg12_62_cif.got.tgz:122347.got - 2010.06.28 00:19:55.
