data_PCOD8084778
_publ_section_title
;
Structure prediction by ZEFSAII (Michael W. Deem and Ramdas Pophale) SiO2 
 PCOD8084778
Probable space group: C 2/M
;
_chemical_formula_sum "Si O2"
_cell_formula_units_Z 48
_cell_length_a 24.569216
_cell_length_b 9.122371
_cell_length_c 21.438836
_cell_angle_alpha 90.000000
_cell_angle_beta 141.886687
_cell_angle_gamma 90.000000
_cell_volume 2965.782593
_symmetry_space_group_name_H-M "C 2/M"
_symmetry_group_IT_number 12
_symmetry_cell_setting 'monoclinic'
loop_
_space_group_symop_operation_xyz
x,y,z
-x,y,-z
-x,-y,-z
x,-y,z
1/2+x,1/2+y,z
1/2-x,1/2+y,-z
1/2-x,1/2-y,-z
1/2+x,1/2-y,z
loop_
_atom_site_type_symbol
_atom_site_label
_atom_site_fract_x
_atom_site_fract_y
_atom_site_fract_z
Si Si1 0.107024 0.671849 0.651736
Si Si2 0.581966 0.173974 0.489331
Si Si3 0.527504 0.336705 0.952817
Si Si4 0.201858 0.827163 0.163426
Si Si5 0.364489 0.169733 0.775063
Si Si6 0.271682 0.671330 0.455732
O O1 0.096975 0.500000 0.635580
O O2 0.109609 0.730406 0.583047
O O3 0.198750 0.715456 0.769020
O O4 0.020930 0.723777 0.612588
O O5 0.638748 0.260390 0.490214
O O6 0.595896 0.000000 0.492458
O O7 0.519440 0.500000 0.917324
O O8 0.464390 0.230596 0.856171
O O9 0.500000 0.335821 0.000000
O O10 0.630306 0.282317 0.045594
O O11 0.184594 0.749496 0.213183
O O12 0.193381 0.000000 0.168904
O O13 0.310741 0.200115 0.663956
O O14 0.370820 0.000000 0.797261
O O15 0.286970 0.500000 0.480833
O O16 0.250000 0.750000 0.500000
#
# Coordination Sequence:
#
# PCOD8084778 Si02
#       6
#     8   8   8   8   8   8
#     4   8  14  25  46  71  93 120 150 178 217 269
#     4   9  16  29  48  68  90 120 153 184 221 265
#     4   8  15  25  40  62  87 118 150 177 213 263
#     4   9  15  26  44  66  92 121 150 176 210 265
#     4  10  19  29  41  61  89 117 148 187 228 265
#     4  11  23  35  47  65  88 120 158 193 230 268
#
# _framework density 16.184598000000001
#
# number of rings (size 3 to 8) (size 9 to 14) (size 15 to 20)
#    0.000    2.833    1.667    3.000    0.000    5.000 
#    0.000    2.500    0.000    0.000    0.000    1.167 
#    0.000    0.000    0.000    0.000    0.000    0.000 
#
# Total GULP energy -297365.465699 kJ/mol
# GULP energy per Si atom -12390.227737 kJ/mol
# Density = 1.614776 g / cm^3
# Si number density = 16.184598 Si / 1000 Ang^3
#
#
#
# Elastic Constant Matrix: (Units=GPa)
#
#
# Indices 1 2 3 4 5 6 
#
# 1 97.0683 41.0835 59.6238 0.0000 21.0766 0.0000
# 2 41.0835 68.1445 49.9097 0.0000 7.7636 0.0000
# 3 59.6238 49.9097 116.6452 0.0000 37.6773 0.0000
# 4 0.0000 0.0000 0.0000 23.6430 0.0000 0.8314
# 5 21.0766 7.7636 37.6773 0.0000 30.4798 0.0000
# 6 0.0000 0.0000 0.0000 0.8314 0.0000 17.6894
#
#
#
# Elastic Compliance Matrix: (Units=1/GPa)
#
#
# Indices 1 2 3 4 5 6 
#
# 1 0.016625 -0.006345 -0.004314 0.000000 -0.004547 0.000000
# 2 -0.006345 0.025691 -0.011741 0.000000 0.012357 0.000000
# 3 -0.004314 -0.011741 0.023093 0.000000 -0.022572 0.000000
# 4 0.000000 0.000000 0.000000 0.042366 0.000000 -0.001991
# 5 -0.004547 0.012357 -0.022572 0.000000 0.060708 0.000000
# 6 0.000000 0.000000 0.000000 -0.001991 0.000000 0.056625
#
#
# Mechanical properties :
#
#
# Convention : Reuss Voigt Hill
#
# Bulk Modulus (GPa) = 48.52325 64.78801 56.65563
# Shear Modulus (GPa) = 18.06507 23.11182 20.58845
#
# Velocity S-wave (km/s) = 3.34457 3.78301 3.57052
# Velocity P-wave (km/s) = 6.70530 7.69409 7.21665
#
# Compressibility (1/GPa) = 0.02060868
#
# Stress axis : x y z
#
# Youngs Moduli (GPa) = 60.15097 38.92369 43.30333
#
# Poissons Ratio (x) = 0.24697 0.18683
# Poissons Ratio (y) = 0.38166 0.50842
# Poissons Ratio (z) = 0.25951 0.45699
#
# Static dielectric constant tensor:
#      x y z
#    x 2.906350 0.000000 0.582360 
#    y 0.000000 2.960940 0.000000 
#    z 0.582360 0.000000 3.572250 
# 
# 
# High freq. dielectric constant tensor:
#      x y z
#    x 1.579670 0.000000 0.039690 
#    y 0.000000 1.610210 0.000000 
#    z 0.039690 0.000000 1.626230 
# 
# From -- ./inp_files/323858.got.cif
#   From: 2010.06.25/outbox.cif.g09.slc.cpg/sg12_162_cif.got.tgz:323858.got - 2010.06.28 00:19:55.
