data_PCOD8084214
_publ_section_title
;
Structure prediction by ZEFSAII (Michael W. Deem and Ramdas Pophale) SiO2 
 PCOD8084214
Probable space group: C 2/M
;
_chemical_formula_sum "Si O2"
_cell_formula_units_Z 52
_cell_length_a 14.722269
_cell_length_b 17.582393
_cell_length_c 13.877467
_cell_angle_alpha 90.000000
_cell_angle_beta 136.064802
_cell_angle_gamma 90.000000
_cell_volume 2492.441590
_symmetry_space_group_name_H-M "C 2/M"
_symmetry_group_IT_number 12
_symmetry_cell_setting 'monoclinic'
loop_
_space_group_symop_operation_xyz
x,y,z
-x,y,-z
-x,-y,-z
x,-y,z
1/2+x,1/2+y,z
1/2-x,1/2+y,-z
1/2-x,1/2-y,-z
1/2+x,1/2-y,z
loop_
_atom_site_type_symbol
_atom_site_label
_atom_site_fract_x
_atom_site_fract_y
_atom_site_fract_z
Si Si1 0.000000 0.704119 0.000000
Si Si2 0.053814 0.085380 0.149636
Si Si3 0.643855 0.348110 0.642862
Si Si4 0.123248 0.415440 0.815579
Si Si5 0.164967 0.913747 0.867759
Si Si6 0.758008 0.801573 0.776691
Si Si7 0.100398 0.414214 0.226178
O O1 0.873801 0.757712 0.923278
O O2 0.973263 0.649937 0.890264
O O3 0.177732 0.141375 0.252408
O O4 0.944603 0.114858 0.140564
O O5 0.097664 0.000000 0.209223
O O6 0.000000 0.088246 0.000000
O O7 0.500000 0.371627 0.500000
O O8 0.666074 0.363696 0.772882
O O9 0.668497 0.257909 0.649451
O O10 0.744792 0.395294 0.653044
O O11 0.157673 0.500000 0.799492
O O12 0.165374 0.349578 0.776090
O O13 0.967468 0.410038 0.719820
O O14 0.195601 0.406190 0.973667
O O15 0.137047 0.000000 0.814884
O O16 0.082887 0.500000 0.170791
#
# Coordination Sequence:
#
# PCOD8084214 Si02
#       7
#     4   8   8   8   8   8   8
#     4  10  19  30  51  84 118 148 184 226 291 350
#     4  10  18  34  60  92 123 146 180 232 289 352
#     4  11  26  42  56  78 113 161 207 240 275 333
#     4  10  19  34  59  92 119 144 183 235 303 358
#     4  10  20  35  61  90 116 151 190 235 290 342
#     4  11  20  35  58  86 124 156 182 232 295 345
#     4  10  21  36  55  78 110 149 191 243 290 335
#
# _framework density 20.863078000000002
#
# number of rings (size 3 to 8) (size 9 to 14) (size 15 to 20)
#    0.000    1.692    2.308    3.000    0.000    7.385 
#    0.000    3.077    0.000    3.692    0.000    0.000 
#    0.000    0.000    0.000    0.000    0.000    0.000 
#
# Total GULP energy -322270.819501 kJ/mol
# GULP energy per Si atom -12395.031519 kJ/mol
# Density = 2.081559 g / cm^3
# Si number density = 20.863078 Si / 1000 Ang^3
#
#
#
# Elastic Constant Matrix: (Units=GPa)
#
#
# Indices 1 2 3 4 5 6 
#
# 1 140.0749 57.9378 27.8547 0.0000 32.6110 0.0000
# 2 57.9378 125.0026 13.0407 0.0000 15.4392 0.0000
# 3 27.8547 13.0407 38.3995 0.0001 22.1200 0.0000
# 4 0.0000 0.0000 0.0001 13.9807 0.0000 4.5279
# 5 32.6110 15.4392 22.1200 0.0000 26.1429 0.0000
# 6 0.0000 0.0000 0.0000 4.5279 0.0000 32.3576
#
#
#
# Elastic Compliance Matrix: (Units=1/GPa)
#
#
# Indices 1 2 3 4 5 6 
#
# 1 0.011563 -0.003859 -0.000158 0.000000 -0.012011 0.000000
# 2 -0.003859 0.009917 0.000063 0.000000 -0.001096 0.000000
# 3 -0.000158 0.000063 0.050806 0.000000 -0.042828 0.000000
# 4 0.000000 0.000000 0.000000 0.074923 0.000000 -0.010484
# 5 -0.012011 -0.001096 -0.042828 0.000000 0.090118 0.000000
# 6 0.000000 0.000000 0.000000 -0.010484 0.000000 0.032372
#
#
# Mechanical properties :
#
#
# Convention : Reuss Voigt Hill
#
# Bulk Modulus (GPa) = 15.53350 55.68259 35.60805
# Shear Modulus (GPa) = 16.71859 28.13917 22.42888
#
# Velocity S-wave (km/s) = 2.83388 3.67652 3.28235
# Velocity P-wave (km/s) = 4.26256 6.69103 5.60978
#
# Compressibility (1/GPa) = 0.06437698
#
# Stress axis : x y z
#
# Youngs Moduli (GPa) = 86.48199 100.83237 19.68258
#
# Poissons Ratio (x) = 0.38916 0.00312
# Poissons Ratio (y) = 0.33377 -0.00124
# Poissons Ratio (z) = 0.01369 -0.00633
#
# Static dielectric constant tensor:
#      x y z
#    x 3.930560 0.000000 0.420380 
#    y 0.000000 4.193820 0.000000 
#    z 0.420380 0.000000 3.213830 
# 
# 
# High freq. dielectric constant tensor:
#      x y z
#    x 1.828370 0.000000 0.033200 
#    y 0.000000 1.839980 0.000000 
#    z 0.033200 0.000000 1.746940 
# 
# From -- ./inp_files/216889.got.cif
#   From: 2010.06.25/outbox.cif.g09.slc.cpg/sg12_109_cif.got.tgz:216889.got - 2010.06.28 00:19:55.
