data_PCOD8084630
_publ_section_title
;
Structure prediction by ZEFSAII (Michael W. Deem and Ramdas Pophale) SiO2 
 PCOD8084630
Probable space group: C 2/M
;
_chemical_formula_sum "Si O2"
_cell_formula_units_Z 32
_cell_length_a 13.850937
_cell_length_b 18.739264
_cell_length_c 10.770361
_cell_angle_alpha 90.000000
_cell_angle_beta 149.306106
_cell_angle_gamma 90.000000
_cell_volume 1426.974596
_symmetry_space_group_name_H-M "C 2/M"
_symmetry_group_IT_number 12
_symmetry_cell_setting 'monoclinic'
loop_
_space_group_symop_operation_xyz
x,y,z
-x,y,-z
-x,-y,-z
x,-y,z
1/2+x,1/2+y,z
1/2-x,1/2+y,-z
1/2-x,1/2-y,-z
1/2+x,1/2-y,z
loop_
_atom_site_type_symbol
_atom_site_label
_atom_site_fract_x
_atom_site_fract_y
_atom_site_fract_z
Si Si1 0.437236 0.760217 0.629848
Si Si2 0.266678 0.357949 0.033270
Si Si3 0.355558 0.500000 0.725632
Si Si4 0.595780 0.500000 0.737653
Si Si5 0.284169 0.360795 0.768932
O O1 0.250000 0.750000 0.500000
O O2 0.540035 0.684907 0.720208
O O3 0.364114 0.797408 0.422601
O O4 0.585806 0.810186 0.869362
O O5 0.269892 0.430790 0.113580
O O6 0.251471 0.383160 0.873928
O O7 0.448045 0.500000 0.690807
O O8 0.240542 0.426287 0.623400
O O9 0.500000 0.500000 0.000000
O O10 0.500000 0.500000 0.500000
O O11 0.500000 0.332773 0.000000
#
# Coordination Sequence:
#
# PCOD8084630 Si02
#       5
#     8   8   4   4   8
#     4  11  23  40  64  99 137 174 230 288 342 411
#     4  11  24  42  66  96 135 185 227 283 347 407
#     4  10  18  39  71  91 134 181 220 285 337 395
#     4  12  24  43  65 103 143 178 231 293 349 413
#     4  11  19  39  70  96 127 177 236 276 340 402
#
# _framework density 22.425066000000001
#
# number of rings (size 3 to 8) (size 9 to 14) (size 15 to 20)
#    0.000    1.000    7.500    0.750    0.000    5.000 
#    0.000    3.750    0.000    6.000    0.000    0.000 
#    0.000    0.000    0.000    0.000    0.000    0.000 
#
# Total GULP energy -198284.529901 kJ/mol
# GULP energy per Si atom -12392.783119 kJ/mol
# Density = 2.237403 g / cm^3
# Si number density = 22.425066 Si / 1000 Ang^3
#
#
#
# Elastic Constant Matrix: (Units=GPa)
#
#
# Indices 1 2 3 4 5 6 
#
# 1 86.2000 24.2542 36.6540 0.0000 -0.9391 0.0000
# 2 24.2542 156.4958 62.3332 0.0000 3.2416 0.0000
# 3 36.6540 62.3332 112.7186 0.0000 6.3757 0.0000
# 4 0.0000 0.0000 0.0000 35.2467 0.0000 -5.4809
# 5 -0.9391 3.2416 6.3757 0.0000 49.0986 0.0000
# 6 0.0000 0.0000 0.0000 -5.4809 0.0000 19.0123
#
#
#
# Elastic Compliance Matrix: (Units=1/GPa)
#
#
# Indices 1 2 3 4 5 6 
#
# 1 0.013520 -0.000440 -0.004200 0.000000 0.000833 0.000000
# 2 -0.000440 0.008209 -0.004398 0.000000 0.000021 0.000000
# 3 -0.004200 -0.004398 0.012751 0.000000 -0.001446 0.000000
# 4 0.000000 0.000000 0.000000 0.029703 0.000000 0.008563
# 5 0.000833 0.000021 -0.001446 0.000000 0.020569 0.000000
# 6 0.000000 0.000000 0.000000 0.008563 0.000000 0.055066
#
#
# Mechanical properties :
#
#
# Convention : Reuss Voigt Hill
#
# Bulk Modulus (GPa) = 60.95843 66.87746 63.91794
# Shear Modulus (GPa) = 30.60664 36.14973 33.37818
#
# Velocity S-wave (km/s) = 3.69838 4.01936 3.86221
# Velocity P-wave (km/s) = 6.74385 7.17131 6.96086
#
# Compressibility (1/GPa) = 0.01640462
#
# Stress axis : x y z
#
# Youngs Moduli (GPa) = 73.96564 121.81166 78.42255
#
# Poissons Ratio (x) = 0.05354 0.32941
# Poissons Ratio (y) = 0.03251 0.34490
# Poissons Ratio (z) = 0.31069 0.53573
#
# Static dielectric constant tensor:
#      x y z
#    x 3.931850 0.000000 -0.060200 
#    y 0.000000 5.776780 0.000000 
#    z -0.060200 0.000000 4.509080 
# 
# 
# High freq. dielectric constant tensor:
#      x y z
#    x 1.861460 0.000000 0.004970 
#    y 0.000000 1.895930 0.000000 
#    z 0.004970 0.000000 1.877190 
# 
# From -- ./inp_files/145968.got.cif
#   From: 2010.06.25/outbox.cif.g09.slc.cpg/sg12_73_cif.got.tgz:145968.got - 2010.06.28 00:19:55.
