data_PCOD8084409
_publ_section_title
;
Structure prediction by ZEFSAII (Michael W. Deem and Ramdas Pophale) SiO2 
 PCOD8084409
Probable space group: C 2/M
;
_chemical_formula_sum "Si O2"
_cell_formula_units_Z 44
_cell_length_a 27.421683
_cell_length_b 13.011442
_cell_length_c 8.757326
_cell_angle_alpha 90.000000
_cell_angle_beta 134.970880
_cell_angle_gamma 90.000000
_cell_volume 2210.531302
_symmetry_space_group_name_H-M "C 2/M"
_symmetry_group_IT_number 12
_symmetry_cell_setting 'monoclinic'
loop_
_space_group_symop_operation_xyz
x,y,z
-x,y,-z
-x,-y,-z
x,-y,z
1/2+x,1/2+y,z
1/2-x,1/2+y,-z
1/2-x,1/2-y,-z
1/2+x,1/2-y,z
loop_
_atom_site_type_symbol
_atom_site_label
_atom_site_fract_x
_atom_site_fract_y
_atom_site_fract_z
Si Si1 0.016801 0.383557 0.715807
Si Si2 0.625003 0.199629 0.569999
Si Si3 0.759651 0.207806 0.355362
Si Si4 0.126299 0.779176 0.904744
Si Si5 0.705420 0.000000 0.702743
Si Si6 0.754699 0.000000 0.484185
Si Si7 0.645525 0.500000 0.034455
O O1 0.033300 0.500000 0.809915
O O2 0.950034 0.337249 0.655283
O O3 0.000000 0.386662 0.500000
O O4 0.080455 0.306931 0.890280
O O5 0.662506 0.269534 0.526931
O O6 0.617396 0.267873 0.704600
O O7 0.670182 0.098191 0.701763
O O8 0.750000 0.250000 0.500000
O O9 0.745578 0.088515 0.339883
O O10 0.706251 0.263404 0.124291
O O11 0.103182 0.895167 0.903285
O O12 0.698407 0.000000 0.499184
O O13 0.786422 0.000000 0.924089
O O14 0.830322 0.000000 0.733523
#
# Coordination Sequence:
#
# PCOD8084409 Si02
#       7
#     8   8   8   8   4   4   4
#     4   9  20  38  59  88 122 152 189 244 302 349
#     4  11  21  38  63  90 118 152 196 245 300 347
#     4  12  21  37  60  85 120 153 202 237 292 353
#     4  11  23  37  61  93 118 157 197 242 296 354
#     4  10  18  35  62  82 121 154 182 247 312 325
#     4  10  22  36  56  86 120 162 186 250 296 342
#     4  10  20  39  58  82 127 156 190 245 306 333
#
# _framework density 19.904716000000001
#
# number of rings (size 3 to 8) (size 9 to 14) (size 15 to 20)
#    0.545    0.909    6.364    0.545    2.545    0.727 
#    0.000    5.909    0.000    3.273    0.000    0.000 
#    0.000    0.000    0.000    0.000    0.000    0.000 
#
# Total GULP energy -272656.672478 kJ/mol
# GULP energy per Si atom -12393.485113 kJ/mol
# Density = 1.985941 g / cm^3
# Si number density = 19.904716 Si / 1000 Ang^3
#
#
#
# Elastic Constant Matrix: (Units=GPa)
#
#
# Indices 1 2 3 4 5 6 
#
# 1 91.6266 34.1425 21.4503 0.0000 18.1630 0.0000
# 2 34.1425 163.4906 27.4563 0.0000 4.5359 0.0000
# 3 21.4503 27.4563 30.4466 0.0000 4.7791 0.0000
# 4 0.0000 0.0000 0.0000 34.6899 0.0000 3.7984
# 5 18.1630 4.5359 4.7791 0.0000 26.1472 0.0000
# 6 0.0000 0.0000 0.0000 3.7984 0.0000 32.6752
#
#
#
# Elastic Compliance Matrix: (Units=1/GPa)
#
#
# Indices 1 2 3 4 5 6 
#
# 1 0.015073 -0.001594 -0.007806 0.000000 -0.008767 0.000000
# 2 -0.001594 0.007377 -0.005665 0.000000 0.000863 0.000000
# 3 -0.007806 -0.005665 0.043701 0.000000 -0.001582 0.000000
# 4 0.000000 0.000000 0.000000 0.029199 0.000000 -0.003394
# 5 -0.008767 0.000863 -0.001582 0.000000 0.044475 0.000000
# 6 0.000000 0.000000 0.000000 -0.003394 0.000000 0.030999
#
#
# Mechanical properties :
#
#
# Convention : Reuss Voigt Hill
#
# Bulk Modulus (GPa) = 27.76122 50.18466 38.97294
# Shear Modulus (GPa) = 23.47871 32.20342 27.84107
#
# Velocity S-wave (km/s) = 3.43819 4.02665 3.74400
# Velocity P-wave (km/s) = 5.45334 6.84732 6.18969
#
# Compressibility (1/GPa) = 0.03602148
#
# Stress axis : x y z
#
# Youngs Moduli (GPa) = 66.34378 135.56037 22.88290
#
# Poissons Ratio (x) = 0.21603 0.17862
# Poissons Ratio (y) = 0.10573 0.12963
# Poissons Ratio (z) = 0.51788 0.76794
#
# Static dielectric constant tensor:
#      x y z
#    x 3.648310 0.000000 0.277190 
#    y 0.000000 3.558410 0.000000 
#    z 0.277190 0.000000 3.149870 
# 
# 
# High freq. dielectric constant tensor:
#      x y z
#    x 1.761920 0.000000 0.005830 
#    y 0.000000 1.794380 0.000000 
#    z 0.005830 0.000000 1.733470 
# 
# From -- ./inp_files/103406.got.cif
#   From: 2010.06.25/outbox.cif.g09.slc.cpg/sg12_52_cif.got.tgz:103406.got - 2010.06.28 00:19:55.
