data_PCOD8084744
_publ_section_title
;
Structure prediction by ZEFSAII (Michael W. Deem and Ramdas Pophale) SiO2 
 PCOD8084744
Probable space group: C 2/M
;
_chemical_formula_sum "Si O2"
_cell_formula_units_Z 52
_cell_length_a 24.591801
_cell_length_b 23.350431
_cell_length_c 9.993570
_cell_angle_alpha 90.000000
_cell_angle_beta 149.795454
_cell_angle_gamma 90.000000
_cell_volume 2887.023388
_symmetry_space_group_name_H-M "C 2/M"
_symmetry_group_IT_number 12
_symmetry_cell_setting 'monoclinic'
loop_
_space_group_symop_operation_xyz
x,y,z
-x,y,-z
-x,-y,-z
x,-y,z
1/2+x,1/2+y,z
1/2-x,1/2+y,-z
1/2-x,1/2-y,-z
1/2+x,1/2-y,z
loop_
_atom_site_type_symbol
_atom_site_label
_atom_site_fract_x
_atom_site_fract_y
_atom_site_fract_z
Si Si1 0.471441 0.243481 0.659150
Si Si2 0.852662 0.654840 0.976566
Si Si3 0.188595 0.807998 0.838507
Si Si4 0.000000 0.201211 0.000000
Si Si5 0.794236 0.648916 0.305095
Si Si6 0.267404 0.318249 0.537768
Si Si7 0.477581 0.934758 0.608407
O O1 0.432972 0.295256 0.477784
O O2 0.366038 0.205379 0.450638
O O3 0.571129 0.207648 0.809798
O O4 0.511356 0.261504 0.890149
O O5 0.752311 0.653845 0.864007
O O6 0.815437 0.658466 0.745662
O O7 0.920059 0.596583 0.110007
O O8 0.250000 0.750000 0.000000
O O9 0.192021 0.844407 0.984913
O O10 0.889810 0.165003 0.754995
O O11 0.751217 0.647418 0.364312
O O12 0.864392 0.593605 0.413243
O O13 0.250000 0.250000 0.500000
O O14 0.500000 0.929413 0.500000
O O15 0.474294 0.000000 0.650606
#
# Coordination Sequence:
#
# PCOD8084744 Si02
#       7
#     8   8   8   4   8   8   8
#     4  10  19  28  48  72 107 147 183 211 256 340
#     4  11  20  35  53  76 115 152 183 228 282 327
#     4  10  19  31  45  75 107 149 185 216 267 333
#     4  12  20  32  48  74 108 154 190 206 262 336
#     4  10  20  35  51  77 110 146 183 227 280 325
#     4  12  21  35  51  77 114 157 186 219 276 345
#     4  10  21  38  61  86 111 145 191 240 296 336
#
# _framework density 18.011631000000001
#
# number of rings (size 3 to 8) (size 9 to 14) (size 15 to 20)
#    0.000    1.385    6.154    0.923    0.000    1.846 
#    0.000    1.538    0.000    0.000    0.000    2.154 
#    0.000    3.692    0.000    0.000    0.000    0.000 
#
# Total GULP energy -322158.931600 kJ/mol
# GULP energy per Si atom -12390.728138 kJ/mol
# Density = 1.797064 g / cm^3
# Si number density = 18.011631 Si / 1000 Ang^3
#
#
#
# Elastic Constant Matrix: (Units=GPa)
#
#
# Indices 1 2 3 4 5 6 
#
# 1 76.1227 24.4720 24.5984 0.0000 -7.6866 0.0000
# 2 24.4720 81.1027 41.5888 0.0000 -5.2306 0.0000
# 3 24.5984 41.5888 120.2175 0.0000 -13.3879 0.0000
# 4 0.0000 0.0000 0.0000 9.6695 0.0000 -4.6878
# 5 -7.6866 -5.2306 -13.3879 0.0000 35.4325 0.0000
# 6 0.0000 0.0000 0.0000 -4.6878 0.0000 16.3857
#
#
#
# Elastic Compliance Matrix: (Units=1/GPa)
#
#
# Indices 1 2 3 4 5 6 
#
# 1 0.015017 -0.003574 -0.001600 0.000000 0.002126 0.000000
# 2 -0.003574 0.015842 -0.004776 0.000000 -0.000241 0.000000
# 3 -0.001600 -0.004776 0.010628 0.000000 0.002964 0.000000
# 4 0.000000 0.000000 0.000000 0.120072 0.000000 0.034352
# 5 0.002126 -0.000241 0.002964 0.000000 0.029768 0.000000
# 6 0.000000 0.000000 0.000000 0.034352 0.000000 0.070857
#
#
# Mechanical properties :
#
#
# Convention : Reuss Voigt Hill
#
# Bulk Modulus (GPa) = 46.32246 50.97349 48.64798
# Shear Modulus (GPa) = 17.28436 24.74978 21.01707
#
# Velocity S-wave (km/s) = 3.10114 3.71091 3.41964
# Velocity P-wave (km/s) = 6.21262 6.83541 6.53144
#
# Compressibility (1/GPa) = 0.02158780
#
# Stress axis : x y z
#
# Youngs Moduli (GPa) = 66.59027 63.12324 94.09221
#
# Poissons Ratio (x) = 0.22560 0.15051
# Poissons Ratio (y) = 0.23799 0.44939
# Poissons Ratio (z) = 0.10652 0.30148
#
# Static dielectric constant tensor:
#      x y z
#    x 3.474100 0.000000 -0.205470 
#    y 0.000000 2.967070 0.000000 
#    z -0.205470 0.000000 4.000040 
# 
# 
# High freq. dielectric constant tensor:
#      x y z
#    x 1.703680 0.000000 -0.012500 
#    y 0.000000 1.625570 0.000000 
#    z -0.012500 0.000000 1.717310 
# 
# From -- ./inp_files/64829.got.cif
#   From: 2010.06.25/outbox.cif.g09.slc.cpg/sg12_33_cif.got.tgz:64829.got - 2010.06.28 00:19:55.
