data_PCOD8084200
_publ_section_title
;
Structure prediction by ZEFSAII (Michael W. Deem and Ramdas Pophale) SiO2 
 PCOD8084200
Probable space group: C 2/M
;
_chemical_formula_sum "Si O2"
_cell_formula_units_Z 48
_cell_length_a 14.562275
_cell_length_b 18.409669
_cell_length_c 15.075968
_cell_angle_alpha 90.000000
_cell_angle_beta 37.709274
_cell_angle_gamma 90.000000
_cell_volume 2472.105593
_symmetry_space_group_name_H-M "C 2/M"
_symmetry_group_IT_number 12
_symmetry_cell_setting 'monoclinic'
loop_
_space_group_symop_operation_xyz
x,y,z
-x,y,-z
-x,-y,-z
x,-y,z
1/2+x,1/2+y,z
1/2-x,1/2+y,-z
1/2-x,1/2-y,-z
1/2+x,1/2-y,z
loop_
_atom_site_type_symbol
_atom_site_label
_atom_site_fract_x
_atom_site_fract_y
_atom_site_fract_z
Si Si1 0.216457 0.325815 0.895546
Si Si2 0.332310 0.173946 0.443833
Si Si3 0.177437 0.332776 0.207745
Si Si4 0.844617 0.847177 0.257623
Si Si5 0.851595 0.084305 0.936939
Si Si6 0.888807 0.322862 0.210517
O O1 0.241393 0.240166 0.888167
O O2 0.341972 0.372370 0.850701
O O3 0.221088 0.344454 0.786662
O O4 0.056524 0.347505 0.059201
O O5 0.250000 0.250000 0.500000
O O6 0.501510 0.183102 0.349460
O O7 0.242078 0.127541 0.586215
O O8 0.333562 0.138214 0.343897
O O9 0.236672 0.360969 0.256807
O O10 0.214977 0.393792 0.106125
O O11 0.891528 0.763274 0.224671
O O12 0.991856 0.896479 0.134925
O O13 0.841050 0.000000 0.923624
#
# Coordination Sequence:
#
# PCOD8084200 Si02
#       6
#     8   8   8   8   8   8
#     4  10  18  34  60  87 112 146 194 247 291 338
#     4  10  19  33  57  91 120 146 186 242 301 351
#     4  11  20  36  62  86 117 151 195 243 292 347
#     4  10  21  35  55  88 120 151 186 239 295 349
#     4  12  24  38  58  86 118 158 202 243 288 344
#     4   9  17  32  59  89 112 142 190 241 296 340
#
# _framework density 19.416647000000001
#
# number of rings (size 3 to 8) (size 9 to 14) (size 15 to 20)
#    0.000    1.667    3.333    3.500    0.000    1.333 
#    0.000    5.000    0.000    3.000    0.000    0.000 
#    0.000    0.000    0.000    0.000    0.000    0.000 
#
# Total GULP energy -297528.245251 kJ/mol
# GULP energy per Si atom -12397.010219 kJ/mol
# Density = 1.937245 g / cm^3
# Si number density = 19.416647 Si / 1000 Ang^3
#
#
#
# Elastic Constant Matrix: (Units=GPa)
#
#
# Indices 1 2 3 4 5 6 
#
# 1 131.0405 32.6213 46.4630 0.0004 11.9404 -0.0002
# 2 32.6213 56.5508 18.8971 0.0017 11.0199 -0.0006
# 3 46.4630 18.8971 98.1898 0.0013 11.3168 -0.0002
# 4 0.0004 0.0017 0.0013 9.0553 -0.0007 -2.5044
# 5 11.9404 11.0199 11.3168 -0.0007 43.4523 0.0003
# 6 -0.0002 -0.0006 -0.0002 -2.5044 0.0003 13.6039
#
#
#
# Elastic Compliance Matrix: (Units=1/GPa)
#
#
# Indices 1 2 3 4 5 6 
#
# 1 0.010174 -0.004443 -0.003884 0.000001 -0.000658 0.000000
# 2 -0.004443 0.021525 -0.001600 -0.000004 -0.003821 0.000000
# 3 -0.003884 -0.001600 0.012536 -0.000001 -0.001792 0.000000
# 4 0.000001 -0.000004 -0.000001 0.116357 0.000003 0.021421
# 5 -0.000658 -0.003821 -0.001792 0.000003 0.024630 0.000000
# 6 0.000000 0.000000 0.000000 0.021421 0.000000 0.077452
#
#
# Mechanical properties :
#
#
# Convention : Reuss Voigt Hill
#
# Bulk Modulus (GPa) = 41.01164 53.52711 47.26938
# Shear Modulus (GPa) = 17.20246 25.74227 21.47237
#
# Velocity S-wave (km/s) = 2.97974 3.64508 3.32908
# Velocity P-wave (km/s) = 5.74511 6.73372 6.25896
#
# Compressibility (1/GPa) = 0.02438332
#
# Stress axis : x y z
#
# Youngs Moduli (GPa) = 98.28789 46.45659 79.76743
#
# Poissons Ratio (x) = 0.20641 0.30978
# Poissons Ratio (y) = 0.43670 0.12761
# Poissons Ratio (z) = 0.38170 0.07432
#
# Static dielectric constant tensor:
#      x y z
#    x 3.903750 0.000000 0.309510 
#    y 0.000000 2.936870 0.000000 
#    z 0.309510 0.000000 3.889330 
# 
# 
# High freq. dielectric constant tensor:
#      x y z
#    x 1.778910 0.000000 0.010800 
#    y 0.000000 1.686290 0.000000 
#    z 0.010800 0.000000 1.759840 
# 
# From -- ./inp_files/89741.got.cif
#   From: 2010.06.25/outbox.cif.g09.slc.cpg/sg12_45_cif.got.tgz:89741.got - 2010.06.28 00:19:55.
