data_PCOD8084999
_publ_section_title
;
Structure prediction by ZEFSAII (Michael W. Deem and Ramdas Pophale) SiO2 
 PCOD8084999
Probable space group: C 2/M
;
_chemical_formula_sum "Si O2"
_cell_formula_units_Z 56
_cell_length_a 25.213965
_cell_length_b 9.523984
_cell_length_c 25.756473
_cell_angle_alpha 90.000000
_cell_angle_beta 34.075469
_cell_angle_gamma 90.000000
_cell_volume 3465.410880
_symmetry_space_group_name_H-M "C 2/M"
_symmetry_group_IT_number 12
_symmetry_cell_setting 'monoclinic'
loop_
_space_group_symop_operation_xyz
x,y,z
-x,y,-z
-x,-y,-z
x,-y,z
1/2+x,1/2+y,z
1/2-x,1/2+y,-z
1/2-x,1/2-y,-z
1/2+x,1/2-y,z
loop_
_atom_site_type_symbol
_atom_site_label
_atom_site_fract_x
_atom_site_fract_y
_atom_site_fract_z
Si Si1 0.096873 0.335094 0.707900
Si Si2 0.920067 0.333768 0.395524
Si Si3 0.744519 0.837161 0.082297
Si Si4 0.885759 0.339282 0.909171
Si Si5 0.117910 0.667051 0.277144
Si Si6 0.229493 0.333612 0.397550
Si Si7 0.895926 0.666709 0.596380
O O1 0.120626 0.500000 0.690968
O O2 0.098784 0.278610 0.647212
O O3 0.171988 0.247917 0.680148
O O4 0.995677 0.302308 0.815307
O O5 0.929805 0.500000 0.386798
O O6 0.834232 0.286609 0.501920
O O7 0.018107 0.269807 0.337989
O O8 0.663349 0.806424 0.105897
O O9 0.703597 0.783226 0.170598
O O10 0.771494 0.000000 0.062286
O O11 0.840045 0.753406 0.991850
O O12 0.870313 0.500000 0.937287
O O13 0.110853 0.500000 0.280864
O O14 0.137731 0.719818 0.319623
O O15 0.247699 0.500000 0.382754
O O16 0.178234 0.282133 0.386564
O O17 0.902318 0.500000 0.589784
O O18 0.000000 0.728828 0.500000
#
# Coordination Sequence:
#
# PCOD8084999 Si02
#       7
#     8   8   8   8   8   8   8
#     4  10  19  31  46  64  92 129 156 177 218 276
#     4   9  15  26  44  67  94 122 150 180 218 269
#     4   9  16  27  46  70  91 113 144 187 232 267
#     4   9  17  29  45  65  90 119 150 182 222 274
#     4   9  14  24  45  70  94 117 146 184 227 271
#     4  10  19  29  45  70  95 120 153 189 220 257
#     4   9  15  25  44  70  94 117 149 189 226 260
#
# _framework density 16.159700999999998
#
# number of rings (size 3 to 8) (size 9 to 14) (size 15 to 20)
#    0.000    2.714    2.857    0.429    0.000    0.571 
#    0.000    0.000    0.000    3.000    0.000    6.000 
#    0.000    0.000    0.000    0.000    0.000    0.000 
#
# Total GULP energy -347135.928707 kJ/mol
# GULP energy per Si atom -12397.711740 kJ/mol
# Density = 1.612292 g / cm^3
# Si number density = 16.159701 Si / 1000 Ang^3
#
#
#
# Elastic Constant Matrix: (Units=GPa)
#
#
# Indices 1 2 3 4 5 6 
#
# 1 115.7711 31.8886 72.8472 -0.0006 -1.8865 0.0006
# 2 31.8886 31.5996 43.9781 -0.0047 -3.6035 0.0038
# 3 72.8472 43.9781 138.5313 -0.0006 5.3796 0.0009
# 4 -0.0006 -0.0047 -0.0006 22.9318 0.0007 -4.3794
# 5 -1.8865 -3.6035 5.3796 0.0007 25.8866 -0.0002
# 6 0.0006 0.0038 0.0009 -4.3794 -0.0002 17.5905
#
#
#
# Elastic Compliance Matrix: (Units=1/GPa)
#
#
# Indices 1 2 3 4 5 6 
#
# 1 0.013711 -0.006456 -0.005207 -0.000001 0.001183 0.000001
# 2 -0.006456 0.063500 -0.017228 0.000010 0.011949 -0.000010
# 3 -0.005207 -0.017228 0.015660 -0.000003 -0.006032 0.000002
# 4 -0.000001 0.000010 -0.000003 0.045785 0.000001 0.011399
# 5 0.001183 0.011949 -0.006032 0.000001 0.041633 -0.000002
# 6 0.000001 -0.000010 0.000002 0.011399 -0.000002 0.059687
#
#
# Mechanical properties :
#
#
# Convention : Reuss Voigt Hill
#
# Bulk Modulus (GPa) = 28.49753 64.81444 46.65598
# Shear Modulus (GPa) = 16.15751 22.42765 19.29258
#
# Velocity S-wave (km/s) = 3.16549 3.72946 3.45899
# Velocity P-wave (km/s) = 5.57079 7.66426 6.69980
#
# Compressibility (1/GPa) = 0.03509076
#
# Stress axis : x y z
#
# Youngs Moduli (GPa) = 72.93188 15.74802 63.85675
#
# Poissons Ratio (x) = 0.10166 0.33249
# Poissons Ratio (y) = 0.47081 1.10013
# Poissons Ratio (z) = 0.37974 0.27131
#
# Static dielectric constant tensor:
#      x y z
#    x 3.071990 0.000000 0.144080 
#    y 0.000000 2.631590 0.000000 
#    z 0.144080 0.000000 3.179620 
# 
# 
# High freq. dielectric constant tensor:
#      x y z
#    x 1.608710 0.000000 0.005010 
#    y 0.000000 1.574360 0.000000 
#    z 0.005010 0.000000 1.627400 
# 
# From -- ./inp_files/173847.got.cif
#   From: 2010.06.25/outbox.cif.g09.slc.cpg/sg12_87_cif.got.tgz:173847.got - 2010.06.28 00:19:55.
