data_PCOD8084472
_publ_section_title
;
Structure prediction by ZEFSAII (Michael W. Deem and Ramdas Pophale) SiO2 
 PCOD8084472
Probable space group: C 2/M
;
_chemical_formula_sum "Si O2"
_cell_formula_units_Z 56
_cell_length_a 5.595217
_cell_length_b 27.114112
_cell_length_c 24.215009
_cell_angle_alpha 90.000000
_cell_angle_beta 131.762137
_cell_angle_gamma 90.000000
_cell_volume 2740.230242
_symmetry_space_group_name_H-M "C 2/M"
_symmetry_group_IT_number 12
_symmetry_cell_setting 'monoclinic'
loop_
_space_group_symop_operation_xyz
x,y,z
-x,y,-z
-x,-y,-z
x,-y,z
1/2+x,1/2+y,z
1/2-x,1/2+y,-z
1/2-x,1/2-y,-z
1/2+x,1/2-y,z
loop_
_atom_site_type_symbol
_atom_site_label
_atom_site_fract_x
_atom_site_fract_y
_atom_site_fract_z
Si Si1 0.644119 0.855702 0.428038
Si Si2 0.734429 0.053894 0.607910
Si Si3 0.783748 0.350659 0.792941
Si Si4 0.960569 0.945769 0.768240
Si Si5 0.203240 0.220456 0.322001
Si Si6 0.649162 0.103995 0.311308
Si Si7 0.255631 0.278197 0.914666
O O1 0.542485 0.905465 0.445549
O O2 0.402606 0.810060 0.399995
O O3 0.584450 0.862528 0.353866
O O4 0.000000 0.840698 0.500000
O O5 0.835488 0.052544 0.686835
O O6 0.054373 0.069233 0.624831
O O7 0.612251 0.000000 0.569372
O O8 0.727812 0.402996 0.816089
O O9 0.488576 0.312664 0.753088
O O10 0.783640 0.358656 0.727400
O O11 0.113125 0.327990 0.866370
O O12 0.646432 0.930427 0.754464
O O13 0.089165 0.000000 0.806611
O O14 0.446325 0.250291 0.319924
O O15 0.456199 0.251230 0.896601
O O16 0.500000 0.294110 0.000000
#
# Coordination Sequence:
#
# PCOD8084472 Si02
#       7
#     8   8   8   8   8   8   8
#     4  11  24  40  55  78 117 155 201 259 315 371
#     4   9  18  35  57  82 111 148 197 252 314 377
#     4  11  21  37  64  90 121 157 202 252 301 361
#     4   9  18  32  57  89 120 151 196 252 303 363
#     4  12  25  41  61  85 112 150 205 251 298 355
#     4  10  18  36  57  85 115 155 202 249 307 366
#     4  10  23  41  64  99 136 168 204 249 307 364
#
# _framework density 20.436239
#
# number of rings (size 3 to 8) (size 9 to 14) (size 15 to 20)
#    0.000    1.714    4.286    2.143    2.000    2.571 
#    0.000    0.714    0.000    0.429    0.000    1.000 
#    0.000    0.000    0.000    0.000    0.000    0.000 
#
# Total GULP energy -346882.480889 kJ/mol
# GULP energy per Si atom -12388.660032 kJ/mol
# Density = 2.038972 g / cm^3
# Si number density = 20.436239 Si / 1000 Ang^3
#
#
#
# Elastic Constant Matrix: (Units=GPa)
#
#
# Indices 1 2 3 4 5 6 
#
# 1 104.9391 44.3114 20.9583 0.0000 22.2185 0.0000
# 2 44.3114 143.6248 57.6541 0.0000 21.3187 0.0000
# 3 20.9583 57.6541 82.2524 0.0000 22.8385 0.0000
# 4 0.0000 0.0000 0.0000 14.7930 0.0000 22.4383
# 5 22.2185 21.3187 22.8385 0.0000 24.9729 0.0000
# 6 0.0000 0.0000 0.0000 22.4383 0.0000 18.1199
#
#
#
# Elastic Compliance Matrix: (Units=1/GPa)
#
#
# Indices 1 2 3 4 5 6 
#
# 1 0.012651 -0.003103 0.001798 0.000000 -0.010251 0.000000
# 2 -0.003103 0.010594 -0.006555 0.000000 -0.000288 0.000000
# 3 0.001798 -0.006555 0.020353 0.000000 -0.014617 0.000000
# 4 0.000000 0.000000 0.000000 -0.076966 0.000000 0.095309
# 5 -0.010251 -0.000288 -0.014617 0.000000 0.062777 0.000000
# 6 0.000000 0.000000 0.000000 0.095309 0.000000 -0.062835
#
#
# Mechanical properties :
#
#
# Convention : Reuss Voigt Hill
#
# Bulk Modulus (GPa) = 35.87167 64.07375 49.97271
# Shear Modulus (GPa) = -594.41251 25.43666 -284.48793
#
# Velocity S-wave (km/s) = -17.07318 3.53184 -11.81143
# Velocity P-wave (km/s) = 19.26310 6.93202 12.70854
#
# Compressibility (1/GPa) = 0.02787715
#
# Stress axis : x y z
#
# Youngs Moduli (GPa) = 79.04496 94.39154 49.13280
#
# Poissons Ratio (x) = 0.29293 -0.08834
# Poissons Ratio (y) = 0.24530 0.32207
# Poissons Ratio (z) = -0.14212 0.61875
#
# Static dielectric constant tensor:
#      x y z
#    x 4.179990 0.000000 0.381280 
#    y 0.000000 4.149840 0.000000 
#    z 0.381280 0.000000 3.366800 
# 
# 
# High freq. dielectric constant tensor:
#      x y z
#    x 1.807750 0.000000 0.025200 
#    y 0.000000 1.806110 0.000000 
#    z 0.025200 0.000000 1.752050 
# 
# From -- ./inp_files/253590.got.cif
#   From: 2010.06.25/outbox.cif.g09.slc.cpg/sg12_127_cif.got.tgz:253590.got - 2010.06.28 00:19:55.
