data_PCOD8084541
_publ_section_title
;
Structure prediction by ZEFSAII (Michael W. Deem and Ramdas Pophale) SiO2 
 PCOD8084541
Probable space group: C 2/M
;
_chemical_formula_sum "Si O2"
_cell_formula_units_Z 56
_cell_length_a 20.131245
_cell_length_b 19.696359
_cell_length_c 16.414961
_cell_angle_alpha 90.000000
_cell_angle_beta 28.884676
_cell_angle_gamma 90.000000
_cell_volume 3144.031774
_symmetry_space_group_name_H-M "C 2/M"
_symmetry_group_IT_number 12
_symmetry_cell_setting 'monoclinic'
loop_
_space_group_symop_operation_xyz
x,y,z
-x,y,-z
-x,-y,-z
x,-y,z
1/2+x,1/2+y,z
1/2-x,1/2+y,-z
1/2-x,1/2-y,-z
1/2+x,1/2-y,z
loop_
_atom_site_type_symbol
_atom_site_label
_atom_site_fract_x
_atom_site_fract_y
_atom_site_fract_z
Si Si1 0.362664 0.077098 0.186726
Si Si2 0.945704 0.791080 0.296467
Si Si3 0.758525 0.805524 0.061409
Si Si4 0.435154 0.709801 0.658453
Si Si5 0.665544 0.148998 0.618135
Si Si6 0.915141 0.423258 0.825552
Si Si7 0.785202 0.074450 0.816860
O O1 0.311797 0.120419 0.316493
O O2 0.242487 0.080850 0.249144
O O3 0.391222 0.000000 0.184590
O O4 0.500000 0.108570 0.000000
O O5 0.818505 0.842020 0.416979
O O6 0.913158 0.720017 0.288503
O O7 0.963779 0.774242 0.374148
O O8 0.079017 0.822671 0.106784
O O9 0.689413 0.765481 0.211665
O O10 0.674491 0.874625 0.136239
O O11 0.750000 0.750000 0.000000
O O12 0.500000 0.712905 0.500000
O O13 0.387355 0.633745 0.732948
O O14 0.574709 0.099377 0.658558
O O15 0.906850 0.500000 0.799807
O O16 0.856964 0.418901 0.980139
O O17 0.851280 0.000000 0.764510
#
# Coordination Sequence:
#
# PCOD8084541 Si02
#       7
#     8   8   8   8   8   8   8
#     4  10  19  29  45  74 113 150 178 206 250 322
#     4  10  21  34  53  76 106 143 177 238 269 312
#     4  10  18  37  54  76 105 143 183 229 269 319
#     4  11  20  34  55  79 106 143 184 227 274 319
#     4  11  19  33  50  74 106 140 189 221 263 311
#     4  11  19  33  57  77 103 149 187 217 266 324
#     4  10  19  31  49  76 113 150 181 211 256 319
#
# _framework density 17.811525
#
# number of rings (size 3 to 8) (size 9 to 14) (size 15 to 20)
#    0.000    1.571    7.143    1.286    0.000    0.286 
#    0.000    2.857    0.000    0.429    0.000    0.000 
#    0.000    1.143    0.000    0.000    0.000    0.000 
#
# Total GULP energy -347036.470421 kJ/mol
# GULP energy per Si atom -12394.159658 kJ/mol
# Density = 1.777098 g / cm^3
# Si number density = 17.811525 Si / 1000 Ang^3
#
#
#
# Elastic Constant Matrix: (Units=GPa)
#
#
# Indices 1 2 3 4 5 6 
#
# 1 38.2886 32.6176 24.6396 0.0048 -7.2581 -0.0039
# 2 32.6176 125.2809 52.7545 0.0029 -4.6888 -0.0029
# 3 24.6396 52.7545 100.2083 -0.0004 -16.5038 -0.0018
# 4 0.0048 0.0029 -0.0004 26.9837 -0.0018 -1.8936
# 5 -7.2581 -4.6888 -16.5038 -0.0018 21.8579 0.0030
# 6 -0.0039 -0.0029 -0.0018 -1.8936 0.0030 29.6756
#
#
#
# Elastic Compliance Matrix: (Units=1/GPa)
#
#
# Indices 1 2 3 4 5 6 
#
# 1 0.036462 -0.007662 -0.003664 -0.000005 0.007697 0.000003
# 2 -0.007662 0.011954 -0.005032 0.000000 -0.003779 0.000000
# 3 -0.003664 -0.005032 0.015019 0.000002 0.009044 -0.000001
# 4 -0.000005 0.000000 0.000002 0.037226 0.000003 0.002375
# 5 0.007697 -0.003779 0.009044 0.000003 0.054324 -0.000004
# 6 0.000003 0.000000 -0.000001 0.002375 -0.000004 0.033849
#
#
# Mechanical properties :
#
#
# Convention : Reuss Voigt Hill
#
# Bulk Modulus (GPa) = 32.55319 53.75569 43.15444
# Shear Modulus (GPa) = 21.57137 25.95453 23.76295
#
# Velocity S-wave (km/s) = 3.48385 3.82144 3.65654
# Velocity P-wave (km/s) = 5.87359 7.05103 6.48907
#
# Compressibility (1/GPa) = 0.03071896
#
# Stress axis : x y z
#
# Youngs Moduli (GPa) = 27.42608 83.65192 66.58443
#
# Poissons Ratio (x) = 0.64095 0.24396
# Poissons Ratio (y) = 0.21014 0.33504
# Poissons Ratio (z) = 0.10049 0.42091
#
# Static dielectric constant tensor:
#      x y z
#    x 3.023680 0.000000 -0.171460 
#    y 0.000000 3.461540 0.000010 
#    z -0.171460 0.000010 3.662920 
# 
# 
# High freq. dielectric constant tensor:
#      x y z
#    x 1.653430 0.000000 -0.019530 
#    y 0.000000 1.688230 0.000000 
#    z -0.019530 0.000000 1.683150 
# 
# From -- ./inp_files/284967.got.cif
#   From: 2010.06.25/outbox.cif.g09.slc.cpg/sg12_143_cif.got.tgz:284967.got - 2010.06.28 00:19:55.
