data_PCOD8084440
_publ_section_title
;
Structure prediction by ZEFSAII (Michael W. Deem and Ramdas Pophale) SiO2 
 PCOD8084440
Probable space group: C 2/M
;
_chemical_formula_sum "Si O2"
_cell_formula_units_Z 48
_cell_length_a 14.082417
_cell_length_b 22.712268
_cell_length_c 9.524602
_cell_angle_alpha 90.000000
_cell_angle_beta 109.086621
_cell_angle_gamma 90.000000
_cell_volume 2878.909245
_symmetry_space_group_name_H-M "C 2/M"
_symmetry_group_IT_number 12
_symmetry_cell_setting 'monoclinic'
loop_
_space_group_symop_operation_xyz
x,y,z
-x,y,-z
-x,-y,-z
x,-y,z
1/2+x,1/2+y,z
1/2-x,1/2+y,-z
1/2-x,1/2-y,-z
1/2+x,1/2-y,z
loop_
_atom_site_type_symbol
_atom_site_label
_atom_site_fract_x
_atom_site_fract_y
_atom_site_fract_z
Si Si1 0.715706 0.196547 0.886644
Si Si2 0.403390 0.500000 0.548437
Si Si3 0.643950 0.372776 0.870859
Si Si4 0.957606 0.000000 0.133029
Si Si5 0.522031 0.744567 0.853188
Si Si6 0.379771 0.620813 0.453240
Si Si7 0.817514 0.785646 0.637768
O O1 0.595536 0.205855 0.820108
O O2 0.760793 0.198805 0.753477
O O3 0.750000 0.250000 0.000000
O O4 0.755691 0.137298 0.985106
O O5 0.500000 0.500000 0.500000
O O6 0.441536 0.500000 0.726412
O O7 0.338869 0.556538 0.475505
O O8 0.605781 0.440001 0.870361
O O9 0.562441 0.323138 0.875540
O O10 0.669475 0.360612 0.718972
O O11 0.000000 0.000000 0.000000
O O12 0.419808 0.749653 0.716189
O O13 0.500000 0.764256 0.000000
O O14 0.500000 0.624473 0.500000
O O15 0.343591 0.655763 0.569214
O O16 0.750000 0.750000 0.500000
#
# Coordination Sequence:
#
# PCOD8084440 Si02
#       7
#     8   4   8   4   8   8   8
#     4  10  22  35  51  76 108 140 183 216 265 329
#     4  10  18  36  46  76 105 149 175 209 275 332
#     4  11  20  35  50  79 110 146 178 216 269 327
#     4  12  22  28  54  80 112 144 186 219 279 339
#     4  11  20  36  55  72 113 148 172 224 271 321
#     4  11  20  32  53  72 111 144 175 218 263 327
#     4  12  23  33  55  81 104 143 187 224 273 321
#
# _framework density 16.672982000000001
#
# number of rings (size 3 to 8) (size 9 to 14) (size 15 to 20)
#    0.000    1.000    8.333    2.500    2.333    0.000 
#    0.000    0.000    0.000    0.000    0.000    1.750 
#    0.000    2.667    0.000    0.000    0.000    0.000 
#
# Total GULP energy -297353.221692 kJ/mol
# GULP energy per Si atom -12389.717570 kJ/mol
# Density = 1.663503 g / cm^3
# Si number density = 16.672982 Si / 1000 Ang^3
#
#
#
# Elastic Constant Matrix: (Units=GPa)
#
#
# Indices 1 2 3 4 5 6 
#
# 1 95.2425 38.4195 58.0064 0.0000 -3.4584 0.0000
# 2 38.4195 67.6608 37.3336 0.0000 0.1053 0.0000
# 3 58.0064 37.3336 143.6595 0.0000 -12.5690 0.0000
# 4 0.0000 0.0000 0.0000 27.7908 0.0000 0.8869
# 5 -3.4584 0.1053 -12.5690 0.0000 40.1223 0.0000
# 6 0.0000 0.0000 0.0000 0.8869 0.0000 -43.6664
#
#
#
# Elastic Compliance Matrix: (Units=1/GPa)
#
#
# Indices 1 2 3 4 5 6 
#
# 1 0.016022 -0.006447 -0.004803 0.000000 -0.000107 0.000000
# 2 -0.006447 0.019935 -0.002705 0.000000 -0.001455 0.000000
# 3 -0.004803 -0.002705 0.009837 0.000000 0.002675 0.000000
# 4 0.000000 0.000000 0.000000 0.035960 0.000000 0.000730
# 5 -0.000107 -0.001455 0.002675 0.000000 0.025756 0.000000
# 6 0.000000 0.000000 0.000000 0.000730 0.000000 -0.022886
#
#
# Mechanical properties :
#
#
# Convention : Reuss Voigt Hill
#
# Bulk Modulus (GPa) = 55.91576 63.78688 59.85132
# Shear Modulus (GPa) = 42.19584 16.36957 29.28271
#
# Velocity S-wave (km/s) = 5.03616 3.13677 4.19537
# Velocity P-wave (km/s) = 8.21138 7.17355 7.70994
#
# Compressibility (1/GPa) = 0.01788405
#
# Stress axis : x y z
#
# Youngs Moduli (GPa) = 62.41592 50.16266 101.65504
#
# Poissons Ratio (x) = 0.32340 0.48825
# Poissons Ratio (y) = 0.40240 0.27496
# Poissons Ratio (z) = 0.29979 0.13568
#
# Static dielectric constant tensor:
#      x y z
#    x 3.393460 0.000000 0.037130 
#    y 0.000000 3.295920 0.000000 
#    z 0.037130 0.000000 3.495050 
# 
# 
# High freq. dielectric constant tensor:
#      x y z
#    x 1.613560 0.000000 -0.015500 
#    y 0.000000 1.626040 0.000000 
#    z -0.015500 0.000000 1.666650 
# 
# From -- ./inp_files/64886.got.cif
#   From: 2010.06.25/outbox.cif.g09.slc.cpg/sg12_33_cif.got.tgz:64886.got - 2010.06.28 00:19:55.
