data_PCOD8084545
_publ_section_title
;
Structure prediction by ZEFSAII (Michael W. Deem and Ramdas Pophale) SiO2 
 PCOD8084545
Probable space group: C 2/M
;
_chemical_formula_sum "Si O2"
_cell_formula_units_Z 40
_cell_length_a 19.786008
_cell_length_b 17.372448
_cell_length_c 9.705392
_cell_angle_alpha 90.000000
_cell_angle_beta 139.240871
_cell_angle_gamma 90.000000
_cell_volume 2178.040468
_symmetry_space_group_name_H-M "C 2/M"
_symmetry_group_IT_number 12
_symmetry_cell_setting 'monoclinic'
loop_
_space_group_symop_operation_xyz
x,y,z
-x,y,-z
-x,-y,-z
x,-y,z
1/2+x,1/2+y,z
1/2-x,1/2+y,-z
1/2-x,1/2-y,-z
1/2+x,1/2-y,z
loop_
_atom_site_type_symbol
_atom_site_label
_atom_site_fract_x
_atom_site_fract_y
_atom_site_fract_z
Si Si1 0.306273 0.155949 0.718719
Si Si2 0.681700 0.835683 0.744904
Si Si3 0.610630 0.742916 0.383117
Si Si4 0.881270 0.740441 0.084372
Si Si5 0.104098 0.500000 0.248994
Si Si6 0.893832 0.500000 0.419583
O O1 0.365618 0.224353 0.731001
O O2 0.181739 0.167830 0.520548
O O3 0.329343 0.073339 0.692212
O O4 0.347490 0.167454 0.937743
O O5 0.639707 0.810456 0.532757
O O6 0.610772 0.795141 0.751033
O O7 0.673909 0.927555 0.734264
O O8 0.800396 0.810568 0.950764
O O9 0.490393 0.721909 0.210630
O O10 0.083041 0.500000 0.380156
O O11 0.000000 0.500000 0.000000
O O12 0.000000 0.500000 0.500000
#
# Coordination Sequence:
#
# PCOD8084545 Si02
#       6
#     8   8   8   8   4   4
#     4  10  22  33  55  82 110 143 185 228 267 337
#     4  10  22  35  57  85 111 143 188 229 271 334
#     4  10  18  37  56  78 109 147 184 226 277 315
#     4  10  20  37  58  82 109 147 188 227 274 325
#     4  12  24  38  55  83 116 148 183 229 285 333
#     4  12  24  38  57  81 116 148 179 235 287 325
#
# _framework density 18.365131999999999
#
# number of rings (size 3 to 8) (size 9 to 14) (size 15 to 20)
#    0.000    1.600    2.000    3.600    2.800    0.000 
#    0.000    1.000    0.000    1.200    0.000    8.400 
#    0.000    0.000    0.000    0.000    0.000    0.000 
#
# Total GULP energy -248006.751823 kJ/mol
# GULP energy per Si atom -12400.337591 kJ/mol
# Density = 1.832333 g / cm^3
# Si number density = 18.365132 Si / 1000 Ang^3
#
#
#
# Elastic Constant Matrix: (Units=GPa)
#
#
# Indices 1 2 3 4 5 6 
#
# 1 110.8781 43.9312 41.9621 0.0000 17.6504 0.0000
# 2 43.9312 111.7019 41.2349 0.0000 11.9812 0.0000
# 3 41.9621 41.2349 74.0302 0.0000 10.8126 0.0000
# 4 0.0000 0.0000 0.0000 13.5813 0.0000 -4.2217
# 5 17.6504 11.9812 10.8126 0.0000 36.5592 0.0000
# 6 0.0000 0.0000 0.0000 -4.2217 0.0000 26.3210
#
#
#
# Elastic Compliance Matrix: (Units=1/GPa)
#
#
# Indices 1 2 3 4 5 6 
#
# 1 0.012601 -0.002671 -0.005115 0.000000 -0.003696 0.000000
# 2 -0.002671 0.011966 -0.004982 0.000000 -0.001158 0.000000
# 3 -0.005115 -0.004982 0.019422 0.000000 -0.001642 0.000000
# 4 0.000000 0.000000 0.000000 0.077494 0.000000 0.012429
# 5 -0.003696 -0.001158 -0.001642 0.000000 0.030002 0.000000
# 6 0.000000 0.000000 0.000000 0.012429 0.000000 0.039986
#
#
# Mechanical properties :
#
#
# Convention : Reuss Voigt Hill
#
# Bulk Modulus (GPa) = 54.19106 61.20741 57.69924
# Shear Modulus (GPa) = 22.40541 26.59109 24.49825
#
# Velocity S-wave (km/s) = 3.49663 3.80927 3.65630
# Velocity P-wave (km/s) = 6.77300 7.26277 7.02216
#
# Compressibility (1/GPa) = 0.01845323
#
# Stress axis : x y z
#
# Youngs Moduli (GPa) = 79.35596 83.56763 51.48781
#
# Poissons Ratio (x) = 0.22324 0.26336
# Poissons Ratio (y) = 0.21199 0.25650
# Poissons Ratio (z) = 0.40591 0.41632
#
# Static dielectric constant tensor:
#      x y z
#    x 3.657320 0.000000 -0.108440 
#    y 0.000000 3.202440 0.000000 
#    z -0.108440 0.000000 3.440110 
# 
# 
# High freq. dielectric constant tensor:
#      x y z
#    x 1.729850 0.000000 -0.012630 
#    y 0.000000 1.683390 0.000000 
#    z -0.012630 0.000000 1.719940 
# 
# From -- ./inp_files/47003.got.cif
#   From: 2010.06.25/outbox.cif.g09.slc.cpg/sg12_24_cif.got.tgz:47003.got - 2010.06.28 00:19:55.
