data_PCOD8084473
_publ_section_title
;
Structure prediction by ZEFSAII (Michael W. Deem and Ramdas Pophale) SiO2 
 PCOD8084473
Probable space group: C 2/M
;
_chemical_formula_sum "Si O2"
_cell_formula_units_Z 64
_cell_length_a 22.823730
_cell_length_b 21.328225
_cell_length_c 17.870892
_cell_angle_alpha 90.000000
_cell_angle_beta 158.314816
_cell_angle_gamma 90.000000
_cell_volume 3214.471849
_symmetry_space_group_name_H-M "C 2/M"
_symmetry_group_IT_number 12
_symmetry_cell_setting 'monoclinic'
loop_
_space_group_symop_operation_xyz
x,y,z
-x,y,-z
-x,-y,-z
x,-y,z
1/2+x,1/2+y,z
1/2-x,1/2+y,-z
1/2-x,1/2-y,-z
1/2+x,1/2-y,z
loop_
_atom_site_type_symbol
_atom_site_label
_atom_site_fract_x
_atom_site_fract_y
_atom_site_fract_z
Si Si1 0.680621 0.430220 0.450458
Si Si2 0.123561 0.931844 0.558190
Si Si3 0.771457 0.930458 0.104904
Si Si4 0.869930 0.130916 0.078799
Si Si5 0.704994 0.833927 0.138002
Si Si6 0.886440 0.710069 0.301510
Si Si7 0.056179 0.241630 0.360149
Si Si8 0.379677 0.816449 0.711272
O O1 0.719852 0.500000 0.466074
O O2 0.641726 0.432280 0.491341
O O3 0.523114 0.402332 0.221638
O O4 0.829004 0.383907 0.616241
O O5 0.219240 0.873233 0.704494
O O6 0.935458 0.924662 0.348348
O O7 0.183121 0.000000 0.660100
O O8 0.783347 0.918661 0.030228
O O9 0.666712 0.877724 0.020058
O O10 0.700165 0.000000 0.030061
O O11 0.929748 0.185867 0.204592
O O12 0.750933 0.158791 0.875732
O O13 0.814235 0.775297 0.245938
O O14 0.522965 0.816294 0.941986
O O15 0.000000 0.681923 0.500000
O O16 0.996495 0.717318 0.358740
O O17 0.234121 0.215503 0.583421
O O18 0.054146 0.277524 0.279810
#
# Coordination Sequence:
#
# PCOD8084473 Si02
#       8
#     8   8   8   8   8   8   8   8
#     4   9  20  38  60  84 113 155 195 231 284 344
#     4   9  19  34  51  78 120 158 191 229 272 335
#     4  10  19  32  55  81 107 151 199 238 284 338
#     4  10  18  36  58  79 111 146 194 239 283 332
#     4  12  21  32  50  88 120 157 188 231 280 340
#     4  12  24  36  58  86 118 152 191 238 295 343
#     4  10  20  41  56  80 112 155 191 240 281 333
#     4  10  22  35  59  79 114 154 193 233 282 333
#
# _framework density 19.909956999999999
#
# number of rings (size 3 to 8) (size 9 to 14) (size 15 to 20)
#    0.000    1.750    2.500    3.750    3.500    2.500 
#    0.000    1.250    0.000    1.500    0.000    0.875 
#    0.000    0.000    0.000    0.000    0.000    0.000 
#
# Total GULP energy -396613.325061 kJ/mol
# GULP energy per Si atom -12394.166408 kJ/mol
# Density = 1.986464 g / cm^3
# Si number density = 19.909957 Si / 1000 Ang^3
#
#
#
# Elastic Constant Matrix: (Units=GPa)
#
#
# Indices 1 2 3 4 5 6 
#
# 1 25.3411 5.2704 23.8507 0.0000 3.1453 0.0000
# 2 5.2704 83.7585 33.8750 0.0000 -2.6944 0.0000
# 3 23.8507 33.8750 115.5977 0.0000 -1.0655 0.0000
# 4 0.0000 0.0000 0.0000 22.4319 0.0000 -10.7220
# 5 3.1453 -2.6944 -1.0655 0.0000 20.2213 0.0000
# 6 0.0000 0.0000 0.0000 -10.7220 0.0000 20.3727
#
#
#
# Elastic Compliance Matrix: (Units=1/GPa)
#
#
# Indices 1 2 3 4 5 6 
#
# 1 0.050413 0.000906 -0.010744 0.000000 -0.008287 0.000000
# 2 0.000906 0.013612 -0.004163 0.000000 0.001453 0.000000
# 3 -0.010744 -0.004163 0.012103 0.000000 0.001754 0.000000
# 4 0.000000 0.000000 0.000000 0.059563 0.000000 0.031347
# 5 -0.008287 0.001453 0.001754 0.000000 0.051028 0.000000
# 6 0.000000 0.000000 0.000000 0.031347 0.000000 0.065583
#
#
# Mechanical properties :
#
#
# Convention : Reuss Voigt Hill
#
# Bulk Modulus (GPa) = 20.77729 38.96549 29.87139
# Shear Modulus (GPa) = 16.87219 23.38525 20.12872
#
# Velocity S-wave (km/s) = 2.91421 3.43089 3.18305
# Velocity P-wave (km/s) = 4.66710 5.94205 5.34274
#
# Compressibility (1/GPa) = 0.04812946
#
# Stress axis : x y z
#
# Youngs Moduli (GPa) = 19.83599 73.46295 82.62189
#
# Poissons Ratio (x) = -0.06658 0.88765
# Poissons Ratio (y) = -0.01798 0.34392
# Poissons Ratio (z) = 0.21311 0.30579
#
# Static dielectric constant tensor:
#      x y z
#    x 3.312280 0.000000 0.172540 
#    y 0.000000 4.117860 0.000000 
#    z 0.172540 0.000000 3.679150 
# 
# 
# High freq. dielectric constant tensor:
#      x y z
#    x 1.747450 0.000000 0.018410 
#    y 0.000000 1.775110 0.000000 
#    z 0.018410 0.000000 1.767700 
# 
# From -- ./inp_files/291097.got.cif
#   From: 2010.06.25/outbox.cif.g09.slc.cpg/sg12_146_cif.got.tgz:291097.got - 2010.06.28 00:19:55.
