data_PCOD8084379
_publ_section_title
;
Structure prediction by ZEFSAII (Michael W. Deem and Ramdas Pophale) SiO2 
 PCOD8084379
Probable space group: C 2/M
;
_chemical_formula_sum "Si O2"
_cell_formula_units_Z 64
_cell_length_a 24.207407
_cell_length_b 14.663851
_cell_length_c 18.221643
_cell_angle_alpha 90.000000
_cell_angle_beta 28.788943
_cell_angle_gamma 90.000000
_cell_volume 3114.988119
_symmetry_space_group_name_H-M "C 2/M"
_symmetry_group_IT_number 12
_symmetry_cell_setting 'monoclinic'
loop_
_space_group_symop_operation_xyz
x,y,z
-x,y,-z
-x,-y,-z
x,-y,z
1/2+x,1/2+y,z
1/2-x,1/2+y,-z
1/2-x,1/2-y,-z
1/2+x,1/2-y,z
loop_
_atom_site_type_symbol
_atom_site_label
_atom_site_fract_x
_atom_site_fract_y
_atom_site_fract_z
Si Si1 0.535128 0.654870 0.060566
Si Si2 0.054768 0.599254 0.167351
Si Si3 0.002394 0.795207 0.730942
Si Si4 0.185204 0.100905 0.135620
Si Si5 0.224335 0.209241 0.384178
Si Si6 0.976152 0.646826 0.105853
Si Si7 0.312853 0.600482 0.238803
Si Si8 0.873225 0.897291 0.634030
O O1 0.529560 0.655055 0.155557
O O2 0.540942 0.757258 0.023859
O O3 0.425702 0.601049 0.158065
O O4 0.650071 0.611295 0.890719
O O5 0.018296 0.500000 0.243045
O O6 0.985692 0.685567 0.277865
O O7 0.031907 0.589583 0.106599
O O8 0.185280 0.619678 0.039842
O O9 0.127284 0.822160 0.555350
O O10 0.902682 0.823672 0.791099
O O11 0.195232 0.104998 0.211083
O O12 0.143528 0.000000 0.158839
O O13 0.341890 0.166750 0.278258
O O14 0.229630 0.318830 0.364561
O O15 0.197123 0.165759 0.338036
O O16 0.000000 0.596156 0.000000
O O17 0.254425 0.500000 0.315476
O O18 0.000000 0.857216 0.500000
O O19 0.882716 0.000000 0.590681
#
# Coordination Sequence:
#
# PCOD8084379 Si02
#       8
#     8   8   8   8   8   8   8   8
#     4   9  18  35  58  83 116 153 205 253 292 339
#     4  10  23  39  56  82 121 161 196 234 295 365
#     4  11  23  37  60  89 123 156 197 254 308 352
#     4  10  21  39  62  87 111 151 203 251 299 353
#     4  11  22  37  61  92 124 157 195 249 306 360
#     4  10  18  35  60  87 115 149 198 244 293 358
#     4  10  20  37  60  85 118 165 206 239 290 356
#     4  10  20  37  61  86 115 148 192 247 302 355
#
# _framework density 20.545824
#
# number of rings (size 3 to 8) (size 9 to 14) (size 15 to 20)
#    0.000    1.875    3.750    1.875    1.750    6.750 
#    0.000    0.000    0.000    0.375    0.000    0.000 
#    0.000    0.000    0.000    0.000    0.000    0.000 
#
# Total GULP energy -396546.999114 kJ/mol
# GULP energy per Si atom -12392.093722 kJ/mol
# Density = 2.049906 g / cm^3
# Si number density = 20.545824 Si / 1000 Ang^3
#
#
#
# Elastic Constant Matrix: (Units=GPa)
#
#
# Indices 1 2 3 4 5 6 
#
# 1 72.2023 36.0593 30.5224 0.0000 -2.1367 0.0000
# 2 36.0593 88.8304 8.0609 0.0000 -5.3392 0.0000
# 3 30.5224 8.0609 66.0175 0.0000 5.9873 0.0000
# 4 0.0000 0.0000 0.0000 17.2752 0.0000 -3.6818
# 5 -2.1367 -5.3392 5.9873 0.0000 25.9038 0.0000
# 6 0.0000 0.0000 0.0000 -3.6818 0.0000 20.6180
#
#
#
# Elastic Compliance Matrix: (Units=1/GPa)
#
#
# Indices 1 2 3 4 5 6 
#
# 1 0.021784 -0.007857 -0.009324 0.000000 0.002333 0.000000
# 2 -0.007857 0.014409 0.001698 0.000000 0.001929 0.000000
# 3 -0.009324 0.001698 0.019702 0.000000 -0.004973 0.000000
# 4 0.000000 0.000000 0.000000 0.060177 0.000000 0.010746
# 5 0.002333 0.001929 -0.004973 0.000000 0.040344 0.000000
# 6 0.000000 0.000000 0.000000 0.010746 0.000000 0.050420
#
#
# Mechanical properties :
#
#
# Convention : Reuss Voigt Hill
#
# Bulk Modulus (GPa) = 40.11250 41.81504 40.96377
# Shear Modulus (GPa) = 20.31603 22.91988 21.61796
#
# Velocity S-wave (km/s) = 3.14796 3.34361 3.24726
# Velocity P-wave (km/s) = 5.72526 5.94160 5.83443
#
# Compressibility (1/GPa) = 0.02492988
#
# Stress axis : x y z
#
# Youngs Moduli (GPa) = 45.90449 69.40307 50.75639
#
# Poissons Ratio (x) = 0.54528 0.47325
# Poissons Ratio (y) = 0.36066 -0.08619
# Poissons Ratio (z) = 0.42801 -0.11786
#
# Static dielectric constant tensor:
#      x y z
#    x 3.652370 0.000000 0.037950 
#    y 0.000000 3.693440 0.000000 
#    z 0.037950 0.000000 3.556120 
# 
# 
# High freq. dielectric constant tensor:
#      x y z
#    x 1.789540 0.000000 0.001410 
#    y 0.000000 1.800520 0.000000 
#    z 0.001410 0.000000 1.788970 
# 
# From -- ./inp_files/290109.got.cif
#   From: 2010.06.25/outbox.cif.g09.slc.cpg/sg12_146_cif.got.tgz:290109.got - 2010.06.28 00:19:55.
