data_PCOD8084574
_publ_section_title
;
Structure prediction by ZEFSAII (Michael W. Deem and Ramdas Pophale) SiO2 
 PCOD8084574
Probable space group: C 2/M
;
_chemical_formula_sum "Si O2"
_cell_formula_units_Z 48
_cell_length_a 30.620057
_cell_length_b 14.234470
_cell_length_c 9.768976
_cell_angle_alpha 90.000000
_cell_angle_beta 145.745978
_cell_angle_gamma 90.000000
_cell_volume 2396.619021
_symmetry_space_group_name_H-M "C 2/M"
_symmetry_group_IT_number 12
_symmetry_cell_setting 'monoclinic'
loop_
_space_group_symop_operation_xyz
x,y,z
-x,y,-z
-x,-y,-z
x,-y,z
1/2+x,1/2+y,z
1/2-x,1/2+y,-z
1/2-x,1/2-y,-z
1/2+x,1/2-y,z
loop_
_atom_site_type_symbol
_atom_site_label
_atom_site_fract_x
_atom_site_fract_y
_atom_site_fract_z
Si Si1 0.909779 0.287134 0.796337
Si Si2 0.704648 0.653771 0.895256
Si Si3 0.347830 0.890922 0.893245
Si Si4 0.672849 0.394756 0.503021
Si Si5 0.412886 0.217229 0.311549
Si Si6 0.144145 0.602915 0.591184
O O1 0.891152 0.322849 0.899800
O O2 0.887815 0.177836 0.720038
O O3 0.856717 0.350071 0.559768
O O4 0.000000 0.301571 0.000000
O O5 0.678722 0.613889 0.682308
O O6 0.629671 0.680535 0.793797
O O7 0.750000 0.750000 0.000000
O O8 0.765958 0.586702 0.130058
O O9 0.255548 0.877835 0.645082
O O10 0.371312 0.000000 0.932812
O O11 0.373932 0.857977 0.110418
O O12 0.643194 0.500000 0.393716
O O13 0.500000 0.240259 0.500000
O O14 0.408000 0.168977 0.447596
O O15 0.105456 0.500000 0.484327
#
# Coordination Sequence:
#
# PCOD8084574 Si02
#       6
#     8   8   8   8   8   8
#     4  12  25  40  59  91 129 165 193 245 309 360
#     4  10  18  37  63  90 113 150 207 250 296 344
#     4  11  23  38  60  92 124 159 202 247 296 359
#     4  11  22  42  67  88 115 159 214 256 291 350
#     4  11  21  35  60  90 124 159 198 244 303 364
#     4  11  21  38  64  90 120 160 202 244 299 364
#
# _framework density 20.028213999999998
#
# number of rings (size 3 to 8) (size 9 to 14) (size 15 to 20)
#    0.000    1.000    6.667    3.000    0.000    4.333 
#    0.000    0.000    0.000    3.000    0.000    0.000 
#    0.000    0.000    0.000    0.000    0.000    0.000 
#
# Total GULP energy -297557.622024 kJ/mol
# GULP energy per Si atom -12398.234251 kJ/mol
# Density = 1.998263 g / cm^3
# Si number density = 20.028214 Si / 1000 Ang^3
#
#
#
# Elastic Constant Matrix: (Units=GPa)
#
#
# Indices 1 2 3 4 5 6 
#
# 1 84.4651 40.3492 25.1806 0.0000 16.1220 0.0000
# 2 40.3492 101.1436 30.0210 0.0000 7.0752 0.0000
# 3 25.1806 30.0210 41.8736 0.0000 5.5949 0.0000
# 4 0.0000 0.0000 0.0000 17.4740 0.0000 0.7346
# 5 16.1220 7.0752 5.5949 0.0000 35.7696 0.0000
# 6 0.0000 0.0000 0.0000 0.7346 0.0000 17.6276
#
#
#
# Elastic Compliance Matrix: (Units=1/GPa)
#
#
# Indices 1 2 3 4 5 6 
#
# 1 0.016943 -0.004522 -0.006175 0.000000 -0.005776 0.000000
# 2 -0.004522 0.013809 -0.007240 0.000000 0.000439 0.000000
# 3 -0.006175 -0.007240 0.032909 0.000000 -0.000933 0.000000
# 4 0.000000 0.000000 0.000000 0.057328 0.000000 -0.002389
# 5 -0.005776 0.000439 -0.000933 0.000000 0.030619 0.000000
# 6 0.000000 0.000000 0.000000 -0.002389 0.000000 0.056829
#
#
# Mechanical properties :
#
#
# Convention : Reuss Voigt Hill
#
# Bulk Modulus (GPa) = 35.98605 46.50933 41.24769
# Shear Modulus (GPa) = 19.71821 22.96968 21.34394
#
# Velocity S-wave (km/s) = 3.14111 3.39021 3.26804
# Velocity P-wave (km/s) = 5.58231 6.21265 5.90590
#
# Compressibility (1/GPa) = 0.02778855
#
# Stress axis : x y z
#
# Youngs Moduli (GPa) = 59.02251 72.41619 30.38649
#
# Poissons Ratio (x) = 0.32748 0.18762
# Poissons Ratio (y) = 0.26691 0.21999
# Poissons Ratio (z) = 0.36443 0.52426
#
# Static dielectric constant tensor:
#      x y z
#    x 3.871140 0.000000 0.239420 
#    y 0.000000 3.976920 0.000000 
#    z 0.239420 0.000000 3.885130 
# 
# 
# High freq. dielectric constant tensor:
#      x y z
#    x 1.778320 0.000000 -0.001480 
#    y 0.000000 1.780840 0.000000 
#    z -0.001480 0.000000 1.772240 
# 
# From -- ./inp_files/105054.got.cif
#   From: 2010.06.25/outbox.cif.g09.slc.cpg/sg12_53_cif.got.tgz:105054.got - 2010.06.28 00:19:55.
