data_PCOD8084072
_publ_section_title
;
Structure prediction by ZEFSAII (Michael W. Deem and Ramdas Pophale) SiO2 
 PCOD8084072
Probable space group: C 2/M
;
_chemical_formula_sum "Si O2"
_cell_formula_units_Z 56
_cell_length_a 19.505438
_cell_length_b 21.122415
_cell_length_c 9.846315
_cell_angle_alpha 90.000000
_cell_angle_beta 42.688609
_cell_angle_gamma 90.000000
_cell_volume 2750.498265
_symmetry_space_group_name_H-M "C 2/M"
_symmetry_group_IT_number 12
_symmetry_cell_setting 'monoclinic'
loop_
_space_group_symop_operation_xyz
x,y,z
-x,y,-z
-x,-y,-z
x,-y,z
1/2+x,1/2+y,z
1/2-x,1/2+y,-z
1/2-x,1/2-y,-z
1/2+x,1/2-y,z
loop_
_atom_site_type_symbol
_atom_site_label
_atom_site_fract_x
_atom_site_fract_y
_atom_site_fract_z
Si Si1 0.229478 0.427675 0.768676
Si Si2 0.900288 0.233066 0.333628
Si Si3 0.321484 0.303939 0.727499
Si Si4 0.424025 0.895775 0.789315
Si Si5 0.853873 0.429741 0.608037
Si Si6 0.609319 0.755778 0.104643
Si Si7 0.271051 0.853158 0.497944
O O1 0.269776 0.500000 0.714851
O O2 0.309918 0.379559 0.721148
O O3 0.211166 0.407561 0.639579
O O4 0.123519 0.422392 0.002929
O O5 0.889019 0.227905 0.513605
O O6 0.842068 0.175305 0.346405
O O7 0.854557 0.299143 0.347518
O O8 0.021782 0.229001 0.130566
O O9 0.369560 0.293675 0.804937
O O10 0.211512 0.270108 0.873292
O O11 0.350215 0.913478 0.772242
O O12 0.532682 0.927006 0.614784
O O13 0.435630 0.820364 0.768519
O O14 0.811457 0.500000 0.648427
O O15 0.781454 0.381939 0.632688
#
# Coordination Sequence:
#
# PCOD8084072 Si02
#       7
#     8   8   8   8   8   8   8
#     4  10  20  37  53  76 118 150 183 232 277 341
#     4  10  19  36  54  76 115 147 185 239 277 335
#     4   9  20  32  56  88 108 149 193 227 298 337
#     4  10  20  33  54  80 106 149 186 228 291 339
#     4  11  20  32  49  78 111 144 190 227 271 344
#     4  10  18  34  57  83 116 141 187 244 281 340
#     4  10  21  34  52  79 104 153 188 214 281 339
#
# _framework density 20.359946000000001
#
# number of rings (size 3 to 8) (size 9 to 14) (size 15 to 20)
#    0.000    2.000    1.429    3.429    2.000    0.571 
#    2.571    3.571    0.000    7.714    0.000    0.000 
#    0.000   21.714    0.000    0.000    0.000    0.000 
#
# Total GULP energy -347194.349423 kJ/mol
# GULP energy per Si atom -12399.798194 kJ/mol
# Density = 2.031361 g / cm^3
# Si number density = 20.359946 Si / 1000 Ang^3
#
#
#
# Elastic Constant Matrix: (Units=GPa)
#
#
# Indices 1 2 3 4 5 6 
#
# 1 112.1682 46.0081 15.3156 0.0000 -18.6227 0.0000
# 2 46.0081 116.6968 14.7825 0.0000 2.5379 0.0000
# 3 15.3156 14.7825 34.6240 0.0000 -13.4569 0.0000
# 4 0.0000 0.0000 0.0000 18.1898 0.0000 3.6391
# 5 -18.6227 2.5379 -13.4569 0.0000 29.6692 0.0000
# 6 0.0000 0.0000 0.0000 3.6391 0.0000 27.4079
#
#
#
# Elastic Compliance Matrix: (Units=1/GPa)
#
#
# Indices 1 2 3 4 5 6 
#
# 1 0.012342 -0.005021 -0.000168 0.000000 0.008101 0.000000
# 2 -0.005021 0.011338 -0.005125 0.000000 -0.006446 0.000000
# 3 -0.000168 -0.005125 0.037966 0.000000 0.017553 0.000000
# 4 0.000000 0.000000 0.000000 0.056476 0.000000 -0.007499
# 5 0.008101 -0.006446 0.017553 0.000000 0.047303 0.000000
# 6 0.000000 0.000000 0.000000 -0.007499 0.000000 0.037481
#
#
# Mechanical properties :
#
#
# Convention : Reuss Voigt Hill
#
# Bulk Modulus (GPa) = 24.37858 46.18906 35.28382
# Shear Modulus (GPa) = 21.07864 27.54556 24.31210
#
# Velocity S-wave (km/s) = 3.22110 3.68221 3.45934
# Velocity P-wave (km/s) = 5.08269 6.38856 5.77267
#
# Compressibility (1/GPa) = 0.04101962
#
# Stress axis : x y z
#
# Youngs Moduli (GPa) = 81.02139 88.19778 26.33927
#
# Poissons Ratio (x) = 0.44284 0.00441
# Poissons Ratio (y) = 0.40681 0.13499
# Poissons Ratio (z) = 0.01357 0.45202
#
# Static dielectric constant tensor:
#      x y z
#    x 3.734650 0.000000 0.065030 
#    y 0.000000 3.693810 0.000000 
#    z 0.065030 0.000000 3.449370 
# 
# 
# High freq. dielectric constant tensor:
#      x y z
#    x 1.794790 0.000000 0.014430 
#    y 0.000000 1.789450 0.000000 
#    z 0.014430 0.000000 1.769980 
# 
# From -- ./inp_files/169394.got.cif
#   From: 2010.06.25/outbox.cif.g09.slc.cpg/sg12_85_cif.got.tgz:169394.got - 2010.06.28 00:19:55.
