data_PCOD8084053
_publ_section_title
;
Structure prediction by ZEFSAII (Michael W. Deem and Ramdas Pophale) SiO2 
 PCOD8084053
Probable space group: C 2/M
;
_chemical_formula_sum "Si O2"
_cell_formula_units_Z 56
_cell_length_a 20.587947
_cell_length_b 9.194670
_cell_length_c 30.098267
_cell_angle_alpha 90.000000
_cell_angle_beta 146.487922
_cell_angle_gamma 90.000000
_cell_volume 3145.708391
_symmetry_space_group_name_H-M "C 2/M"
_symmetry_group_IT_number 12
_symmetry_cell_setting 'monoclinic'
loop_
_space_group_symop_operation_xyz
x,y,z
-x,y,-z
-x,-y,-z
x,-y,z
1/2+x,1/2+y,z
1/2-x,1/2+y,-z
1/2-x,1/2-y,-z
1/2+x,1/2-y,z
loop_
_atom_site_type_symbol
_atom_site_label
_atom_site_fract_x
_atom_site_fract_y
_atom_site_fract_z
Si Si1 0.178164 0.171012 0.738289
Si Si2 0.943238 0.668109 0.015315
Si Si3 0.685481 0.671823 0.842953
Si Si4 0.897306 0.172962 0.824519
Si Si5 0.954721 0.172756 0.758554
Si Si6 0.413488 0.332085 0.570053
Si Si7 0.216098 0.829686 0.414251
O O1 0.183230 0.232153 0.791440
O O2 0.270978 0.258369 0.762052
O O3 0.051052 0.203792 0.644809
O O4 0.208719 0.000000 0.754554
O O5 0.959200 0.500000 0.038372
O O6 0.806836 0.714529 0.936150
O O7 0.000000 0.695710 0.000000
O O8 0.004842 0.770864 0.085848
O O9 0.671883 0.500000 0.831761
O O10 0.577686 0.737855 0.809965
O O11 0.935452 0.226757 0.797491
O O12 0.888684 0.000000 0.822828
O O13 0.846791 0.227514 0.666337
O O14 0.960877 0.000000 0.759766
O O15 0.388552 0.500000 0.547394
O O16 0.343173 0.245182 0.492000
O O17 0.368851 0.286508 0.593417
O O18 0.238463 0.000000 0.424915
#
# Coordination Sequence:
#
# PCOD8084053 Si02
#       7
#     8   8   8   8   8   8   8
#     4  10  18  34  57  78 100 136 182 216 249 303
#     4  10  19  34  57  80 100 132 179 218 252 304
#     4   9  16  31  57  78  96 132 182 217 240 299
#     4  11  23  35  51  77 111 139 166 213 268 312
#     4   9  18  34  53  76 105 142 176 205 254 316
#     4   9  17  29  52  82 104 127 170 222 260 293
#     4   9  16  30  53  77 104 135 169 210 256 308
#
# _framework density 17.802032000000001
#
# number of rings (size 3 to 8) (size 9 to 14) (size 15 to 20)
#    0.000    2.429    2.857    0.429    0.000    1.429 
#    0.000    2.143    0.000    7.714    0.000    0.000 
#    0.000    0.000    0.000    0.000    0.000    0.000 
#
# Total GULP energy -347188.535054 kJ/mol
# GULP energy per Si atom -12399.590538 kJ/mol
# Density = 1.776151 g / cm^3
# Si number density = 17.802032 Si / 1000 Ang^3
#
#
#
# Elastic Constant Matrix: (Units=GPa)
#
#
# Indices 1 2 3 4 5 6 
#
# 1 122.8355 39.2230 72.9295 0.0000 8.6860 0.0001
# 2 39.2230 41.8634 45.4823 0.0000 1.4584 0.0003
# 3 72.9295 45.4823 143.7728 0.0000 7.3517 0.0000
# 4 0.0000 0.0000 0.0000 31.3882 0.0000 1.6425
# 5 8.6860 1.4584 7.3517 0.0000 23.0703 0.0000
# 6 0.0001 0.0003 0.0000 1.6425 0.0000 19.2612
#
#
#
# Elastic Compliance Matrix: (Units=1/GPa)
#
#
# Indices 1 2 3 4 5 6 
#
# 1 0.013328 -0.007937 -0.004086 0.000000 -0.003214 0.000000
# 2 -0.007937 0.041167 -0.009166 0.000000 0.003307 -0.000001
# 3 -0.004086 -0.009166 0.012015 0.000000 -0.001711 0.000000
# 4 0.000000 0.000000 0.000000 0.032002 0.000000 -0.002729
# 5 -0.003214 0.003307 -0.001711 0.000000 0.044892 0.000000
# 6 0.000000 -0.000001 0.000000 -0.002729 0.000000 0.052151
#
#
# Mechanical properties :
#
#
# Convention : Reuss Voigt Hill
#
# Bulk Modulus (GPa) = 41.43725 69.30458 55.37092
# Shear Modulus (GPa) = 20.32714 24.79974 22.56344
#
# Velocity S-wave (km/s) = 3.38278 3.73645 3.56401
# Velocity P-wave (km/s) = 6.21167 7.59144 6.93595
#
# Compressibility (1/GPa) = 0.02413287
#
# Stress axis : x y z
#
# Youngs Moduli (GPa) = 75.02801 24.29143 83.22854
#
# Poissons Ratio (x) = 0.19280 0.34005
# Poissons Ratio (y) = 0.59548 0.76289
# Poissons Ratio (z) = 0.30654 0.22266
#
# Static dielectric constant tensor:
#      x y z
#    x 3.348580 0.000000 0.092390 
#    y 0.000000 2.976620 0.000000 
#    z 0.092390 0.000000 3.495470 
# 
# 
# High freq. dielectric constant tensor:
#      x y z
#    x 1.677610 0.000000 0.008830 
#    y 0.000000 1.654970 0.000000 
#    z 0.008830 0.000000 1.704320 
# 
# From -- ./inp_files/363097.got.cif
#   From: 2010.06.25/outbox.cif.g09.slc.cpg/sg12_182_cif.got.tgz:363097.got - 2010.06.28 00:19:55.
