data_PCOD8084221
_publ_section_title
;
Structure prediction by ZEFSAII (Michael W. Deem and Ramdas Pophale) SiO2 
 PCOD8084221
Probable space group: C 2/M
;
_chemical_formula_sum "Si O2"
_cell_formula_units_Z 64
_cell_length_a 27.841747
_cell_length_b 9.216786
_cell_length_c 23.775426
_cell_angle_alpha 90.000000
_cell_angle_beta 33.237626
_cell_angle_gamma 90.000000
_cell_volume 3344.060182
_symmetry_space_group_name_H-M "C 2/M"
_symmetry_group_IT_number 12
_symmetry_cell_setting 'monoclinic'
loop_
_space_group_symop_operation_xyz
x,y,z
-x,y,-z
-x,-y,-z
x,-y,z
1/2+x,1/2+y,z
1/2-x,1/2+y,-z
1/2-x,1/2-y,-z
1/2+x,1/2-y,z
loop_
_atom_site_type_symbol
_atom_site_label
_atom_site_fract_x
_atom_site_fract_y
_atom_site_fract_z
Si Si1 0.159634 0.329912 0.468794
Si Si2 0.646709 0.328532 0.736830
Si Si3 0.006967 0.170959 0.677537
Si Si4 0.603770 0.335546 0.901413
Si Si5 0.599399 0.829846 0.404724
Si Si6 0.980026 0.828234 0.831920
Si Si7 0.351004 0.666444 0.750666
Si Si8 0.655389 0.832638 0.960793
O O1 0.143111 0.500000 0.493598
O O2 0.260452 0.285449 0.382119
O O3 0.098277 0.244781 0.571787
O O4 0.139297 0.283519 0.425018
O O5 0.637487 0.500000 0.749201
O O6 0.640949 0.270714 0.806427
O O7 0.567641 0.267104 0.776391
O O8 0.983787 0.216641 0.763384
O O9 0.928350 0.227423 0.714777
O O10 0.019765 0.000000 0.660002
O O11 0.638001 0.500000 0.878789
O O12 0.635849 0.231237 0.918843
O O13 0.500000 0.336133 0.000000
O O14 0.500000 0.774099 0.500000
O O15 0.654399 0.754415 0.301897
O O16 0.605594 0.000000 0.388292
O O17 0.970620 0.000000 0.849422
O O18 0.895353 0.753283 0.941259
O O19 0.369695 0.500000 0.717298
O O20 0.258611 0.683706 0.873082
O O21 0.626292 0.000000 0.989861
#
# Coordination Sequence:
#
# PCOD8084221 Si02
#       8
#     8   8   8   8   8   8   8   8
#     4  10  20  35  56  82 113 142 175 225 278 325
#     4   9  18  34  57  83 109 141 180 222 269 325
#     4  10  22  39  58  78 106 145 190 231 269 325
#     4  10  18  34  61  85 109 146 185 218 266 331
#     4  10  19  33  56  85 111 140 181 225 268 325
#     4  10  21  40  60  78 104 145 192 230 269 325
#     4  10  22  38  55  80 114 149 180 221 280 332
#     4  11  23  37  55  83 116 144 178 228 280 327
#
# _framework density 19.13841
#
# number of rings (size 3 to 8) (size 9 to 14) (size 15 to 20)
#    0.000    2.000    2.500    1.125    0.000    4.500 
#    0.000    1.250    0.000    0.000    0.000    0.000 
#    0.000    0.000    0.000    0.000    0.000    0.000 
#
# Total GULP energy -396871.471538 kJ/mol
# GULP energy per Si atom -12402.233486 kJ/mol
# Density = 1.909485 g / cm^3
# Si number density = 19.138410 Si / 1000 Ang^3
#
#
#
# Elastic Constant Matrix: (Units=GPa)
#
#
# Indices 1 2 3 4 5 6 
#
# 1 57.9489 26.4663 46.6940 0.0554 14.0716 -0.0125
# 2 26.4663 43.9036 42.8872 0.0403 10.0023 -0.0197
# 3 46.6940 42.8872 133.9575 0.0968 7.4907 -0.0176
# 4 0.0554 0.0403 0.0968 35.5086 -0.0213 1.4200
# 5 14.0716 10.0023 7.4907 -0.0213 32.3022 0.0081
# 6 -0.0125 -0.0197 -0.0176 1.4200 0.0081 8.2268
#
#
#
# Elastic Compliance Matrix: (Units=1/GPa)
#
#
# Indices 1 2 3 4 5 6 
#
# 1 0.028709 -0.008892 -0.006702 -0.000022 -0.008199 0.000020
# 2 -0.008892 0.038016 -0.008743 -0.000012 -0.005871 0.000067
# 3 -0.006702 -0.008743 0.012447 -0.000012 0.002740 -0.000005
# 4 -0.000022 -0.000012 -0.000012 0.028358 0.000036 -0.004895
# 5 -0.008199 -0.005871 0.002740 0.000036 0.035712 -0.000062
# 6 0.000020 0.000067 -0.000005 -0.004895 -0.000062 0.122399
#
#
# Mechanical properties :
#
#
# Convention : Reuss Voigt Hill
#
# Bulk Modulus (GPa) = 32.78926 51.98945 42.38935
# Shear Modulus (GPa) = 15.40927 23.19168 19.30047
#
# Velocity S-wave (km/s) = 2.84059 3.48485 3.17908
# Velocity P-wave (km/s) = 5.28474 6.58910 5.97263
#
# Compressibility (1/GPa) = 0.03049779
#
# Stress axis : x y z
#
# Youngs Moduli (GPa) = 34.83244 26.30499 80.34005
#
# Poissons Ratio (x) = 0.23390 0.53843
# Poissons Ratio (y) = 0.30972 0.70242
# Poissons Ratio (z) = 0.23344 0.22999
#
# Static dielectric constant tensor:
#      x y z
#    x 3.608990 -0.000020 -0.121610 
#    y -0.000020 3.276840 0.000020 
#    z -0.121610 0.000020 3.606760 
# 
# 
# High freq. dielectric constant tensor:
#      x y z
#    x 1.743900 0.000000 -0.007470 
#    y 0.000000 1.720180 0.000000 
#    z -0.007470 0.000000 1.756970 
# 
# From -- ./inp_files/249827.got.cif
#   From: 2010.06.25/outbox.cif.g09.slc.cpg/sg12_125_cif.got.tgz:249827.got - 2010.06.28 00:19:55.
