data_PCOD8084526
_publ_section_title
;
Structure prediction by ZEFSAII (Michael W. Deem and Ramdas Pophale) SiO2 
 PCOD8084526
Probable space group: C 2/M
;
_chemical_formula_sum "Si O2"
_cell_formula_units_Z 36
_cell_length_a 9.234908
_cell_length_b 24.623634
_cell_length_c 14.629985
_cell_angle_alpha 90.000000
_cell_angle_beta 145.892531
_cell_angle_gamma 90.000000
_cell_volume 1865.501100
_symmetry_space_group_name_H-M "C 2/M"
_symmetry_group_IT_number 12
_symmetry_cell_setting 'monoclinic'
loop_
_space_group_symop_operation_xyz
x,y,z
-x,y,-z
-x,-y,-z
x,-y,z
1/2+x,1/2+y,z
1/2-x,1/2+y,-z
1/2-x,1/2-y,-z
1/2+x,1/2-y,z
loop_
_atom_site_type_symbol
_atom_site_label
_atom_site_fract_x
_atom_site_fract_y
_atom_site_fract_z
Si Si1 0.090856 0.686620 0.217047
Si Si2 0.000000 0.368292 0.500000
Si Si3 0.528194 0.437891 0.319250
Si Si4 0.000000 0.621352 0.000000
Si Si5 0.029788 0.723830 0.659815
Si Si6 0.500000 0.396563 0.500000
O O1 0.263685 0.733803 0.266240
O O2 0.257067 0.641075 0.353949
O O3 0.910054 0.711912 0.201644
O O4 0.932128 0.659135 0.051929
O O5 0.251932 0.405055 0.618727
O O6 0.050532 0.331696 0.614876
O O7 0.546836 0.500000 0.297746
O O8 0.248430 0.415394 0.146306
O O9 0.566778 0.434082 0.448402
O O10 0.750000 0.750000 0.500000
#
# Coordination Sequence:
#
# PCOD8084526 Si02
#       6
#     8   4   8   4   8   4
#     4  11  21  36  60  91 126 164 202 238 310 379
#     4  12  22  38  66  98 122 156 210 270 302 354
#     4  11  23  42  66  91 120 164 214 265 312 354
#     4  10  25  42  62  90 132 168 201 250 312 382
#     4  12  19  35  62  92 127 162 199 252 304 370
#     4  10  18  36  64  92 116 156 216 256 292 374
#
# _framework density 19.297764999999998
#
# number of rings (size 3 to 8) (size 9 to 14) (size 15 to 20)
#    0.000    0.889    6.667    2.333    0.000    0.889 
#    0.000    0.000    0.000    1.333    0.000    0.000 
#    0.000    0.000    0.000    0.000    0.000    0.000 
#
# Total GULP energy -223218.958796 kJ/mol
# GULP energy per Si atom -12401.053266 kJ/mol
# Density = 1.925384 g / cm^3
# Si number density = 19.297765 Si / 1000 Ang^3
#
#
#
# Elastic Constant Matrix: (Units=GPa)
#
#
# Indices 1 2 3 4 5 6 
#
# 1 137.8844 68.0458 47.8315 0.0001 -10.2724 -0.0001
# 2 68.0458 142.0943 50.1892 0.0000 -0.1171 0.0000
# 3 47.8315 50.1892 82.0414 0.0004 -8.1595 -0.0008
# 4 0.0001 0.0000 0.0004 30.0115 0.0002 -2.9072
# 5 -10.2724 -0.1171 -8.1595 0.0002 37.3810 -0.0003
# 6 -0.0001 0.0000 -0.0008 -2.9072 -0.0003 43.0695
#
#
#
# Elastic Compliance Matrix: (Units=1/GPa)
#
#
# Indices 1 2 3 4 5 6 
#
# 1 0.010519 -0.003754 -0.003629 0.000000 0.002087 0.000000
# 2 -0.003754 0.010370 -0.004349 0.000000 -0.001948 0.000000
# 3 -0.003629 -0.004349 0.017239 0.000000 0.002752 0.000000
# 4 0.000000 0.000000 0.000000 0.033540 0.000000 0.002264
# 5 0.002087 -0.001948 0.002752 0.000000 0.027920 0.000000
# 6 0.000000 0.000000 0.000000 0.002264 0.000000 0.023371
#
#
# Mechanical properties :
#
#
# Convention : Reuss Voigt Hill
#
# Bulk Modulus (GPa) = 68.19231 77.12810 72.66021
# Shear Modulus (GPa) = 33.04470 35.15598 34.10034
#
# Velocity S-wave (km/s) = 4.14256 4.27284 4.20820
# Velocity P-wave (km/s) = 7.63509 8.02478 7.83236
#
# Compressibility (1/GPa) = 0.01466441
#
# Stress axis : x y z
#
# Youngs Moduli (GPa) = 95.06275 96.43439 58.00862
#
# Poissons Ratio (x) = 0.36202 0.21051
# Poissons Ratio (y) = 0.35687 0.25227
# Poissons Ratio (z) = 0.34497 0.41938
#
# Static dielectric constant tensor:
#      x y z
#    x 3.931090 0.000000 -0.311210 
#    y 0.000000 3.613250 0.000000 
#    z -0.311210 0.000000 3.468460 
# 
# 
# High freq. dielectric constant tensor:
#      x y z
#    x 1.765640 0.000000 -0.012370 
#    y 0.000000 1.758730 0.000000 
#    z -0.012370 0.000000 1.732890 
# 
# From -- ./inp_files/38838.got.cif
#   From: 2010.06.25/outbox.cif.g09.slc.cpg/sg12_20_cif.got.tgz:38838.got - 2010.06.28 00:19:55.
