data_PCOD8084482
_publ_section_title
;
Structure prediction by ZEFSAII (Michael W. Deem and Ramdas Pophale) SiO2 
 PCOD8084482
Probable space group: C 2/M
;
_chemical_formula_sum "Si O2"
_cell_formula_units_Z 56
_cell_length_a 15.349552
_cell_length_b 17.993174
_cell_length_c 21.060760
_cell_angle_alpha 90.000000
_cell_angle_beta 27.352675
_cell_angle_gamma 90.000000
_cell_volume 2672.582981
_symmetry_space_group_name_H-M "C 2/M"
_symmetry_group_IT_number 12
_symmetry_cell_setting 'monoclinic'
loop_
_space_group_symop_operation_xyz
x,y,z
-x,y,-z
-x,-y,-z
x,-y,z
1/2+x,1/2+y,z
1/2-x,1/2+y,-z
1/2-x,1/2-y,-z
1/2+x,1/2-y,z
loop_
_atom_site_type_symbol
_atom_site_label
_atom_site_fract_x
_atom_site_fract_y
_atom_site_fract_z
Si Si1 0.338917 0.586479 0.244209
Si Si2 0.978240 0.413988 0.782471
Si Si3 0.407827 0.676812 0.742246
Si Si4 0.737154 0.584777 0.052353
Si Si5 0.702669 0.810994 0.439679
Si Si6 0.844924 0.663727 0.749819
Si Si7 0.106193 0.856810 0.491746
O O1 0.277382 0.500000 0.283564
O O2 0.554605 0.595924 0.126002
O O3 0.207260 0.632304 0.377986
O O4 0.311326 0.623025 0.192723
O O5 0.932709 0.500000 0.803768
O O6 0.843378 0.372802 0.819866
O O7 0.196816 0.398786 0.628167
O O8 0.916577 0.388978 0.893756
O O9 0.270395 0.631359 0.877762
O O10 0.595317 0.702156 0.658331
O O11 0.294957 0.749060 0.790275
O O12 0.476414 0.627756 0.637818
O O13 0.756248 0.500000 0.061865
O O14 0.555613 0.845975 0.584570
O O15 0.635126 0.730634 0.460388
O O16 0.000000 0.891437 0.500000
#
# Coordination Sequence:
#
# PCOD8084482 Si02
#       7
#     8   8   8   8   8   8   8
#     4  10  21  35  57  91 125 159 191 231 292 360
#     4  11  23  39  59  84 117 156 194 245 299 341
#     4  10  19  38  63  86 116 159 198 235 290 352
#     4   9  22  42  61  84 120 158 194 239 293 351
#     4  10  18  36  58  86 123 155 192 239 291 346
#     4  11  19  34  57  88 123 155 192 239 290 345
#     4  11  21  38  62  87 115 147 196 252 294 338
#
# _framework density 20.953512
#
# number of rings (size 3 to 8) (size 9 to 14) (size 15 to 20)
#    0.000    1.714    2.857    3.429    0.000    3.714 
#    0.000    2.857    6.286    1.714    0.000    0.000 
#    0.000    0.000    0.000    0.000    0.000    0.000 
#
# Total GULP energy -347235.028798 kJ/mol
# GULP energy per Si atom -12401.251029 kJ/mol
# Density = 2.090582 g / cm^3
# Si number density = 20.953512 Si / 1000 Ang^3
#
#
#
# Elastic Constant Matrix: (Units=GPa)
#
#
# Indices 1 2 3 4 5 6 
#
# 1 97.2160 27.1020 21.7376 -0.0198 28.2743 0.0080
# 2 27.1020 75.3684 36.9446 0.0824 21.8968 0.0278
# 3 21.7376 36.9446 75.8065 0.2430 37.8499 0.0103
# 4 -0.0198 0.0824 0.2430 28.8743 0.0052 10.5283
# 5 28.2743 21.8968 37.8499 0.0052 33.2064 -0.0064
# 6 0.0080 0.0278 0.0103 10.5283 -0.0064 35.0550
#
#
#
# Elastic Compliance Matrix: (Units=1/GPa)
#
#
# Indices 1 2 3 4 5 6 
#
# 1 0.014905 -0.003245 0.005978 -0.000029 -0.017365 0.000003
# 2 -0.003245 0.018396 -0.007792 0.000017 -0.000485 -0.000017
# 3 0.005978 -0.007792 0.035396 -0.000291 -0.040298 0.000075
# 4 -0.000029 0.000017 -0.000291 0.038894 0.000337 -0.011681
# 5 -0.017365 -0.000485 -0.040298 0.000337 0.091153 -0.000069
# 6 0.000003 -0.000017 0.000075 -0.011681 -0.000069 0.032035
#
#
# Mechanical properties :
#
#
# Convention : Reuss Voigt Hill
#
# Bulk Modulus (GPa) = 17.07125 46.66213 31.86669
# Shear Modulus (GPa) = 19.19943 30.26761 24.73352
#
# Velocity S-wave (km/s) = 3.03031 3.80480 3.43942
# Velocity P-wave (km/s) = 4.51758 6.45133 5.56903
#
# Compressibility (1/GPa) = 0.05857803
#
# Stress axis : x y z
#
# Youngs Moduli (GPa) = 67.09265 54.36035 28.25143
#
# Poissons Ratio (x) = 0.17639 -0.16888
# Poissons Ratio (y) = 0.21770 0.22015
# Poissons Ratio (z) = -0.40107 0.42360
#
# Static dielectric constant tensor:
#      x y z
#    x 3.796450 -0.000020 0.250580 
#    y -0.000020 3.711430 0.000040 
#    z 0.250580 0.000040 3.766770 
# 
# 
# High freq. dielectric constant tensor:
#      x y z
#    x 1.821020 0.000000 0.016340 
#    y 0.000000 1.811730 0.000010 
#    z 0.016340 0.000010 1.810620 
# 
# From -- ./inp_files/311672.got.cif
#   From: 2010.06.25/outbox.cif.g09.slc.cpg/sg12_156_cif.got.tgz:311672.got - 2010.06.28 00:19:55.
