data_PCOD8084101
_publ_section_title
;
Structure prediction by ZEFSAII (Michael W. Deem and Ramdas Pophale) SiO2 
 PCOD8084101
Probable space group: C 2/M
;
_chemical_formula_sum "Si O2"
_cell_formula_units_Z 56
_cell_length_a 29.820542
_cell_length_b 8.556261
_cell_length_c 21.757200
_cell_angle_alpha 90.000000
_cell_angle_beta 149.157295
_cell_angle_gamma 90.000000
_cell_volume 2846.108343
_symmetry_space_group_name_H-M "C 2/M"
_symmetry_group_IT_number 12
_symmetry_cell_setting 'monoclinic'
loop_
_space_group_symop_operation_xyz
x,y,z
-x,y,-z
-x,-y,-z
x,-y,z
1/2+x,1/2+y,z
1/2-x,1/2+y,-z
1/2-x,1/2-y,-z
1/2+x,1/2-y,z
loop_
_atom_site_type_symbol
_atom_site_label
_atom_site_fract_x
_atom_site_fract_y
_atom_site_fract_z
Si Si1 0.785166 0.316327 0.896233
Si Si2 0.919092 0.816303 0.142417
Si Si3 0.528585 0.677781 0.463775
Si Si4 0.226163 0.684695 0.380095
Si Si5 0.129082 0.681105 0.788617
Si Si6 0.614224 0.684387 0.349754
Si Si7 0.224040 0.814696 0.693404
O O1 0.804870 0.500000 0.920663
O O2 0.697994 0.284493 0.832518
O O3 0.771856 0.253029 0.810898
O O4 0.867967 0.222687 0.019694
O O5 0.868322 0.727565 0.136932
O O6 0.018150 0.751726 0.253378
O O7 0.917475 0.000000 0.153566
O O8 0.500000 0.682368 0.500000
O O9 0.524340 0.500000 0.433071
O O10 0.467441 0.785939 0.350476
O O11 0.625385 0.750169 0.572878
O O12 0.221478 0.500000 0.379702
O O13 0.316149 0.745137 0.517724
O O14 0.142174 0.755689 0.315257
O O15 0.223858 0.739268 0.306261
O O16 0.153765 0.500000 0.810618
O O17 0.611409 0.500000 0.344261
O O18 0.216722 0.000000 0.689204
#
# Coordination Sequence:
#
# PCOD8084101 Si02
#       7
#     8   8   8   8   8   8   8
#     4  11  22  39  58  79 110 149 192 232 273 328
#     4  11  23  40  59  79 107 147 191 232 279 332
#     4  10  18  34  58  81 110 150 186 222 271 327
#     4   9  17  33  59  86 110 138 177 223 272 332
#     4  12  24  37  55  83 115 147 186 233 282 328
#     4   9  19  36  58  83 111 139 176 227 280 331
#     4   9  18  34  57  83 111 148 187 223 273 332
#
# _framework density 19.675989000000001
#
# number of rings (size 3 to 8) (size 9 to 14) (size 15 to 20)
#    0.000    1.857    1.429    3.429    0.000    3.714 
#    0.000    5.714    0.000    4.286    0.000    0.000 
#    0.000    0.000    0.000    0.000    0.000    0.000 
#
# Total GULP energy -347264.350410 kJ/mol
# GULP energy per Si atom -12402.298229 kJ/mol
# Density = 1.963121 g / cm^3
# Si number density = 19.675989 Si / 1000 Ang^3
#
#
#
# Elastic Constant Matrix: (Units=GPa)
#
#
# Indices 1 2 3 4 5 6 
#
# 1 128.0755 11.0458 41.2038 0.0000 -14.0263 0.0000
# 2 11.0458 34.3802 12.7976 0.0000 -1.6119 0.0000
# 3 41.2038 12.7976 92.1016 0.0000 -13.6006 0.0000
# 4 0.0000 0.0000 0.0000 28.4284 0.0000 1.7410
# 5 -14.0263 -1.6119 -13.6006 0.0000 24.3269 0.0000
# 6 0.0000 0.0000 0.0000 1.7410 0.0000 23.3460
#
#
#
# Elastic Compliance Matrix: (Units=1/GPa)
#
#
# Indices 1 2 3 4 5 6 
#
# 1 0.009442 -0.001570 -0.003507 0.000000 0.003379 0.000000
# 2 -0.001570 0.030937 -0.003736 0.000000 -0.000944 0.000000
# 3 -0.003507 -0.003736 0.013745 0.000000 0.005415 0.000000
# 4 0.000000 0.000000 0.000000 0.035337 0.000000 -0.002635
# 5 0.003379 -0.000944 0.005415 0.000000 0.046020 0.000000
# 6 0.000000 0.000000 0.000000 -0.002635 0.000000 0.043030
#
#
# Mechanical properties :
#
#
# Convention : Reuss Voigt Hill
#
# Bulk Modulus (GPa) = 27.39782 42.73909 35.06845
# Shear Modulus (GPa) = 24.00349 27.85425 25.92887
#
# Velocity S-wave (km/s) = 3.49655 3.76659 3.63408
# Velocity P-wave (km/s) = 5.50053 6.37847 5.95570
#
# Compressibility (1/GPa) = 0.03649926
#
# Stress axis : x y z
#
# Youngs Moduli (GPa) = 105.91504 32.32355 72.75277
#
# Poissons Ratio (x) = 0.05074 0.25513
# Poissons Ratio (y) = 0.16625 0.27180
# Poissons Ratio (z) = 0.37142 0.12076
#
# Static dielectric constant tensor:
#      x y z
#    x 3.697580 0.000000 -0.080360 
#    y 0.000000 3.302080 0.000000 
#    z -0.080360 0.000000 3.749900 
# 
# 
# High freq. dielectric constant tensor:
#      x y z
#    x 1.769580 0.000000 -0.007320 
#    y 0.000000 1.744000 0.000000 
#    z -0.007320 0.000000 1.764340 
# 
# From -- ./inp_files/329690.got.cif
#   From: 2010.06.25/outbox.cif.g09.slc.cpg/sg12_165_cif.got.tgz:329690.got - 2010.06.28 00:19:55.
