data_PCOD8084169
_publ_section_title
;
Structure prediction by ZEFSAII (Michael W. Deem and Ramdas Pophale) SiO2 
 PCOD8084169
Probable space group: C 2/M
;
_chemical_formula_sum "Si O2"
_cell_formula_units_Z 56
_cell_length_a 28.883266
_cell_length_b 12.968677
_cell_length_c 7.690111
_cell_angle_alpha 90.000000
_cell_angle_beta 113.916109
_cell_angle_gamma 90.000000
_cell_volume 2633.220942
_symmetry_space_group_name_H-M "C 2/M"
_symmetry_group_IT_number 12
_symmetry_cell_setting 'monoclinic'
loop_
_space_group_symop_operation_xyz
x,y,z
-x,y,-z
-x,-y,-z
x,-y,z
1/2+x,1/2+y,z
1/2-x,1/2+y,-z
1/2-x,1/2-y,-z
1/2+x,1/2-y,z
loop_
_atom_site_type_symbol
_atom_site_label
_atom_site_fract_x
_atom_site_fract_y
_atom_site_fract_z
Si Si1 0.896885 0.881745 0.633448
Si Si2 0.609977 0.385547 0.967939
Si Si3 0.964427 0.385041 0.280192
Si Si4 0.690876 0.237601 0.605286
Si Si5 0.351119 0.182919 0.112132
Si Si6 0.214032 0.381929 0.299170
Si Si7 0.504466 0.680894 0.812242
O O1 0.891961 0.859852 0.830600
O O2 0.857280 0.811978 0.472945
O O3 0.952005 0.850088 0.639921
O O4 0.885815 0.000000 0.571848
O O5 0.631323 0.500000 0.964979
O O6 0.647057 0.304215 0.934875
O O7 0.553068 0.375983 0.801485
O O8 0.969556 0.500000 0.210696
O O9 0.906128 0.363094 0.240171
O O10 0.985025 0.303759 0.170748
O O11 0.000000 0.371082 0.500000
O O12 0.685254 0.172175 0.774952
O O13 0.740521 0.307665 0.687201
O O14 0.691044 0.157664 0.446156
O O15 0.328210 0.120264 0.915358
O O16 0.232473 0.500000 0.352269
O O17 0.500000 0.639477 0.000000
#
# Coordination Sequence:
#
# PCOD8084169 Si02
#       7
#     8   8   8   8   8   8   8
#     4  10  18  34  59  88 123 161 201 251 307 360
#     4   9  18  33  57  89 124 161 199 244 300 364
#     4  10  21  37  56  83 121 161 203 252 300 354
#     4  11  24  42  66  93 122 157 204 259 307 366
#     4  11  22  42  65  90 126 161 205 253 306 366
#     4  11  25  45  65  91 123 159 205 255 312 370
#     4   9  18  32  53  83 120 157 200 244 295 356
#
# _framework density 21.266729000000002
#
# number of rings (size 3 to 8) (size 9 to 14) (size 15 to 20)
#    0.000    1.857    1.429    2.571    0.000    4.286 
#    0.000    0.714    0.000    4.714    0.000    0.000 
#    0.000    0.000    0.000    0.000    0.000    0.000 
#
# Total GULP energy -347165.927977 kJ/mol
# GULP energy per Si atom -12398.783142 kJ/mol
# Density = 2.121832 g / cm^3
# Si number density = 21.266729 Si / 1000 Ang^3
#
#
#
# Elastic Constant Matrix: (Units=GPa)
#
#
# Indices 1 2 3 4 5 6 
#
# 1 59.8829 14.1028 27.5677 0.0000 -4.8159 0.0000
# 2 14.1028 93.7317 24.3840 0.0000 -4.0961 0.0000
# 3 27.5677 24.3840 83.4508 0.0000 0.7162 0.0000
# 4 0.0000 0.0000 0.0000 10.4792 0.0000 5.1119
# 5 -4.8159 -4.0961 0.7162 0.0000 32.7905 0.0000
# 6 0.0000 0.0000 0.0000 5.1119 0.0000 21.0930
#
#
#
# Elastic Compliance Matrix: (Units=1/GPa)
#
#
# Indices 1 2 3 4 5 6 
#
# 1 0.020137 -0.001260 -0.006309 0.000000 0.002938 0.000000
# 2 -0.001260 0.011701 -0.003014 0.000000 0.001342 0.000000
# 3 -0.006309 -0.003014 0.014962 0.000000 -0.001630 0.000000
# 4 0.000000 0.000000 0.000000 0.108221 0.000000 -0.026228
# 5 0.002938 0.001342 -0.001630 0.000000 0.031131 0.000000
# 6 0.000000 0.000000 0.000000 -0.026228 0.000000 0.053765
#
#
# Mechanical properties :
#
#
# Convention : Reuss Voigt Hill
#
# Bulk Modulus (GPa) = 39.01224 41.01936 40.01580
# Shear Modulus (GPa) = 18.54395 24.27324 21.40860
#
# Velocity S-wave (km/s) = 2.95612 3.38208 3.17625
# Velocity P-wave (km/s) = 5.48047 5.88058 5.68405
#
# Compressibility (1/GPa) = 0.02563298
#
# Stress axis : x y z
#
# Youngs Moduli (GPa) = 49.66043 85.46156 66.83573
#
# Poissons Ratio (x) = 0.10769 0.42168
# Poissons Ratio (y) = 0.06258 0.20146
# Poissons Ratio (z) = 0.31331 0.25761
#
# Static dielectric constant tensor:
#      x y z
#    x 3.769080 0.000000 0.149270 
#    y 0.000000 3.846740 0.000000 
#    z 0.149270 0.000000 3.803540 
# 
# 
# High freq. dielectric constant tensor:
#      x y z
#    x 1.826090 0.000000 0.009710 
#    y 0.000000 1.835420 0.000000 
#    z 0.009710 0.000000 1.829660 
# 
# From -- ./inp_files/110547.got.cif
#   From: 2010.06.25/outbox.cif.g09.slc.cpg/sg12_56_cif.got.tgz:110547.got - 2010.06.28 00:19:55.
