data_PCOD8084380
_publ_section_title
;
Structure prediction by ZEFSAII (Michael W. Deem and Ramdas Pophale) SiO2 
 PCOD8084380
Probable space group: C 2/M
;
_chemical_formula_sum "Si O2"
_cell_formula_units_Z 44
_cell_length_a 22.347856
_cell_length_b 7.498395
_cell_length_c 13.605237
_cell_angle_alpha 90.000000
_cell_angle_beta 83.603168
_cell_angle_gamma 90.000000
_cell_volume 2265.676790
_symmetry_space_group_name_H-M "C 2/M"
_symmetry_group_IT_number 12
_symmetry_cell_setting 'monoclinic'
loop_
_space_group_symop_operation_xyz
x,y,z
-x,y,-z
-x,-y,-z
x,-y,z
1/2+x,1/2+y,z
1/2-x,1/2+y,-z
1/2-x,1/2-y,-z
1/2+x,1/2-y,z
loop_
_atom_site_type_symbol
_atom_site_label
_atom_site_fract_x
_atom_site_fract_y
_atom_site_fract_z
Si Si1 0.842759 0.793108 0.230015
Si Si2 0.549518 0.000000 0.302003
Si Si3 0.589835 0.000000 0.672272
Si Si4 0.285228 0.704022 0.666570
Si Si5 0.618657 0.705269 0.184549
Si Si6 0.145804 0.500000 0.451221
Si Si7 0.817184 0.207891 0.018500
O O1 0.895566 0.678075 0.269107
O O2 0.782054 0.769456 0.302913
O O3 0.832943 0.712241 0.122215
O O4 0.862240 0.000000 0.226133
O O5 0.479960 0.000000 0.341965
O O6 0.564542 0.175867 0.235806
O O7 0.585668 0.000000 0.396988
O O8 0.629069 0.000000 0.567218
O O9 0.286086 0.500000 0.630090
O O10 0.321833 0.729430 0.760577
O O11 0.314903 0.823423 0.576276
O O12 0.597101 0.500000 0.187617
O O13 0.636451 0.777578 0.072997
O O14 0.824917 0.000000 0.024769
O O15 0.750000 0.250000 0.000000
#
# Coordination Sequence:
#
# PCOD8084380 Si02
#       7
#     8   4   4   8   8   4   8
#     4  11  23  38  56  90 132 160 190 238 305 364
#     4  10  23  43  66  83 113 160 216 251 289 349
#     4  12  27  43  60  83 119 169 203 252 299 359
#     4  10  18  35  60  91 123 150 188 248 311 364
#     4   9  19  35  60  93 119 153 196 249 295 342
#     4  10  23  42  66  86 112 151 212 261 305 348
#     4  10  20  31  58  93 127 156 190 237 293 360
#
# _framework density 19.420245000000001
#
# number of rings (size 3 to 8) (size 9 to 14) (size 15 to 20)
#    0.000    1.818    3.636    0.273    2.545    2.182 
#    0.000    1.818    0.000    8.727    0.000    0.000 
#    0.000    0.000    0.000    0.000    0.000    0.000 
#
# Total GULP energy -272821.855596 kJ/mol
# GULP energy per Si atom -12400.993436 kJ/mol
# Density = 1.937604 g / cm^3
# Si number density = 19.420245 Si / 1000 Ang^3
#
#
#
# Elastic Constant Matrix: (Units=GPa)
#
#
# Indices 1 2 3 4 5 6 
#
# 1 37.5082 12.3240 -4.8724 0.0000 1.9297 0.0000
# 2 12.3240 102.9130 24.2167 0.0000 2.5093 0.0000
# 3 -4.8724 24.2167 84.7250 0.0000 2.0536 0.0000
# 4 0.0000 0.0000 0.0000 23.4169 0.0000 -0.0073
# 5 1.9297 2.5093 2.0536 0.0000 18.7685 0.0000
# 6 0.0000 0.0000 0.0000 -0.0073 0.0000 26.3673
#
#
#
# Elastic Compliance Matrix: (Units=1/GPa)
#
#
# Indices 1 2 3 4 5 6 
#
# 1 0.028490 -0.004017 0.002852 0.000000 -0.002704 0.000000
# 2 -0.004017 0.011005 -0.003360 0.000000 -0.000691 0.000000
# 3 0.002852 -0.003360 0.012958 0.000000 -0.001262 0.000000
# 4 0.000000 0.000000 0.000000 0.042704 0.000000 0.000012
# 5 -0.002704 -0.000691 -0.001262 0.000000 0.053789 0.000000
# 6 0.000000 0.000000 0.000000 0.000012 0.000000 0.037926
#
#
# Mechanical properties :
#
#
# Convention : Reuss Voigt Hill
#
# Bulk Modulus (GPa) = 23.03928 32.05365 27.54647
# Shear Modulus (GPa) = 23.76535 26.60907 25.18721
#
# Velocity S-wave (km/s) = 3.50200 3.70560 3.60524
# Velocity P-wave (km/s) = 5.31425 5.90337 5.61654
#
# Compressibility (1/GPa) = 0.04340413
#
# Stress axis : x y z
#
# Youngs Moduli (GPa) = 35.09962 90.86402 77.17329
#
# Poissons Ratio (x) = 0.36500 -0.22011
# Poissons Ratio (y) = 0.14099 0.25930
# Poissons Ratio (z) = -0.10011 0.30530
#
# Static dielectric constant tensor:
#      x y z
#    x 3.185350 0.000000 0.048170 
#    y 0.000000 3.728260 0.000000 
#    z 0.048170 0.000000 3.760960 
# 
# 
# High freq. dielectric constant tensor:
#      x y z
#    x 1.723930 0.000000 -0.001300 
#    y 0.000000 1.767060 0.000000 
#    z -0.001300 0.000000 1.762000 
# 
# From -- ./inp_files/163165.got.cif
#   From: 2010.06.25/outbox.cif.g09.slc.cpg/sg12_82_cif.got.tgz:163165.got - 2010.06.28 00:19:55.
