data_PCOD8084126
_publ_section_title
;
Structure prediction by ZEFSAII (Michael W. Deem and Ramdas Pophale) SiO2 
 PCOD8084126
Probable space group: C 2/M
;
_chemical_formula_sum "Si O2"
_cell_formula_units_Z 36
_cell_length_a 9.773970
_cell_length_b 17.697399
_cell_length_c 10.502411
_cell_angle_alpha 90.000000
_cell_angle_beta 97.266599
_cell_angle_gamma 90.000000
_cell_volume 1802.051791
_symmetry_space_group_name_H-M "C 2/M"
_symmetry_group_IT_number 12
_symmetry_cell_setting 'monoclinic'
loop_
_space_group_symop_operation_xyz
x,y,z
-x,y,-z
-x,-y,-z
x,-y,z
1/2+x,1/2+y,z
1/2-x,1/2+y,-z
1/2-x,1/2-y,-z
1/2+x,1/2-y,z
loop_
_atom_site_type_symbol
_atom_site_label
_atom_site_fract_x
_atom_site_fract_y
_atom_site_fract_z
Si Si1 0.000000 0.817496 0.000000
Si Si2 0.892497 0.709691 0.177044
Si Si3 0.308635 0.586078 0.809779
Si Si4 0.642300 0.637442 0.460319
Si Si5 0.821640 0.711874 0.665186
O O1 0.886314 0.762672 0.050970
O O2 0.059670 0.869558 0.119331
O O3 0.825168 0.627388 0.147200
O O4 0.807697 0.752652 0.275748
O O5 0.051711 0.690873 0.228780
O O6 0.308501 0.500000 0.856625
O O7 0.312591 0.588564 0.656617
O O8 0.500000 0.603478 0.500000
O O9 0.765444 0.638180 0.581101
O O10 0.617949 0.725109 0.422973
#
# Coordination Sequence:
#
# PCOD8084126 Si02
#       5
#     4   8   8   8   8
#     4  12  21  42  67  86 114 168 216 244 283 368
#     4  11  21  39  64  92 118 155 214 250 295 351
#     4  11  25  39  58  90 130 160 194 252 312 354
#     4  10  18  34  58  88 121 156 200 244 300 357
#     4  10  19  33  60  92 119 148 200 262 290 345
#
# _framework density 19.977228
#
# number of rings (size 3 to 8) (size 9 to 14) (size 15 to 20)
#    0.000    1.333    6.667    1.000    0.000    0.444 
#    0.000    2.778    0.000    0.000    0.000    0.000 
#    0.000    0.000    0.000    0.000    0.000    0.000 
#
# Total GULP energy -223102.103397 kJ/mol
# GULP energy per Si atom -12394.561300 kJ/mol
# Density = 1.993176 g / cm^3
# Si number density = 19.977228 Si / 1000 Ang^3
#
#
#
# Elastic Constant Matrix: (Units=GPa)
#
#
# Indices 1 2 3 4 5 6 
#
# 1 97.5580 42.7673 27.2820 0.0000 4.0479 0.0000
# 2 42.7673 112.5471 38.3442 0.0000 -6.7867 0.0000
# 3 27.2820 38.3442 66.4413 0.0000 -10.8268 0.0000
# 4 0.0000 0.0000 0.0000 17.9950 0.0000 0.2328
# 5 4.0479 -6.7867 -10.8268 0.0000 29.2872 0.0000
# 6 0.0000 0.0000 0.0000 0.2328 0.0000 13.2171
#
#
#
# Elastic Compliance Matrix: (Units=1/GPa)
#
#
# Indices 1 2 3 4 5 6 
#
# 1 0.013235 -0.003980 -0.003816 0.000000 -0.004162 0.000000
# 2 -0.003980 0.012258 -0.005201 0.000000 0.001468 0.000000
# 3 -0.003816 -0.005201 0.020759 0.000000 0.006996 0.000000
# 4 0.000000 0.000000 0.000000 0.055584 0.000000 -0.000979
# 5 -0.004162 0.001468 0.006996 0.000000 0.037647 0.000000
# 6 0.000000 0.000000 0.000000 -0.000979 0.000000 0.075677
#
#
# Mechanical properties :
#
#
# Convention : Reuss Voigt Hill
#
# Bulk Modulus (GPa) = 49.36103 54.81480 52.08792
# Shear Modulus (GPa) = 20.16900 23.31005 21.73952
#
# Velocity S-wave (km/s) = 3.18087 3.41960 3.30239
# Velocity P-wave (km/s) = 6.18489 6.56428 6.37740
#
# Compressibility (1/GPa) = 0.02025890
#
# Stress axis : x y z
#
# Youngs Moduli (GPa) = 75.55788 81.57943 48.17146
#
# Poissons Ratio (x) = 0.32470 0.18381
# Poissons Ratio (y) = 0.30073 0.25053
# Poissons Ratio (z) = 0.28831 0.42427
#
# Static dielectric constant tensor:
#      x y z
#    x 3.677810 0.000000 0.121320 
#    y 0.000000 3.277820 0.000000 
#    z 0.121320 0.000000 3.779480 
# 
# 
# High freq. dielectric constant tensor:
#      x y z
#    x 1.782270 0.000000 0.003610 
#    y 0.000000 1.729610 0.000000 
#    z 0.003610 0.000000 1.788820 
# 
# From -- ./inp_files/118608.got.cif
#   From: 2010.06.25/outbox.cif.g09.slc.cpg/sg12_60_cif.got.tgz:118608.got - 2010.06.28 00:19:55.
