data_PCOD8084209
_publ_section_title
;
Structure prediction by ZEFSAII (Michael W. Deem and Ramdas Pophale) SiO2 
 PCOD8084209
Probable space group: C 2/M
;
_chemical_formula_sum "Si O2"
_cell_formula_units_Z 64
_cell_length_a 30.173425
_cell_length_b 13.747084
_cell_length_c 9.528271
_cell_angle_alpha 90.000000
_cell_angle_beta 132.672679
_cell_angle_gamma 90.000000
_cell_volume 2905.876647
_symmetry_space_group_name_H-M "C 2/M"
_symmetry_group_IT_number 12
_symmetry_cell_setting 'monoclinic'
loop_
_space_group_symop_operation_xyz
x,y,z
-x,y,-z
-x,-y,-z
x,-y,z
1/2+x,1/2+y,z
1/2-x,1/2+y,-z
1/2-x,1/2-y,-z
1/2+x,1/2-y,z
loop_
_atom_site_type_symbol
_atom_site_label
_atom_site_fract_x
_atom_site_fract_y
_atom_site_fract_z
Si Si1 0.878091 0.887670 0.259600
Si Si2 0.130458 0.606649 0.653197
Si Si3 0.073989 0.214752 0.384249
Si Si4 0.561611 0.295231 0.870141
Si Si5 0.952550 0.395429 0.285262
Si Si6 0.844962 0.785264 0.708039
Si Si7 0.732674 0.115691 0.335136
Si Si8 0.252454 0.884839 0.955307
O O1 0.896913 0.870461 0.460757
O O2 0.923833 0.830277 0.256497
O O3 0.809497 0.847695 0.105861
O O4 0.882772 0.000000 0.230316
O O5 0.131770 0.500000 0.579690
O O6 0.084216 0.679589 0.478408
O O7 0.110296 0.589924 0.770105
O O8 0.197550 0.650666 0.823215
O O9 0.105545 0.228662 0.304663
O O10 0.005032 0.177651 0.219126
O O11 0.558769 0.177586 0.866436
O O12 0.616134 0.333852 0.082983
O O13 0.975626 0.500000 0.275869
O O14 0.000000 0.352892 0.500000
O O15 0.794559 0.861344 0.550856
O O16 0.818637 0.680261 0.698448
O O17 0.738705 0.151766 0.186449
O O18 0.718401 0.000000 0.318274
O O19 0.251136 0.000000 0.943582
#
# Coordination Sequence:
#
# PCOD8084209 Si02
#       8
#     8   8   8   8   8   8   8   8
#     4  11  24  43  67  94 125 166 221 278 328 375
#     4  10  20  35  61  96 128 161 207 266 330 388
#     4  12  24  42  63  93 133 174 213 269 320 385
#     4  12  24  42  63  95 132 171 219 269 319 382
#     4  10  18  34  60  90 125 168 213 262 323 383
#     4  11  26  42  66  97 129 179 217 259 323 390
#     4  10  22  45  68  92 132 175 216 266 324 387
#     4   9  19  38  67  96 124 162 210 271 331 381
#
# _framework density 22.024334
#
# number of rings (size 3 to 8) (size 9 to 14) (size 15 to 20)
#    0.000    1.375    3.750    1.500    0.000    6.000 
#    0.000    1.250    0.000    4.500    0.000    0.000 
#    0.000    0.000    0.000    0.000    0.000    0.000 
#
# Total GULP energy -396463.531465 kJ/mol
# GULP energy per Si atom -12389.485358 kJ/mol
# Density = 2.197421 g / cm^3
# Si number density = 22.024334 Si / 1000 Ang^3
#
#
#
# Elastic Constant Matrix: (Units=GPa)
#
#
# Indices 1 2 3 4 5 6 
#
# 1 136.6910 19.5775 18.5239 0.0000 10.3304 0.0000
# 2 19.5775 63.0436 6.5265 0.0000 -4.6257 0.0000
# 3 18.5239 6.5265 82.8183 0.0000 18.7818 0.0000
# 4 0.0000 0.0000 0.0000 19.8074 0.0000 1.8373
# 5 10.3304 -4.6257 18.7818 0.0000 38.5269 0.0000
# 6 0.0000 0.0000 0.0000 1.8373 0.0000 21.7671
#
#
#
# Elastic Compliance Matrix: (Units=1/GPa)
#
#
# Indices 1 2 3 4 5 6 
#
# 1 0.007972 -0.002492 -0.001163 0.000000 -0.001870 0.000000
# 2 -0.002492 0.017055 -0.001577 0.000000 0.003485 0.000000
# 3 -0.001163 -0.001577 0.013976 0.000000 -0.006691 0.000000
# 4 0.000000 0.000000 0.000000 0.050885 0.000000 -0.004295
# 5 -0.001870 0.003485 -0.006691 0.000000 0.030138 0.000000
# 6 0.000000 0.000000 0.000000 -0.004295 0.000000 0.046303
#
#
# Mechanical properties :
#
#
# Convention : Reuss Voigt Hill
#
# Bulk Modulus (GPa) = 35.03917 41.31210 38.17564
# Shear Modulus (GPa) = 26.83772 31.88194 29.35983
#
# Velocity S-wave (km/s) = 3.49456 3.80883 3.65507
# Velocity P-wave (km/s) = 5.67683 6.17585 5.93159
#
# Compressibility (1/GPa) = 0.02853949
#
# Stress axis : x y z
#
# Youngs Moduli (GPa) = 125.44535 58.63412 71.54952
#
# Poissons Ratio (x) = 0.14614 0.08318
# Poissons Ratio (y) = 0.31265 0.11282
# Poissons Ratio (z) = 0.14583 0.09246
#
# Static dielectric constant tensor:
#      x y z
#    x 4.112980 0.000000 0.246160 
#    y 0.000000 3.875880 0.000000 
#    z 0.246160 0.000000 4.087650 
# 
# 
# High freq. dielectric constant tensor:
#      x y z
#    x 1.868500 0.000000 0.026820 
#    y 0.000000 1.859510 0.000000 
#    z 0.026820 0.000000 1.856760 
# 
# From -- ./inp_files/112002.got.cif
#   From: 2010.06.25/outbox.cif.g09.slc.cpg/sg12_57_cif.got.tgz:112002.got - 2010.06.28 00:19:55.
