data_PCOD8084869
_publ_section_title
;
Structure prediction by ZEFSAII (Michael W. Deem and Ramdas Pophale) SiO2 
 PCOD8084869
Probable space group: C 2/M
;
_chemical_formula_sum "Si O2"
_cell_formula_units_Z 64
_cell_length_a 21.197460
_cell_length_b 13.487771
_cell_length_c 13.896330
_cell_angle_alpha 90.000000
_cell_angle_beta 104.275444
_cell_angle_gamma 90.000000
_cell_volume 3850.369039
_symmetry_space_group_name_H-M "C 2/M"
_symmetry_group_IT_number 12
_symmetry_cell_setting 'monoclinic'
loop_
_space_group_symop_operation_xyz
x,y,z
-x,y,-z
-x,-y,-z
x,-y,z
1/2+x,1/2+y,z
1/2-x,1/2+y,-z
1/2-x,1/2-y,-z
1/2+x,1/2-y,z
loop_
_atom_site_type_symbol
_atom_site_label
_atom_site_fract_x
_atom_site_fract_y
_atom_site_fract_z
Si Si1 0.412914 0.881996 0.665977
Si Si2 0.225867 0.615009 0.915190
Si Si3 0.345301 0.118342 0.449526
Si Si4 0.963466 0.606878 0.387341
Si Si5 0.730603 0.385346 0.279681
Si Si6 0.893597 0.231457 0.814648
Si Si7 0.982264 0.111698 0.104508
Si Si8 0.145374 0.778623 0.983148
O O1 0.360728 0.847315 0.564366
O O2 0.485164 0.839907 0.664841
O O3 0.395158 0.837062 0.762192
O O4 0.412951 0.000000 0.675378
O O5 0.212572 0.500000 0.933154
O O6 0.229509 0.636067 0.802956
O O7 0.166269 0.679056 0.935175
O O8 0.294301 0.645368 0.989780
O O9 0.396971 0.165000 0.390686
O O10 0.273595 0.150427 0.387495
O O11 0.353390 0.000000 0.446373
O O12 0.945720 0.500000 0.333863
O O13 0.000000 0.586783 0.500000
O O14 0.713130 0.500000 0.280065
O O15 0.662843 0.329837 0.257813
O O16 0.960536 0.172298 0.821747
O O17 0.878896 0.252530 0.920260
O O18 0.913512 0.167432 0.094890
O O19 0.977457 0.000000 0.145183
O O20 0.000000 0.104790 0.000000
#
# Coordination Sequence:
#
# PCOD8084869 Si02
#       8
#     8   8   8   8   8   8   8   8
#     4   9  17  28  42  63  93 124 146 170 215 271
#     4   9  17  30  48  68  91 117 144 183 229 261
#     4   8  14  26  44  64  86 113 145 182 222 261
#     4   7  11  22  39  57  78 106 141 176 207 244
#     4   9  17  29  45  65  87 111 147 195 232 253
#     4  10  19  29  43  65  91 118 149 182 216 261
#     4   9  17  31  49  64  83 114 148 183 220 255
#     4   9  18  31  46  67  91 116 150 182 215 268
#
# _framework density 16.621782
#
# number of rings (size 3 to 8) (size 9 to 14) (size 15 to 20)
#    0.000    3.250    0.000    2.250    0.000    5.000 
#    0.000    1.875    0.000    2.250    0.000    0.000 
#    0.000   27.000    0.000    0.000    0.000    0.000 
#
# Total GULP energy -396443.786087 kJ/mol
# GULP energy per Si atom -12388.868315 kJ/mol
# Density = 1.658395 g / cm^3
# Si number density = 16.621782 Si / 1000 Ang^3
#
#
#
# Elastic Constant Matrix: (Units=GPa)
#
#
# Indices 1 2 3 4 5 6 
#
# 1 93.0005 44.4415 36.0175 0.0000 11.8018 0.0000
# 2 44.4415 76.0837 35.1233 0.0000 -0.4819 0.0000
# 3 36.0175 35.1233 57.7929 0.0000 8.3045 0.0000
# 4 0.0000 0.0000 0.0000 18.4360 0.0000 2.9427
# 5 11.8018 -0.4819 8.3045 0.0000 23.3411 0.0000
# 6 0.0000 0.0000 0.0000 2.9427 0.0000 13.4468
#
#
#
# Elastic Compliance Matrix: (Units=1/GPa)
#
#
# Indices 1 2 3 4 5 6 
#
# 1 0.017364 -0.007877 -0.005005 0.000000 -0.007162 0.000000
# 2 -0.007877 0.022315 -0.009792 0.000000 0.007928 0.000000
# 3 -0.005005 -0.009792 0.027442 0.000000 -0.007435 0.000000
# 4 0.000000 0.000000 0.000000 0.056205 0.000000 -0.012300
# 5 -0.007162 0.007928 -0.007435 0.000000 0.049273 0.000000
# 6 0.000000 0.000000 0.000000 -0.012300 0.000000 0.077059
#
#
# Mechanical properties :
#
#
# Convention : Reuss Voigt Hill
#
# Bulk Modulus (GPa) = 45.92949 50.89351 48.41150
# Shear Modulus (GPa) = 16.54186 18.46444 17.50315
#
# Velocity S-wave (km/s) = 3.15809 3.33657 3.24855
# Velocity P-wave (km/s) = 6.40235 6.74749 6.57719
#
# Compressibility (1/GPa) = 0.02177250
#
# Stress axis : x y z
#
# Youngs Moduli (GPa) = 57.58984 44.81247 36.44100
#
# Poissons Ratio (x) = 0.35301 0.18239
# Poissons Ratio (y) = 0.45366 0.35682
# Poissons Ratio (z) = 0.28824 0.43879
#
# Static dielectric constant tensor:
#      x y z
#    x 3.337320 0.000000 0.175410 
#    y 0.000000 2.849170 0.000000 
#    z 0.175410 0.000000 3.012630 
# 
# 
# High freq. dielectric constant tensor:
#      x y z
#    x 1.645230 0.000000 0.015490 
#    y 0.000000 1.606420 0.000000 
#    z 0.015490 0.000000 1.621940 
# 
# From -- ./inp_files/239688.got.cif
#   From: 2010.06.25/outbox.cif.g09.slc.cpg/sg12_120_cif.got.tgz:239688.got - 2010.06.28 00:19:55.
