data_PCOD8084811
_publ_section_title
;
Structure prediction by ZEFSAII (Michael W. Deem and Ramdas Pophale) SiO2 
 PCOD8084811
Probable space group: C 2/M
;
_chemical_formula_sum "Si O2"
_cell_formula_units_Z 64
_cell_length_a 17.667888
_cell_length_b 14.280251
_cell_length_c 14.535243
_cell_angle_alpha 90.000000
_cell_angle_beta 94.213258
_cell_angle_gamma 90.000000
_cell_volume 3657.358285
_symmetry_space_group_name_H-M "C 2/M"
_symmetry_group_IT_number 12
_symmetry_cell_setting 'monoclinic'
loop_
_space_group_symop_operation_xyz
x,y,z
-x,y,-z
-x,-y,-z
x,-y,z
1/2+x,1/2+y,z
1/2-x,1/2+y,-z
1/2-x,1/2-y,-z
1/2+x,1/2-y,z
loop_
_atom_site_type_symbol
_atom_site_label
_atom_site_fract_x
_atom_site_fract_y
_atom_site_fract_z
Si Si1 0.505107 0.390900 0.107452
Si Si2 0.402546 0.716530 0.733545
Si Si3 0.247472 0.262780 0.195026
Si Si4 0.141814 0.395136 0.074925
Si Si5 0.980192 0.605469 0.785232
Si Si6 0.489149 0.608840 0.600857
Si Si7 0.644782 0.893284 0.865707
Si Si8 0.381538 0.606525 0.242947
O O1 0.528837 0.500000 0.116944
O O2 0.567220 0.329908 0.168095
O O3 0.423555 0.374965 0.149017
O O4 0.500000 0.359449 0.000000
O O5 0.312490 0.730610 0.733222
O O6 0.443029 0.816605 0.716238
O O7 0.416802 0.653723 0.645252
O O8 0.205137 0.321924 0.112899
O O9 0.285235 0.170779 0.156455
O O10 0.309911 0.327101 0.249029
O O11 0.175173 0.500000 0.090961
O O12 0.062305 0.384977 0.120813
O O13 0.122810 0.373959 0.968441
O O14 0.969172 0.500000 0.744553
O O15 0.068997 0.629494 0.801666
O O16 0.500000 0.651795 0.500000
O O17 0.471120 0.500000 0.592095
O O18 0.562844 0.630137 0.668142
O O19 0.670663 0.000000 0.852031
O O20 0.353429 0.500000 0.246155
#
# Coordination Sequence:
#
# PCOD8084811 Si02
#       8
#     8   8   8   8   8   8   8   8
#     4   9  18  32  50  71  97 133 175 216 253 287
#     4  10  20  32  50  74 100 128 158 198 243 291
#     4  11  21  30  43  68 101 131 153 189 248 300
#     4   9  18  31  45  62  87 125 174 214 236 263
#     4   9  18  32  48  64  87 126 173 211 234 260
#     4   9  18  36  62  83  95 115 153 200 245 289
#     4  10  19  29  42  62  91 130 171 205 235 271
#     4   9  18  33  52  73  98 127 163 204 241 287
#
# _framework density 17.498968999999999
#
# number of rings (size 3 to 8) (size 9 to 14) (size 15 to 20)
#    0.000    2.500    0.000    3.750    0.000    8.000 
#    0.000    3.125    0.000    0.375    0.000    0.000 
#    0.000    0.000    0.000    0.000    0.000    0.000 
#
# Total GULP energy -396740.234999 kJ/mol
# GULP energy per Si atom -12398.132344 kJ/mol
# Density = 1.745914 g / cm^3
# Si number density = 17.498969 Si / 1000 Ang^3
#
#
#
# Elastic Constant Matrix: (Units=GPa)
#
#
# Indices 1 2 3 4 5 6 
#
# 1 99.9373 49.1838 29.4865 0.0000 -12.1254 0.0000
# 2 49.1838 76.5027 28.5704 0.0000 -6.6108 0.0000
# 3 29.4865 28.5704 92.7082 0.0000 -12.8535 0.0000
# 4 0.0000 0.0000 0.0000 17.0005 0.0000 -3.2137
# 5 -12.1254 -6.6108 -12.8535 0.0000 12.5278 0.0000
# 6 0.0000 0.0000 0.0000 -3.2137 0.0000 35.9188
#
#
#
# Elastic Compliance Matrix: (Units=1/GPa)
#
#
# Indices 1 2 3 4 5 6 
#
# 1 0.015904 -0.009041 -0.000932 0.000000 0.009666 0.000000
# 2 -0.009041 0.020055 -0.003557 0.000000 -0.001817 0.000000
# 3 -0.000932 -0.003557 0.013750 0.000000 0.011328 0.000000
# 4 0.000000 0.000000 0.000000 0.059834 0.000000 0.005353
# 5 0.009666 -0.001817 0.011328 0.000000 0.099842 0.000000
# 6 0.000000 0.000000 0.000000 0.005353 0.000000 0.028320
#
#
# Mechanical properties :
#
#
# Convention : Reuss Voigt Hill
#
# Bulk Modulus (GPa) = 44.15261 53.73660 48.94461
# Shear Modulus (GPa) = 18.36121 23.88327 21.12224
#
# Velocity S-wave (km/s) = 3.24276 3.69838 3.47804
# Velocity P-wave (km/s) = 6.26953 7.00089 6.64528
#
# Compressibility (1/GPa) = 0.02264872
#
# Stress axis : x y z
#
# Youngs Moduli (GPa) = 62.87911 49.86207 72.72892
#
# Poissons Ratio (x) = 0.45081 0.06777
# Poissons Ratio (y) = 0.56850 0.25869
# Poissons Ratio (z) = 0.05859 0.17735
#
# Static dielectric constant tensor:
#      x y z
#    x 3.182680 0.000000 -0.093020 
#    y 0.000000 3.568020 0.000000 
#    z -0.093020 0.000000 3.006570 
# 
# 
# High freq. dielectric constant tensor:
#      x y z
#    x 1.670530 0.000000 -0.006830 
#    y 0.000000 1.695840 0.000000 
#    z -0.006830 0.000000 1.629430 
# 
# From -- ./inp_files/224783.got.cif
#   From: 2010.06.25/outbox.cif.g09.slc.cpg/sg12_113_cif.got.tgz:224783.got - 2010.06.28 00:19:55.
