data_PCOD8084310
_publ_section_title
;
Structure prediction by ZEFSAII (Michael W. Deem and Ramdas Pophale) SiO2 
 PCOD8084310
Probable space group: C 2/M
;
_chemical_formula_sum "Si O2"
_cell_formula_units_Z 36
_cell_length_a 22.391636
_cell_length_b 11.666578
_cell_length_c 9.107378
_cell_angle_alpha 90.000000
_cell_angle_beta 58.116253
_cell_angle_gamma 90.000000
_cell_volume 2020.191513
_symmetry_space_group_name_H-M "C 2/M"
_symmetry_group_IT_number 12
_symmetry_cell_setting 'monoclinic'
loop_
_space_group_symop_operation_xyz
x,y,z
-x,y,-z
-x,-y,-z
x,-y,z
1/2+x,1/2+y,z
1/2-x,1/2+y,-z
1/2-x,1/2-y,-z
1/2+x,1/2-y,z
loop_
_atom_site_type_symbol
_atom_site_label
_atom_site_fract_x
_atom_site_fract_y
_atom_site_fract_z
Si Si1 0.368697 0.500000 0.918805
Si Si2 0.374811 0.127053 0.519573
Si Si3 0.408757 0.500000 0.186272
Si Si4 0.531949 0.256943 0.807528
Si Si5 0.758717 0.000000 0.292586
Si Si6 0.064573 0.797107 0.324055
O O1 0.379798 0.391132 0.800319
O O2 0.422401 0.500000 0.990577
O O3 0.289376 0.500000 0.085641
O O4 0.401379 0.182463 0.332368
O O5 0.289622 0.113542 0.621937
O O6 0.394951 0.203232 0.633126
O O7 0.408636 0.000000 0.495173
O O8 0.443616 0.388865 0.212737
O O9 0.323940 0.500000 0.323001
O O10 0.469254 0.237878 0.773829
O O11 0.500000 0.209500 0.000000
O O12 0.000000 0.853283 0.500000
#
# Coordination Sequence:
#
# PCOD8084310 Si02
#       6
#     4   8   4   8   4   8
#     4  10  18  35  57  85 109 142 176 231 283 326
#     4   9  22  40  52  81 114 153 187 220 263 329
#     4  10  20  35  58  86 114 133 179 240 280 325
#     4  11  19  34  61  85 110 145 176 236 289 319
#     4   8  20  41  53  77 115 157 177 225 265 325
#     4  10  20  33  59  86 113 138 180 234 287 320
#
# _framework density 17.820091999999999
#
# number of rings (size 3 to 8) (size 9 to 14) (size 15 to 20)
#    1.333    0.889    2.222    1.333    0.000    8.889 
#    0.000    0.000    0.000    5.333    0.000    0.000 
#    0.000    0.000    0.000    0.000    0.000    0.000 
#
# Total GULP energy -223006.988411 kJ/mol
# GULP energy per Si atom -12389.277134 kJ/mol
# Density = 1.777953 g / cm^3
# Si number density = 17.820092 Si / 1000 Ang^3
#
#
#
# Elastic Constant Matrix: (Units=GPa)
#
#
# Indices 1 2 3 4 5 6 
#
# 1 70.1026 11.2753 30.1577 0.0000 -13.7137 0.0000
# 2 11.2753 85.2441 36.9057 0.0000 -10.8309 0.0000
# 3 30.1577 36.9057 127.4523 0.0000 -14.6313 0.0000
# 4 0.0000 0.0000 0.0000 19.9945 0.0000 0.0072
# 5 -13.7137 -10.8309 -14.6313 0.0000 35.7692 0.0000
# 6 0.0000 0.0000 0.0000 0.0072 0.0000 23.2504
#
#
#
# Elastic Compliance Matrix: (Units=1/GPa)
#
#
# Indices 1 2 3 4 5 6 
#
# 1 0.016700 -0.000128 -0.003341 0.000000 0.004998 0.000000
# 2 -0.000128 0.013647 -0.003623 0.000000 0.002601 0.000000
# 3 -0.003341 -0.003623 0.009876 0.000000 0.001662 0.000000
# 4 0.000000 0.000000 0.000000 0.050014 0.000000 -0.000015
# 5 0.004998 0.002601 0.001662 0.000000 0.031341 0.000000
# 6 0.000000 0.000000 0.000000 -0.000015 0.000000 0.043010
#
#
# Mechanical properties :
#
#
# Convention : Reuss Voigt Hill
#
# Bulk Modulus (GPa) = 38.40113 48.83071 43.61592
# Shear Modulus (GPa) = 26.67363 29.43350 28.05356
#
# Velocity S-wave (km/s) = 3.87308 4.06852 3.97201
# Velocity P-wave (km/s) = 6.44959 7.03790 6.75016
#
# Compressibility (1/GPa) = 0.02604090
#
# Stress axis : x y z
#
# Youngs Moduli (GPa) = 59.87942 73.27673 101.25088
#
# Poissons Ratio (x) = 0.00935 0.33828
# Poissons Ratio (y) = 0.00764 0.36682
# Poissons Ratio (z) = 0.20005 0.26547
#
# Static dielectric constant tensor:
#      x y z
#    x 3.094530 0.000000 -0.048690 
#    y 0.000000 3.111150 0.000000 
#    z -0.048690 0.000000 3.511200 
# 
# 
# High freq. dielectric constant tensor:
#      x y z
#    x 1.672230 0.000000 -0.005200 
#    y 0.000000 1.675170 0.000000 
#    z -0.005200 0.000000 1.697510 
# 
# From -- ./inp_files/101600.got.cif
#   From: 2010.06.25/outbox.cif.g09.slc.cpg/sg12_51_cif.got.tgz:101600.got - 2010.06.28 00:19:55.
