data_PCOD8084193
_publ_section_title
;
Structure prediction by ZEFSAII (Michael W. Deem and Ramdas Pophale) SiO2 
 PCOD8084193
Probable space group: C 2/M
;
_chemical_formula_sum "Si O2"
_cell_formula_units_Z 64
_cell_length_a 25.478110
_cell_length_b 14.270361
_cell_length_c 19.584928
_cell_angle_alpha 90.000000
_cell_angle_beta 27.590128
_cell_angle_gamma 90.000000
_cell_volume 3297.915829
_symmetry_space_group_name_H-M "C 2/M"
_symmetry_group_IT_number 12
_symmetry_cell_setting 'monoclinic'
loop_
_space_group_symop_operation_xyz
x,y,z
-x,y,-z
-x,-y,-z
x,-y,z
1/2+x,1/2+y,z
1/2-x,1/2+y,-z
1/2-x,1/2-y,-z
1/2+x,1/2-y,z
loop_
_atom_site_type_symbol
_atom_site_label
_atom_site_fract_x
_atom_site_fract_y
_atom_site_fract_z
Si Si1 0.636882 0.897561 0.437871
Si Si2 0.026693 0.108033 0.127103
Si Si3 0.009415 0.104802 0.303159
Si Si4 0.781486 0.782364 0.171430
Si Si5 0.766531 0.860949 0.414263
Si Si6 0.758343 0.856785 0.574959
Si Si7 0.553121 0.252098 0.368037
Si Si8 0.628571 0.894030 0.855579
O O1 0.741368 0.848212 0.279158
O O2 0.683313 0.916574 0.460288
O O3 0.522872 0.835954 0.567819
O O4 0.608916 0.000000 0.438376
O O5 0.036454 0.139531 0.195064
O O6 0.899003 0.120427 0.247084
O O7 0.064012 0.000000 0.075338
O O8 0.105947 0.175541 0.991633
O O9 0.875552 0.104759 0.469497
O O10 0.064634 0.171244 0.295833
O O11 0.056781 0.000000 0.259738
O O12 0.681403 0.781439 0.231228
O O13 0.802526 0.677591 0.175906
O O14 0.735291 0.897346 0.526065
O O15 0.735847 0.753906 0.437415
O O16 0.664788 0.891886 0.734920
O O17 0.500000 0.293451 0.500000
O O18 0.642221 0.000000 0.868925
O O19 0.500000 0.861109 0.000000
#
# Coordination Sequence:
#
# PCOD8084193 Si02
#       8
#     8   8   8   8   8   8   8   8
#     4  11  22  37  58  87 118 150 195 238 280 337
#     4  10  22  37  58  88 116 149 189 232 289 341
#     4  10  20  37  61  87 113 145 190 238 283 338
#     4  11  23  39  60  81 116 157 191 234 286 335
#     4  10  19  34  59  88 117 146 185 239 285 338
#     4  10  18  34  60  84 116 151 183 229 294 344
#     4  10  22  39  57  84 114 150 194 234 284 333
#     4  11  23  39  59  85 117 152 191 234 290 350
#
# _framework density 19.406195
#
# number of rings (size 3 to 8) (size 9 to 14) (size 15 to 20)
#    0.000    1.625    2.500    2.625    0.000    5.500 
#    0.000    1.250    0.000    0.000    0.000    0.000 
#    0.000    0.000    0.000    0.000    0.000    0.000 
#
# Total GULP energy -396745.438116 kJ/mol
# GULP energy per Si atom -12398.294941 kJ/mol
# Density = 1.936203 g / cm^3
# Si number density = 19.406195 Si / 1000 Ang^3
#
#
#
# Elastic Constant Matrix: (Units=GPa)
#
#
# Indices 1 2 3 4 5 6 
#
# 1 116.8337 41.4087 44.2521 0.0000 -6.0819 0.0000
# 2 41.4087 116.2831 32.2661 0.0000 -0.7519 0.0000
# 3 44.2521 32.2661 109.9162 0.0000 -1.7489 0.0000
# 4 0.0000 0.0000 0.0000 -2.9893 -0.0001 -9.4474
# 5 -6.0819 -0.7519 -1.7489 -0.0001 20.2237 0.0000
# 6 0.0000 0.0000 0.0000 -9.4474 0.0000 -13.2675
#
#
#
# Elastic Compliance Matrix: (Units=1/GPa)
#
#
# Indices 1 2 3 4 5 6 
#
# 1 0.011104 -0.002948 -0.003559 0.000000 0.002922 0.000000
# 2 -0.002948 0.010145 -0.001802 0.000000 -0.000665 0.000000
# 3 -0.003559 -0.001802 0.011057 0.000000 -0.000181 0.000000
# 4 0.000000 0.000000 0.000000 0.267530 0.000001 -0.190500
# 5 0.002922 -0.000665 -0.000181 0.000001 0.050285 -0.000001
# 6 0.000000 0.000000 0.000000 -0.190500 -0.000001 0.060277
#
#
# Mechanical properties :
#
#
# Convention : Reuss Voigt Hill
#
# Bulk Modulus (GPa) = 63.73893 64.32075 64.02984
# Shear Modulus (GPa) = 11.56753 15.80045 13.68399
#
# Velocity S-wave (km/s) = 2.44411 2.85651 2.65832
# Velocity P-wave (km/s) = 6.39381 6.64048 6.51831
#
# Compressibility (1/GPa) = 0.01568900
#
# Stress axis : x y z
#
# Youngs Moduli (GPa) = 90.05845 98.56964 90.44376
#
# Poissons Ratio (x) = 0.29056 0.32185
# Poissons Ratio (y) = 0.26547 0.16297
# Poissons Ratio (z) = 0.32048 0.17761
#
# Static dielectric constant tensor:
#      x y z
#    x 3.632790 0.000000 0.135130 
#    y 0.000000 3.672680 0.000000 
#    z 0.135130 0.000000 3.457160 
# 
# 
# High freq. dielectric constant tensor:
#      x y z
#    x 1.755120 0.000000 0.005090 
#    y 0.000000 1.764980 0.000000 
#    z 0.005090 0.000000 1.743830 
# 
# From -- ./inp_files/290084.got.cif
#   From: 2010.06.25/outbox.cif.g09.slc.cpg/sg12_146_cif.got.tgz:290084.got - 2010.06.28 00:19:55.
