data_PCOD8084100
_publ_section_title
;
Structure prediction by ZEFSAII (Michael W. Deem and Ramdas Pophale) SiO2 
 PCOD8084100
Probable space group: C 2/M
;
_chemical_formula_sum "Si O2"
_cell_formula_units_Z 48
_cell_length_a 12.691424
_cell_length_b 29.669566
_cell_length_c 10.267970
_cell_angle_alpha 90.000000
_cell_angle_beta 139.748966
_cell_angle_gamma 90.000000
_cell_volume 2498.223305
_symmetry_space_group_name_H-M "C 2/M"
_symmetry_group_IT_number 12
_symmetry_cell_setting 'monoclinic'
loop_
_space_group_symop_operation_xyz
x,y,z
-x,y,-z
-x,-y,-z
x,-y,z
1/2+x,1/2+y,z
1/2-x,1/2+y,-z
1/2-x,1/2-y,-z
1/2+x,1/2-y,z
loop_
_atom_site_type_symbol
_atom_site_label
_atom_site_fract_x
_atom_site_fract_y
_atom_site_fract_z
Si Si1 0.805277 0.816660 0.101568
Si Si2 0.606125 0.667816 0.217160
Si Si3 0.389455 0.000000 0.520062
Si Si4 0.111593 0.597616 0.979486
Si Si5 0.826970 0.271304 0.272129
Si Si6 0.609699 0.000000 0.978286
Si Si7 0.885016 0.597326 0.515906
O O1 0.799300 0.781061 0.213721
O O2 0.992394 0.819978 0.231585
O O3 0.750663 0.864642 0.106476
O O4 0.686674 0.801130 0.872310
O O5 0.687262 0.714125 0.242084
O O6 0.742688 0.633265 0.390496
O O7 0.500000 0.645811 0.000000
O O8 0.500000 0.000000 0.500000
O O9 0.498154 0.000000 0.748709
O O10 0.294078 0.952133 0.426665
O O11 0.204777 0.548264 0.068700
O O12 0.996772 0.602091 0.746846
O O13 0.000000 0.604577 0.000000
O O14 0.000000 0.281020 0.500000
O O15 0.500000 0.000000 0.000000
O O16 0.000000 0.605774 0.500000
#
# Coordination Sequence:
#
# PCOD8084100 Si02
#       7
#     8   8   4   8   8   4   8
#     4  10  22  35  52  81 106 132 179 225 264 317
#     4  10  20  35  53  76 107 139 177 226 272 314
#     4   8  16  28  50  83 107 133 182 223 243 306
#     4  10  20  35  57  82 109 141 180 220 261 316
#     4  10  21  37  54  72 103 144 179 217 268 319
#     4   8  16  32  53  77 105 141 178 213 256 310
#     4  10  18  34  58  80 108 146 181 214 264 318
#
# _framework density 19.213653999999998
#
# number of rings (size 3 to 8) (size 9 to 14) (size 15 to 20)
#    0.000    2.333    0.000    3.500    0.000    5.333 
#    0.000    1.250    0.000    0.000    0.000    7.583 
#    0.000    0.000    0.000    0.000    0.000    0.000 
#
# Total GULP energy -297380.742013 kJ/mol
# GULP energy per Si atom -12390.864251 kJ/mol
# Density = 1.916992 g / cm^3
# Si number density = 19.213654 Si / 1000 Ang^3
#
#
#
# Elastic Constant Matrix: (Units=GPa)
#
#
# Indices 1 2 3 4 5 6 
#
# 1 116.1528 70.6862 41.4570 0.0000 -2.4834 0.0000
# 2 70.6862 175.3716 22.9458 0.0000 18.1995 0.0000
# 3 41.4570 22.9458 50.7638 0.0000 4.5690 0.0000
# 4 0.0000 0.0000 0.0000 21.6850 0.0000 -2.3607
# 5 -2.4834 18.1995 4.5690 0.0000 28.3300 0.0000
# 6 0.0000 0.0000 0.0000 -2.3607 0.0000 22.8285
#
#
#
# Elastic Compliance Matrix: (Units=1/GPa)
#
#
# Indices 1 2 3 4 5 6 
#
# 1 0.016367 -0.005839 -0.011359 0.000000 0.007018 0.000000
# 2 -0.005839 0.008507 0.001483 0.000000 -0.006216 0.000000
# 3 -0.011359 0.001483 0.028900 0.000000 -0.006609 0.000000
# 4 0.000000 0.000000 0.000000 0.046640 0.000000 0.004823
# 5 0.007018 -0.006216 -0.006609 0.000000 0.040972 0.000000
# 6 0.000000 0.000000 0.000000 0.004823 0.000000 0.044304
#
#
# Mechanical properties :
#
#
# Convention : Reuss Voigt Hill
#
# Bulk Modulus (GPa) = 44.75491 68.05179 56.40335
# Shear Modulus (GPa) = 22.26510 28.38198 25.32354
#
# Velocity S-wave (km/s) = 3.40783 3.84758 3.63436
# Velocity P-wave (km/s) = 6.23123 7.43194 6.85792
#
# Compressibility (1/GPa) = 0.02234392
#
# Stress axis : x y z
#
# Youngs Moduli (GPa) = 61.09909 117.55422 34.60230
#
# Poissons Ratio (x) = 0.68640 0.39303
# Poissons Ratio (y) = 0.35676 -0.05131
# Poissons Ratio (z) = 0.69400 -0.17431
#
# Static dielectric constant tensor:
#      x y z
#    x 3.417150 0.000000 -0.166520 
#    y 0.000000 4.241320 0.000000 
#    z -0.166520 0.000000 3.310160 
# 
# 
# High freq. dielectric constant tensor:
#      x y z
#    x 1.740450 0.000000 -0.024830 
#    y 0.000000 1.769290 0.000000 
#    z -0.024830 0.000000 1.721830 
# 
# From -- ./inp_files/149895.got.cif
#   From: 2010.06.25/outbox.cif.g09.slc.cpg/sg12_75_cif.got.tgz:149895.got - 2010.06.28 00:19:55.
