data_PCOD8084481
_publ_section_title
;
Structure prediction by ZEFSAII (Michael W. Deem and Ramdas Pophale) SiO2 
 PCOD8084481
Probable space group: C 2/M
;
_chemical_formula_sum "Si O2"
_cell_formula_units_Z 52
_cell_length_a 24.031500
_cell_length_b 14.987111
_cell_length_c 10.916450
_cell_angle_alpha 90.000000
_cell_angle_beta 41.354766
_cell_angle_gamma 90.000000
_cell_volume 2597.749868
_symmetry_space_group_name_H-M "C 2/M"
_symmetry_group_IT_number 12
_symmetry_cell_setting 'monoclinic'
loop_
_space_group_symop_operation_xyz
x,y,z
-x,y,-z
-x,-y,-z
x,-y,z
1/2+x,1/2+y,z
1/2-x,1/2+y,-z
1/2-x,1/2-y,-z
1/2+x,1/2-y,z
loop_
_atom_site_type_symbol
_atom_site_label
_atom_site_fract_x
_atom_site_fract_y
_atom_site_fract_z
Si Si1 0.245575 0.275371 0.208379
Si Si2 0.861819 0.000000 0.727422
Si Si3 0.122542 0.604206 0.571155
Si Si4 0.213879 0.330111 0.636490
Si Si5 0.173537 0.500000 0.017758
Si Si6 0.218128 0.000000 0.383776
Si Si7 0.131267 0.815663 0.199631
Si Si8 0.961932 0.641416 0.689614
O O1 0.190820 0.345872 0.374522
O O2 0.301626 0.209156 0.201758
O O3 0.183897 0.213415 0.231537
O O4 0.309333 0.327806 0.016297
O O5 0.908493 0.912446 0.703335
O O6 0.861039 0.000000 0.579303
O O7 0.763955 0.000000 0.936777
O O8 0.139008 0.500000 0.528245
O O9 0.132173 0.633217 0.698262
O O10 0.027959 0.628578 0.689492
O O11 0.250000 0.250000 0.500000
O O12 0.282131 0.411105 0.532232
O O13 0.123481 0.588794 0.139479
O O14 0.192245 0.500000 0.840524
O O15 0.057224 0.746184 0.293472
O O16 0.000000 0.603424 0.500000
#
# Coordination Sequence:
#
# PCOD8084481 Si02
#       8
#     8   4   8   8   4   4   8   8
#     4  10  20  37  61  85 120 150 200 251 291 348
#     4  10  22  35  64  85 114 152 211 250 284 338
#     4  11  23  36  59  90 122 158 192 238 310 366
#     4  10  20  37  58  86 122 157 201 246 288 352
#     4  10  21  35  59  87 119 158 188 243 309 357
#     4  10  18  36  58  85 121 150 200 249 292 341
#     4  11  21  37  58  88 113 160 199 243 298 354
#     4  12  23  36  56  87 131 156 191 241 314 371
#
# _framework density 20.017323999999999
#
# number of rings (size 3 to 8) (size 9 to 14) (size 15 to 20)
#    0.462    0.923    4.615    3.000    1.077    0.000 
#    0.000    4.231    0.000    0.923    0.000    1.077 
#    0.000    0.000    0.000    0.000    0.000    0.000 
#
# Total GULP energy -322267.825264 kJ/mol
# GULP energy per Si atom -12394.916356 kJ/mol
# Density = 1.997176 g / cm^3
# Si number density = 20.017324 Si / 1000 Ang^3
#
#
#
# Elastic Constant Matrix: (Units=GPa)
#
#
# Indices 1 2 3 4 5 6 
#
# 1 104.6081 41.5868 17.5283 0.0000 17.6111 0.0000
# 2 41.5868 154.2471 18.2982 0.0000 15.3325 0.0000
# 3 17.5283 18.2982 41.5944 0.0000 4.3098 0.0000
# 4 0.0000 0.0000 0.0000 23.9542 0.0000 1.5333
# 5 17.6111 15.3325 4.3098 0.0000 23.2702 0.0000
# 6 0.0000 0.0000 0.0000 1.5333 0.0000 38.0696
#
#
#
# Elastic Compliance Matrix: (Units=1/GPa)
#
#
# Indices 1 2 3 4 5 6 
#
# 1 0.012207 -0.002169 -0.003447 0.000000 -0.007170 0.000000
# 2 -0.002169 0.007617 -0.002128 0.000000 -0.002983 0.000000
# 3 -0.003447 -0.002128 0.026524 0.000000 -0.000902 0.000000
# 4 0.000000 0.000000 0.000000 0.041854 0.000000 -0.001686
# 5 -0.007170 -0.002983 -0.000902 0.000000 0.050532 0.000000
# 6 0.000000 0.000000 0.000000 -0.001686 0.000000 0.026336
#
#
# Mechanical properties :
#
#
# Convention : Reuss Voigt Hill
#
# Bulk Modulus (GPa) = 32.40461 50.58625 41.49543
# Shear Modulus (GPa) = 26.19952 31.92789 29.06371
#
# Velocity S-wave (km/s) = 3.62172 3.99809 3.81455
# Velocity P-wave (km/s) = 5.80625 6.82928 6.33844
#
# Compressibility (1/GPa) = 0.03085981
#
# Stress axis : x y z
#
# Youngs Moduli (GPa) = 81.92277 131.28710 37.70234
#
# Poissons Ratio (x) = 0.28482 0.12995
# Poissons Ratio (y) = 0.17773 0.08021
# Poissons Ratio (z) = 0.28236 0.27932
#
# Static dielectric constant tensor:
#      x y z
#    x 3.979380 0.000000 0.392570 
#    y 0.000000 4.187100 0.000000 
#    z 0.392570 0.000000 3.378560 
# 
# 
# High freq. dielectric constant tensor:
#      x y z
#    x 1.775390 0.000000 0.023300 
#    y 0.000000 1.802450 0.000000 
#    z 0.023300 0.000000 1.744040 
# 
# From -- ./inp_files/176054.got.cif
#   From: 2010.06.25/outbox.cif.g09.slc.cpg/sg12_89_cif.got.tgz:176054.got - 2010.06.28 00:19:55.
