data_PCOD8084069
_publ_section_title
;
Structure prediction by ZEFSAII (Michael W. Deem and Ramdas Pophale) SiO2 
 PCOD8084069
Probable space group: C 2/M
;
_chemical_formula_sum "Si O2"
_cell_formula_units_Z 56
_cell_length_a 19.676971
_cell_length_b 8.553713
_cell_length_c 29.317369
_cell_angle_alpha 90.000000
_cell_angle_beta 146.384768
_cell_angle_gamma 90.000000
_cell_volume 2731.770193
_symmetry_space_group_name_H-M "C 2/M"
_symmetry_group_IT_number 12
_symmetry_cell_setting 'monoclinic'
loop_
_space_group_symop_operation_xyz
x,y,z
-x,y,-z
-x,-y,-z
x,-y,z
1/2+x,1/2+y,z
1/2-x,1/2+y,-z
1/2-x,1/2-y,-z
1/2+x,1/2-y,z
loop_
_atom_site_type_symbol
_atom_site_label
_atom_site_fract_x
_atom_site_fract_y
_atom_site_fract_z
Si Si1 0.488748 0.186230 0.634211
Si Si2 0.657151 0.818257 0.360761
Si Si3 0.916948 0.684297 0.494919
Si Si4 0.747304 0.185249 0.813677
Si Si5 0.980397 0.180385 0.190526
Si Si6 0.975378 0.817719 0.886449
Si Si7 0.228071 0.185205 0.068126
O O1 0.383233 0.238747 0.611161
O O2 0.459530 0.254321 0.567598
O O3 0.619335 0.255585 0.723490
O O4 0.494107 0.000000 0.636388
O O5 0.774566 0.724611 0.408036
O O6 0.543558 0.788454 0.263590
O O7 0.689580 0.000000 0.379003
O O8 0.933120 0.500000 0.504416
O O9 0.000000 0.754335 0.500000
O O10 0.859138 0.258450 0.847078
O O11 0.768273 0.234480 0.877188
O O12 0.744003 0.000000 0.806319
O O13 0.044780 0.212499 0.178192
O O14 0.838958 0.227172 0.105104
O O15 0.992913 0.000000 0.211877
O O16 0.980480 0.000000 0.900983
O O17 0.102951 0.746916 0.976455
O O18 0.242354 0.000000 0.069299
#
# Coordination Sequence:
#
# PCOD8084069 Si02
#       7
#     8   8   8   8   8   8   8
#     4   9  18  34  57  84 111 144 184 225 270 322
#     4  11  22  39  60  82 111 148 187 225 269 324
#     4  10  22  38  61  90 115 141 176 223 278 332
#     4   9  16  30  55  83 110 140 184 233 270 317
#     4  11  22  35  54  82 114 148 186 228 275 327
#     4   9  19  31  52  83 112 144 185 233 278 323
#     4  10  18  34  57  82 109 143 187 231 278 327
#
# _framework density 20.499528000000002
#
# number of rings (size 3 to 8) (size 9 to 14) (size 15 to 20)
#    0.000    2.143    1.429    2.143    2.000    2.000 
#    0.000    1.429    0.000    3.429    0.000    0.000 
#    0.000    0.000    0.000    0.000    0.000    0.000 
#
# Total GULP energy -347215.344169 kJ/mol
# GULP energy per Si atom -12400.548006 kJ/mol
# Density = 2.045287 g / cm^3
# Si number density = 20.499528 Si / 1000 Ang^3
#
#
#
# Elastic Constant Matrix: (Units=GPa)
#
#
# Indices 1 2 3 4 5 6 
#
# 1 132.8771 20.4175 41.5528 0.0000 14.2105 0.0001
# 2 20.4175 14.9307 6.4924 0.0001 -4.7959 0.0003
# 3 41.5528 6.4924 100.0425 0.0001 4.3624 0.0000
# 4 0.0000 0.0001 0.0001 23.4253 0.0000 3.3695
# 5 14.2105 -4.7959 4.3624 0.0000 36.3992 0.0000
# 6 0.0001 0.0003 0.0000 3.3695 0.0000 17.3702
#
#
#
# Elastic Compliance Matrix: (Units=1/GPa)
#
#
# Indices 1 2 3 4 5 6 
#
# 1 0.011915 -0.016806 -0.003578 0.000000 -0.006437 0.000000
# 2 -0.016806 0.096184 -0.000101 0.000000 0.019246 -0.000001
# 3 -0.003578 -0.000101 0.011488 0.000000 0.000007 0.000000
# 4 0.000000 0.000000 0.000000 0.043914 0.000000 -0.008518
# 5 -0.006437 0.019246 0.000007 0.000000 0.032521 0.000000
# 6 0.000000 -0.000001 0.000000 -0.008518 0.000000 0.059222
#
#
# Mechanical properties :
#
#
# Convention : Reuss Voigt Hill
#
# Bulk Modulus (GPa) = 12.71969 42.75284 27.73627
# Shear Modulus (GPa) = 15.50769 27.39812 21.45290
#
# Velocity S-wave (km/s) = 2.75342 3.65982 3.23849
# Velocity P-wave (km/s) = 4.04064 6.22574 5.24817
#
# Compressibility (1/GPa) = 0.07861824
#
# Stress axis : x y z
#
# Youngs Moduli (GPa) = 83.92512 10.39674 87.04724
#
# Poissons Ratio (x) = 0.17473 0.31143
# Poissons Ratio (y) = 1.41046 0.00877
# Poissons Ratio (z) = 0.30026 0.00105
#
# Static dielectric constant tensor:
#      x y z
#    x 3.972400 0.000000 0.034520 
#    y 0.000000 3.131150 0.000000 
#    z 0.034520 0.000000 3.815540 
# 
# 
# High freq. dielectric constant tensor:
#      x y z
#    x 1.817860 0.000000 0.001370 
#    y 0.000000 1.746570 0.000000 
#    z 0.001370 0.000000 1.811270 
# 
# From -- ./inp_files/380767.got.cif
#   From: 2010.06.25/outbox.cif.g09.slc.cpg/sg12_191_cif.got.tgz:380767.got - 2010.06.28 00:19:55.
