data_PCOD8084591
_publ_section_title
;
Structure prediction by ZEFSAII (Michael W. Deem and Ramdas Pophale) SiO2 
 PCOD8084591
Probable space group: C 2/M
;
_chemical_formula_sum "Si O2"
_cell_formula_units_Z 48
_cell_length_a 29.635259
_cell_length_b 14.289167
_cell_length_c 11.878204
_cell_angle_alpha 90.000000
_cell_angle_beta 151.860249
_cell_angle_gamma 90.000000
_cell_volume 2372.259032
_symmetry_space_group_name_H-M "C 2/M"
_symmetry_group_IT_number 12
_symmetry_cell_setting 'monoclinic'
loop_
_space_group_symop_operation_xyz
x,y,z
-x,y,-z
-x,-y,-z
x,-y,z
1/2+x,1/2+y,z
1/2-x,1/2+y,-z
1/2-x,1/2-y,-z
1/2+x,1/2-y,z
loop_
_atom_site_type_symbol
_atom_site_label
_atom_site_fract_x
_atom_site_fract_y
_atom_site_fract_z
Si Si1 0.288945 0.650499 0.125776
Si Si2 0.896781 0.893011 0.793522
Si Si3 0.313993 0.895423 0.305797
Si Si4 0.468723 0.753029 0.552655
Si Si5 0.845059 0.210205 0.899644
Si Si6 0.740977 0.896690 0.271237
O O1 0.403249 0.661375 0.385541
O O2 0.249417 0.616126 0.157022
O O3 0.250000 0.750000 0.000000
O O4 0.249426 0.580662 0.944473
O O5 0.841804 0.882571 0.555030
O O6 0.906571 0.000000 0.853539
O O7 0.846579 0.840376 0.784362
O O8 0.000000 0.847372 0.000000
O O9 0.410675 0.834830 0.492612
O O10 0.340161 0.000000 0.411906
O O11 0.246849 0.833807 0.239834
O O12 0.500000 0.795476 0.500000
O O13 0.557310 0.707453 0.814563
O O14 0.831390 0.319691 0.841582
O O15 0.699686 0.000000 0.206516
#
# Coordination Sequence:
#
# PCOD8084591 Si02
#       6
#     8   8   8   8   8   8
#     4  10  18  38  59  87 126 163 204 256 309 377
#     4  10  23  41  64  93 120 160 218 264 315 382
#     4  11  23  39  63  95 129 168 210 260 322 380
#     4  11  21  37  62  90 130 169 210 258 316 387
#     4  12  22  41  66  90 132 166 210 267 323 372
#     4  11  22  39  63  89 122 167 213 255 310 382
#
# _framework density 20.233877
#
# number of rings (size 3 to 8) (size 9 to 14) (size 15 to 20)
#    0.000    1.167    5.000    3.500    0.000    1.000 
#    0.000    3.333    0.000    0.500    0.000    0.000 
#    0.000    0.000    0.000    0.000    0.000    0.000 
#
# Total GULP energy -297369.552585 kJ/mol
# GULP energy per Si atom -12390.398024 kJ/mol
# Density = 2.018782 g / cm^3
# Si number density = 20.233877 Si / 1000 Ang^3
#
#
#
# Elastic Constant Matrix: (Units=GPa)
#
#
# Indices 1 2 3 4 5 6 
#
# 1 102.4400 29.0410 10.9559 0.0000 -0.3030 0.0000
# 2 29.0410 82.6543 10.5161 0.0000 1.8164 0.0000
# 3 10.9559 10.5161 47.8853 0.0000 0.9421 0.0000
# 4 0.0000 0.0000 0.0000 21.6823 0.0000 -0.4925
# 5 -0.3030 1.8164 0.9421 0.0000 36.0161 0.0000
# 6 0.0000 0.0000 0.0000 -0.4925 0.0000 24.7785
#
#
#
# Elastic Compliance Matrix: (Units=1/GPa)
#
#
# Indices 1 2 3 4 5 6 
#
# 1 0.010980 -0.003646 -0.001718 0.000000 0.000321 0.000000
# 2 -0.003646 0.013668 -0.002154 0.000000 -0.000664 0.000000
# 3 -0.001718 -0.002154 0.021759 0.000000 -0.000475 0.000000
# 4 0.000000 0.000000 0.000000 0.046141 0.000000 0.000917
# 5 0.000321 -0.000664 -0.000475 0.000000 0.027814 0.000000
# 6 0.000000 0.000000 0.000000 0.000917 0.000000 0.040376
#
#
# Mechanical properties :
#
#
# Convention : Reuss Voigt Hill
#
# Bulk Modulus (GPa) = 31.87736 37.11176 34.49456
# Shear Modulus (GPa) = 26.84814 28.65980 27.75397
#
# Velocity S-wave (km/s) = 3.64660 3.76763 3.70761
# Velocity P-wave (km/s) = 5.78955 6.10802 5.95092
#
# Compressibility (1/GPa) = 0.03137022
#
# Stress axis : x y z
#
# Youngs Moduli (GPa) = 91.07287 73.16103 45.95856
#
# Poissons Ratio (x) = 0.26678 0.07894
# Poissons Ratio (y) = 0.33209 0.09901
# Poissons Ratio (z) = 0.15644 0.15762
#
# Static dielectric constant tensor:
#      x y z
#    x 3.700750 0.000000 -0.083260 
#    y 0.000000 3.706070 0.000000 
#    z -0.083260 0.000000 3.924490 
# 
# 
# High freq. dielectric constant tensor:
#      x y z
#    x 1.784400 0.000000 -0.004980 
#    y 0.000000 1.789000 0.000000 
#    z -0.004980 0.000000 1.790130 
# 
# From -- ./inp_files/183902.got.cif
#   From: 2010.06.25/outbox.cif.g09.slc.cpg/sg12_92_cif.got.tgz:183902.got - 2010.06.28 00:19:55.
