data_PCOD8084831
_publ_section_title
;
Structure prediction by ZEFSAII (Michael W. Deem and Ramdas Pophale) SiO2 
 PCOD8084831
Probable space group: C 2/M
;
_chemical_formula_sum "Si O2"
_cell_formula_units_Z 64
_cell_length_a 28.737452
_cell_length_b 9.271051
_cell_length_c 19.834846
_cell_angle_alpha 90.000000
_cell_angle_beta 46.262401
_cell_angle_gamma 90.000000
_cell_volume 3818.142186
_symmetry_space_group_name_H-M "C 2/M"
_symmetry_group_IT_number 12
_symmetry_cell_setting 'monoclinic'
loop_
_space_group_symop_operation_xyz
x,y,z
-x,y,-z
-x,-y,-z
x,-y,z
1/2+x,1/2+y,z
1/2-x,1/2+y,-z
1/2-x,1/2-y,-z
1/2+x,1/2-y,z
loop_
_atom_site_type_symbol
_atom_site_label
_atom_site_fract_x
_atom_site_fract_y
_atom_site_fract_z
Si Si1 0.114164 0.333755 0.566218
Si Si2 0.373520 0.334921 0.315201
Si Si3 0.937456 0.827162 0.022702
Si Si4 0.566268 0.333190 0.401463
Si Si5 0.475203 0.336480 0.843638
Si Si6 0.985167 0.831374 0.688269
Si Si7 0.820483 0.828404 0.228418
Si Si8 0.322806 0.834705 0.636467
O O1 0.098308 0.500000 0.597607
O O2 0.144664 0.261171 0.601962
O O3 0.165151 0.317318 0.455135
O O4 0.049763 0.254314 0.606075
O O5 0.354270 0.500000 0.350139
O O6 0.448612 0.322726 0.222820
O O7 0.335582 0.272242 0.288685
O O8 0.872731 0.767533 0.122869
O O9 0.938600 0.000000 0.020479
O O10 0.940373 0.762918 0.943040
O O11 0.000000 0.770344 0.000000
O O12 0.500000 0.271880 0.500000
O O13 0.572851 0.500000 0.414355
O O14 0.565266 0.309061 0.321632
O O15 0.628198 0.253680 0.367245
O O16 0.452149 0.500000 0.867111
O O17 0.456088 0.272252 0.788833
O O18 0.004356 0.000000 0.676883
O O19 0.749481 0.777461 0.277000
O O20 0.825076 0.000000 0.225876
O O21 0.330205 0.000000 0.651140
#
# Coordination Sequence:
#
# PCOD8084831 Si02
#       8
#     8   8   8   8   8   8   8   8
#     4  10  19  29  42  64  95 126 156 185 222 276
#     4   9  16  28  46  66  92 124 157 190 225 263
#     4   9  13  21  42  72  96 115 149 195 234 264
#     4  10  19  32  51  71  89 117 159 199 232 272
#     4   8  13  22  41  70  95 113 140 189 239 267
#     4   9  17  30  48  70  93 115 149 194 236 273
#     4   9  17  29  44  66  97 127 155 192 232 271
#     4  10  21  33  45  66  97 128 155 188 235 280
#
# _framework density 16.762079
#
# number of rings (size 3 to 8) (size 9 to 14) (size 15 to 20)
#    0.000    2.750    2.500    1.125    0.000    1.750 
#    0.000    0.625    0.000    0.750    0.000   10.500 
#    0.000    0.000    0.000    0.000    0.000    0.000 
#
# Total GULP energy -396585.404660 kJ/mol
# GULP energy per Si atom -12393.293896 kJ/mol
# Density = 1.672393 g / cm^3
# Si number density = 16.762079 Si / 1000 Ang^3
#
#
#
# Elastic Constant Matrix: (Units=GPa)
#
#
# Indices 1 2 3 4 5 6 
#
# 1 122.5056 31.1609 70.6849 -0.0024 6.2001 0.0003
# 2 31.1609 39.7718 28.9025 -0.0273 0.9847 0.0196
# 3 70.6849 28.9025 112.2938 0.0030 4.0185 0.0040
# 4 -0.0024 -0.0273 0.0030 10.3725 0.0102 1.7403
# 5 6.2001 0.9847 4.0185 0.0102 24.7433 -0.0091
# 6 0.0003 0.0196 0.0040 1.7403 -0.0091 20.3961
#
#
#
# Elastic Compliance Matrix: (Units=1/GPa)
#
#
# Indices 1 2 3 4 5 6 
#
# 1 0.013839 -0.005554 -0.007208 -0.000008 -0.002076 0.000006
# 2 -0.005554 0.033157 -0.005070 0.000093 0.000895 -0.000038
# 3 -0.007208 -0.005070 0.014761 -0.000020 -0.000389 0.000004
# 4 -0.000008 0.000093 -0.000020 0.097809 -0.000042 -0.008346
# 5 -0.002076 0.000895 -0.000389 -0.000042 0.040963 0.000021
# 6 0.000006 -0.000038 0.000004 -0.008346 0.000021 0.049741
#
#
# Mechanical properties :
#
#
# Convention : Reuss Voigt Hill
#
# Bulk Modulus (GPa) = 38.32241 59.56307 48.94274
# Shear Modulus (GPa) = 16.97029 20.69059 18.83044
#
# Velocity S-wave (km/s) = 3.18531 3.51717 3.35534
# Velocity P-wave (km/s) = 6.03659 7.21842 6.65380
#
# Compressibility (1/GPa) = 0.02609439
#
# Stress axis : x y z
#
# Youngs Moduli (GPa) = 72.25732 30.15929 67.74562
#
# Poissons Ratio (x) = 0.16750 0.48829
# Poissons Ratio (y) = 0.40130 0.34349
# Poissons Ratio (z) = 0.52081 0.15291
#
# Static dielectric constant tensor:
#      x y z
#    x 3.145490 -0.000020 0.248920 
#    y -0.000020 2.804840 0.000020 
#    z 0.248920 0.000020 3.334110 
# 
# 
# High freq. dielectric constant tensor:
#      x y z
#    x 1.639950 0.000000 0.021390 
#    y 0.000000 1.602990 0.000000 
#    z 0.021390 0.000000 1.639560 
# 
# From -- ./inp_files/326904.got.cif
#   From: 2010.06.25/outbox.cif.g09.slc.cpg/sg12_164_cif.got.tgz:326904.got - 2010.06.28 00:19:55.
