data_PCOD8084770
_publ_section_title
;
Structure prediction by ZEFSAII (Michael W. Deem and Ramdas Pophale) SiO2 
 PCOD8084770
Probable space group: C 2/M
;
_chemical_formula_sum "Si O2"
_cell_formula_units_Z 64
_cell_length_a 22.960226
_cell_length_b 9.250735
_cell_length_c 27.634391
_cell_angle_alpha 90.000000
_cell_angle_beta 43.282165
_cell_angle_gamma 90.000000
_cell_volume 4024.091972
_symmetry_space_group_name_H-M "C 2/M"
_symmetry_group_IT_number 12
_symmetry_cell_setting 'monoclinic'
loop_
_space_group_symop_operation_xyz
x,y,z
-x,y,-z
-x,-y,-z
x,-y,z
1/2+x,1/2+y,z
1/2-x,1/2+y,-z
1/2-x,1/2-y,-z
1/2+x,1/2-y,z
loop_
_atom_site_type_symbol
_atom_site_label
_atom_site_fract_x
_atom_site_fract_y
_atom_site_fract_z
Si Si1 0.928784 0.160481 0.001363
Si Si2 0.367511 0.167457 0.457798
Si Si3 0.659707 0.830913 0.716531
Si Si4 0.672133 0.334697 0.852638
Si Si5 0.181038 0.832439 0.606289
Si Si6 0.795860 0.667098 0.698834
Si Si7 0.461225 0.165345 0.127606
Si Si8 0.516648 0.171559 0.436543
O O1 0.950038 0.258454 0.941634
O O2 0.925031 0.000000 0.982574
O O3 0.838684 0.199544 0.083039
O O4 0.000000 0.177549 0.000000
O O5 0.282083 0.187246 0.540513
O O6 0.366444 0.265383 0.410969
O O7 0.444425 0.227695 0.443851
O O8 0.379469 0.000000 0.435589
O O9 0.648378 0.753501 0.672418
O O10 0.736838 0.759293 0.699189
O O11 0.568693 0.810676 0.798896
O O12 0.680644 0.000000 0.697087
O O13 0.639738 0.500000 0.863658
O O14 0.766699 0.317585 0.773067
O O15 0.614532 0.224518 0.858683
O O16 0.155899 0.000000 0.626072
O O17 0.790117 0.500000 0.685311
O O18 0.891756 0.725140 0.637608
O O19 0.474553 0.000000 0.107130
O O20 0.500000 0.235996 0.500000
O O21 0.512219 0.000000 0.441075
#
# Coordination Sequence:
#
# PCOD8084770 Si02
#       8
#     8   8   8   8   8   8   8   8
#     4   8  13  21  32  47  71 103 135 166 200 237
#     4   9  18  32  48  66  87 109 137 175 212 244
#     4  10  19  29  41  60  87 114 140 174 214 249
#     4   8  14  23  34  50  74 105 138 169 200 236
#     4  10  19  31  48  65  82 109 143 175 209 252
#     4   9  16  27  43  61  83 113 147 176 203 246
#     4   9  16  23  33  52  76 103 135 168 202 243
#     4   9  16  27  45  67  88 111 140 172 205 242
#
# _framework density 15.904209
#
# number of rings (size 3 to 8) (size 9 to 14) (size 15 to 20)
#    0.000    3.000    0.000    2.625    0.000    6.250 
#    0.000    0.625    0.000    1.500    0.000    0.000 
#    0.000    1.000    0.000    2.000    0.000    4.750 
#
# Total GULP energy -396461.734731 kJ/mol
# GULP energy per Si atom -12389.429210 kJ/mol
# Density = 1.586801 g / cm^3
# Si number density = 15.904209 Si / 1000 Ang^3
#
#
#
# Elastic Constant Matrix: (Units=GPa)
#
#
# Indices 1 2 3 4 5 6 
#
# 1 65.3960 29.6897 50.1008 -0.0002 4.3014 0.0004
# 2 29.6897 85.2958 61.7670 0.0002 11.6555 0.0010
# 3 50.1008 61.7670 151.6732 0.0000 4.2671 0.0001
# 4 -0.0002 0.0002 0.0000 23.3670 0.0000 4.9924
# 5 4.3014 11.6555 4.2671 0.0000 14.3261 -0.0006
# 6 0.0004 0.0010 0.0001 4.9924 -0.0006 14.3809
#
#
#
# Elastic Compliance Matrix: (Units=1/GPa)
#
#
# Indices 1 2 3 4 5 6 
#
# 1 0.021157 -0.002889 -0.005748 0.000000 -0.002290 -0.000001
# 2 -0.002889 0.019185 -0.006498 0.000000 -0.012806 -0.000002
# 3 -0.005748 -0.006498 0.011033 0.000000 0.003726 0.000001
# 4 0.000000 0.000000 0.000000 0.046224 -0.000001 -0.016047
# 5 -0.002290 -0.012806 0.003726 -0.000001 0.079798 0.000005
# 6 -0.000001 -0.000002 0.000001 -0.016047 0.000005 0.075108
#
#
# Mechanical properties :
#
#
# Convention : Reuss Voigt Hill
#
# Bulk Modulus (GPa) = 47.38182 65.05331 56.21756
# Shear Modulus (GPa) = 17.25264 21.13530 19.19397
#
# Velocity S-wave (km/s) = 3.29718 3.64938 3.47774
# Velocity P-wave (km/s) = 6.65972 7.66481 7.17987
#
# Compressibility (1/GPa) = 0.02110514
#
# Stress axis : x y z
#
# Youngs Moduli (GPa) = 47.26540 52.12345 90.63597
#
# Poissons Ratio (x) = 0.15060 0.52093
# Poissons Ratio (y) = 0.13657 0.58897
# Poissons Ratio (z) = 0.27166 0.33871
#
# Static dielectric constant tensor:
#      x y z
#    x 2.570990 0.000000 -0.012720 
#    y 0.000000 3.004550 0.000000 
#    z -0.012720 0.000000 3.671900 
# 
# 
# High freq. dielectric constant tensor:
#      x y z
#    x 1.542950 0.000000 0.005170 
#    y 0.000000 1.607210 0.000000 
#    z 0.005170 0.000000 1.634350 
# 
# From -- ./inp_files/367032.got.cif
#   From: 2010.06.25/outbox.cif.g09.slc.cpg/sg12_184_cif.got.tgz:367032.got - 2010.06.28 00:19:55.
