data_PCOD8084432
_publ_section_title
;
Structure prediction by ZEFSAII (Michael W. Deem and Ramdas Pophale) SiO2 
 PCOD8084432
Probable space group: C 2/M
;
_chemical_formula_sum "Si O2"
_cell_formula_units_Z 48
_cell_length_a 18.242365
_cell_length_b 14.311909
_cell_length_c 18.536274
_cell_angle_alpha 90.000000
_cell_angle_beta 149.805826
_cell_angle_gamma 90.000000
_cell_volume 2433.943377
_symmetry_space_group_name_H-M "C 2/M"
_symmetry_group_IT_number 12
_symmetry_cell_setting 'monoclinic'
loop_
_space_group_symop_operation_xyz
x,y,z
-x,y,-z
-x,-y,-z
x,-y,z
1/2+x,1/2+y,z
1/2-x,1/2+y,-z
1/2-x,1/2-y,-z
1/2+x,1/2-y,z
loop_
_atom_site_type_symbol
_atom_site_label
_atom_site_fract_x
_atom_site_fract_y
_atom_site_fract_z
Si Si1 0.080660 0.000000 0.424819
Si Si2 0.325317 0.000000 0.997652
Si Si3 0.907177 0.808584 0.070570
Si Si4 0.064896 0.688299 0.769972
Si Si5 0.953288 0.000000 0.156652
Si Si6 0.077877 0.500000 0.310351
Si Si7 0.055443 0.814856 0.624578
Si Si8 0.634485 0.841698 0.073840
O O1 0.254343 0.000000 0.568222
O O2 0.027346 0.000000 0.297558
O O3 0.022849 0.910847 0.419542
O O4 0.493499 0.000000 0.162785
O O5 0.220534 0.000000 0.977063
O O6 0.293935 0.906678 0.926218
O O7 0.976623 0.753475 0.197506
O O8 0.992156 0.908103 0.142862
O O9 0.735331 0.830661 0.927774
O O10 0.935565 0.751431 0.021397
O O11 0.027569 0.738711 0.663109
O O12 0.969995 0.593348 0.687262
O O13 0.229328 0.823193 0.758559
O O14 0.000000 0.779118 0.500000
O O15 0.500000 0.891866 0.000000
#
# Coordination Sequence:
#
# PCOD8084432 Si02
#       8
#     4   4   8   8   4   4   8   8
#     4  12  25  38  57  92 126 157 190 243 306 357
#     4  12  19  36  65  86 116 149 196 259 291 342
#     4  10  18  35  66  88 113 150 200 251 291 340
#     4  10  19  38  62  88 115 153 202 244 289 349
#     4  12  18  40  64  90 117 153 197 249 302 342
#     4  12  24  36  62  96 119 149 203 249 293 343
#     4  11  24  41  58  83 127 164 189 235 305 361
#     4  11  23  38  60  92 117 154 202 243 294 352
#
# _framework density 19.721083
#
# number of rings (size 3 to 8) (size 9 to 14) (size 15 to 20)
#    0.000    1.000    6.667    1.500    2.333    0.667 
#    3.000    0.833    0.000    0.000    0.000    0.000 
#    0.000    0.000    0.000    0.000    0.000    0.000 
#
# Total GULP energy -297436.328024 kJ/mol
# GULP energy per Si atom -12393.180334 kJ/mol
# Density = 1.967620 g / cm^3
# Si number density = 19.721083 Si / 1000 Ang^3
#
#
#
# Elastic Constant Matrix: (Units=GPa)
#
#
# Indices 1 2 3 4 5 6 
#
# 1 55.0428 22.6564 49.4605 0.0013 -0.5632 -0.0012
# 2 22.6564 116.6954 45.3195 0.0022 -10.1930 -0.0007
# 3 49.4605 45.3195 114.5836 0.0028 -16.2938 -0.0022
# 4 0.0013 0.0022 0.0028 25.1770 0.0016 2.4188
# 5 -0.5632 -10.1930 -16.2938 0.0016 39.4845 -0.0011
# 6 -0.0012 -0.0007 -0.0022 2.4188 -0.0011 36.6558
#
#
#
# Elastic Compliance Matrix: (Units=1/GPa)
#
#
# Indices 1 2 3 4 5 6 
#
# 1 0.030841 -0.001174 -0.013629 0.000000 -0.005487 0.000000
# 2 -0.001174 0.010208 -0.003355 -0.000001 0.001234 0.000000
# 3 -0.013629 -0.003355 0.016770 -0.000001 0.005860 0.000001
# 4 0.000000 -0.000001 -0.000001 0.039972 -0.000002 -0.002638
# 5 -0.005487 0.001234 0.005860 -0.000002 0.027985 0.000001
# 6 0.000000 0.000000 0.000001 -0.002638 0.000001 0.027455
#
#
# Mechanical properties :
#
#
# Convention : Reuss Voigt Hill
#
# Bulk Modulus (GPa) = 46.50360 57.91053 52.20707
# Shear Modulus (GPa) = 25.41738 31.52249 28.46993
#
# Velocity S-wave (km/s) = 3.59394 4.00236 3.80363
# Velocity P-wave (km/s) = 6.39169 7.12650 6.76907
#
# Compressibility (1/GPa) = 0.02150371
#
# Stress axis : x y z
#
# Youngs Moduli (GPa) = 32.42398 97.96174 59.62901
#
# Poissons Ratio (x) = 0.11504 0.81266
# Poissons Ratio (y) = 0.03808 0.20006
# Poissons Ratio (z) = 0.44189 0.32867
#
# Static dielectric constant tensor:
#      x y z
#    x 3.291120 0.000000 -0.101330 
#    y 0.000000 3.839270 0.000000 
#    z -0.101330 0.000000 3.581510 
# 
# 
# High freq. dielectric constant tensor:
#      x y z
#    x 1.736650 0.000000 -0.009110 
#    y 0.000000 1.778050 0.000000 
#    z -0.009110 0.000000 1.766740 
# 
# From -- ./inp_files/278291.got.cif
#   From: 2010.06.25/outbox.cif.g09.slc.cpg/sg12_140_cif.got.tgz:278291.got - 2010.06.28 00:19:55.
