data_PCOD8084404
_publ_section_title
;
Structure prediction by ZEFSAII (Michael W. Deem and Ramdas Pophale) SiO2 
 PCOD8084404
Probable space group: C 2/M
;
_chemical_formula_sum "Si O2"
_cell_formula_units_Z 56
_cell_length_a 15.118941
_cell_length_b 8.407917
_cell_length_c 23.991810
_cell_angle_alpha 90.000000
_cell_angle_beta 62.558875
_cell_angle_gamma 90.000000
_cell_volume 2706.660250
_symmetry_space_group_name_H-M "C 2/M"
_symmetry_group_IT_number 12
_symmetry_cell_setting 'monoclinic'
loop_
_space_group_symop_operation_xyz
x,y,z
-x,y,-z
-x,-y,-z
x,-y,z
1/2+x,1/2+y,z
1/2-x,1/2+y,-z
1/2-x,1/2-y,-z
1/2+x,1/2-y,z
loop_
_atom_site_type_symbol
_atom_site_label
_atom_site_fract_x
_atom_site_fract_y
_atom_site_fract_z
Si Si1 0.323890 0.814262 0.931916
Si Si2 0.342561 0.815796 0.717285
Si Si3 0.726316 0.183226 0.852333
Si Si4 0.486750 0.684921 0.067065
Si Si5 0.741784 0.317822 0.367303
Si Si6 0.893828 0.681315 0.502268
Si Si7 0.939199 0.685589 0.368200
O O1 0.300257 0.730937 0.880466
O O2 0.438029 0.780713 0.915111
O O3 0.306126 0.000000 0.929770
O O4 0.250000 0.750000 0.000000
O O5 0.281628 0.710736 0.778290
O O6 0.294898 0.799672 0.670029
O O7 0.454875 0.745438 0.682866
O O8 0.339738 0.000000 0.736341
O O9 0.625933 0.286315 0.881358
O O10 0.696419 0.000000 0.867065
O O11 0.513431 0.500000 0.064069
O O12 0.500000 0.745606 0.000000
O O13 0.726525 0.500000 0.353212
O O14 0.683791 0.288633 0.441588
O O15 0.858339 0.281086 0.343903
O O16 0.854331 0.500000 0.512328
O O17 0.903617 0.757956 0.437687
O O18 0.000000 0.690325 0.500000
O O19 0.955728 0.500000 0.374969
#
# Coordination Sequence:
#
# PCOD8084404 Si02
#       7
#     8   8   8   8   8   8   8
#     4  12  24  41  67  99 132 169 209 258 315 375
#     4  11  23  44  65  84 119 169 213 252 309 380
#     4  12  26  44  66  96 132 168 212 265 320 383
#     4  11  23  41  68  99 130 166 211 259 313 377
#     4  11  22  37  59  91 124 155 203 263 318 367
#     4  10  18  35  61  87 117 160 207 249 308 379
#     4   9  20  38  61  86 119 162 205 252 308 374
#
# _framework density 20.689703999999999
#
# number of rings (size 3 to 8) (size 9 to 14) (size 15 to 20)
#    0.000    1.143    2.857    4.286    0.000    2.000 
#    0.000    7.857    0.000    0.000    0.000    0.000 
#    0.000    0.000    0.000    0.000    0.000    0.000 
#
# Total GULP energy -347365.625460 kJ/mol
# GULP energy per Si atom -12405.915195 kJ/mol
# Density = 2.064261 g / cm^3
# Si number density = 20.689704 Si / 1000 Ang^3
#
#
#
# Elastic Constant Matrix: (Units=GPa)
#
#
# Indices 1 2 3 4 5 6 
#
# 1 121.5028 12.1488 39.6452 0.0000 -13.7537 0.0000
# 2 12.1488 60.2059 9.5771 0.0000 -0.3116 0.0000
# 3 39.6452 9.5771 113.0037 0.0000 -17.4521 0.0000
# 4 0.0000 0.0000 0.0000 30.6141 0.0000 2.6490
# 5 -13.7537 -0.3116 -17.4521 0.0000 17.3147 0.0000
# 6 0.0000 0.0000 0.0000 2.6490 0.0000 27.8730
#
#
#
# Elastic Compliance Matrix: (Units=1/GPa)
#
#
# Indices 1 2 3 4 5 6 
#
# 1 0.009792 -0.001552 -0.002495 0.000000 0.005235 0.000000
# 2 -0.001552 0.017109 -0.001242 0.000000 -0.002176 0.000000
# 3 -0.002495 -0.001242 0.011276 0.000000 0.009361 0.000000
# 4 0.000000 0.000000 0.000000 0.032936 0.000000 -0.003130
# 5 0.005235 -0.002176 0.009361 0.000000 0.071309 0.000000
# 6 0.000000 0.000000 0.000000 -0.003130 0.000000 0.036175
#
#
# Mechanical properties :
#
#
# Convention : Reuss Voigt Hill
#
# Bulk Modulus (GPa) = 36.23315 46.38385 41.30850
# Shear Modulus (GPa) = 25.20499 30.71644 27.96071
#
# Velocity S-wave (km/s) = 3.49411 3.85726 3.68017
# Velocity P-wave (km/s) = 5.81628 6.50426 6.16987
#
# Compressibility (1/GPa) = 0.02759904
#
# Stress axis : x y z
#
# Youngs Moduli (GPa) = 102.12140 58.44853 88.68715
#
# Poissons Ratio (x) = 0.09071 0.22131
# Poissons Ratio (y) = 0.15848 0.11012
# Poissons Ratio (z) = 0.25483 0.07257
#
# Static dielectric constant tensor:
#      x y z
#    x 3.919220 0.000000 -0.034780 
#    y 0.000000 3.641400 0.000000 
#    z -0.034780 0.000000 3.719380 
# 
# 
# High freq. dielectric constant tensor:
#      x y z
#    x 1.823110 0.000000 -0.001840 
#    y 0.000000 1.799910 0.000000 
#    z -0.001840 0.000000 1.806760 
# 
# From -- ./inp_files/338586.got.cif
#   From: 2010.06.25/outbox.cif.g09.slc.cpg/sg12_170_cif.got.tgz:338586.got - 2010.06.28 00:19:55.
