data_PCOD8084428
_publ_section_title
;
Structure prediction by ZEFSAII (Michael W. Deem and Ramdas Pophale) SiO2 
 PCOD8084428
Probable space group: C 2/M
;
_chemical_formula_sum "Si O2"
_cell_formula_units_Z 64
_cell_length_a 19.535393
_cell_length_b 17.445926
_cell_length_c 15.111709
_cell_angle_alpha 90.000000
_cell_angle_beta 141.413083
_cell_angle_gamma 90.000000
_cell_volume 3212.227451
_symmetry_space_group_name_H-M "C 2/M"
_symmetry_group_IT_number 12
_symmetry_cell_setting 'monoclinic'
loop_
_space_group_symop_operation_xyz
x,y,z
-x,y,-z
-x,-y,-z
x,-y,z
1/2+x,1/2+y,z
1/2-x,1/2+y,-z
1/2-x,1/2-y,-z
1/2+x,1/2-y,z
loop_
_atom_site_type_symbol
_atom_site_label
_atom_site_fract_x
_atom_site_fract_y
_atom_site_fract_z
Si Si1 0.635565 0.841905 0.871814
Si Si2 0.527781 0.359642 0.625761
Si Si3 0.123899 0.286556 0.129172
Si Si4 0.528652 0.183803 0.433238
Si Si5 0.440000 0.410629 0.714401
Si Si6 0.230678 0.202950 0.392559
Si Si7 0.268414 0.087836 0.866661
Si Si8 0.360912 0.313145 0.022907
O O1 0.531084 0.864403 0.705305
O O2 0.617925 0.755002 0.886408
O O3 0.645397 0.897816 0.966412
O O4 0.743540 0.851478 0.921345
O O5 0.500000 0.392652 0.500000
O O6 0.523856 0.268298 0.620879
O O7 0.443070 0.393227 0.612098
O O8 0.647865 0.387704 0.777852
O O9 0.151493 0.256100 0.253959
O O10 0.201537 0.359028 0.186412
O O11 0.141216 0.216868 0.079110
O O12 0.000000 0.316629 0.000000
O O13 0.500000 0.146971 0.500000
O O14 0.658374 0.184350 0.548231
O O15 0.437792 0.500000 0.730768
O O16 0.329207 0.376027 0.643764
O O17 0.544701 0.375680 0.870219
O O18 0.250000 0.250000 0.500000
O O19 0.272439 0.000000 0.840938
#
# Coordination Sequence:
#
# PCOD8084428 Si02
#       8
#     8   8   8   8   8   8   8   8
#     4  10  18  35  64  88 122 166 207 261 308 370
#     4  11  21  39  62  95 132 168 206 262 326 388
#     4  11  23  40  65  85 123 172 219 265 315 376
#     4  11  21  38  68  96 122 167 227 264 306 381
#     4  12  24  40  64  96 130 168 209 271 339 380
#     4  12  24  43  64  94 133 170 216 264 318 389
#     4  11  24  38  60  96 132 165 212 266 322 386
#     4  10  18  37  60  91 120 158 214 257 312 374
#
# _framework density 19.923867999999999
#
# number of rings (size 3 to 8) (size 9 to 14) (size 15 to 20)
#    0.000    1.000    5.000    4.125    1.750    1.250 
#    0.000    1.875    0.000    3.000    0.000    0.000 
#    0.000    0.000    0.000    0.000    0.000    0.000 
#
# Total GULP energy -396922.083011 kJ/mol
# GULP energy per Si atom -12403.815094 kJ/mol
# Density = 1.987852 g / cm^3
# Si number density = 19.923868 Si / 1000 Ang^3
#
#
#
# Elastic Constant Matrix: (Units=GPa)
#
#
# Indices 1 2 3 4 5 6 
#
# 1 109.8413 35.5219 38.6186 0.0000 -1.0715 0.0000
# 2 35.5219 98.6710 30.7626 0.0000 -4.5405 0.0000
# 3 38.6186 30.7626 113.2236 0.0000 -6.1897 0.0000
# 4 0.0000 0.0000 0.0000 16.7467 0.0000 4.6921
# 5 -1.0715 -4.5405 -6.1897 0.0000 36.3622 0.0000
# 6 0.0000 0.0000 0.0000 4.6921 0.0000 18.7863
#
#
#
# Elastic Compliance Matrix: (Units=1/GPa)
#
#
# Indices 1 2 3 4 5 6 
#
# 1 0.011156 -0.003110 -0.002991 0.000000 -0.000569 0.000000
# 2 -0.003110 0.011967 -0.002134 0.000000 0.001039 0.000000
# 3 -0.002991 -0.002134 0.010511 0.000000 0.001435 0.000000
# 4 0.000000 0.000000 0.000000 0.064206 0.000000 -0.016036
# 5 -0.000569 0.001039 0.001435 0.000000 0.027858 0.000000
# 6 0.000000 0.000000 0.000000 -0.016036 0.000000 0.057235
#
#
# Mechanical properties :
#
#
# Convention : Reuss Voigt Hill
#
# Bulk Modulus (GPa) = 58.26219 59.06026 58.66122
# Shear Modulus (GPa) = 24.37538 28.83458 26.60498
#
# Velocity S-wave (km/s) = 3.50155 3.80839 3.65818
# Velocity P-wave (km/s) = 6.75675 7.00326 6.88111
#
# Compressibility (1/GPa) = 0.01716379
#
# Stress axis : x y z
#
# Youngs Moduli (GPa) = 89.63916 83.56066 95.14228
#
# Poissons Ratio (x) = 0.25985 0.28459
# Poissons Ratio (y) = 0.27875 0.20303
# Poissons Ratio (z) = 0.26813 0.17832
#
# Static dielectric constant tensor:
#      x y z
#    x 3.841060 0.000000 -0.026860 
#    y 0.000000 3.244490 0.000000 
#    z -0.026860 0.000000 3.857320 
# 
# 
# High freq. dielectric constant tensor:
#      x y z
#    x 1.787160 0.000000 -0.002900 
#    y 0.000000 1.733130 0.000000 
#    z -0.002900 0.000000 1.786500 
# 
# From -- ./inp_files/226866.got.cif
#   From: 2010.06.25/outbox.cif.g09.slc.cpg/sg12_114_cif.got.tgz:226866.got - 2010.06.28 00:19:55.
