data_PCOD8084595
_publ_section_title
;
Structure prediction by ZEFSAII (Michael W. Deem and Ramdas Pophale) SiO2 
 PCOD8084595
Probable space group: C 2/M
;
_chemical_formula_sum "Si O2"
_cell_formula_units_Z 48
_cell_length_a 15.019945
_cell_length_b 19.678536
_cell_length_c 9.323250
_cell_angle_alpha 90.000000
_cell_angle_beta 112.950511
_cell_angle_gamma 90.000000
_cell_volume 2537.543982
_symmetry_space_group_name_H-M "C 2/M"
_symmetry_group_IT_number 12
_symmetry_cell_setting 'monoclinic'
loop_
_space_group_symop_operation_xyz
x,y,z
-x,y,-z
-x,-y,-z
x,-y,z
1/2+x,1/2+y,z
1/2-x,1/2+y,-z
1/2-x,1/2-y,-z
1/2+x,1/2-y,z
loop_
_atom_site_type_symbol
_atom_site_label
_atom_site_fract_x
_atom_site_fract_y
_atom_site_fract_z
Si Si1 0.434444 0.577372 0.593623
Si Si2 0.278036 0.785400 0.322537
Si Si3 0.443944 0.306707 0.818584
Si Si4 0.950460 0.420244 0.818827
Si Si5 0.260612 0.141659 0.596816
Si Si6 0.531659 0.811225 0.682558
O O1 0.500000 0.596864 0.500000
O O2 0.452157 0.500000 0.652922
O O3 0.466070 0.625561 0.743509
O O4 0.321735 0.586247 0.484619
O O5 0.168625 0.801930 0.211201
O O6 0.309505 0.831007 0.480216
O O7 0.291062 0.705651 0.361723
O O8 0.351716 0.801931 0.239100
O O9 0.475147 0.240693 0.749559
O O10 0.500000 0.311389 0.000000
O O11 0.950748 0.500000 0.791886
O O12 0.840860 0.392209 0.749030
O O13 0.010321 0.386711 0.726534
O O14 0.000000 0.400536 0.000000
O O15 0.500000 0.798958 0.500000
#
# Coordination Sequence:
#
# PCOD8084595 Si02
#       6
#     8   8   8   8   8   8
#     4  10  21  38  61  87 114 156 205 243 288 351
#     4  10  20  35  61  91 116 149 202 243 292 353
#     4  11  23  39  59  89 122 156 191 247 306 348
#     4  11  24  41  60  87 125 161 196 246 307 362
#     4  10  18  38  61  87 116 155 194 247 294 350
#     4  12  21  39  63  90 117 157 202 250 292 357
#
# _framework density 18.915928999999998
#
# number of rings (size 3 to 8) (size 9 to 14) (size 15 to 20)
#    0.000    1.333    3.333    4.500    0.000    1.333 
#    3.000    0.833    0.000    0.000    0.000    0.000 
#    0.000    0.000    0.000    0.000    0.000    0.000 
#
# Total GULP energy -297655.082718 kJ/mol
# GULP energy per Si atom -12402.295113 kJ/mol
# Density = 1.887288 g / cm^3
# Si number density = 18.915929 Si / 1000 Ang^3
#
#
#
# Elastic Constant Matrix: (Units=GPa)
#
#
# Indices 1 2 3 4 5 6 
#
# 1 114.0826 45.7691 45.0555 0.0000 -1.5053 0.0000
# 2 45.7691 102.1563 53.5599 0.0000 -0.8647 0.0000
# 3 45.0555 53.5599 132.3106 0.0000 15.7190 0.0000
# 4 0.0000 0.0000 0.0000 27.9574 0.0000 -4.0391
# 5 -1.5053 -0.8647 15.7190 0.0000 21.7610 0.0000
# 6 0.0000 0.0000 0.0000 -4.0391 0.0000 22.9136
#
#
#
# Elastic Compliance Matrix: (Units=1/GPa)
#
#
# Indices 1 2 3 4 5 6 
#
# 1 0.011322 -0.003642 -0.002688 0.000000 0.002580 0.000000
# 2 -0.003642 0.014017 -0.004890 0.000000 0.003837 0.000000
# 3 -0.002688 -0.004890 0.011483 0.000000 -0.008675 0.000000
# 4 0.000000 0.000000 0.000000 0.036703 0.000000 0.006470
# 5 0.002580 0.003837 -0.008675 0.000000 0.052551 0.000000
# 6 0.000000 0.000000 0.000000 0.006470 0.000000 0.044783
#
#
# Mechanical properties :
#
#
# Convention : Reuss Voigt Hill
#
# Bulk Modulus (GPa) = 69.52390 70.81316 70.16853
# Shear Modulus (GPa) = 25.24068 28.13738 26.68903
#
# Velocity S-wave (km/s) = 3.65685 3.86099 3.76031
# Velocity P-wave (km/s) = 7.39351 7.57584 7.48523
#
# Compressibility (1/GPa) = 0.01438354
#
# Stress axis : x y z
#
# Youngs Moduli (GPa) = 88.32239 71.34379 87.08249
#
# Poissons Ratio (x) = 0.25980 0.23407
# Poissons Ratio (y) = 0.32163 0.42582
# Poissons Ratio (z) = 0.23740 0.34886
#
# Static dielectric constant tensor:
#      x y z
#    x 3.707790 0.000000 0.057840 
#    y 0.000000 3.456310 0.000000 
#    z 0.057840 0.000000 3.328820 
# 
# 
# High freq. dielectric constant tensor:
#      x y z
#    x 1.748460 0.000000 0.011440 
#    y 0.000000 1.738170 0.000000 
#    z 0.011440 0.000000 1.718760 
# 
# From -- ./inp_files/63635.got.cif
#   From: 2010.06.25/outbox.cif.g09.slc.cpg/sg12_32_cif.got.tgz:63635.got - 2010.06.28 00:19:55.
