data_PCOD8084717
_publ_section_title
;
Structure prediction by ZEFSAII (Michael W. Deem and Ramdas Pophale) SiO2 
 PCOD8084717
Probable space group: C 2/M
;
_chemical_formula_sum "Si O2"
_cell_formula_units_Z 52
_cell_length_a 11.725267
_cell_length_b 31.467009
_cell_length_c 8.176854
_cell_angle_alpha 90.000000
_cell_angle_beta 85.864411
_cell_angle_gamma 90.000000
_cell_volume 3009.069019
_symmetry_space_group_name_H-M "C 2/M"
_symmetry_group_IT_number 12
_symmetry_cell_setting 'monoclinic'
loop_
_space_group_symop_operation_xyz
x,y,z
-x,y,-z
-x,-y,-z
x,-y,z
1/2+x,1/2+y,z
1/2-x,1/2+y,-z
1/2-x,1/2-y,-z
1/2+x,1/2-y,z
loop_
_atom_site_type_symbol
_atom_site_label
_atom_site_fract_x
_atom_site_fract_y
_atom_site_fract_z
Si Si1 0.702172 0.869910 0.703446
Si Si2 0.000000 0.393286 0.500000
Si Si3 0.751254 0.735069 0.752248
Si Si4 0.915945 0.453030 0.772716
Si Si5 0.670957 0.952765 0.877191
Si Si6 0.368436 0.196758 0.035840
Si Si7 0.366791 0.305602 0.538868
O O1 0.586288 0.865866 0.604363
O O2 0.734668 0.917838 0.757368
O O3 0.682767 0.844322 0.872068
O O4 0.810401 0.850091 0.599316
O O5 0.087245 0.421072 0.379912
O O6 0.652519 0.760896 0.856018
O O7 0.691691 0.707041 0.623009
O O8 0.845162 0.768015 0.671737
O O9 0.812176 0.701637 0.864162
O O10 0.882930 0.500000 0.711471
O O11 0.041880 0.453685 0.831578
O O12 0.829047 0.440174 0.929223
O O13 0.725760 0.000000 0.847795
O O14 0.500000 0.188741 0.000000
O O15 0.500000 0.313254 0.500000
#
# Coordination Sequence:
#
# PCOD8084717 Si02
#       7
#     8   4   8   8   8   8   8
#     4  10  22  30  47  77 101 139 171 208 261 300
#     4  10  19  28  42  72 112 126 164 212 254 310
#     4   9  20  36  53  76  94 134 172 204 261 301
#     4   8  14  25  44  65  94 137 167 201 251 305
#     4   8  15  29  45  65  98 135 171 205 250 307
#     4  10  20  32  51  74 104 130 165 209 249 313
#     4  10  20  37  55  73 103 132 171 216 253 308
#
# _framework density 17.281091
#
# number of rings (size 3 to 8) (size 9 to 14) (size 15 to 20)
#    0.000    2.769    0.000    2.077    6.462    0.615 
#    2.769    0.000    0.000    0.462    0.000    0.000 
#    0.000    3.692    0.000    0.000    0.000    0.000 
#
# Total GULP energy -322246.872308 kJ/mol
# GULP energy per Si atom -12394.110473 kJ/mol
# Density = 1.724176 g / cm^3
# Si number density = 17.281091 Si / 1000 Ang^3
#
#
#
# Elastic Constant Matrix: (Units=GPa)
#
#
# Indices 1 2 3 4 5 6 
#
# 1 67.4811 41.6214 32.2653 0.0000 -13.8680 0.0000
# 2 41.6214 98.3992 49.2706 0.0000 2.3843 0.0000
# 3 32.2653 49.2706 95.8651 0.0000 5.9869 0.0000
# 4 0.0000 0.0000 0.0000 45.8954 0.0000 14.4382
# 5 -13.8680 2.3843 5.9869 0.0000 18.7617 0.0000
# 6 0.0000 0.0000 0.0000 14.4382 0.0000 32.2114
#
#
#
# Elastic Compliance Matrix: (Units=1/GPa)
#
#
# Indices 1 2 3 4 5 6 
#
# 1 0.028797 -0.009635 -0.006271 0.000000 0.024512 0.000000
# 2 -0.009635 0.016913 -0.004970 0.000000 -0.007685 0.000000
# 3 -0.006271 -0.004970 0.015658 0.000000 -0.009001 0.000000
# 4 0.000000 0.000000 0.000000 0.025365 0.000000 -0.011370
# 5 0.024512 -0.007685 -0.009001 0.000000 0.075267 0.000000
# 6 0.000000 0.000000 0.000000 -0.011370 0.000000 0.036141
#
#
# Mechanical properties :
#
#
# Convention : Reuss Voigt Hill
#
# Bulk Modulus (GPa) = 50.97594 56.45111 53.71353
# Shear Modulus (GPa) = 20.28953 28.61290 24.45122
#
# Velocity S-wave (km/s) = 3.43021 4.07349 3.76561
# Velocity P-wave (km/s) = 6.72686 7.40687 7.07504
#
# Compressibility (1/GPa) = 0.01961710
#
# Stress axis : x y z
#
# Youngs Moduli (GPa) = 34.72536 59.12731 63.86355
#
# Poissons Ratio (x) = 0.56967 0.40051
# Poissons Ratio (y) = 0.33457 0.31738
# Poissons Ratio (z) = 0.21777 0.29385
#
# Static dielectric constant tensor:
#      x y z
#    x 2.803030 0.000000 -0.026580 
#    y 0.000000 3.450340 0.000000 
#    z -0.026580 0.000000 3.662110 
# 
# 
# High freq. dielectric constant tensor:
#      x y z
#    x 1.607730 0.000000 0.001500 
#    y 0.000000 1.666460 0.000000 
#    z 0.001500 0.000000 1.688170 
# 
# From -- ./inp_files/53775.got.cif
#   From: 2010.06.25/outbox.cif.g09.slc.cpg/sg12_27_cif.got.tgz:53775.got - 2010.06.28 00:19:55.
