data_PCOD8084557
_publ_section_title
;
Structure prediction by ZEFSAII (Michael W. Deem and Ramdas Pophale) SiO2 
 PCOD8084557
Probable space group: C 2/M
;
_chemical_formula_sum "Si O2"
_cell_formula_units_Z 64
_cell_length_a 16.098832
_cell_length_b 18.078798
_cell_length_c 12.975382
_cell_angle_alpha 90.000000
_cell_angle_beta 61.020136
_cell_angle_gamma 90.000000
_cell_volume 3303.603366
_symmetry_space_group_name_H-M "C 2/M"
_symmetry_group_IT_number 12
_symmetry_cell_setting 'monoclinic'
loop_
_space_group_symop_operation_xyz
x,y,z
-x,y,-z
-x,-y,-z
x,-y,z
1/2+x,1/2+y,z
1/2-x,1/2+y,-z
1/2-x,1/2-y,-z
1/2+x,1/2-y,z
loop_
_atom_site_type_symbol
_atom_site_label
_atom_site_fract_x
_atom_site_fract_y
_atom_site_fract_z
Si Si1 0.723115 0.735925 0.710540
Si Si2 0.711195 0.387881 0.398243
Si Si3 0.412475 0.661765 0.362002
Si Si4 0.594906 0.078961 0.671531
Si Si5 0.387379 0.586519 0.753539
Si Si6 0.273900 0.191424 0.072119
Si Si7 0.094386 0.693877 0.497747
Si Si8 0.555358 0.915962 0.072276
O O1 0.741881 0.806548 0.628433
O O2 0.633911 0.690238 0.717509
O O3 0.702241 0.761334 0.839662
O O4 0.822199 0.691344 0.638726
O O5 0.656026 0.397859 0.540028
O O6 0.804300 0.438893 0.331671
O O7 0.636254 0.404784 0.352958
O O8 0.511336 0.621710 0.278867
O O9 0.426082 0.727311 0.436687
O O10 0.620420 0.133515 0.565612
O O11 0.517158 0.112203 0.796206
O O12 0.556948 0.000000 0.653119
O O13 0.385091 0.500000 0.786754
O O14 0.311206 0.633566 0.862985
O O15 0.250000 0.250000 0.000000
O O16 0.361548 0.143195 0.980800
O O17 0.000000 0.666565 0.500000
O O18 0.592086 0.000000 0.071649
O O19 0.500000 0.915136 0.000000
#
# Coordination Sequence:
#
# PCOD8084557 Si02
#       8
#     8   8   8   8   8   8   8   8
#     4  10  20  38  60  91 118 161 204 254 308 362
#     4  10  18  37  59  90 126 158 198 246 306 375
#     4  11  20  37  61  90 124 163 200 243 306 377
#     4  11  22  35  59  89 122 163 201 252 317 376
#     4  11  24  38  60  92 127 162 204 260 313 366
#     4  11  25  40  65  91 119 160 215 260 312 367
#     4  11  21  36  61  85 125 157 202 254 307 368
#     4  10  22  39  61  90 123 158 201 260 317 362
#
# _framework density 19.372786000000001
#
# number of rings (size 3 to 8) (size 9 to 14) (size 15 to 20)
#    0.000    1.375    2.500    5.625    3.500    2.750 
#    0.000    0.000    0.000    2.250    0.000    0.000 
#    0.000    0.000    0.000    0.000    0.000    0.000 
#
# Total GULP energy -396579.310091 kJ/mol
# GULP energy per Si atom -12393.103440 kJ/mol
# Density = 1.932869 g / cm^3
# Si number density = 19.372786 Si / 1000 Ang^3
#
#
#
# Elastic Constant Matrix: (Units=GPa)
#
#
# Indices 1 2 3 4 5 6 
#
# 1 125.2800 50.5454 45.3082 0.0000 -18.5133 0.0000
# 2 50.5454 100.3786 47.7377 0.0000 -7.2795 0.0000
# 3 45.3082 47.7377 95.4107 0.0000 -17.9675 0.0000
# 4 0.0000 0.0000 0.0000 338.3832 0.0000 -273.9111
# 5 -18.5133 -7.2795 -17.9675 0.0000 29.4518 0.0000
# 6 0.0000 0.0000 0.0000 -273.9111 0.0000 257.0835
#
#
#
# Elastic Compliance Matrix: (Units=1/GPa)
#
#
# Indices 1 2 3 4 5 6 
#
# 1 0.011200 -0.004184 -0.002366 0.000000 0.004563 0.000000
# 2 -0.004184 0.014655 -0.005828 0.000000 -0.002563 0.000000
# 3 -0.002366 -0.005828 0.015783 0.000000 0.006701 0.000000
# 4 0.000000 0.000000 0.000000 0.021486 0.000000 0.022892
# 5 0.004563 -0.002563 0.006701 0.000000 0.040276 0.000000
# 6 0.000000 0.000000 0.000000 0.022892 0.000000 0.028280
#
#
# Mechanical properties :
#
#
# Convention : Reuss Voigt Hill
#
# Bulk Modulus (GPa) = 59.23751 67.58354 63.41053
# Shear Modulus (GPa) = 30.85224 136.81555 83.83390
#
# Velocity S-wave (km/s) = 3.99501 8.41284 6.58544
# Velocity P-wave (km/s) = 7.20585 11.37231 9.51981
#
# Compressibility (1/GPa) = 0.01688120
#
# Stress axis : x y z
#
# Youngs Moduli (GPa) = 89.28565 68.23667 63.36063
#
# Poissons Ratio (x) = 0.28547 0.14992
# Poissons Ratio (y) = 0.37353 0.36930
# Poissons Ratio (z) = 0.21127 0.39771
#
# Static dielectric constant tensor:
#      x y z
#    x 3.577960 0.000000 -0.207380 
#    y 0.000000 3.575430 0.000000 
#    z -0.207380 0.000000 3.216460 
# 
# 
# High freq. dielectric constant tensor:
#      x y z
#    x 1.751950 0.000000 -0.020110 
#    y 0.000000 1.751230 0.000000 
#    z -0.020110 0.000000 1.744080 
# 
# From -- ./inp_files/216349.got.cif
#   From: 2010.06.25/outbox.cif.g09.slc.cpg/sg12_109_cif.got.tgz:216349.got - 2010.06.28 00:19:55.
