data_PCOD8084538
_publ_section_title
;
Structure prediction by ZEFSAII (Michael W. Deem and Ramdas Pophale) SiO2 
 PCOD8084538
Probable space group: C 2/M
;
_chemical_formula_sum "Si O2"
_cell_formula_units_Z 48
_cell_length_a 13.467523
_cell_length_b 24.165281
_cell_length_c 9.309846
_cell_angle_alpha 90.000000
_cell_angle_beta 56.550647
_cell_angle_gamma 90.000000
_cell_volume 2528.031697
_symmetry_space_group_name_H-M "C 2/M"
_symmetry_group_IT_number 12
_symmetry_cell_setting 'monoclinic'
loop_
_space_group_symop_operation_xyz
x,y,z
-x,y,-z
-x,-y,-z
x,-y,z
1/2+x,1/2+y,z
1/2-x,1/2+y,-z
1/2-x,1/2-y,-z
1/2+x,1/2-y,z
loop_
_atom_site_type_symbol
_atom_site_label
_atom_site_fract_x
_atom_site_fract_y
_atom_site_fract_z
Si Si1 0.415591 0.720308 0.441362
Si Si2 0.788713 0.647342 0.307748
Si Si3 0.777520 0.315069 0.000340
Si Si4 0.476334 0.356912 0.853475
Si Si5 0.490634 0.158447 0.353547
Si Si6 0.097522 0.938954 0.541524
O O1 0.500000 0.693572 0.500000
O O2 0.280834 0.699531 0.567490
O O3 0.466591 0.700628 0.247234
O O4 0.419718 0.785592 0.447581
O O5 0.824200 0.668258 0.120940
O O6 0.706660 0.593312 0.380927
O O7 0.907775 0.629710 0.300162
O O8 0.664482 0.353844 0.059977
O O9 0.750000 0.250000 0.000000
O O10 0.877564 0.331678 0.807620
O O11 0.540539 0.407368 0.721842
O O12 0.500000 0.364817 0.000000
O O13 0.500000 0.125897 0.500000
O O14 0.000000 0.946314 0.500000
O O15 0.140445 0.000000 0.558215
#
# Coordination Sequence:
#
# PCOD8084538 Si02
#       6
#     8   8   8   8   8   8
#     4  10  18  37  52  79 117 158 200 232 277 348
#     4  11  21  38  59  83 116 155 202 245 287 353
#     4  12  22  36  54  84 127 162 197 229 281 356
#     4  11  22  34  58  90 120 148 190 240 297 345
#     4  11  24  34  52  83 120 166 197 229 287 349
#     4  10  21  43  69  87 110 145 196 261 305 340
#
# _framework density 18.987103999999999
#
# number of rings (size 3 to 8) (size 9 to 14) (size 15 to 20)
#    0.000    1.167    5.000    3.000    7.000    0.333 
#    0.000    0.000    0.000    3.500    0.000    0.000 
#    0.000    0.000    0.000    0.000    0.000    0.000 
#
# Total GULP energy -297499.579136 kJ/mol
# GULP energy per Si atom -12395.815797 kJ/mol
# Density = 1.894389 g / cm^3
# Si number density = 18.987104 Si / 1000 Ang^3
#
#
#
# Elastic Constant Matrix: (Units=GPa)
#
#
# Indices 1 2 3 4 5 6 
#
# 1 88.5020 6.8162 44.3569 0.0000 14.7629 0.0000
# 2 6.8162 69.4724 14.1188 0.0000 6.7631 0.0000
# 3 44.3569 14.1188 126.2057 0.0000 13.9069 0.0000
# 4 0.0000 0.0000 0.0000 18.2506 0.0000 -7.0275
# 5 14.7629 6.7631 13.9069 0.0000 42.1900 0.0000
# 6 0.0000 0.0000 0.0000 -7.0275 0.0000 36.0734
#
#
#
# Elastic Compliance Matrix: (Units=1/GPa)
#
#
# Indices 1 2 3 4 5 6 
#
# 1 0.014183 -0.000124 -0.004593 0.000000 -0.003429 0.000000
# 2 -0.000124 0.014876 -0.001414 0.000000 -0.001875 0.000000
# 3 -0.004593 -0.001414 0.009852 0.000000 -0.001414 0.000000
# 4 0.000000 0.000000 0.000000 0.059236 0.000000 0.011540
# 5 -0.003429 -0.001875 -0.001414 0.000000 0.025669 0.000000
# 6 0.000000 0.000000 0.000000 0.011540 0.000000 0.029969
#
#
# Mechanical properties :
#
#
# Convention : Reuss Voigt Hill
#
# Bulk Modulus (GPa) = 37.52571 46.08487 41.80529
# Shear Modulus (GPa) = 28.58279 33.89533 31.23906
#
# Velocity S-wave (km/s) = 3.88413 4.22972 4.06060
# Velocity P-wave (km/s) = 6.31838 6.94106 6.63703
#
# Compressibility (1/GPa) = 0.02664840
#
# Stress axis : x y z
#
# Youngs Moduli (GPa) = 70.50838 67.22100 101.50430
#
# Poissons Ratio (x) = 0.00835 0.46621
# Poissons Ratio (y) = 0.00876 0.14352
# Poissons Ratio (z) = 0.32384 0.09505
#
# Static dielectric constant tensor:
#      x y z
#    x 3.848710 0.000000 0.077710 
#    y 0.000000 3.348920 0.000000 
#    z 0.077710 0.000000 3.618470 
# 
# 
# High freq. dielectric constant tensor:
#      x y z
#    x 1.745920 0.000000 0.002170 
#    y 0.000000 1.689650 0.000000 
#    z 0.002170 0.000000 1.750310 
# 
# From -- ./inp_files/52422.got.cif
#   From: 2010.06.25/outbox.cif.g09.slc.cpg/sg12_27_cif.got.tgz:52422.got - 2010.06.28 00:19:55.
