data_PCOD8084106
_publ_section_title
;
Structure prediction by ZEFSAII (Michael W. Deem and Ramdas Pophale) SiO2 
 PCOD8084106
Probable space group: C 2/M
;
_chemical_formula_sum "Si O2"
_cell_formula_units_Z 64
_cell_length_a 24.097197
_cell_length_b 8.937839
_cell_length_c 28.851132
_cell_angle_alpha 90.000000
_cell_angle_beta 32.616383
_cell_angle_gamma 90.000000
_cell_volume 3349.346403
_symmetry_space_group_name_H-M "C 2/M"
_symmetry_group_IT_number 12
_symmetry_cell_setting 'monoclinic'
loop_
_space_group_symop_operation_xyz
x,y,z
-x,y,-z
-x,-y,-z
x,-y,z
1/2+x,1/2+y,z
1/2-x,1/2+y,-z
1/2-x,1/2-y,-z
1/2+x,1/2-y,z
loop_
_atom_site_type_symbol
_atom_site_label
_atom_site_fract_x
_atom_site_fract_y
_atom_site_fract_z
Si Si1 0.851139 0.825906 0.910510
Si Si2 0.446791 0.822574 0.752828
Si Si3 0.402016 0.825790 0.595176
Si Si4 0.721884 0.326070 0.650642
Si Si5 0.315874 0.824208 0.414246
Si Si6 0.959532 0.173101 0.161765
Si Si7 0.823157 0.322088 0.748813
Si Si8 0.589890 0.321274 0.903611
O O1 0.891546 0.751404 0.835342
O O2 0.925864 0.799918 0.901517
O O3 0.833869 0.000000 0.912459
O O4 0.750000 0.750000 0.000000
O O5 0.565393 0.769145 0.667120
O O6 0.388724 0.767914 0.747004
O O7 0.438590 0.000000 0.764187
O O8 0.500000 0.750991 0.500000
O O9 0.306364 0.795984 0.629683
O O10 0.376822 0.757523 0.663947
O O11 0.425133 0.000000 0.586009
O O12 0.717237 0.500000 0.639236
O O13 0.741583 0.226544 0.591923
O O14 0.615884 0.262108 0.746163
O O15 0.250000 0.750000 0.500000
O O16 0.310588 0.000000 0.423682
O O17 0.939289 0.246685 0.126113
O O18 0.930793 0.000000 0.176856
O O19 0.821647 0.500000 0.746693
O O20 0.704588 0.264846 0.836952
O O21 0.587185 0.500000 0.906075
O O22 0.500000 0.257582 0.000000
#
# Coordination Sequence:
#
# PCOD8084106 Si02
#       8
#     8   8   8   8   8   8   8   8
#     4  11  23  38  58  83 114 149 188 229 278 335
#     4  10  22  38  57  83 115 148 187 233 280 331
#     4   9  17  28  50  81 110 140 178 228 281 327
#     4  10  18  34  58  82 110 143 186 234 281 332
#     4  11  24  39  57  83 114 150 193 234 281 338
#     4   9  17  31  51  78 108 140 179 226 274 321
#     4   9  17  30  47  76 112 139 173 226 277 324
#     4   9  16  26  45  75 107 137 171 218 275 323
#
# _framework density 19.108205999999999
#
# number of rings (size 3 to 8) (size 9 to 14) (size 15 to 20)
#    0.000    2.250    2.500    0.750    3.500    0.500 
#    0.000    0.000    0.000    1.125    0.000    0.875 
#    0.000    0.000    0.000    0.000    0.000    0.000 
#
# Total GULP energy -396658.981843 kJ/mol
# GULP energy per Si atom -12395.593183 kJ/mol
# Density = 1.906472 g / cm^3
# Si number density = 19.108206 Si / 1000 Ang^3
#
#
#
# Elastic Constant Matrix: (Units=GPa)
#
#
# Indices 1 2 3 4 5 6 
#
# 1 114.5913 33.9809 54.5694 0.0156 19.9986 -0.0242
# 2 33.9809 32.7102 37.1791 0.0068 1.0303 0.0104
# 3 54.5694 37.1791 150.3031 -0.0122 10.9318 0.0357
# 4 0.0156 0.0068 -0.0122 21.6560 -0.0181 1.0420
# 5 19.9986 1.0303 10.9318 -0.0181 32.2035 0.0545
# 6 -0.0242 0.0104 0.0357 1.0420 0.0545 15.5227
#
#
#
# Elastic Compliance Matrix: (Units=1/GPa)
#
#
# Indices 1 2 3 4 5 6 
#
# 1 0.014889 -0.013562 -0.001446 -0.000017 -0.008322 0.000066
# 2 -0.013562 0.055044 -0.009409 -0.000001 0.009855 -0.000071
# 3 -0.001446 -0.009409 0.009657 0.000008 -0.002079 -0.000011
# 4 -0.000017 -0.000001 0.000008 0.046326 0.000039 -0.003110
# 5 -0.008322 0.009855 -0.002079 0.000039 0.036611 -0.000146
# 6 0.000066 -0.000071 -0.000011 -0.003110 -0.000146 0.064631
#
#
# Mechanical properties :
#
#
# Convention : Reuss Voigt Hill
#
# Bulk Modulus (GPa) = 32.51300 61.00705 46.76003
# Shear Modulus (GPa) = 17.46759 25.33479 21.40119
#
# Velocity S-wave (km/s) = 3.02676 3.64519 3.35027
# Velocity P-wave (km/s) = 5.40991 7.05074 6.28411
#
# Compressibility (1/GPa) = 0.03075692
#
# Stress axis : x y z
#
# Youngs Moduli (GPa) = 67.16266 18.16719 103.55560
#
# Poissons Ratio (x) = 0.24639 0.14971
# Poissons Ratio (y) = 0.91088 0.97431
# Poissons Ratio (z) = 0.09710 0.17093
#
# Static dielectric constant tensor:
#      x y z
#    x 3.693140 0.000090 0.041660 
#    y 0.000090 2.976460 0.000020 
#    z 0.041660 0.000020 3.786100 
# 
# 
# High freq. dielectric constant tensor:
#      x y z
#    x 1.758600 0.000000 0.002590 
#    y 0.000000 1.681560 0.000000 
#    z 0.002590 0.000000 1.761200 
# 
# From -- ./inp_files/382247.got.cif
#   From: 2010.06.25/outbox.cif.g09.slc.cpg/sg12_192_cif.got.tgz:382247.got - 2010.06.28 00:19:55.
