data_PCOD8084499
_publ_section_title
;
Structure prediction by ZEFSAII (Michael W. Deem and Ramdas Pophale) SiO2 
 PCOD8084499
Probable space group: C 2/M
;
_chemical_formula_sum "Si O2"
_cell_formula_units_Z 60
_cell_length_a 23.705548
_cell_length_b 19.069756
_cell_length_c 11.649331
_cell_angle_alpha 90.000000
_cell_angle_beta 142.859696
_cell_angle_gamma 90.000000
_cell_volume 3179.558733
_symmetry_space_group_name_H-M "C 2/M"
_symmetry_group_IT_number 12
_symmetry_cell_setting 'monoclinic'
loop_
_space_group_symop_operation_xyz
x,y,z
-x,y,-z
-x,-y,-z
x,-y,z
1/2+x,1/2+y,z
1/2-x,1/2+y,-z
1/2-x,1/2-y,-z
1/2+x,1/2-y,z
loop_
_atom_site_type_symbol
_atom_site_label
_atom_site_fract_x
_atom_site_fract_y
_atom_site_fract_z
Si Si1 0.542261 0.830015 0.795259
Si Si2 0.939123 0.822406 0.081102
Si Si3 0.764344 0.419736 0.625486
Si Si4 0.227390 0.580606 0.100880
Si Si5 0.633285 0.681492 0.279993
Si Si6 0.083094 0.331885 0.211153
Si Si7 0.500000 0.231583 0.500000
Si Si8 0.088795 0.864274 0.712112
O O1 0.574634 0.757761 0.904827
O O2 0.462146 0.863609 0.746077
O O3 0.486137 0.818130 0.586195
O O4 0.633185 0.877126 0.921366
O O5 0.921607 0.870329 0.166023
O O6 0.041574 0.840879 0.201496
O O7 0.869316 0.835450 0.860960
O O8 0.748725 0.500000 0.563716
O O9 0.735924 0.406722 0.710558
O O10 0.713604 0.368037 0.456732
O O11 0.872397 0.397229 0.784848
O O12 0.201655 0.500000 0.039029
O O13 0.312120 0.601617 0.155708
O O14 0.652042 0.764432 0.338452
O O15 0.000000 0.298556 0.000000
O O16 0.589482 0.282574 0.670461
O O17 0.000000 0.900757 0.500000
#
# Coordination Sequence:
#
# PCOD8084499 Si02
#       8
#     8   8   8   8   8   8   4   8
#     4  10  19  38  57  86 111 142 187 231 285 322
#     4   9  17  34  61  85 113 140 176 239 286 327
#     4  11  24  37  54  85 118 151 185 228 281 336
#     4  11  23  37  56  79 114 154 187 223 271 334
#     4  10  18  36  60  87 113 141 189 230 286 329
#     4  11  19  36  62  85 110 144 188 239 277 331
#     4   8  20  36  60  84 108 138 178 240 286 320
#     4   9  19  36  56  85 109 141 185 226 277 327
#
# _framework density 18.870543999999999
#
# number of rings (size 3 to 8) (size 9 to 14) (size 15 to 20)
#    0.400    1.600    4.000    1.200    1.867    3.200 
#    2.400    3.000    0.000    0.000    0.000    0.000 
#    0.000    0.000    0.000    0.000    0.000    0.000 
#
# Total GULP energy -371704.513913 kJ/mol
# GULP energy per Si atom -12390.150464 kJ/mol
# Density = 1.882759 g / cm^3
# Si number density = 18.870544 Si / 1000 Ang^3
#
#
#
# Elastic Constant Matrix: (Units=GPa)
#
#
# Indices 1 2 3 4 5 6 
#
# 1 125.7133 35.0688 43.3133 0.0000 -18.9487 0.0000
# 2 35.0688 61.7612 36.8339 0.0000 -4.0453 0.0000
# 3 43.3133 36.8339 66.7127 0.0000 -19.4021 0.0000
# 4 0.0000 0.0000 0.0000 13.4663 0.0000 -0.3475
# 5 -18.9487 -4.0453 -19.4021 0.0000 32.0650 0.0000
# 6 0.0000 0.0000 0.0000 -0.3475 0.0000 12.0339
#
#
#
# Elastic Compliance Matrix: (Units=1/GPa)
#
#
# Indices 1 2 3 4 5 6 
#
# 1 0.010873 -0.003490 -0.004116 0.000000 0.003495 0.000000
# 2 -0.003490 0.026283 -0.014418 0.000000 -0.007471 0.000000
# 3 -0.004116 -0.014418 0.029594 0.000000 0.013656 0.000000
# 4 0.000000 0.000000 0.000000 0.074315 0.000000 0.002146
# 5 0.003495 -0.007471 0.013656 0.000000 0.040572 0.000000
# 6 0.000000 0.000000 0.000000 0.002146 0.000000 0.083160
#
#
# Mechanical properties :
#
#
# Convention : Reuss Voigt Hill
#
# Bulk Modulus (GPa) = 44.05061 53.84658 48.94860
# Shear Modulus (GPa) = 15.80210 20.77778 18.28994
#
# Velocity S-wave (km/s) = 2.89692 3.32184 3.11663
# Velocity P-wave (km/s) = 5.88080 6.58099 6.24072
#
# Compressibility (1/GPa) = 0.02270116
#
# Stress axis : x y z
#
# Youngs Moduli (GPa) = 91.97007 38.04774 33.79042
#
# Poissons Ratio (x) = 0.13280 0.13908
# Poissons Ratio (y) = 0.32100 0.48720
# Poissons Ratio (z) = 0.37855 0.54858
#
# Static dielectric constant tensor:
#      x y z
#    x 3.752770 0.000000 -0.282860 
#    y 0.000000 3.170560 0.000000 
#    z -0.282860 0.000000 3.369840 
# 
# 
# High freq. dielectric constant tensor:
#      x y z
#    x 1.741770 0.000000 -0.011570 
#    y 0.000000 1.702610 0.000000 
#    z -0.011570 0.000000 1.721470 
# 
# From -- ./inp_files/177372.got.cif
#   From: 2010.06.25/outbox.cif.g09.slc.cpg/sg12_89_cif.got.tgz:177372.got - 2010.06.28 00:19:55.
