data_PCOD8084484
_publ_section_title
;
Structure prediction by ZEFSAII (Michael W. Deem and Ramdas Pophale) SiO2 
 PCOD8084484
Probable space group: C 2/M
;
_chemical_formula_sum "Si O2"
_cell_formula_units_Z 56
_cell_length_a 17.939111
_cell_length_b 17.614302
_cell_length_c 9.049615
_cell_angle_alpha 90.000000
_cell_angle_beta 108.042380
_cell_angle_gamma 90.000000
_cell_volume 2718.931569
_symmetry_space_group_name_H-M "C 2/M"
_symmetry_group_IT_number 12
_symmetry_cell_setting 'monoclinic'
loop_
_space_group_symop_operation_xyz
x,y,z
-x,y,-z
-x,-y,-z
x,-y,z
1/2+x,1/2+y,z
1/2-x,1/2+y,-z
1/2-x,1/2-y,-z
1/2+x,1/2-y,z
loop_
_atom_site_type_symbol
_atom_site_label
_atom_site_fract_x
_atom_site_fract_y
_atom_site_fract_z
Si Si1 0.576698 0.131853 0.645552
Si Si2 0.685399 0.189318 0.216495
Si Si3 0.786988 0.586848 0.483824
Si Si4 0.862384 0.207107 0.316096
Si Si5 0.920829 0.414695 0.029691
Si Si6 0.978475 0.915146 0.315593
Si Si7 0.370274 0.667559 0.659132
O O1 0.500000 0.122635 0.500000
O O2 0.650939 0.097968 0.607207
O O3 0.590206 0.218636 0.703070
O O4 0.565091 0.084445 0.786860
O O5 0.688696 0.136508 0.361754
O O6 0.771827 0.212633 0.215052
O O7 0.636411 0.265030 0.225406
O O8 0.646520 0.144154 0.058117
O O9 0.783141 0.500000 0.532614
O O10 0.702456 0.610496 0.368797
O O11 0.900083 0.135369 0.253692
O O12 0.870042 0.203879 0.497010
O O13 0.898012 0.500000 0.965576
O O14 0.000000 0.387812 0.000000
O O15 0.000000 0.918518 0.500000
O O16 0.049323 0.878545 0.264626
O O17 0.961293 0.000000 0.245060
#
# Coordination Sequence:
#
# PCOD8084484 Si02
#       7
#     8   8   8   8   8   8   8
#     4  12  23  40  65  91 121 163 210 260 314 371
#     4  11  21  40  62  89 126 168 205 254 314 375
#     4  11  21  35  61  92 123 164 210 258 312 366
#     4  10  20  35  61  93 123 157 212 256 300 369
#     4  11  27  44  60  90 128 163 206 258 317 380
#     4   9  18  30  53  89 125 160 203 258 312 359
#     4  10  18  36  58  89 128 163 206 260 304 372
#
# _framework density 20.596323999999999
#
# number of rings (size 3 to 8) (size 9 to 14) (size 15 to 20)
#    0.000    1.429    2.857    4.286    2.000    6.857 
#    0.000    0.000    0.000    0.000    0.000    1.000 
#    0.000    0.000    0.000    0.000    0.000    0.000 
#
# Total GULP energy -347301.811101 kJ/mol
# GULP energy per Si atom -12403.636111 kJ/mol
# Density = 2.054945 g / cm^3
# Si number density = 20.596324 Si / 1000 Ang^3
#
#
#
# Elastic Constant Matrix: (Units=GPa)
#
#
# Indices 1 2 3 4 5 6 
#
# 1 129.9397 39.4056 29.3747 0.0000 -3.5984 0.0000
# 2 39.4056 124.8671 10.8862 0.0000 3.3380 0.0000
# 3 29.3747 10.8862 63.2786 0.0000 1.1748 0.0000
# 4 0.0000 0.0000 0.0000 15.8004 0.0000 6.1121
# 5 -3.5984 3.3380 1.1748 0.0000 17.4422 0.0000
# 6 0.0000 0.0000 0.0000 6.1121 0.0000 28.8416
#
#
#
# Elastic Compliance Matrix: (Units=1/GPa)
#
#
# Indices 1 2 3 4 5 6 
#
# 1 0.009501 -0.002724 -0.003993 0.000000 0.002750 0.000000
# 2 -0.002724 0.008949 -0.000233 0.000000 -0.002259 0.000000
# 3 -0.003993 -0.000233 0.017733 0.000000 -0.001974 0.000000
# 4 0.000000 0.000000 0.000000 0.068941 0.000000 -0.014610
# 5 0.002750 -0.002259 -0.001974 0.000000 0.058465 0.000000
# 6 0.000000 0.000000 0.000000 -0.014610 0.000000 0.037768
#
#
# Mechanical properties :
#
#
# Convention : Reuss Voigt Hill
#
# Bulk Modulus (GPa) = 44.87635 53.04649 48.96142
# Shear Modulus (GPa) = 22.45330 28.31143 25.38237
#
# Velocity S-wave (km/s) = 3.30534 3.71156 3.51433
# Velocity P-wave (km/s) = 6.03348 6.64672 6.34751
#
# Compressibility (1/GPa) = 0.02228345
#
# Stress axis : x y z
#
# Youngs Moduli (GPa) = 105.25607 111.74746 56.39074
#
# Poissons Ratio (x) = 0.30436 0.22516
# Poissons Ratio (y) = 0.28668 0.01315
# Poissons Ratio (z) = 0.42027 0.02606
#
# Static dielectric constant tensor:
#      x y z
#    x 3.962440 0.000000 0.026840 
#    y 0.000000 3.944240 0.000000 
#    z 0.026840 0.000000 3.247610 
# 
# 
# High freq. dielectric constant tensor:
#      x y z
#    x 1.820610 0.000000 -0.001750 
#    y 0.000000 1.820580 0.000000 
#    z -0.001750 0.000000 1.757200 
# 
# From -- ./inp_files/76025.got.cif
#   From: 2010.06.25/outbox.cif.g09.slc.cpg/sg12_39_cif.got.tgz:76025.got - 2010.06.28 00:19:55.
