data_PCOD8084758
_publ_section_title
;
Structure prediction by ZEFSAII (Michael W. Deem and Ramdas Pophale) SiO2 
 PCOD8084758
Probable space group: C 2/M
;
_chemical_formula_sum "Si O2"
_cell_formula_units_Z 56
_cell_length_a 28.022391
_cell_length_b 9.379765
_cell_length_c 19.516220
_cell_angle_alpha 90.000000
_cell_angle_beta 50.424275
_cell_angle_gamma 90.000000
_cell_volume 3953.894820
_symmetry_space_group_name_H-M "C 2/M"
_symmetry_group_IT_number 12
_symmetry_cell_setting 'monoclinic'
loop_
_space_group_symop_operation_xyz
x,y,z
-x,y,-z
-x,-y,-z
x,-y,z
1/2+x,1/2+y,z
1/2-x,1/2+y,-z
1/2-x,1/2-y,-z
1/2+x,1/2-y,z
loop_
_atom_site_type_symbol
_atom_site_label
_atom_site_fract_x
_atom_site_fract_y
_atom_site_fract_z
Si Si1 0.517422 0.161748 0.910303
Si Si2 0.759512 0.833838 0.560921
Si Si3 0.978871 0.165679 0.219237
Si Si4 0.619401 0.665996 0.470804
Si Si5 0.009936 0.837133 0.341386
Si Si6 0.065762 0.661218 0.403104
Si Si7 0.372681 0.159488 0.275906
O O1 0.487037 0.254857 0.876064
O O2 0.592563 0.165832 0.830355
O O3 0.491830 0.000000 0.929119
O O4 0.500000 0.228322 0.000000
O O5 0.750000 0.750000 0.500000
O O6 0.819872 0.778005 0.545286
O O7 0.699682 0.802466 0.663856
O O8 0.766811 0.000000 0.536799
O O9 0.017193 0.191205 0.253698
O O10 0.909397 0.231232 0.292451
O O11 0.972369 0.000000 0.208171
O O12 0.625212 0.500000 0.446519
O O13 0.560461 0.696301 0.572562
O O14 0.615057 0.753888 0.404104
O O15 0.058782 0.736727 0.335675
O O16 0.025997 0.000000 0.345295
O O17 0.089019 0.500000 0.370969
O O18 0.000000 0.666157 0.500000
O O19 0.379798 0.000000 0.300361
#
# Coordination Sequence:
#
# PCOD8084758 Si02
#       7
#     8   8   8   8   8   8   8
#     4   8  15  28  43  58  81 110 135 163 203 247
#     4  10  19  29  41  57  80 110 143 173 199 233
#     4   9  16  25  40  61  82 103 132 166 200 238
#     4   9  17  28  40  53  74 106 139 167 200 237
#     4   9  16  26  39  55  77 104 132 164 203 243
#     4   9  17  27  39  55  73  97 132 172 206 236
#     4   8  16  28  39  55  80 109 138 165 196 236
#
# _framework density 14.16325
#
# number of rings (size 3 to 8) (size 9 to 14) (size 15 to 20)
#    0.857    2.286    0.000    1.286    0.000    5.429 
#    0.000    2.857    0.000    0.000    0.000    0.000 
#    0.000    1.143    0.000    2.286    0.000    3.000 
#
# Total GULP energy -346887.043761 kJ/mol
# GULP energy per Si atom -12388.822991 kJ/mol
# Density = 1.413101 g / cm^3
# Si number density = 14.163250 Si / 1000 Ang^3
#
#
#
# Elastic Constant Matrix: (Units=GPa)
#
#
# Indices 1 2 3 4 5 6 
#
# 1 100.7381 52.1520 36.7861 -0.0015 18.3534 0.0008
# 2 52.1520 75.8849 31.9616 0.0032 17.5657 0.0004
# 3 36.7861 31.9616 64.5561 -0.0007 16.1325 -0.0003
# 4 -0.0015 0.0032 -0.0007 16.6240 -0.0003 6.1925
# 5 18.3534 17.5657 16.1325 -0.0003 19.8134 0.0006
# 6 0.0008 0.0004 -0.0003 6.1925 0.0006 22.9806
#
#
#
# Elastic Compliance Matrix: (Units=1/GPa)
#
#
# Indices 1 2 3 4 5 6 
#
# 1 0.016775 -0.008776 -0.004112 0.000003 -0.004411 -0.000001
# 2 -0.008776 0.023025 -0.004180 -0.000006 -0.008881 0.000002
# 3 -0.004112 -0.004180 0.022629 0.000001 -0.010911 0.000000
# 4 0.000003 -0.000006 0.000001 0.066866 0.000003 -0.018018
# 5 -0.004411 -0.008881 -0.010911 0.000003 0.071314 -0.000002
# 6 -0.000001 0.000002 0.000000 -0.018018 -0.000002 0.048370
#
#
# Mechanical properties :
#
#
# Convention : Reuss Voigt Hill
#
# Bulk Modulus (GPa) = 35.34193 53.66428 44.50311
# Shear Modulus (GPa) = 17.09132 19.90223 18.49678
#
# Velocity S-wave (km/s) = 3.47758 3.75267 3.61774
# Velocity P-wave (km/s) = 6.41344 7.53318 6.99575
#
# Compressibility (1/GPa) = 0.02829500
#
# Stress axis : x y z
#
# Youngs Moduli (GPa) = 59.61225 43.43068 44.19019
#
# Poissons Ratio (x) = 0.38114 0.18170
# Poissons Ratio (y) = 0.52315 0.18470
# Poissons Ratio (z) = 0.24511 0.18153
#
# Static dielectric constant tensor:
#      x y z
#    x 2.682180 0.000000 0.075720 
#    y 0.000000 2.851840 0.000000 
#    z 0.075720 0.000000 2.575640 
# 
# 
# High freq. dielectric constant tensor:
#      x y z
#    x 1.519290 0.000000 0.016930 
#    y 0.000000 1.548920 0.000000 
#    z 0.016930 0.000000 1.503780 
# 
# From -- ./inp_files/323348.got.cif
#   From: 2010.06.25/outbox.cif.g09.slc.cpg/sg12_162_cif.got.tgz:323348.got - 2010.06.28 00:19:55.
