data_PCOD8084464
_publ_section_title
;
Structure prediction by ZEFSAII (Michael W. Deem and Ramdas Pophale) SiO2 
 PCOD8084464
Probable space group: C 2/M
;
_chemical_formula_sum "Si O2"
_cell_formula_units_Z 56
_cell_length_a 16.481696
_cell_length_b 16.519989
_cell_length_c 21.293174
_cell_angle_alpha 90.000000
_cell_angle_beta 148.261311
_cell_angle_gamma 90.000000
_cell_volume 3049.831273
_symmetry_space_group_name_H-M "C 2/M"
_symmetry_group_IT_number 12
_symmetry_cell_setting 'monoclinic'
loop_
_space_group_symop_operation_xyz
x,y,z
-x,y,-z
-x,-y,-z
x,-y,z
1/2+x,1/2+y,z
1/2-x,1/2+y,-z
1/2-x,1/2-y,-z
1/2+x,1/2-y,z
loop_
_atom_site_type_symbol
_atom_site_label
_atom_site_fract_x
_atom_site_fract_y
_atom_site_fract_z
Si Si1 0.861137 0.908705 0.029510
Si Si2 0.364451 0.733895 0.452751
Si Si3 0.425515 0.316505 0.302264
Si Si4 0.077559 0.660638 0.904274
Si Si5 0.749015 0.906032 0.289181
Si Si6 0.957010 0.809152 0.754525
Si Si7 0.344447 0.731369 0.931499
O O1 0.696623 0.905162 0.956400
O O2 0.850471 0.861903 0.956386
O O3 0.904308 0.000000 0.042352
O O4 0.998709 0.871502 0.161802
O O5 0.500000 0.773337 0.500000
O O6 0.427462 0.717851 0.563947
O O7 0.316531 0.648166 0.389928
O O8 0.227443 0.798523 0.366385
O O9 0.340954 0.388495 0.284857
O O10 0.487189 0.345646 0.275246
O O11 0.299112 0.245309 0.209586
O O12 0.931432 0.615052 0.838219
O O13 0.030456 0.720717 0.816364
O O14 0.171768 0.711645 0.018007
O O15 0.769724 0.000000 0.320302
O O16 0.500000 0.756950 0.000000
#
# Coordination Sequence:
#
# PCOD8084464 Si02
#       7
#     8   8   8   8   8   8   8
#     4  11  22  35  56  82 113 144 176 227 280 319
#     4   9  21  35  57  81 103 145 189 223 266 314
#     4  11  19  34  56  82 107 148 181 218 262 317
#     4  10  18  36  57  81 111 147 175 217 269 326
#     4  10  21  35  54  84 118 143 172 219 277 328
#     4  10  19  36  57  79 108 143 188 224 260 320
#     4  11  20  36  58  81 109 140 187 226 260 325
#
# _framework density 18.361671000000001
#
# number of rings (size 3 to 8) (size 9 to 14) (size 15 to 20)
#    0.000    1.714    4.286    1.714    2.000    3.429 
#    0.000    0.714    0.000    1.286    0.000    0.000 
#    0.000    0.000    0.000    0.000    0.000    0.000 
#
# Total GULP energy -347199.777766 kJ/mol
# GULP energy per Si atom -12399.992063 kJ/mol
# Density = 1.831988 g / cm^3
# Si number density = 18.361671 Si / 1000 Ang^3
#
#
#
# Elastic Constant Matrix: (Units=GPa)
#
#
# Indices 1 2 3 4 5 6 
#
# 1 63.9293 16.7115 25.8208 -0.0003 3.9549 -0.0016
# 2 16.7115 79.7667 39.9076 0.0181 -2.2416 0.0045
# 3 25.8208 39.9076 112.2201 0.0068 9.8710 0.0007
# 4 -0.0003 0.0181 0.0068 13.5035 0.0081 0.4311
# 5 3.9549 -2.2416 9.8710 0.0081 32.5418 0.0009
# 6 -0.0016 0.0045 0.0007 0.4311 0.0009 23.0377
#
#
#
# Elastic Compliance Matrix: (Units=1/GPa)
#
#
# Indices 1 2 3 4 5 6 
#
# 1 0.017560 -0.002132 -0.003166 0.000006 -0.001321 0.000002
# 2 -0.002132 0.015755 -0.005374 -0.000020 0.002975 -0.000003
# 3 -0.003166 -0.005374 0.011866 0.000003 -0.003585 0.000001
# 4 0.000006 -0.000020 0.000003 0.074099 -0.000022 -0.001387
# 5 -0.001321 0.002975 -0.003585 -0.000022 0.032183 -0.000001
# 6 0.000002 -0.000003 0.000001 -0.001387 -0.000001 0.043433
#
#
# Mechanical properties :
#
#
# Convention : Reuss Voigt Hill
#
# Bulk Modulus (GPa) = 41.95113 46.75511 44.35312
# Shear Modulus (GPa) = 22.30286 25.38167 23.84226
#
# Velocity S-wave (km/s) = 3.48895 3.72199 3.60735
# Velocity P-wave (km/s) = 6.25517 6.63247 6.44658
#
# Compressibility (1/GPa) = 0.02383726
#
# Stress axis : x y z
#
# Youngs Moduli (GPa) = 56.94745 63.46998 84.27463
#
# Poissons Ratio (x) = 0.13532 0.26682
# Poissons Ratio (y) = 0.12141 0.45289
# Poissons Ratio (z) = 0.18030 0.34109
#
# Static dielectric constant tensor:
#      x y z
#    x 3.462540 0.000000 0.113000 
#    y 0.000000 3.001320 0.000000 
#    z 0.113000 0.000000 3.557990 
# 
# 
# High freq. dielectric constant tensor:
#      x y z
#    x 1.720420 0.000000 0.009610 
#    y 0.000000 1.668860 0.000000 
#    z 0.009610 0.000000 1.722530 
# 
# From -- ./inp_files/183560.got.cif
#   From: 2010.06.25/outbox.cif.g09.slc.cpg/sg12_92_cif.got.tgz:183560.got - 2010.06.28 00:19:55.
