data_PCOD8084220
_publ_section_title
;
Structure prediction by ZEFSAII (Michael W. Deem and Ramdas Pophale) SiO2 
 PCOD8084220
Probable space group: C 2/M
;
_chemical_formula_sum "Si O2"
_cell_formula_units_Z 64
_cell_length_a 17.776182
_cell_length_b 13.037728
_cell_length_c 13.301249
_cell_angle_alpha 90.000000
_cell_angle_beta 84.589836
_cell_angle_gamma 90.000000
_cell_volume 3068.978419
_symmetry_space_group_name_H-M "C 2/M"
_symmetry_group_IT_number 12
_symmetry_cell_setting 'monoclinic'
loop_
_space_group_symop_operation_xyz
x,y,z
-x,y,-z
-x,-y,-z
x,-y,z
1/2+x,1/2+y,z
1/2-x,1/2+y,-z
1/2-x,1/2-y,-z
1/2+x,1/2-y,z
loop_
_atom_site_type_symbol
_atom_site_label
_atom_site_fract_x
_atom_site_fract_y
_atom_site_fract_z
Si Si1 0.778135 0.384246 0.314236
Si Si2 0.351282 0.885882 0.087873
Si Si3 0.529725 0.617980 0.703696
Si Si4 0.808870 0.882630 0.952541
Si Si5 0.934673 0.381922 0.634793
Si Si6 0.869861 0.795906 0.746917
Si Si7 0.089429 0.698559 0.580053
Si Si8 0.430452 0.315556 0.077758
O O1 0.759936 0.500000 0.348421
O O2 0.822859 0.380180 0.204940
O O3 0.700034 0.323011 0.315915
O O4 0.827853 0.332007 0.393868
O O5 0.279965 0.853428 0.025386
O O6 0.419966 0.806945 0.065865
O O7 0.380599 0.000000 0.057367
O O8 0.550942 0.500000 0.683517
O O9 0.440094 0.633101 0.706050
O O10 0.572412 0.683680 0.612664
O O11 0.557082 0.654261 0.809606
O O12 0.850903 0.811638 0.865989
O O13 0.812196 0.000000 0.912673
O O14 0.852837 0.870800 0.052123
O O15 0.909010 0.500000 0.632005
O O16 0.891929 0.324485 0.731316
O O17 0.912668 0.316855 0.538931
O O18 0.025348 0.374972 0.638656
O O19 0.500000 0.352777 0.000000
#
# Coordination Sequence:
#
# PCOD8084220 Si02
#       8
#     8   8   8   8   8   8   8   8
#     4  10  18  34  61  84 110 153 191 228 278 337
#     4   9  20  37  55  80 114 152 192 234 280 333
#     4  11  22  38  56  83 119 150 189 239 287 333
#     4  10  20  37  59  80 111 156 195 231 278 334
#     4  10  21  39  62  88 115 147 186 234 288 343
#     4  10  21  36  56  85 116 148 190 238 277 336
#     4  10  20  38  61  86 111 147 194 231 278 345
#     4  12  22  34  57  87 114 150 191 237 282 338
#
# _framework density 20.853846000000001
#
# number of rings (size 3 to 8) (size 9 to 14) (size 15 to 20)
#    0.000    1.750    2.500    4.125    0.000    1.250 
#    0.000    7.500    0.000    0.000    0.000    0.000 
#    0.000    0.000    0.000    0.000    0.000    0.000 
#
# Total GULP energy -396815.810085 kJ/mol
# GULP energy per Si atom -12400.494065 kJ/mol
# Density = 2.080638 g / cm^3
# Si number density = 20.853846 Si / 1000 Ang^3
#
#
#
# Elastic Constant Matrix: (Units=GPa)
#
#
# Indices 1 2 3 4 5 6 
#
# 1 83.8444 27.7164 24.9734 0.0000 26.7640 0.0000
# 2 27.7164 125.3788 32.6840 0.0000 4.6591 0.0000
# 3 24.9734 32.6840 56.1345 0.0000 15.3191 0.0000
# 4 0.0000 0.0000 0.0000 21.2689 0.0000 0.9445
# 5 26.7640 4.6591 15.3191 0.0000 30.8389 0.0000
# 6 0.0000 0.0000 0.0000 0.9445 0.0000 26.1196
#
#
#
# Elastic Compliance Matrix: (Units=1/GPa)
#
#
# Indices 1 2 3 4 5 6 
#
# 1 0.018092 -0.002802 -0.002601 0.000000 -0.013986 0.000000
# 2 -0.002802 0.009898 -0.005520 0.000000 0.003678 0.000000
# 3 -0.002601 -0.005520 0.024689 0.000000 -0.009173 0.000000
# 4 0.000000 0.000000 0.000000 0.047093 0.000000 -0.001703
# 5 -0.013986 0.003678 -0.009173 0.000000 0.048566 0.000000
# 6 0.000000 0.000000 0.000000 -0.001703 0.000000 0.038347
#
#
# Mechanical properties :
#
#
# Convention : Reuss Voigt Hill
#
# Bulk Modulus (GPa) = 32.43252 48.45612 40.44432
# Shear Modulus (GPa) = 22.85117 27.64441 25.24779
#
# Velocity S-wave (km/s) = 3.31384 3.64486 3.48329
# Velocity P-wave (km/s) = 5.49801 6.40312 5.96775
#
# Compressibility (1/GPa) = 0.03083325
#
# Stress axis : x y z
#
# Youngs Moduli (GPa) = 55.27205 101.03552 40.50425
#
# Poissons Ratio (x) = 0.28308 0.10534
# Poissons Ratio (y) = 0.15486 0.22359
# Poissons Ratio (z) = 0.14375 0.55773
#
# Static dielectric constant tensor:
#      x y z
#    x 3.852250 0.000000 0.285470 
#    y 0.000000 3.829020 0.000000 
#    z 0.285470 0.000000 3.500640 
# 
# 
# High freq. dielectric constant tensor:
#      x y z
#    x 1.816570 0.000000 0.025670 
#    y 0.000000 1.817070 0.000000 
#    z 0.025670 0.000000 1.794570 
# 
# From -- ./inp_files/223855.got.cif
#   From: 2010.06.25/outbox.cif.g09.slc.cpg/sg12_112_cif.got.tgz:223855.got - 2010.06.28 00:19:55.
