data_PCOD8084461
_publ_section_title
;
Structure prediction by ZEFSAII (Michael W. Deem and Ramdas Pophale) SiO2 
 PCOD8084461
Probable space group: C 2/M
;
_chemical_formula_sum "Si O2"
_cell_formula_units_Z 40
_cell_length_a 17.349354
_cell_length_b 13.993025
_cell_length_c 22.446660
_cell_angle_alpha 90.000000
_cell_angle_beta 21.077506
_cell_angle_gamma 90.000000
_cell_volume 1959.761283
_symmetry_space_group_name_H-M "C 2/M"
_symmetry_group_IT_number 12
_symmetry_cell_setting 'monoclinic'
loop_
_space_group_symop_operation_xyz
x,y,z
-x,y,-z
-x,-y,-z
x,-y,z
1/2+x,1/2+y,z
1/2-x,1/2+y,-z
1/2-x,1/2-y,-z
1/2+x,1/2-y,z
loop_
_atom_site_type_symbol
_atom_site_label
_atom_site_fract_x
_atom_site_fract_y
_atom_site_fract_z
Si Si1 0.416896 0.743547 0.124502
Si Si2 0.743428 0.604243 0.103881
Si Si3 0.987510 0.769843 0.379578
Si Si4 0.807073 0.148947 0.985355
Si Si5 0.602222 0.109464 0.643107
O O1 0.159873 0.757811 0.308379
O O2 0.500000 0.709154 0.000000
O O3 0.523060 0.845536 0.064918
O O4 0.481792 0.661268 0.125285
O O5 0.762957 0.500000 0.120332
O O6 0.583054 0.672248 0.254726
O O7 0.654332 0.585082 0.100930
O O8 0.783870 0.831442 0.549448
O O9 0.923572 0.664723 0.401437
O O10 0.616400 0.106575 0.162424
O O11 0.750000 0.250000 0.000000
O O12 0.674996 0.000000 0.578262
#
# Coordination Sequence:
#
# PCOD8084461 Si02
#       5
#     8   8   8   8   8
#     4   9  17  34  56  79 114 145 185 230 282 320
#     4  10  19  33  58  83 110 147 187 228 279 335
#     4  10  21  37  56  83 115 145 186 238 281 324
#     4  10  18  36  56  79 114 149 182 227 278 332
#     4  11  21  35  58  83 113 151 188 227 282 342
#
# _framework density 20.410648999999999
#
# number of rings (size 3 to 8) (size 9 to 14) (size 15 to 20)
#    0.000    2.000    6.000    1.200    0.000    4.400 
#    0.000    7.000    0.000    6.000    0.000    4.200 
#    0.000    0.000    0.000    0.000    0.000    0.000 
#
# Total GULP energy -247807.075271 kJ/mol
# GULP energy per Si atom -12390.353764 kJ/mol
# Density = 2.036419 g / cm^3
# Si number density = 20.410649 Si / 1000 Ang^3
#
#
#
# Elastic Constant Matrix: (Units=GPa)
#
#
# Indices 1 2 3 4 5 6 
#
# 1 106.8677 12.2664 34.0196 -0.0551 -30.6221 0.0260
# 2 12.2664 94.2460 20.2655 -0.1018 -8.1531 0.0339
# 3 34.0196 20.2655 75.5290 -0.1354 -32.4077 0.0125
# 4 -0.0551 -0.1018 -0.1354 18.0702 0.0273 -0.7998
# 5 -30.6221 -8.1531 -32.4077 0.0273 38.0224 -0.0038
# 6 0.0260 0.0339 0.0125 -0.7998 -0.0038 12.2364
#
#
#
# Elastic Compliance Matrix: (Units=1/GPa)
#
#
# Indices 1 2 3 4 5 6 
#
# 1 0.012383 -0.000488 -0.001911 0.000007 0.008239 -0.000020
# 2 -0.000488 0.011281 -0.003055 0.000039 -0.000578 -0.000025
# 3 -0.001911 -0.003055 0.022039 0.000117 0.016590 0.000003
# 4 0.000007 0.000039 0.000117 0.055501 0.000075 0.003627
# 5 0.008239 -0.000578 0.016590 0.000075 0.046952 -0.000014
# 6 -0.000020 -0.000025 0.000003 0.003627 -0.000014 0.081960
#
#
# Mechanical properties :
#
#
# Convention : Reuss Voigt Hill
#
# Bulk Modulus (GPa) = 28.74018 45.52731 37.13374
# Shear Modulus (GPa) = 19.79233 27.67187 23.73210
#
# Velocity S-wave (km/s) = 3.11739 3.68605 3.41358
# Velocity P-wave (km/s) = 5.20279 6.36161 5.81116
#
# Compressibility (1/GPa) = 0.03479449
#
# Stress axis : x y z
#
# Youngs Moduli (GPa) = 80.75856 88.64467 45.37367
#
# Poissons Ratio (x) = 0.04325 0.08672
# Poissons Ratio (y) = 0.03940 0.13861
# Poissons Ratio (z) = 0.15435 0.27080
#
# Static dielectric constant tensor:
#      x y z
#    x 4.660420 -0.000700 -0.186820 
#    y -0.000700 3.707180 -0.000050 
#    z -0.186820 -0.000050 3.726940 
# 
# 
# High freq. dielectric constant tensor:
#      x y z
#    x 1.785660 0.000000 -0.016560 
#    y 0.000000 1.791070 0.000010 
#    z -0.016560 0.000010 1.776680 
# 
# From -- ./inp_files/85511.got.cif
#   From: 2010.06.25/outbox.cif.g09.slc.cpg/sg12_43_cif.got.tgz:85511.got - 2010.06.28 00:19:55.
