data_PCOD8084381
_publ_section_title
;
Structure prediction by ZEFSAII (Michael W. Deem and Ramdas Pophale) SiO2 
 PCOD8084381
Probable space group: C 2/M
;
_chemical_formula_sum "Si O2"
_cell_formula_units_Z 48
_cell_length_a 10.149400
_cell_length_b 22.239858
_cell_length_c 14.384954
_cell_angle_alpha 90.000000
_cell_angle_beta 46.354471
_cell_angle_gamma 90.000000
_cell_volume 2349.598210
_symmetry_space_group_name_H-M "C 2/M"
_symmetry_group_IT_number 12
_symmetry_cell_setting 'monoclinic'
loop_
_space_group_symop_operation_xyz
x,y,z
-x,y,-z
-x,-y,-z
x,-y,z
1/2+x,1/2+y,z
1/2-x,1/2+y,-z
1/2-x,1/2-y,-z
1/2+x,1/2-y,z
loop_
_atom_site_type_symbol
_atom_site_label
_atom_site_fract_x
_atom_site_fract_y
_atom_site_fract_z
Si Si1 0.699167 0.113931 0.437018
Si Si2 0.414170 0.184693 0.333377
Si Si3 0.814978 0.397868 0.892271
Si Si4 0.309176 0.000000 0.045819
Si Si5 0.000000 0.812031 0.000000
Si Si6 0.928052 0.000000 0.305729
Si Si7 0.678455 0.500000 0.850914
Si Si8 0.243791 0.778599 0.723001
O O1 0.500000 0.090802 0.500000
O O2 0.697536 0.148545 0.535494
O O3 0.775372 0.157080 0.318659
O O4 0.836527 0.059395 0.392642
O O5 0.501017 0.139722 0.214163
O O6 0.564457 0.224660 0.315469
O O7 0.273635 0.226700 0.345564
O O8 0.648247 0.352360 0.979548
O O9 0.797397 0.440536 0.810428
O O10 0.805787 0.438945 0.987735
O O11 0.500000 0.000000 0.000000
O O12 0.149321 0.000000 0.202407
O O13 0.086037 0.770978 0.877068
O O14 0.888369 0.000000 0.218228
O O15 0.500000 0.500000 0.000000
#
# Coordination Sequence:
#
# PCOD8084381 Si02
#       8
#     8   8   8   4   4   4   4   8
#     4  10  21  37  62  93 127 155 210 263 308 371
#     4  10  22  40  59  90 120 170 206 260 304 372
#     4  10  19  35  58  85 122 156 203 255 316 365
#     4  11  23  40  57  87 134 168 195 244 318 391
#     4  10  18  35  60  94 112 149 212 270 308 372
#     4  12  20  36  63  98 117 159 201 260 317 368
#     4  11  16  29  60  87 113 149 192 255 323 360
#     4  10  21  37  60  87 128 160 208 257 315 363
#
# _framework density 20.429024999999999
#
# number of rings (size 3 to 8) (size 9 to 14) (size 15 to 20)
#    0.000    1.667    2.500    4.750    0.000    4.000 
#    7.500    0.000    0.000    1.000    0.000    0.000 
#    0.000    0.000    0.000    0.000    0.000    0.000 
#
# Total GULP energy -297502.968799 kJ/mol
# GULP energy per Si atom -12395.957033 kJ/mol
# Density = 2.038253 g / cm^3
# Si number density = 20.429025 Si / 1000 Ang^3
#
#
#
# Elastic Constant Matrix: (Units=GPa)
#
#
# Indices 1 2 3 4 5 6 
#
# 1 76.1093 40.9135 38.8164 0.0000 -1.3712 0.0000
# 2 40.9135 88.8480 41.0901 0.0000 -1.1480 0.0000
# 3 38.8164 41.0901 121.2170 -0.0001 -0.5576 0.0000
# 4 0.0000 0.0000 -0.0001 -37.0897 0.0001 -30.6869
# 5 -1.3712 -1.1480 -0.5576 0.0001 23.7735 0.0000
# 6 0.0000 0.0000 0.0000 -30.6869 0.0000 5.6802
#
#
#
# Elastic Compliance Matrix: (Units=1/GPa)
#
#
# Indices 1 2 3 4 5 6 
#
# 1 0.018738 -0.006933 -0.003647 0.000000 0.000660 0.000000
# 2 -0.006933 0.015920 -0.003175 0.000000 0.000294 0.000000
# 3 -0.003647 -0.003175 0.010493 0.000000 -0.000118 0.000000
# 4 0.000000 0.000000 0.000000 -0.004929 0.000000 -0.026630
# 5 0.000660 0.000294 -0.000118 0.000000 0.042113 0.000000
# 6 0.000000 0.000000 0.000000 -0.026630 0.000000 0.032186
#
#
# Mechanical properties :
#
#
# Convention : Reuss Voigt Hill
#
# Bulk Modulus (GPa) = 56.68776 58.64602 57.66689
# Shear Modulus (GPa) = 33.80377 9.49641 21.65009
#
# Velocity S-wave (km/s) = 4.07220 2.15837 3.25894
# Velocity P-wave (km/s) = 7.06536 5.91447 6.51538
#
# Compressibility (1/GPa) = 0.01764049
#
# Stress axis : x y z
#
# Youngs Moduli (GPa) = 53.36729 62.81356 95.29946
#
# Poissons Ratio (x) = 0.43552 0.34756
# Poissons Ratio (y) = 0.37002 0.30257
# Poissons Ratio (z) = 0.19463 0.19943
#
# Static dielectric constant tensor:
#      x y z
#    x 3.583570 0.000000 -0.042650 
#    y 0.000000 3.728160 0.000000 
#    z -0.042650 0.000000 3.720640 
# 
# 
# High freq. dielectric constant tensor:
#      x y z
#    x 1.768880 0.000000 0.000410 
#    y 0.000000 1.793510 0.000000 
#    z 0.000410 0.000000 1.808880 
# 
# From -- ./inp_files/207984.got.cif
#   From: 2010.06.25/outbox.cif.g09.slc.cpg/sg12_104_cif.got.tgz:207984.got - 2010.06.28 00:19:55.
