data_PCOD8084812
_publ_section_title
;
Structure prediction by ZEFSAII (Michael W. Deem and Ramdas Pophale) SiO2 
 PCOD8084812
Probable space group: C 2/M
;
_chemical_formula_sum "Si O2"
_cell_formula_units_Z 64
_cell_length_a 24.507816
_cell_length_b 8.912575
_cell_length_c 16.424053
_cell_angle_alpha 90.000000
_cell_angle_beta 73.618950
_cell_angle_gamma 90.000000
_cell_volume 3441.843877
_symmetry_space_group_name_H-M "C 2/M"
_symmetry_group_IT_number 12
_symmetry_cell_setting 'monoclinic'
loop_
_space_group_symop_operation_xyz
x,y,z
-x,y,-z
-x,-y,-z
x,-y,z
1/2+x,1/2+y,z
1/2-x,1/2+y,-z
1/2-x,1/2-y,-z
1/2+x,1/2-y,z
loop_
_atom_site_type_symbol
_atom_site_label
_atom_site_fract_x
_atom_site_fract_y
_atom_site_fract_z
Si Si1 0.625119 0.672297 0.226795
Si Si2 0.742356 0.675099 0.089688
Si Si3 0.704165 0.677314 0.782369
Si Si4 0.857357 0.673472 0.473914
Si Si5 0.612996 0.174168 0.721374
Si Si6 0.194773 0.823070 0.353794
Si Si7 0.513209 0.174830 0.272791
Si Si8 0.466910 0.661249 0.435134
O O1 0.606156 0.500000 0.231678
O O2 0.678304 0.703181 0.146069
O O3 0.643505 0.715892 0.312186
O O4 0.573526 0.771611 0.209890
O O5 0.756804 0.500000 0.079094
O O6 0.786308 0.751834 0.133138
O O7 0.750000 0.750000 0.000000
O O8 0.709472 0.500000 0.786361
O O9 0.641285 0.724158 0.778794
O O10 0.748545 0.740559 0.698410
O O11 0.844191 0.500000 0.495334
O O12 0.856458 0.713141 0.378052
O O13 0.815855 0.771242 0.548538
O O14 0.920583 0.713468 0.475449
O O15 0.545213 0.211895 0.751321
O O16 0.622510 0.000000 0.737381
O O17 0.206586 0.000000 0.348143
O O18 0.512647 0.270614 0.354854
O O19 0.515474 0.000000 0.290760
O O20 0.500000 0.618699 0.500000
O O21 0.441227 0.500000 0.413921
#
# Coordination Sequence:
#
# PCOD8084812 Si02
#       8
#     8   8   8   8   8   8   8   8
#     4   9  19  34  53  79 110 141 172 211 264 317
#     4  10  21  39  63  90 117 141 166 205 258 316
#     4  11  22  36  57  82 105 137 179 219 264 317
#     4  10  20  32  47  69  98 135 183 232 271 313
#     4   9  20  37  51  70 104 144 184 224 267 313
#     4  10  20  34  51  73 105 143 180 225 278 323
#     4  10  20  32  50  74 101 137 179 221 262 308
#     4  10  19  29  42  62  93 134 177 222 272 318
#
# _framework density 18.594684000000001
#
# number of rings (size 3 to 8) (size 9 to 14) (size 15 to 20)
#    0.000    2.125    0.000    5.250    0.000   10.500 
#    0.000    0.000    0.000    0.750    0.000    5.250 
#    0.000    0.000    0.000    0.000    0.000    0.000 
#
# Total GULP energy -396569.087841 kJ/mol
# GULP energy per Si atom -12392.783995 kJ/mol
# Density = 1.855236 g / cm^3
# Si number density = 18.594684 Si / 1000 Ang^3
#
#
#
# Elastic Constant Matrix: (Units=GPa)
#
#
# Indices 1 2 3 4 5 6 
#
# 1 105.7726 60.3074 41.6639 0.0000 13.1295 0.0000
# 2 60.3074 120.2862 48.1158 0.0000 10.3599 0.0000
# 3 41.6639 48.1158 78.2465 0.0000 11.2913 0.0000
# 4 0.0000 0.0000 0.0000 35.2421 0.0000 -1.7592
# 5 13.1295 10.3599 11.2913 0.0000 16.1171 0.0000
# 6 0.0000 0.0000 0.0000 -1.7592 0.0000 33.4412
#
#
#
# Elastic Compliance Matrix: (Units=1/GPa)
#
#
# Indices 1 2 3 4 5 6 
#
# 1 0.014712 -0.005402 -0.003653 0.000000 -0.005953 0.000000
# 2 -0.005402 0.013108 -0.005121 0.000000 -0.000437 0.000000
# 3 -0.003653 -0.005121 0.018878 0.000000 -0.006958 0.000000
# 4 0.000000 0.000000 0.000000 0.028450 0.000000 0.001497
# 5 -0.005953 -0.000437 -0.006958 0.000000 0.072052 0.000000
# 6 0.000000 0.000000 0.000000 0.001497 0.000000 0.029982
#
#
# Mechanical properties :
#
#
# Convention : Reuss Voigt Hill
#
# Bulk Modulus (GPa) = 54.50550 67.16438 60.83494
# Shear Modulus (GPa) = 23.62400 27.24130 25.43265
#
# Velocity S-wave (km/s) = 3.56823 3.83169 3.70231
# Velocity P-wave (km/s) = 6.80826 7.46823 7.14587
#
# Compressibility (1/GPa) = 0.01834677
#
# Stress axis : x y z
#
# Youngs Moduli (GPa) = 67.97055 76.28862 52.97143
#
# Poissons Ratio (x) = 0.41214 0.19349
# Poissons Ratio (y) = 0.36720 0.27126
# Poissons Ratio (z) = 0.24827 0.39066
#
# Static dielectric constant tensor:
#      x y z
#    x 3.484530 0.000000 0.033430 
#    y 0.000000 3.491270 0.000000 
#    z 0.033430 0.000000 3.277660 
# 
# 
# High freq. dielectric constant tensor:
#      x y z
#    x 1.719600 0.000000 -0.001520 
#    y 0.000000 1.736260 0.000000 
#    z -0.001520 0.000000 1.686630 
# 
# From -- ./inp_files/287612.got.cif
#   From: 2010.06.25/outbox.cif.g09.slc.cpg/sg12_144_cif.got.tgz:287612.got - 2010.06.28 00:19:55.
