data_PCOD8084939
_publ_section_title
;
Structure prediction by ZEFSAII (Michael W. Deem and Ramdas Pophale) SiO2 
 PCOD8084939
Probable space group: C 2/M
;
_chemical_formula_sum "Si O2"
_cell_formula_units_Z 64
_cell_length_a 14.344426
_cell_length_b 14.462476
_cell_length_c 25.846171
_cell_angle_alpha 90.000000
_cell_angle_beta 39.607671
_cell_angle_gamma 90.000000
_cell_volume 3418.382993
_symmetry_space_group_name_H-M "C 2/M"
_symmetry_group_IT_number 12
_symmetry_cell_setting 'monoclinic'
loop_
_space_group_symop_operation_xyz
x,y,z
-x,y,-z
-x,-y,-z
x,-y,z
1/2+x,1/2+y,z
1/2-x,1/2+y,-z
1/2-x,1/2-y,-z
1/2+x,1/2-y,z
loop_
_atom_site_type_symbol
_atom_site_label
_atom_site_fract_x
_atom_site_fract_y
_atom_site_fract_z
Si Si1 0.162556 0.892870 0.819043
Si Si2 0.092451 0.771391 0.044781
Si Si3 0.731205 0.394014 0.906299
Si Si4 0.036733 0.778771 0.543264
Si Si5 0.503977 0.895758 0.862948
Si Si6 0.555978 0.895776 0.362101
Si Si7 0.709632 0.104196 0.593160
Si Si8 0.220181 0.894230 0.321478
O O1 0.236019 0.871429 0.843489
O O2 0.280168 0.865497 0.724451
O O3 0.012371 0.835964 0.874556
O O4 0.122110 0.000000 0.831482
O O5 0.017418 0.669838 0.077481
O O6 0.250000 0.750000 0.000000
O O7 0.110772 0.823873 0.982372
O O8 0.680064 0.500000 0.937871
O O9 0.887991 0.377421 0.866197
O O10 0.198559 0.822238 0.481245
O O11 0.000000 0.800229 0.500000
O O12 0.018167 0.670271 0.563280
O O13 0.922951 0.833025 0.628674
O O14 0.663207 0.873575 0.772739
O O15 0.490896 0.000000 0.888904
O O16 0.458124 0.891255 0.352410
O O17 0.556859 0.000000 0.384548
O O18 0.709693 0.131686 0.653196
O O19 0.772801 0.000000 0.558055
O O20 0.170475 0.000000 0.341748
#
# Coordination Sequence:
#
# PCOD8084939 Si02
#       8
#     8   8   8   8   8   8   8   8
#     4  10  19  32  51  72  92 116 151 196 239 274
#     4  10  19  29  44  68  95 119 144 178 225 280
#     4   9  17  30  49  71  92 115 147 191 238 274
#     4  10  19  30  46  68  96 127 156 187 228 276
#     4   9  17  29  45  67  95 124 152 183 224 274
#     4  10  20  32  47  68  94 124 156 190 228 273
#     4   9  17  30  48  70  93 118 154 198 238 270
#     4   9  16  28  47  69  92 118 151 193 235 271
#
# _framework density 18.722301999999999
#
# number of rings (size 3 to 8) (size 9 to 14) (size 15 to 20)
#    0.000    2.500    0.000    3.000    0.000    6.250 
#    0.000    0.000    0.000    1.500    0.000    0.000 
#    0.000   12.000    0.000    0.000    0.000    0.000 
#
# Total GULP energy -396511.476202 kJ/mol
# GULP energy per Si atom -12390.983631 kJ/mol
# Density = 1.867969 g / cm^3
# Si number density = 18.722302 Si / 1000 Ang^3
#
#
#
# Elastic Constant Matrix: (Units=GPa)
#
#
# Indices 1 2 3 4 5 6 
#
# 1 23.7408 9.2042 6.7755 0.0000 -11.8225 0.0000
# 2 9.2042 103.5662 56.7598 0.0001 -5.8049 0.0000
# 3 6.7755 56.7598 81.1386 0.0001 -15.4750 0.0000
# 4 0.0000 0.0001 0.0001 39.6723 -0.0001 -3.9662
# 5 -11.8225 -5.8049 -15.4750 -0.0001 24.4471 0.0000
# 6 0.0000 0.0000 0.0000 -3.9662 0.0000 19.3404
#
#
#
# Elastic Compliance Matrix: (Units=1/GPa)
#
#
# Indices 1 2 3 4 5 6 
#
# 1 0.057965 -0.006402 0.005339 0.000000 0.029891 0.000000
# 2 -0.006402 0.016659 -0.012459 0.000000 -0.007027 0.000000
# 3 0.005339 -0.012459 0.023341 0.000000 0.014398 0.000000
# 4 0.000000 0.000000 0.000000 0.025734 0.000000 0.005277
# 5 0.029891 -0.007027 0.014398 0.000000 0.062805 0.000000
# 6 0.000000 0.000000 0.000000 0.005277 0.000000 0.052787
#
#
# Mechanical properties :
#
#
# Convention : Reuss Voigt Hill
#
# Bulk Modulus (GPa) = 14.10040 39.32496 26.71268
# Shear Modulus (GPa) = 17.24276 25.73903 21.49090
#
# Velocity S-wave (km/s) = 3.03805 3.71182 3.39171
# Velocity P-wave (km/s) = 4.45578 6.27854 5.44399
#
# Compressibility (1/GPa) = 0.07091998
#
# Stress axis : x y z
#
# Youngs Moduli (GPa) = 17.25175 60.02697 42.84369
#
# Poissons Ratio (x) = 0.38431 -0.22875
# Poissons Ratio (y) = 0.11045 0.53381
# Poissons Ratio (z) = -0.09211 0.74790
#
# Static dielectric constant tensor:
#      x y z
#    x 3.088720 0.000000 -0.237460 
#    y 0.000000 3.671770 0.000000 
#    z -0.237460 0.000000 3.557300 
# 
# 
# High freq. dielectric constant tensor:
#      x y z
#    x 1.688580 0.000000 -0.027920 
#    y 0.000000 1.732270 0.000000 
#    z -0.027920 0.000000 1.727710 
# 
# From -- ./inp_files/340122.got.cif
#   From: 2010.06.25/outbox.cif.g09.slc.cpg/sg12_171_cif.got.tgz:340122.got - 2010.06.28 00:19:55.
