data_PCOD8084455
_publ_section_title
;
Structure prediction by ZEFSAII (Michael W. Deem and Ramdas Pophale) SiO2 
 PCOD8084455
Probable space group: C 2/M
;
_chemical_formula_sum "Si O2"
_cell_formula_units_Z 48
_cell_length_a 5.055406
_cell_length_b 25.534317
_cell_length_c 19.337304
_cell_angle_alpha 90.000000
_cell_angle_beta 108.458928
_cell_angle_gamma 90.000000
_cell_volume 2367.755402
_symmetry_space_group_name_H-M "C 2/M"
_symmetry_group_IT_number 12
_symmetry_cell_setting 'monoclinic'
loop_
_space_group_symop_operation_xyz
x,y,z
-x,y,-z
-x,-y,-z
x,-y,z
1/2+x,1/2+y,z
1/2-x,1/2+y,-z
1/2-x,1/2-y,-z
1/2+x,1/2-y,z
loop_
_atom_site_type_symbol
_atom_site_label
_atom_site_fract_x
_atom_site_fract_y
_atom_site_fract_z
Si Si1 0.985994 0.500000 0.798223
Si Si2 0.718965 0.107012 0.227585
Si Si3 0.745262 0.887756 0.072265
Si Si4 0.532074 0.283663 0.127646
Si Si5 0.233148 0.662701 0.727444
Si Si6 0.601872 0.500000 0.893339
Si Si7 0.642688 0.783589 0.579003
O O1 0.320498 0.500000 0.825246
O O2 0.867022 0.550689 0.748785
O O3 0.872614 0.500000 0.867129
O O4 0.621961 0.111036 0.139760
O O5 0.554768 0.150143 0.257687
O O6 0.052126 0.114047 0.259615
O O7 0.971740 0.840501 0.087608
O O8 0.881824 0.944829 0.062817
O O9 0.500000 0.874149 0.000000
O O10 0.768812 0.254993 0.103239
O O11 0.617737 0.291582 0.215577
O O12 0.157239 0.677047 0.643494
O O13 0.500000 0.810991 0.500000
O O14 0.454441 0.733938 0.585349
#
# Coordination Sequence:
#
# PCOD8084455 Si02
#       7
#     4   8   8   8   8   4   8
#     4  10  18  36  55  80 109 132 177 232 279 334
#     4  10  21  35  56  80 106 142 182 228 279 325
#     4  10  22  40  58  80 109 143 189 238 286 336
#     4  11  22  36  54  76 106 145 181 218 266 323
#     4  11  20  36  56  80 109 144 184 220 263 328
#     4  10  21  38  60  80 104 138 178 240 302 336
#     4  10  20  34  55  84 115 144 175 218 269 319
#
# _framework density 20.272364
#
# number of rings (size 3 to 8) (size 9 to 14) (size 15 to 20)
#    0.000    1.667    0.000    7.250    0.000    2.000 
#    0.000   23.333    0.000    0.000    0.000    3.500 
#    0.000    0.000    0.000    0.000    0.000    0.000 
#
# Total GULP energy -297501.019875 kJ/mol
# GULP energy per Si atom -12395.875828 kJ/mol
# Density = 2.022622 g / cm^3
# Si number density = 20.272364 Si / 1000 Ang^3
#
#
#
# Elastic Constant Matrix: (Units=GPa)
#
#
# Indices 1 2 3 4 5 6 
#
# 1 75.6156 12.1009 8.9555 0.0000 2.8353 0.0000
# 2 12.1009 105.9283 24.1023 0.0000 7.1374 0.0000
# 3 8.9555 24.1023 104.2307 0.0000 -0.3188 0.0000
# 4 0.0000 0.0000 0.0000 17.3309 0.0000 5.3177
# 5 2.8353 7.1374 -0.3188 0.0000 21.9750 0.0000
# 6 0.0000 0.0000 0.0000 5.3177 0.0000 15.6509
#
#
#
# Elastic Compliance Matrix: (Units=1/GPa)
#
#
# Indices 1 2 3 4 5 6 
#
# 1 0.013581 -0.001260 -0.000880 0.000000 -0.001356 0.000000
# 2 -0.001260 0.010322 -0.002289 0.000000 -0.003223 0.000000
# 3 -0.000880 -0.002289 0.010202 0.000000 0.001005 0.000000
# 4 0.000000 0.000000 0.000000 0.064416 0.000000 -0.021887
# 5 -0.001356 -0.003223 0.001005 0.000000 0.046743 0.000000
# 6 0.000000 0.000000 0.000000 -0.021887 0.000000 0.071331
#
#
# Mechanical properties :
#
#
# Convention : Reuss Voigt Hill
#
# Bulk Modulus (GPa) = 39.60521 41.78800 40.69661
# Shear Modulus (GPa) = 21.37960 27.03242 24.20601
#
# Velocity S-wave (km/s) = 3.25101 3.65562 3.45924
# Velocity P-wave (km/s) = 5.80268 6.20291 6.00613
#
# Compressibility (1/GPa) = 0.02524920
#
# Stress axis : x y z
#
# Youngs Moduli (GPa) = 73.62987 96.87878 98.02047
#
# Poissons Ratio (x) = 0.12207 0.08623
# Poissons Ratio (y) = 0.09277 0.22432
# Poissons Ratio (z) = 0.06477 0.22171
#
# Static dielectric constant tensor:
#      x y z
#    x 3.752740 0.000000 0.101420 
#    y 0.000000 4.006510 0.000000 
#    z 0.101420 0.000000 3.488460 
# 
# 
# High freq. dielectric constant tensor:
#      x y z
#    x 1.807200 0.000000 0.009310 
#    y 0.000000 1.787080 0.000000 
#    z 0.009310 0.000000 1.753630 
# 
# From -- ./inp_files/253254.got.cif
#   From: 2010.06.25/outbox.cif.g09.slc.cpg/sg12_127_cif.got.tgz:253254.got - 2010.06.28 00:19:55.
