data_PCOD8084049
_publ_section_title
;
Structure prediction by ZEFSAII (Michael W. Deem and Ramdas Pophale) SiO2 
 PCOD8084049
Probable space group: C 2/M
;
_chemical_formula_sum "Si O2"
_cell_formula_units_Z 48
_cell_length_a 34.756124
_cell_length_b 18.571805
_cell_length_c 10.457099
_cell_angle_alpha 90.000000
_cell_angle_beta 156.607897
_cell_angle_gamma 90.000000
_cell_volume 2679.850597
_symmetry_space_group_name_H-M "C 2/M"
_symmetry_group_IT_number 12
_symmetry_cell_setting 'monoclinic'
loop_
_space_group_symop_operation_xyz
x,y,z
-x,y,-z
-x,-y,-z
x,-y,z
1/2+x,1/2+y,z
1/2-x,1/2+y,-z
1/2-x,1/2-y,-z
1/2+x,1/2-y,z
loop_
_atom_site_type_symbol
_atom_site_label
_atom_site_fract_x
_atom_site_fract_y
_atom_site_fract_z
Si Si1 0.038464 0.417411 0.749360
Si Si2 0.185989 0.773682 0.685596
Si Si3 0.503261 0.175017 0.147916
Si Si4 0.244359 0.080868 0.510459
Si Si5 0.788207 0.290868 0.495926
Si Si6 0.384873 0.416550 0.644103
O O1 0.008044 0.500000 0.662871
O O2 0.000000 0.382750 0.500000
O O3 0.980275 0.381374 0.688621
O O4 0.153718 0.406463 0.106225
O O5 0.083461 0.736175 0.391584
O O6 0.242880 0.743242 0.734096
O O7 0.165739 0.860009 0.609189
O O8 0.250000 0.750000 0.000000
O O9 0.500000 0.134132 0.000000
O O10 0.402877 0.215824 0.859874
O O11 0.244932 0.128354 0.382146
O O12 0.158345 0.100124 0.346737
O O13 0.233443 0.000000 0.427628
O O14 0.750000 0.250000 0.500000
O O15 0.361080 0.500000 0.532040
O O16 0.500000 0.404057 0.000000
#
# Coordination Sequence:
#
# PCOD8084049 Si02
#       6
#     8   8   8   8   8   8
#     4   9  18  31  51  78 107 138 176 223 271 324
#     4  11  23  36  53  84 115 140 179 231 284 334
#     4   9  20  34  50  73 106 142 176 220 267 332
#     4   9  18  32  54  80 104 139 189 229 268 329
#     4  10  18  34  57  75 102 144 183 226 273 329
#     4  10  20  36  60  83 109 150 195 233 271 327
#
# _framework density 17.911446000000002
#
# number of rings (size 3 to 8) (size 9 to 14) (size 15 to 20)
#    0.000    2.333    1.667    1.500    2.333    0.333 
#    0.000    3.333    0.000    0.000    0.000    3.500 
#    0.000    0.000    0.000    0.000    0.000    0.000 
#
# Total GULP energy -297389.500888 kJ/mol
# GULP energy per Si atom -12391.229204 kJ/mol
# Density = 1.787068 g / cm^3
# Si number density = 17.911446 Si / 1000 Ang^3
#
#
#
# Elastic Constant Matrix: (Units=GPa)
#
#
# Indices 1 2 3 4 5 6 
#
# 1 146.9737 66.6497 56.8815 0.0000 -6.9035 0.0000
# 2 66.6497 115.6688 46.1272 0.0000 -12.5616 0.0000
# 3 56.8815 46.1272 56.3566 0.0000 -11.6344 0.0000
# 4 0.0000 0.0000 0.0000 20.3087 0.0000 -1.9322
# 5 -6.9035 -12.5616 -11.6344 0.0000 36.8066 0.0000
# 6 0.0000 0.0000 0.0000 -1.9322 0.0000 34.4887
#
#
#
# Elastic Compliance Matrix: (Units=1/GPa)
#
#
# Indices 1 2 3 4 5 6 
#
# 1 0.011982 -0.003167 -0.009907 0.000000 -0.001965 0.000000
# 2 -0.003167 0.013716 -0.007688 0.000000 0.001657 0.000000
# 3 -0.009907 -0.007688 0.035423 0.000000 0.006715 0.000000
# 4 0.000000 0.000000 0.000000 0.049504 0.000000 0.002773
# 5 -0.001965 0.001657 0.006715 0.000000 0.029489 0.000000
# 6 0.000000 0.000000 0.000000 0.002773 0.000000 0.029150
#
#
# Mechanical properties :
#
#
# Convention : Reuss Voigt Hill
#
# Bulk Modulus (GPa) = 51.03009 73.14621 62.08815
# Shear Modulus (GPa) = 23.00759 28.27685 25.64222
#
# Velocity S-wave (km/s) = 3.58791 3.97760 3.78777
# Velocity P-wave (km/s) = 6.76137 7.87537 7.33954
#
# Compressibility (1/GPa) = 0.01959628
#
# Stress axis : x y z
#
# Youngs Moduli (GPa) = 83.45863 72.90827 28.23052
#
# Poissons Ratio (x) = 0.23087 0.27969
# Poissons Ratio (y) = 0.26428 0.21704
# Poissons Ratio (z) = 0.82686 0.56052
#
# Static dielectric constant tensor:
#      x y z
#    x 0.000000 0.000000 0.000000 
#    y 0.000000 0.000000 0.000000 
#    z 0.000000 0.000000 0.000000 
# 
# 
# High freq. dielectric constant tensor:
#      x y z
#    x 1.704500 0.000000 0.018980 
#    y 0.000000 1.699330 0.000000 
#    z 0.018980 0.000000 1.664970 
# 
# From -- ./inp_files/113242.got.cif
#   From: 2010.06.25/outbox.cif.g09.slc.cpg/sg12_57_cif.got.tgz:113242.got - 2010.06.28 00:19:55.
