data_PCOD8084311
_publ_section_title
;
Structure prediction by ZEFSAII (Michael W. Deem and Ramdas Pophale) SiO2 
 PCOD8084311
Probable space group: C 2/M
;
_chemical_formula_sum "Si O2"
_cell_formula_units_Z 64
_cell_length_a 21.350839
_cell_length_b 20.301228
_cell_length_c 11.361312
_cell_angle_alpha 90.000000
_cell_angle_beta 42.277455
_cell_angle_gamma 90.000000
_cell_volume 3312.844126
_symmetry_space_group_name_H-M "C 2/M"
_symmetry_group_IT_number 12
_symmetry_cell_setting 'monoclinic'
loop_
_space_group_symop_operation_xyz
x,y,z
-x,y,-z
-x,-y,-z
x,-y,z
1/2+x,1/2+y,z
1/2-x,1/2+y,-z
1/2-x,1/2-y,-z
1/2+x,1/2-y,z
loop_
_atom_site_type_symbol
_atom_site_label
_atom_site_fract_x
_atom_site_fract_y
_atom_site_fract_z
Si Si1 0.609438 0.425729 0.834383
Si Si2 0.130182 0.297532 0.568369
Si Si3 0.333582 0.215566 0.747591
Si Si4 0.757806 0.141453 0.802329
Si Si5 0.917174 0.075546 0.701260
Si Si6 0.922635 0.300461 0.863666
Si Si7 0.141539 0.159954 0.008393
Si Si8 0.796633 0.845783 0.484353
O O1 0.647322 0.500000 0.797019
O O2 0.635152 0.399167 0.669093
O O3 0.500000 0.423557 0.000000
O O4 0.655320 0.378663 0.867722
O O5 0.134428 0.310382 0.423098
O O6 0.147189 0.222022 0.580563
O O7 0.205855 0.341461 0.528524
O O8 0.027445 0.320881 0.750811
O O9 0.307804 0.291835 0.773450
O O10 0.413392 0.208390 0.734904
O O11 0.244671 0.173575 0.917266
O O12 0.815619 0.082581 0.782522
O O13 0.762621 0.128768 0.657031
O O14 0.648862 0.143854 0.990084
O O15 0.921824 0.118603 0.813368
O O16 0.000000 0.100061 0.500000
O O17 0.932928 0.000000 0.715140
O O18 0.904048 0.230854 0.954792
#
# Coordination Sequence:
#
# PCOD8084311 Si02
#       8
#     8   8   8   8   8   8   8   8
#     4  11  24  39  58  82 111 153 196 228 270 336
#     4  10  21  34  57  86 115 147 185 231 285 337
#     4  10  18  35  57  85 114 146 184 230 290 336
#     4  10  21  36  55  82 116 147 189 231 282 336
#     4  11  24  37  56  84 115 152 190 231 281 338
#     4  11  20  33  60  89 114 147 183 234 289 343
#     4  11  20  38  57  82 119 147 183 235 285 334
#     4  10  22  39  53  80 118 152 185 231 280 333
#
# _framework density 19.318746999999998
#
# number of rings (size 3 to 8) (size 9 to 14) (size 15 to 20)
#    0.000    1.500    3.750    2.250    7.000    1.000 
#    0.000    0.000    0.000    0.750    0.000    3.500 
#    0.000    0.000    0.000    0.000    0.000    0.000 
#
# Total GULP energy -396844.630182 kJ/mol
# GULP energy per Si atom -12401.394693 kJ/mol
# Density = 1.927478 g / cm^3
# Si number density = 19.318747 Si / 1000 Ang^3
#
#
#
# Elastic Constant Matrix: (Units=GPa)
#
#
# Indices 1 2 3 4 5 6 
#
# 1 72.4308 9.8297 33.9094 0.0000 4.2230 0.0000
# 2 9.8297 53.1819 23.7640 0.0000 4.3143 0.0000
# 3 33.9094 23.7640 117.3789 0.0000 -3.4699 0.0000
# 4 0.0000 0.0000 0.0000 18.4474 0.0000 0.5039
# 5 4.2230 4.3143 -3.4699 0.0000 39.8318 0.0000
# 6 0.0000 0.0000 0.0000 0.5039 0.0000 17.8738
#
#
#
# Elastic Compliance Matrix: (Units=1/GPa)
#
#
# Indices 1 2 3 4 5 6 
#
# 1 0.016172 -0.000781 -0.004574 0.000000 -0.002028 0.000000
# 2 -0.000781 0.020986 -0.004098 0.000000 -0.002547 0.000000
# 3 -0.004574 -0.004098 0.010726 0.000000 0.001863 0.000000
# 4 0.000000 0.000000 0.000000 0.054250 0.000000 -0.001529
# 5 -0.002028 -0.002547 0.001863 0.000000 0.025759 0.000000
# 6 0.000000 0.000000 0.000000 -0.001529 0.000000 0.055991
#
#
# Mechanical properties :
#
#
# Convention : Reuss Voigt Hill
#
# Bulk Modulus (GPa) = 34.50989 41.99973 38.25481
# Shear Modulus (GPa) = 23.53522 26.92983 25.23252
#
# Velocity S-wave (km/s) = 3.49414 3.73765 3.61794
# Velocity P-wave (km/s) = 5.84644 6.35722 6.10717
#
# Compressibility (1/GPa) = 0.02897720
#
# Stress axis : x y z
#
# Youngs Moduli (GPa) = 61.83621 47.65149 93.23545
#
# Poissons Ratio (x) = 0.03720 0.42643
# Poissons Ratio (y) = 0.04828 0.38212
# Poissons Ratio (z) = 0.28282 0.19530
#
# Static dielectric constant tensor:
#      x y z
#    x 3.556450 0.000000 0.107870 
#    y 0.000000 3.233470 0.000000 
#    z 0.107870 0.000000 3.670400 
# 
# 
# High freq. dielectric constant tensor:
#      x y z
#    x 1.754930 0.000000 0.010090 
#    y 0.000000 1.708260 0.000000 
#    z 0.010090 0.000000 1.761930 
# 
# From -- ./inp_files/169660.got.cif
#   From: 2010.06.25/outbox.cif.g09.slc.cpg/sg12_85_cif.got.tgz:169660.got - 2010.06.28 00:19:55.
