data_PCOD8084707
_publ_section_title
;
Structure prediction by ZEFSAII (Michael W. Deem and Ramdas Pophale) SiO2 
 PCOD8084707
Probable space group: C 2/M
;
_chemical_formula_sum "Si O2"
_cell_formula_units_Z 64
_cell_length_a 27.597009
_cell_length_b 9.234248
_cell_length_c 24.325516
_cell_angle_alpha 90.000000
_cell_angle_beta 42.703284
_cell_angle_gamma 90.000000
_cell_volume 4204.211379
_symmetry_space_group_name_H-M "C 2/M"
_symmetry_group_IT_number 12
_symmetry_cell_setting 'monoclinic'
loop_
_space_group_symop_operation_xyz
x,y,z
-x,y,-z
-x,-y,-z
x,-y,z
1/2+x,1/2+y,z
1/2-x,1/2+y,-z
1/2-x,1/2-y,-z
1/2+x,1/2-y,z
loop_
_atom_site_type_symbol
_atom_site_label
_atom_site_fract_x
_atom_site_fract_y
_atom_site_fract_z
Si Si1 0.208996 0.829538 0.657791
Si Si2 0.203272 0.168306 0.494624
Si Si3 0.810367 0.329526 0.983586
Si Si4 0.969303 0.668812 0.822698
Si Si5 0.414195 0.664738 0.326606
Si Si6 0.498332 0.335451 0.097349
Si Si7 0.350155 0.670922 0.178184
Si Si8 0.657813 0.665981 0.934342
O O1 0.279877 0.743650 0.578016
O O2 0.141537 0.791125 0.675186
O O3 0.194022 0.772441 0.732208
O O4 0.225122 0.000000 0.642247
O O5 0.250000 0.250000 0.500000
O O6 0.121233 0.186081 0.583322
O O7 0.224839 0.000000 0.474577
O O8 0.795240 0.500000 0.998879
O O9 0.885008 0.294691 0.890712
O O10 0.750000 0.250000 0.000000
O O11 0.809552 0.268497 0.046266
O O12 0.982642 0.500000 0.809990
O O13 0.002663 0.731172 0.850031
O O14 0.013493 0.739779 0.735654
O O15 0.437710 0.500000 0.298524
O O16 0.485067 0.500000 0.129246
O O17 0.433330 0.283087 0.113115
O O18 0.572103 0.324642 0.003297
O O19 0.345697 0.500000 0.181145
O O20 0.317682 0.724183 0.146554
O O21 0.682163 0.500000 0.925332
#
# Coordination Sequence:
#
# PCOD8084707 Si02
#       8
#     8   8   8   8   8   8   8   8
#     4   9  16  26  39  57  84 117 150 182 210 241
#     4   9  17  27  38  54  78 111 150 185 214 248
#     4  10  21  36  50  65  86 110 139 178 222 265
#     4  10  19  28  42  65  87 108 140 181 220 256
#     4   9  16  27  41  57  81 113 148 182 212 249
#     4   9  15  26  41  58  84 116 148 177 205 244
#     4   9  15  25  41  62  87 115 150 181 203 243
#     4   9  17  28  46  66  83 111 146 178 214 251
#
# _framework density 15.222830999999999
#
# number of rings (size 3 to 8) (size 9 to 14) (size 15 to 20)
#    0.000    2.750    1.250    2.250    0.000    5.500 
#    0.000    1.250    0.000    3.000    0.000    0.000 
#    0.000    1.000    0.000   11.250    0.000    5.625 
#
# Total GULP energy -396517.640139 kJ/mol
# GULP energy per Si atom -12391.176254 kJ/mol
# Density = 1.518818 g / cm^3
# Si number density = 15.222831 Si / 1000 Ang^3
#
#
#
# Elastic Constant Matrix: (Units=GPa)
#
#
# Indices 1 2 3 4 5 6 
#
# 1 70.5646 39.1906 48.7992 -0.0105 6.4435 0.0110
# 2 39.1906 71.4476 52.3389 -0.0152 -0.2477 0.0224
# 3 48.7992 52.3389 112.4310 -0.0051 11.7327 0.0106
# 4 -0.0105 -0.0152 -0.0051 26.6771 0.0015 -0.9070
# 5 6.4435 -0.2477 11.7327 0.0015 13.8725 -0.0059
# 6 0.0110 0.0224 0.0106 -0.9070 -0.0059 15.6425
#
#
#
# Elastic Compliance Matrix: (Units=1/GPa)
#
#
# Indices 1 2 3 4 5 6 
#
# 1 0.023429 -0.008993 -0.005298 0.000003 -0.006562 -0.000002
# 2 -0.008993 0.025921 -0.009485 0.000008 0.012662 -0.000019
# 3 -0.005298 -0.009485 0.016858 -0.000004 -0.011966 0.000001
# 4 0.000003 0.000008 -0.000004 0.037559 -0.000001 0.002178
# 5 -0.006562 0.012662 -0.011966 -0.000001 0.085480 0.000027
# 6 -0.000002 -0.000019 0.000001 0.002178 0.000027 0.064055
#
#
# Mechanical properties :
#
#
# Convention : Reuss Voigt Hill
#
# Bulk Modulus (GPa) = 53.60029 59.45563 56.52796
# Shear Modulus (GPa) = 16.28281 18.84606 17.56443
#
# Velocity S-wave (km/s) = 3.27407 3.52236 3.40048
# Velocity P-wave (km/s) = 7.04128 7.46219 7.25479
#
# Compressibility (1/GPa) = 0.01865662
#
# Stress axis : x y z
#
# Youngs Moduli (GPa) = 42.68212 38.57838 59.31959
#
# Poissons Ratio (x) = 0.34695 0.31426
# Poissons Ratio (y) = 0.38385 0.56263
# Poissons Ratio (z) = 0.22612 0.36591
#
# Static dielectric constant tensor:
#      x y z
#    x 2.588940 -0.000010 0.152990 
#    y -0.000010 2.937300 0.000020 
#    z 0.152990 0.000020 3.591480 
# 
# 
# High freq. dielectric constant tensor:
#      x y z
#    x 1.525510 0.000000 0.007650 
#    y 0.000000 1.578590 0.000000 
#    z 0.007650 0.000000 1.591550 
# 
# From -- ./inp_files/350952.got.cif
#   From: 2010.06.25/outbox.cif.g09.slc.cpg/sg12_176_cif.got.tgz:350952.got - 2010.06.28 00:19:55.
