data_PCOD8084207
_publ_section_title
;
Structure prediction by ZEFSAII (Michael W. Deem and Ramdas Pophale) SiO2 
 PCOD8084207
Probable space group: C 2/M
;
_chemical_formula_sum "Si O2"
_cell_formula_units_Z 48
_cell_length_a 23.200068
_cell_length_b 8.459457
_cell_length_c 12.279361
_cell_angle_alpha 90.000000
_cell_angle_beta 110.116133
_cell_angle_gamma 90.000000
_cell_volume 2262.934194
_symmetry_space_group_name_H-M "C 2/M"
_symmetry_group_IT_number 12
_symmetry_cell_setting 'monoclinic'
loop_
_space_group_symop_operation_xyz
x,y,z
-x,y,-z
-x,-y,-z
x,-y,z
1/2+x,1/2+y,z
1/2-x,1/2+y,-z
1/2-x,1/2-y,-z
1/2+x,1/2-y,z
loop_
_atom_site_type_symbol
_atom_site_label
_atom_site_fract_x
_atom_site_fract_y
_atom_site_fract_z
Si Si1 0.599749 0.187860 0.814201
Si Si2 0.647342 0.318574 0.469400
Si Si3 0.430912 0.811959 0.968491
Si Si4 0.203005 0.684696 0.720094
Si Si5 0.518172 0.178703 0.387284
Si Si6 0.326854 0.184776 0.739197
O O1 0.659262 0.251567 0.788140
O O2 0.537834 0.251462 0.717612
O O3 0.599410 0.000000 0.804667
O O4 0.599450 0.248176 0.938372
O O5 0.660855 0.500000 0.506868
O O6 0.670635 0.210870 0.582924
O O7 0.575570 0.290647 0.402705
O O8 0.682154 0.274471 0.380718
O O9 0.387497 0.753317 0.841992
O O10 0.433557 0.000000 0.971873
O O11 0.500000 0.743643 0.000000
O O12 0.215876 0.500000 0.742913
O O13 0.266774 0.778694 0.771990
O O14 0.500000 0.178732 0.500000
O O15 0.534435 0.000000 0.359347
O O16 0.332147 0.000000 0.719879
#
# Coordination Sequence:
#
# PCOD8084207 Si02
#       6
#     8   8   8   8   8   8
#     4   9  18  34  59  89 119 154 195 238 287 348
#     4  12  24  38  58  86 121 157 197 244 297 347
#     4   9  18  35  61  89 115 148 194 243 286 345
#     4  11  22  39  60  85 119 156 196 241 296 354
#     4  10  18  34  60  89 117 152 194 236 287 345
#     4  11  23  39  60  86 116 153 200 245 292 347
#
# _framework density 21.211399
#
# number of rings (size 3 to 8) (size 9 to 14) (size 15 to 20)
#    0.000    1.667    1.667    4.000    0.000    3.667 
#    0.000    0.000    0.000   12.000    0.000    0.000 
#    0.000    0.000    0.000    0.000    0.000    0.000 
#
# Total GULP energy -297658.332340 kJ/mol
# GULP energy per Si atom -12402.430514 kJ/mol
# Density = 2.116312 g / cm^3
# Si number density = 21.211399 Si / 1000 Ang^3
#
#
#
# Elastic Constant Matrix: (Units=GPa)
#
#
# Indices 1 2 3 4 5 6 
#
# 1 142.1348 9.0210 41.6548 0.0000 -4.1395 0.0000
# 2 9.0210 40.4803 5.4649 0.0000 -0.6978 0.0000
# 3 41.6548 5.4649 103.2353 0.0000 -12.6402 0.0000
# 4 0.0000 0.0000 0.0000 104.4262 0.0000 5.0984
# 5 -4.1395 -0.6978 -12.6402 0.0000 35.7869 0.0000
# 6 0.0000 0.0000 0.0000 5.0984 0.0000 32.3969
#
#
#
# Elastic Compliance Matrix: (Units=1/GPa)
#
#
# Indices 1 2 3 4 5 6 
#
# 1 0.008055 -0.001366 -0.003206 0.000000 -0.000227 0.000000
# 2 -0.001366 0.025113 -0.000771 0.000000 0.000059 0.000000
# 3 -0.003206 -0.000771 0.011470 0.000000 0.003665 0.000000
# 4 0.000000 0.000000 0.000000 0.009650 0.000000 -0.001519
# 5 -0.000227 0.000059 0.003665 0.000000 0.029213 0.000000
# 6 0.000000 0.000000 0.000000 -0.001519 0.000000 0.031106
#
#
# Mechanical properties :
#
#
# Convention : Reuss Voigt Hill
#
# Bulk Modulus (GPa) = 29.45316 44.23686 36.84501
# Shear Modulus (GPa) = 36.60058 49.83598 43.21828
#
# Velocity S-wave (km/s) = 4.15844 4.85241 4.51877
# Velocity P-wave (km/s) = 6.08050 7.23153 6.68085
#
# Compressibility (1/GPa) = 0.03395222
#
# Stress axis : x y z
#
# Youngs Moduli (GPa) = 124.14416 39.82009 87.18642
#
# Poissons Ratio (x) = 0.05440 0.27949
# Poissons Ratio (y) = 0.16961 0.06721
# Poissons Ratio (z) = 0.39797 0.03070
#
# Static dielectric constant tensor:
#      x y z
#    x 4.162760 0.000000 -0.025570 
#    y 0.000000 3.344480 0.000000 
#    z -0.025570 0.000000 3.880300 
# 
# 
# High freq. dielectric constant tensor:
#      x y z
#    x 1.849460 0.000000 -0.002430 
#    y 0.000000 1.787720 0.000000 
#    z -0.002430 0.000000 1.831840 
# 
# From -- ./inp_files/173062.got.cif
#   From: 2010.06.25/outbox.cif.g09.slc.cpg/sg12_87_cif.got.tgz:173062.got - 2010.06.28 00:19:55.
