data_PCOD8084601
_publ_section_title
;
Structure prediction by ZEFSAII (Michael W. Deem and Ramdas Pophale) SiO2 
 PCOD8084601
Probable space group: C 2/M
;
_chemical_formula_sum "Si O2"
_cell_formula_units_Z 40
_cell_length_a 10.600005
_cell_length_b 17.457215
_cell_length_c 9.375582
_cell_angle_alpha 90.000000
_cell_angle_beta 84.718670
_cell_angle_gamma 90.000000
_cell_volume 1727.554081
_symmetry_space_group_name_H-M "C 2/M"
_symmetry_group_IT_number 12
_symmetry_cell_setting 'monoclinic'
loop_
_space_group_symop_operation_xyz
x,y,z
-x,y,-z
-x,-y,-z
x,-y,z
1/2+x,1/2+y,z
1/2-x,1/2+y,-z
1/2-x,1/2-y,-z
1/2+x,1/2-y,z
loop_
_atom_site_type_symbol
_atom_site_label
_atom_site_fract_x
_atom_site_fract_y
_atom_site_fract_z
Si Si1 0.178656 0.171737 0.144285
Si Si2 0.675940 0.089307 0.369103
Si Si3 0.540824 0.642879 0.649174
Si Si4 0.382435 0.157655 0.916280
Si Si5 0.152318 0.703993 0.605330
O O1 0.120463 0.250983 0.095465
O O2 0.287148 0.183284 0.250850
O O3 0.064361 0.119976 0.221046
O O4 0.250114 0.130079 0.004986
O O5 0.823099 0.109589 0.324896
O O6 0.598586 0.118542 0.239649
O O7 0.617645 0.128341 0.517823
O O8 0.657491 0.000000 0.391805
O O9 0.500000 0.609165 0.500000
O O10 0.536710 0.736865 0.644374
O O11 0.500000 0.131427 0.000000
O O12 0.250000 0.750000 0.500000
#
# Coordination Sequence:
#
# PCOD8084601 Si02
#       5
#     8   8   8   8   8
#     4  11  21  38  66  99 127 161 217 278 329 368
#     4  11  24  43  63  94 136 177 214 262 327 386
#     4  11  19  37  67  97 127 158 212 278 326 371
#     4  11  24  40  63  95 132 173 216 265 317 388
#     4  10  18  38  62  96 122 165 213 268 318 374
#
# _framework density 23.154125000000001
#
# number of rings (size 3 to 8) (size 9 to 14) (size 15 to 20)
#    0.000    1.200    8.000    1.200    2.800    0.800 
#    0.000    3.000    0.000   13.800    0.000    0.000 
#    0.000    0.000    0.000    0.000    0.000    0.000 
#
# Total GULP energy -247937.553776 kJ/mol
# GULP energy per Si atom -12396.877689 kJ/mol
# Density = 2.310142 g / cm^3
# Si number density = 23.154125 Si / 1000 Ang^3
#
#
#
# Elastic Constant Matrix: (Units=GPa)
#
#
# Indices 1 2 3 4 5 6 
#
# 1 60.8350 -6.0089 7.8792 0.0000 11.1313 0.0000
# 2 -6.0089 84.8733 1.7998 0.0000 13.0202 0.0000
# 3 7.8792 1.7998 87.6261 0.0000 12.6478 0.0000
# 4 0.0000 0.0000 0.0000 13.2114 0.0000 -0.1631
# 5 11.1313 13.0202 12.6478 0.0000 57.0671 0.0000
# 6 0.0000 0.0000 0.0000 -0.1631 0.0000 11.2919
#
#
#
# Elastic Compliance Matrix: (Units=1/GPa)
#
#
# Indices 1 2 3 4 5 6 
#
# 1 0.017409 0.001803 -0.001088 0.000000 -0.003566 0.000000
# 2 0.001803 0.012398 0.000044 0.000000 -0.003190 0.000000
# 3 -0.001088 0.000044 0.011859 0.000000 -0.002426 0.000000
# 4 0.000000 0.000000 0.000000 0.075706 0.000000 0.001093
# 5 -0.003566 -0.003190 -0.002426 0.000000 0.019484 0.000000
# 6 0.000000 0.000000 0.000000 0.001093 0.000000 0.088575
#
#
# Mechanical properties :
#
#
# Convention : Reuss Voigt Hill
#
# Bulk Modulus (GPa) = 23.15660 26.74160 24.94910
# Shear Modulus (GPa) = 20.98114 31.62504 26.30309
#
# Velocity S-wave (km/s) = 3.01350 3.69975 3.37412
# Velocity P-wave (km/s) = 4.70436 5.46126 5.09688
#
# Compressibility (1/GPa) = 0.04318423
#
# Stress axis : x y z
#
# Youngs Moduli (GPa) = 57.44044 80.65588 84.32252
#
# Poissons Ratio (x) = -0.14540 0.09172
# Poissons Ratio (y) = -0.10355 -0.00369
# Poissons Ratio (z) = 0.06248 -0.00352
#
# Static dielectric constant tensor:
#      x y z
#    x 4.228560 0.000000 -0.399550 
#    y 0.000000 3.756970 0.000000 
#    z -0.399550 0.000000 4.890970 
# 
# 
# High freq. dielectric constant tensor:
#      x y z
#    x 1.932020 0.000000 -0.007380 
#    y 0.000000 1.843040 0.000000 
#    z -0.007380 0.000000 1.936270 
# 
# From -- ./inp_files/48699.got.cif
#   From: 2010.06.25/outbox.cif.g09.slc.cpg/sg12_25_cif.got.tgz:48699.got - 2010.06.28 00:19:55.
