data_PCOD8084563
_publ_section_title
;
Structure prediction by ZEFSAII (Michael W. Deem and Ramdas Pophale) SiO2 
 PCOD8084563
Probable space group: C 2/M
;
_chemical_formula_sum "Si O2"
_cell_formula_units_Z 64
_cell_length_a 14.567286
_cell_length_b 18.295912
_cell_length_c 21.716626
_cell_angle_alpha 90.000000
_cell_angle_beta 147.206049
_cell_angle_gamma 90.000000
_cell_volume 3134.868479
_symmetry_space_group_name_H-M "C 2/M"
_symmetry_group_IT_number 12
_symmetry_cell_setting 'monoclinic'
loop_
_space_group_symop_operation_xyz
x,y,z
-x,y,-z
-x,-y,-z
x,-y,z
1/2+x,1/2+y,z
1/2-x,1/2+y,-z
1/2-x,1/2-y,-z
1/2+x,1/2-y,z
loop_
_atom_site_type_symbol
_atom_site_label
_atom_site_fract_x
_atom_site_fract_y
_atom_site_fract_z
Si Si1 0.515414 0.346126 0.138478
Si Si2 0.590949 0.691709 0.698401
Si Si3 0.896250 0.314756 0.777160
Si Si4 0.603977 0.884614 0.501245
Si Si5 0.648530 0.143091 0.747444
Si Si6 0.353563 0.716056 0.461471
Si Si7 0.319602 0.085557 0.101132
Si Si8 0.969543 0.079999 0.723334
O O1 0.510103 0.260628 0.153007
O O2 0.669304 0.365727 0.180704
O O3 0.536149 0.394641 0.210139
O O4 0.346542 0.368216 0.007727
O O5 0.743173 0.671876 0.738186
O O6 0.615148 0.771358 0.741661
O O7 0.405704 0.690023 0.559551
O O8 0.589228 0.633275 0.751568
O O9 0.824952 0.312924 0.666036
O O10 0.027884 0.381554 0.854418
O O11 0.500000 0.918711 0.500000
O O12 0.493837 0.889662 0.377619
O O13 0.655996 0.802811 0.548830
O O14 0.779016 0.926966 0.589491
O O15 0.640912 0.096255 0.804896
O O16 0.500000 0.685854 0.500000
O O17 0.298901 0.000000 0.074036
O O18 0.053523 0.000000 0.767097
#
# Coordination Sequence:
#
# PCOD8084563 Si02
#       8
#     8   8   8   8   8   8   8   8
#     4  11  22  45  64  86 114 160 214 255 296 345
#     4   9  21  38  63  94 121 156 201 252 305 355
#     4  10  20  41  68  88 116 158 213 256 286 354
#     4  10  18  37  60  92 121 153 199 249 303 359
#     4  10  22  40  67  89 117 156 203 255 302 359
#     4   8  15  33  62  89 115 149 195 251 302 341
#     4  12  27  41  60  90 126 165 200 246 308 362
#     4  12  24  36  58  90 129 165 196 243 308 368
#
# _framework density 20.41553
#
# number of rings (size 3 to 8) (size 9 to 14) (size 15 to 20)
#    0.000    1.750    2.500    3.375    1.750    3.750 
#    0.000    1.875    0.000    3.750    0.000    0.000 
#    0.000    0.000    0.000    0.000    0.000    0.000 
#
# Total GULP energy -396767.032073 kJ/mol
# GULP energy per Si atom -12398.969752 kJ/mol
# Density = 2.036906 g / cm^3
# Si number density = 20.415530 Si / 1000 Ang^3
#
#
#
# Elastic Constant Matrix: (Units=GPa)
#
#
# Indices 1 2 3 4 5 6 
#
# 1 65.1483 45.2597 28.0306 0.0000 2.4769 0.0001
# 2 45.2597 99.2198 26.9601 0.0003 -3.3865 0.0001
# 3 28.0306 26.9601 105.4860 0.0011 -4.3835 0.0008
# 4 0.0000 0.0003 0.0011 11.9875 0.0005 1.2073
# 5 2.4769 -3.3865 -4.3835 0.0005 5.9289 -0.0001
# 6 0.0001 0.0001 0.0008 1.2073 -0.0001 3.1811
#
#
#
# Elastic Compliance Matrix: (Units=1/GPa)
#
#
# Indices 1 2 3 4 5 6 
#
# 1 0.026109 -0.011288 -0.004925 0.000002 -0.020997 0.000000
# 2 -0.011288 0.015817 -0.000486 -0.000001 0.013390 0.000000
# 3 -0.004925 -0.000486 0.011335 -0.000001 0.010160 -0.000002
# 4 0.000002 -0.000001 -0.000001 0.086736 -0.000010 -0.032920
# 5 -0.020997 0.013390 0.010160 -0.000010 0.192597 0.000005
# 6 0.000000 0.000000 -0.000002 -0.032920 0.000005 0.326853
#
#
# Mechanical properties :
#
#
# Convention : Reuss Voigt Hill
#
# Bulk Modulus (GPa) = 50.34904 52.26164 51.30534
# Shear Modulus (GPa) = 7.14829 15.52641 11.33735
#
# Velocity S-wave (km/s) = 1.87323 2.76074 2.35910
# Velocity P-wave (km/s) = 5.42165 5.98472 5.71013
#
# Compressibility (1/GPa) = 0.01986135
#
# Stress axis : x y z
#
# Youngs Moduli (GPa) = 38.30073 63.22309 88.21994
#
# Poissons Ratio (x) = 0.71367 0.43452
# Poissons Ratio (y) = 0.43234 0.04292
# Poissons Ratio (z) = 0.18865 0.03076
#
# Static dielectric constant tensor:
#      x y z
#    x 3.647490 0.000000 -0.008900 
#    y 0.000000 3.699780 0.000000 
#    z -0.008900 0.000000 3.841950 
# 
# 
# High freq. dielectric constant tensor:
#      x y z
#    x 1.799240 0.000000 0.000160 
#    y 0.000000 1.774810 0.000000 
#    z 0.000160 0.000000 1.801590 
# 
# From -- ./inp_files/340878.got.cif
#   From: 2010.06.25/outbox.cif.g09.slc.cpg/sg12_171_cif.got.tgz:340878.got - 2010.06.28 00:19:55.
