data_PCOD8084300
_publ_section_title
;
Structure prediction by ZEFSAII (Michael W. Deem and Ramdas Pophale) SiO2 
 PCOD8084300
Probable space group: C 2/M
;
_chemical_formula_sum "Si O2"
_cell_formula_units_Z 48
_cell_length_a 18.253977
_cell_length_b 13.645845
_cell_length_c 19.663078
_cell_angle_alpha 90.000000
_cell_angle_beta 30.543046
_cell_angle_gamma 90.000000
_cell_volume 2489.039293
_symmetry_space_group_name_H-M "C 2/M"
_symmetry_group_IT_number 12
_symmetry_cell_setting 'monoclinic'
loop_
_space_group_symop_operation_xyz
x,y,z
-x,y,-z
-x,-y,-z
x,-y,z
1/2+x,1/2+y,z
1/2-x,1/2+y,-z
1/2-x,1/2-y,-z
1/2+x,1/2-y,z
loop_
_atom_site_type_symbol
_atom_site_label
_atom_site_fract_x
_atom_site_fract_y
_atom_site_fract_z
Si Si1 0.812208 0.789313 0.853367
Si Si2 0.656376 0.708188 0.409377
Si Si3 0.371930 0.323930 0.421184
Si Si4 0.348858 0.614408 0.965447
Si Si5 0.326674 0.393860 0.317910
Si Si6 0.840335 0.614678 0.146376
O O1 0.787479 0.850965 0.941793
O O2 0.762201 0.860897 0.833912
O O3 0.978595 0.765725 0.707314
O O4 0.729601 0.684818 0.917125
O O5 0.500000 0.713374 0.500000
O O6 0.645011 0.640416 0.486767
O O7 0.704924 0.816683 0.393855
O O8 0.779873 0.665755 0.262446
O O9 0.250000 0.250000 0.500000
O O10 0.356345 0.406946 0.375827
O O11 0.309656 0.500000 0.008732
O O12 0.519111 0.633295 0.838393
O O13 0.274551 0.500000 0.333193
O O14 0.840260 0.500000 0.160908
O O15 0.000000 0.652783 0.000000
#
# Coordination Sequence:
#
# PCOD8084300 Si02
#       6
#     8   8   8   8   8   8
#     4  10  18  35  56  81 116 152 187 247 290 339
#     4  11  21  38  59  88 119 153 193 238 293 350
#     4   9  19  36  57  82 113 149 196 237 289 340
#     4   9  18  33  58  85 110 150 199 236 285 344
#     4   9  19  36  59  85 116 155 195 238 287 344
#     4  11  24  39  57  84 117 153 193 238 296 351
#
# _framework density 19.284548000000001
#
# number of rings (size 3 to 8) (size 9 to 14) (size 15 to 20)
#    0.000    2.167    1.667    1.500    0.000    3.333 
#    0.000    4.167    0.000    3.000    0.000    0.000 
#    0.000    0.000    0.000    0.000    0.000    0.000 
#
# Total GULP energy -297403.684566 kJ/mol
# GULP energy per Si atom -12391.820190 kJ/mol
# Density = 1.924066 g / cm^3
# Si number density = 19.284548 Si / 1000 Ang^3
#
#
#
# Elastic Constant Matrix: (Units=GPa)
#
#
# Indices 1 2 3 4 5 6 
#
# 1 87.6776 20.4778 42.0048 0.0001 1.6054 -0.0002
# 2 20.4778 78.7384 39.7141 -0.0011 -2.9571 0.0003
# 3 42.0048 39.7141 125.3147 -0.0021 0.9384 0.0008
# 4 0.0001 -0.0011 -0.0021 18.2463 0.0009 -4.8738
# 5 1.6054 -2.9571 0.9384 0.0009 33.4452 -0.0001
# 6 -0.0002 0.0003 0.0008 -4.8738 -0.0001 19.6067
#
#
#
# Elastic Compliance Matrix: (Units=1/GPa)
#
#
# Indices 1 2 3 4 5 6 
#
# 1 0.013748 -0.001523 -0.004120 -0.000001 -0.000679 0.000000
# 2 -0.001523 0.015358 -0.004368 0.000000 0.001554 0.000000
# 3 -0.004120 -0.004368 0.010749 0.000001 -0.000490 0.000000
# 4 -0.000001 0.000000 0.000001 0.058703 -0.000001 0.014592
# 5 -0.000679 0.001554 -0.000490 -0.000001 0.030083 0.000000
# 6 0.000000 0.000000 0.000000 0.014592 0.000000 0.054630
#
#
# Mechanical properties :
#
#
# Convention : Reuss Voigt Hill
#
# Bulk Modulus (GPa) = 50.42446 55.12490 52.77468
# Shear Modulus (GPa) = 23.82028 26.89524 25.35776
#
# Velocity S-wave (km/s) = 3.51835 3.73856 3.63013
# Velocity P-wave (km/s) = 6.53525 6.87625 6.70792
#
# Compressibility (1/GPa) = 0.01983164
#
# Stress axis : x y z
#
# Youngs Moduli (GPa) = 72.74038 65.11278 93.03046
#
# Poissons Ratio (x) = 0.09914 0.38333
# Poissons Ratio (y) = 0.11075 0.40640
# Poissons Ratio (z) = 0.29973 0.28444
#
# Static dielectric constant tensor:
#      x y z
#    x 3.789910 -0.000010 0.191500 
#    y -0.000010 3.618770 -0.000010 
#    z 0.191500 -0.000010 3.659290 
# 
# 
# High freq. dielectric constant tensor:
#      x y z
#    x 1.748330 0.000000 -0.001950 
#    y 0.000000 1.733130 0.000000 
#    z -0.001950 0.000000 1.760860 
# 
# From -- ./inp_files/104918.got.cif
#   From: 2010.06.25/outbox.cif.g09.slc.cpg/sg12_53_cif.got.tgz:104918.got - 2010.06.28 00:19:55.
