data_PCOD8084476
_publ_section_title
;
Structure prediction by ZEFSAII (Michael W. Deem and Ramdas Pophale) SiO2 
 PCOD8084476
Probable space group: C 2/M
;
_chemical_formula_sum "Si O2"
_cell_formula_units_Z 48
_cell_length_a 24.450233
_cell_length_b 14.737811
_cell_length_c 19.696788
_cell_angle_alpha 90.000000
_cell_angle_beta 20.433167
_cell_angle_gamma 90.000000
_cell_volume 2477.874764
_symmetry_space_group_name_H-M "C 2/M"
_symmetry_group_IT_number 12
_symmetry_cell_setting 'monoclinic'
loop_
_space_group_symop_operation_xyz
x,y,z
-x,y,-z
-x,-y,-z
x,-y,z
1/2+x,1/2+y,z
1/2-x,1/2+y,-z
1/2-x,1/2-y,-z
1/2+x,1/2-y,z
loop_
_atom_site_type_symbol
_atom_site_label
_atom_site_fract_x
_atom_site_fract_y
_atom_site_fract_z
Si Si1 0.512382 0.898183 0.733116
Si Si2 0.407570 0.756097 0.964685
Si Si3 0.413701 0.601856 0.438315
Si Si4 0.245462 0.223326 0.617696
Si Si5 0.281849 0.347445 0.992560
Si Si6 0.144414 0.777554 0.374754
O O1 0.445256 0.840993 0.873386
O O2 0.673985 0.853366 0.521077
O O3 0.550162 0.000000 0.712946
O O4 0.382130 0.901348 0.823848
O O5 0.560081 0.717896 0.825231
O O6 0.334578 0.669292 0.009210
O O7 0.288569 0.797402 0.157637
O O8 0.345111 0.500000 0.511727
O O9 0.305681 0.675596 0.523942
O O10 0.586384 0.602446 0.205150
O O11 0.414619 0.630930 0.517251
O O12 0.296113 0.206299 0.637198
O O13 0.250000 0.250000 0.000000
O O14 0.000000 0.736470 0.500000
#
# Coordination Sequence:
#
# PCOD8084476 Si02
#       6
#     8   8   8   8   8   8
#     4  11  22  37  61  87 115 152 196 242 283 337
#     4  11  20  37  61  85 118 154 189 238 291 344
#     4  10  21  35  57  85 121 154 189 234 285 344
#     4  10  22  39  54  86 119 158 190 232 291 343
#     4  10  18  36  58  81 112 150 197 232 280 336
#     4  10  20  36  60  83 115 155 193 232 288 346
#
# _framework density 19.371438999999999
#
# number of rings (size 3 to 8) (size 9 to 14) (size 15 to 20)
#    1.000    0.667    3.333    4.500    0.000    1.667 
#    0.000    1.667    0.000    7.500    0.000    0.000 
#    0.000    0.000    0.000    0.000    0.000    0.000 
#
# Total GULP energy -297382.430740 kJ/mol
# GULP energy per Si atom -12390.934614 kJ/mol
# Density = 1.932735 g / cm^3
# Si number density = 19.371439 Si / 1000 Ang^3
#
#
#
# Elastic Constant Matrix: (Units=GPa)
#
#
# Indices 1 2 3 4 5 6 
#
# 1 73.1551 28.3446 28.6621 -0.0021 1.5478 -0.0007
# 2 28.3446 67.5045 32.2598 -0.0081 15.1960 0.0042
# 3 28.6621 32.2598 107.2264 -0.0018 -0.1141 -0.0006
# 4 -0.0021 -0.0081 -0.0018 11.2520 0.0050 1.6041
# 5 1.5478 15.1960 -0.1141 0.0050 39.8412 -0.0021
# 6 -0.0007 0.0042 -0.0006 1.6041 -0.0021 11.4763
#
#
#
# Elastic Compliance Matrix: (Units=1/GPa)
#
#
# Indices 1 2 3 4 5 6 
#
# 1 0.017124 -0.006298 -0.002680 -0.000003 0.001729 0.000004
# 2 -0.006298 0.021556 -0.004810 0.000019 -0.007991 -0.000013
# 3 -0.002680 -0.004810 0.011492 -0.000003 0.001972 0.000003
# 4 -0.000003 0.000019 -0.000003 0.090680 -0.000019 -0.012675
# 5 0.001729 -0.007991 0.001972 -0.000019 0.028086 0.000011
# 6 0.000004 -0.000013 0.000003 -0.012675 0.000011 0.088908
#
#
# Mechanical properties :
#
#
# Convention : Reuss Voigt Hill
#
# Bulk Modulus (GPa) = 44.26075 47.37989 45.82032
# Shear Modulus (GPa) = 17.06747 23.08853 20.07800
#
# Velocity S-wave (km/s) = 2.97149 3.45611 3.22292
# Velocity P-wave (km/s) = 5.88822 6.35909 6.12818
#
# Compressibility (1/GPa) = 0.02259338
#
# Stress axis : x y z
#
# Youngs Moduli (GPa) = 58.39911 46.39059 87.01820
#
# Poissons Ratio (x) = 0.29219 0.23325
# Poissons Ratio (y) = 0.36782 0.41858
# Poissons Ratio (z) = 0.15654 0.22315
#
# Static dielectric constant tensor:
#      x y z
#    x 3.795950 -0.000010 -0.167740 
#    y -0.000010 3.331640 0.000010 
#    z -0.167740 0.000010 3.443470 
# 
# 
# High freq. dielectric constant tensor:
#      x y z
#    x 1.750770 0.000000 -0.008670 
#    y 0.000000 1.713660 0.000000 
#    z -0.008670 0.000000 1.761360 
# 
# From -- ./inp_files/325639.got.cif
#   From: 2010.06.25/outbox.cif.g09.slc.cpg/sg12_163_cif.got.tgz:325639.got - 2010.06.28 00:19:55.
