data_PCOD8084941
_publ_section_title
;
Structure prediction by ZEFSAII (Michael W. Deem and Ramdas Pophale) SiO2 
 PCOD8084941
Probable space group: C 2/M
;
_chemical_formula_sum "Si O2"
_cell_formula_units_Z 56
_cell_length_a 27.401211
_cell_length_b 8.875026
_cell_length_c 18.282518
_cell_angle_alpha 90.000000
_cell_angle_beta 49.051185
_cell_angle_gamma 90.000000
_cell_volume 3358.089150
_symmetry_space_group_name_H-M "C 2/M"
_symmetry_group_IT_number 12
_symmetry_cell_setting 'monoclinic'
loop_
_space_group_symop_operation_xyz
x,y,z
-x,y,-z
-x,-y,-z
x,-y,z
1/2+x,1/2+y,z
1/2-x,1/2+y,-z
1/2-x,1/2-y,-z
1/2+x,1/2-y,z
loop_
_atom_site_type_symbol
_atom_site_label
_atom_site_fract_x
_atom_site_fract_y
_atom_site_fract_z
Si Si1 0.004074 0.672412 0.676542
Si Si2 0.932118 0.330590 0.107184
Si Si3 0.062305 0.322269 0.475682
Si Si4 0.003037 0.175426 0.829990
Si Si5 0.132613 0.327403 0.269653
Si Si6 0.749850 0.177117 0.921076
Si Si7 0.629372 0.323225 0.962097
O O1 0.012951 0.500000 0.693996
O O2 0.010066 0.782270 0.738846
O O3 0.934948 0.691819 0.705885
O O4 0.061539 0.721150 0.562769
O O5 0.905162 0.500000 0.140977
O O6 0.881908 0.230715 0.110087
O O7 0.941726 0.260850 0.178159
O O8 0.000000 0.328055 0.000000
O O9 0.052822 0.500000 0.480558
O O10 0.124305 0.280536 0.364304
O O11 0.000000 0.244072 0.500000
O O12 0.015025 0.000000 0.829368
O O13 0.931602 0.220296 0.927503
O O14 0.157029 0.500000 0.238952
O O15 0.183997 0.215147 0.184916
O O16 0.690425 0.236309 0.932732
O O17 0.743663 0.000000 0.936768
O O18 0.750000 0.250000 0.000000
O O19 0.643255 0.500000 0.948872
#
# Coordination Sequence:
#
# PCOD8084941 Si02
#       7
#     8   8   8   8   8   8   8
#     4   9  16  27  46  70  94 121 153 189 229 274
#     4   9  17  30  48  68  90 118 152 188 228 274
#     4   7  12  25  45  67  89 116 151 188 227 273
#     4  10  19  29  44  68  96 123 151 188 232 273
#     4   9  17  31  49  67  91 123 157 192 230 271
#     4  12  24  35  47  66  93 125 161 194 226 266
#     4  10  20  34  49  66  92 124 157 191 228 270
#
# _framework density 16.676151000000001
#
# number of rings (size 3 to 8) (size 9 to 14) (size 15 to 20)
#    0.000    2.571    0.000    5.143    0.000    6.286 
#    0.000    0.714    0.000    2.571    0.000    1.000 
#    0.000    0.000    0.000    0.000    0.000    0.000 
#
# Total GULP energy -347008.810676 kJ/mol
# GULP energy per Si atom -12393.171810 kJ/mol
# Density = 1.663820 g / cm^3
# Si number density = 16.676151 Si / 1000 Ang^3
#
#
#
# Elastic Constant Matrix: (Units=GPa)
#
#
# Indices 1 2 3 4 5 6 
#
# 1 76.0889 35.9082 40.9120 0.0007 11.3580 -0.0011
# 2 35.9082 79.7706 34.3062 0.0037 3.4233 0.0004
# 3 40.9120 34.3062 100.9977 0.0019 16.8181 -0.0017
# 4 0.0007 0.0037 0.0019 23.2516 0.0001 3.2236
# 5 11.3580 3.4233 16.8181 0.0001 17.1831 0.0000
# 6 -0.0011 0.0004 -0.0017 3.2236 0.0000 27.9363
#
#
#
# Elastic Compliance Matrix: (Units=1/GPa)
#
#
# Indices 1 2 3 4 5 6 
#
# 1 0.019821 -0.006651 -0.004551 0.000001 -0.007323 0.000000
# 2 -0.006651 0.016991 -0.003878 -0.000002 0.004807 0.000000
# 3 -0.004551 -0.003878 0.014853 -0.000001 -0.010757 0.000001
# 4 0.000001 -0.000002 -0.000001 0.043707 0.000000 -0.005043
# 5 -0.007323 0.004807 -0.010757 0.000000 0.072608 -0.000001
# 6 0.000000 0.000000 0.000001 -0.005043 -0.000001 0.036378
#
#
# Mechanical properties :
#
#
# Convention : Reuss Voigt Hill
#
# Bulk Modulus (GPa) = 46.49697 53.23446 49.86571
# Shear Modulus (GPa) = 20.68803 23.38959 22.03881
#
# Velocity S-wave (km/s) = 3.52600 3.74916 3.63929
# Velocity P-wave (km/s) = 6.67231 7.12274 6.90120
#
# Compressibility (1/GPa) = 0.02150678
#
# Stress axis : x y z
#
# Youngs Moduli (GPa) = 50.45097 58.85377 67.32675
#
# Poissons Ratio (x) = 0.39144 0.30637
# Poissons Ratio (y) = 0.33556 0.26107
# Poissons Ratio (z) = 0.22958 0.22821
#
# Static dielectric constant tensor:
#      x y z
#    x 3.073710 0.000000 0.221100 
#    y 0.000000 3.079010 0.000000 
#    z 0.221100 0.000000 3.310490 
# 
# 
# High freq. dielectric constant tensor:
#      x y z
#    x 1.619060 0.000000 0.023520 
#    y 0.000000 1.638470 0.000000 
#    z 0.023520 0.000000 1.631260 
# 
# From -- ./inp_files/291847.got.cif
#   From: 2010.06.25/outbox.cif.g09.slc.cpg/sg12_146_cif.got.tgz:291847.got - 2010.06.28 00:19:55.
