data_PCOD8084239
_publ_section_title
;
Structure prediction by ZEFSAII (Michael W. Deem and Ramdas Pophale) SiO2 
 PCOD8084239
Probable space group: C 2/M
;
_chemical_formula_sum "Si O2"
_cell_formula_units_Z 56
_cell_length_a 28.165760
_cell_length_b 8.912222
_cell_length_c 19.398423
_cell_angle_alpha 90.000000
_cell_angle_beta 142.512754
_cell_angle_gamma 90.000000
_cell_volume 2963.432278
_symmetry_space_group_name_H-M "C 2/M"
_symmetry_group_IT_number 12
_symmetry_cell_setting 'monoclinic'
loop_
_space_group_symop_operation_xyz
x,y,z
-x,y,-z
-x,-y,-z
x,-y,z
1/2+x,1/2+y,z
1/2-x,1/2+y,-z
1/2-x,1/2-y,-z
1/2+x,1/2-y,z
loop_
_atom_site_type_symbol
_atom_site_label
_atom_site_fract_x
_atom_site_fract_y
_atom_site_fract_z
Si Si1 0.201569 0.676371 0.234135
Si Si2 0.638860 0.329607 0.745939
Si Si3 0.004412 0.324318 0.668050
Si Si4 0.873067 0.826501 0.429490
Si Si5 0.816252 0.325096 0.938931
Si Si6 0.466172 0.323301 0.159159
Si Si7 0.045561 0.674165 0.122367
O O1 0.208561 0.500000 0.229658
O O2 0.287502 0.731186 0.356357
O O3 0.177088 0.740883 0.131187
O O4 0.136770 0.716716 0.216454
O O5 0.616984 0.500000 0.740779
O O6 0.588236 0.217864 0.733354
O O7 0.620849 0.303405 0.645122
O O8 0.729304 0.297729 0.867058
O O9 0.000992 0.500000 0.676227
O O10 0.990185 0.243733 0.724411
O O11 0.936815 0.276652 0.538128
O O12 0.887656 0.000000 0.466079
O O13 0.838948 0.500000 0.967695
O O14 0.877214 0.235010 0.055875
O O15 0.466136 0.500000 0.164757
O O16 0.513150 0.275380 0.145625
O O17 0.035369 0.500000 0.130369
O O18 0.000000 0.710691 0.000000
#
# Coordination Sequence:
#
# PCOD8084239 Si02
#       7
#     8   8   8   8   8   8   8
#     4   8  15  31  59  89 112 142 179 222 273 328
#     4   9  19  36  62  88 112 144 184 229 279 333
#     4  12  25  39  55  77 111 153 194 232 278 330
#     4   9  18  36  61  86 113 144 185 228 273 328
#     4   9  17  35  59  85 113 145 184 223 274 336
#     4  12  25  38  54  80 116 151 188 231 280 330
#     4  10  18  34  62  88 114 145 182 223 272 335
#
# _framework density 18.897008
#
# number of rings (size 3 to 8) (size 9 to 14) (size 15 to 20)
#    0.000    2.143    1.429    4.714    0.000    3.714 
#    0.000    3.571    0.000    0.000    0.000    0.000 
#    0.000    0.000    0.000    0.000    0.000    0.000 
#
# Total GULP energy -347207.251520 kJ/mol
# GULP energy per Si atom -12400.258983 kJ/mol
# Density = 1.885400 g / cm^3
# Si number density = 18.897008 Si / 1000 Ang^3
#
#
#
# Elastic Constant Matrix: (Units=GPa)
#
#
# Indices 1 2 3 4 5 6 
#
# 1 88.7195 43.3622 31.0790 0.0000 8.7560 0.0000
# 2 43.3622 102.1383 27.6943 0.0000 -2.5162 0.0000
# 3 31.0790 27.6943 42.0100 0.0000 1.8230 0.0000
# 4 0.0000 0.0000 0.0000 24.9093 0.0000 -2.5299
# 5 8.7560 -2.5162 1.8230 0.0000 22.1125 0.0000
# 6 0.0000 0.0000 0.0000 -2.5299 0.0000 28.5048
#
#
#
# Elastic Compliance Matrix: (Units=1/GPa)
#
#
# Indices 1 2 3 4 5 6 
#
# 1 0.017779 -0.005152 -0.009460 0.000000 -0.006846 0.000000
# 2 -0.005152 0.013504 -0.005265 0.000000 0.004011 0.000000
# 3 -0.009460 -0.005265 0.034259 0.000000 0.000322 0.000000
# 4 0.000000 0.000000 0.000000 0.040511 0.000000 0.003596
# 5 -0.006846 0.004011 0.000322 0.000000 0.048364 0.000000
# 6 0.000000 0.000000 0.000000 0.003596 0.000000 0.035401
#
#
# Mechanical properties :
#
#
# Convention : Reuss Voigt Hill
#
# Bulk Modulus (GPa) = 38.77593 48.57098 43.67346
# Shear Modulus (GPa) = 20.99366 23.82080 22.40723
#
# Velocity S-wave (km/s) = 3.33671 3.55429 3.44722
# Velocity P-wave (km/s) = 5.95055 6.52708 6.24547
#
# Compressibility (1/GPa) = 0.02578919
#
# Stress axis : x y z
#
# Youngs Moduli (GPa) = 56.24672 74.05104 29.18936
#
# Poissons Ratio (x) = 0.38148 0.27612
# Poissons Ratio (y) = 0.28976 0.15369
# Poissons Ratio (z) = 0.53207 0.38990
#
# Static dielectric constant tensor:
#      x y z
#    x 3.535270 0.000000 0.205760 
#    y 0.000000 3.188010 0.000000 
#    z 0.205760 0.000000 3.507310 
# 
# 
# High freq. dielectric constant tensor:
#      x y z
#    x 1.735500 0.000000 0.013240 
#    y 0.000000 1.710230 0.000000 
#    z 0.013240 0.000000 1.733080 
# 
# From -- ./inp_files/292453.got.cif
#   From: 2010.06.25/outbox.cif.g09.slc.cpg/sg12_147_cif.got.tgz:292453.got - 2010.06.28 00:19:55.
