data_PCOD8084548
_publ_section_title
;
Structure prediction by ZEFSAII (Michael W. Deem and Ramdas Pophale) SiO2 
 PCOD8084548
Probable space group: C 2/M
;
_chemical_formula_sum "Si O2"
_cell_formula_units_Z 40
_cell_length_a 25.004602
_cell_length_b 14.402133
_cell_length_c 9.309818
_cell_angle_alpha 90.000000
_cell_angle_beta 145.522071
_cell_angle_gamma 90.000000
_cell_volume 1897.896237
_symmetry_space_group_name_H-M "C 2/M"
_symmetry_group_IT_number 12
_symmetry_cell_setting 'monoclinic'
loop_
_space_group_symop_operation_xyz
x,y,z
-x,y,-z
-x,-y,-z
x,-y,z
1/2+x,1/2+y,z
1/2-x,1/2+y,-z
1/2-x,1/2-y,-z
1/2+x,1/2-y,z
loop_
_atom_site_type_symbol
_atom_site_label
_atom_site_fract_x
_atom_site_fract_y
_atom_site_fract_z
Si Si1 0.204268 0.891163 0.490162
Si Si2 0.131999 0.098931 0.646212
Si Si3 0.641542 0.250389 0.142000
Si Si4 0.463770 0.213262 0.569689
Si Si5 0.741184 0.171667 0.860685
O O1 0.186689 0.878947 0.619745
O O2 0.303963 0.840269 0.675475
O O3 0.125796 0.830714 0.228398
O O4 0.205537 0.000000 0.446146
O O5 0.056841 0.178731 0.509962
O O6 0.078656 0.000000 0.513488
O O7 0.207156 0.086538 0.944326
O O8 0.703568 0.301318 0.158964
O O9 0.542422 0.210250 0.867103
O O10 0.500000 0.168446 0.500000
O O11 0.370857 0.156894 0.418234
O O12 0.750000 0.250000 0.000000
#
# Coordination Sequence:
#
# PCOD8084548 Si02
#       5
#     8   8   8   8   8
#     4  10  22  40  58  83 119 155 191 235 289 342
#     4  10  20  36  57  86 121 148 184 239 288 342
#     4  11  21  38  62  83 115 157 189 238 289 337
#     4  11  19  34  60  87 111 148 192 230 285 345
#     4  10  18  37  57  83 112 148 190 228 284 341
#
# _framework density 21.075969000000001
#
# number of rings (size 3 to 8) (size 9 to 14) (size 15 to 20)
#    0.000    1.600    8.000    0.000    0.000    2.800 
#    0.000    3.000    0.000    4.800    0.000    0.000 
#    0.000    0.000    0.000    0.000    0.000    0.000 
#
# Total GULP energy -247772.289522 kJ/mol
# GULP energy per Si atom -12388.614476 kJ/mol
# Density = 2.102800 g / cm^3
# Si number density = 21.075969 Si / 1000 Ang^3
#
#
#
# Elastic Constant Matrix: (Units=GPa)
#
#
# Indices 1 2 3 4 5 6 
#
# 1 46.6208 -3.1690 4.2726 0.0000 -0.3559 0.0000
# 2 -3.1690 55.3390 -1.8417 0.0000 -12.1578 0.0000
# 3 4.2726 -1.8417 122.8682 0.0000 -1.8235 0.0000
# 4 0.0000 0.0000 0.0000 18.1029 0.0000 -3.2114
# 5 -0.3559 -12.1578 -1.8235 0.0000 28.8119 0.0000
# 6 0.0000 0.0000 0.0000 -3.2114 0.0000 14.1790
#
#
#
# Elastic Compliance Matrix: (Units=1/GPa)
#
#
# Indices 1 2 3 4 5 6 
#
# 1 0.021616 0.001392 -0.000719 0.000000 0.000809 0.000000
# 2 0.001392 0.020029 0.000378 0.000000 0.008493 0.000000
# 3 -0.000719 0.000378 0.008179 0.000000 0.000668 0.000000
# 4 0.000000 0.000000 0.000000 0.057552 0.000000 0.013035
# 5 0.000809 0.008493 0.000668 0.000000 0.038344 0.000000
# 6 0.000000 0.000000 0.000000 0.013035 0.000000 0.073479
#
#
# Mechanical properties :
#
#
# Convention : Reuss Voigt Hill
#
# Bulk Modulus (GPa) = 19.25834 24.81684 22.03759
# Shear Modulus (GPa) = 21.33047 27.25650 24.29348
#
# Velocity S-wave (km/s) = 3.18476 3.60008 3.39877
# Velocity P-wave (km/s) = 4.76246 5.39271 5.08735
#
# Compressibility (1/GPa) = 0.05192556
#
# Stress axis : x y z
#
# Youngs Moduli (GPa) = 46.26143 49.92878 122.25867
#
# Poissons Ratio (x) = -0.06948 0.08788
# Poissons Ratio (y) = -0.06438 -0.04620
# Poissons Ratio (z) = 0.03325 -0.01887
#
# Static dielectric constant tensor:
#      x y z
#    x 3.759560 0.000000 -0.190880 
#    y 0.000000 4.375010 0.000000 
#    z -0.190880 0.000000 4.634550 
# 
# 
# High freq. dielectric constant tensor:
#      x y z
#    x 1.818130 0.000000 -0.012860 
#    y 0.000000 1.797830 0.000000 
#    z -0.012860 0.000000 1.829720 
# 
# From -- ./inp_files/96641.got.cif
#   From: 2010.06.25/outbox.cif.g09.slc.cpg/sg12_49_cif.got.tgz:96641.got - 2010.06.28 00:19:55.
