data_PCOD8084896
_publ_section_title
;
Structure prediction by ZEFSAII (Michael W. Deem and Ramdas Pophale) SiO2 
 PCOD8084896
Probable space group: C 2/M
;
_chemical_formula_sum "Si O2"
_cell_formula_units_Z 64
_cell_length_a 27.967451
_cell_length_b 9.215746
_cell_length_c 26.237847
_cell_angle_alpha 90.000000
_cell_angle_beta 145.705354
_cell_angle_gamma 90.000000
_cell_volume 3810.360582
_symmetry_space_group_name_H-M "C 2/M"
_symmetry_group_IT_number 12
_symmetry_cell_setting 'monoclinic'
loop_
_space_group_symop_operation_xyz
x,y,z
-x,y,-z
-x,-y,-z
x,-y,z
1/2+x,1/2+y,z
1/2-x,1/2+y,-z
1/2-x,1/2-y,-z
1/2+x,1/2-y,z
loop_
_atom_site_type_symbol
_atom_site_label
_atom_site_fract_x
_atom_site_fract_y
_atom_site_fract_z
Si Si1 0.004385 0.662184 0.943674
Si Si2 0.667101 0.666817 0.096381
Si Si3 0.162999 0.171036 0.208867
Si Si4 0.681672 0.335594 0.470239
Si Si5 0.282839 0.829311 0.651252
Si Si6 0.072054 0.169697 0.284577
Si Si7 0.765109 0.665982 0.086467
Si Si8 0.118643 0.830414 0.880772
O O1 0.998527 0.500000 0.914928
O O2 0.928434 0.762665 0.856647
O O3 0.000000 0.653521 0.000000
O O4 0.092894 0.736169 0.006754
O O5 0.636001 0.500000 0.067216
O O6 0.689524 0.709981 0.174231
O O7 0.749351 0.690178 0.133027
O O8 0.229594 0.247685 0.305630
O O9 0.160827 0.000000 0.216239
O O10 0.709106 0.500000 0.487244
O O11 0.750000 0.250000 0.500000
O O12 0.694846 0.298336 0.542002
O O13 0.591206 0.307626 0.362763
O O14 0.364498 0.764099 0.693783
O O15 0.297526 0.000000 0.673556
O O16 0.976309 0.225940 0.190917
O O17 0.082354 0.000000 0.278755
O O18 0.786334 0.500000 0.092853
O O19 0.845328 0.759346 0.139346
O O20 0.679308 0.712558 0.981099
O O21 0.115261 0.000000 0.867406
#
# Coordination Sequence:
#
# PCOD8084896 Si02
#       8
#     8   8   8   8   8   8   8   8
#     4   9  17  28  41  60  86 113 145 185 220 253
#     4   9  18  31  46  62  84 119 155 184 219 263
#     4  10  19  30  43  61  87 120 155 185 215 260
#     4   8  15  28  44  63  90 118 144 178 220 266
#     4  10  19  29  43  67  95 120 148 184 223 262
#     4   9  17  30  48  68  90 120 151 179 219 271
#     4   9  18  32  47  64  89 117 147 185 224 259
#     4   9  18  31  47  68  89 112 147 184 220 266
#
# _framework density 16.796309999999998
#
# number of rings (size 3 to 8) (size 9 to 14) (size 15 to 20)
#    0.000    2.875    0.000    1.125    1.750    3.500 
#    0.000    0.000    0.000    0.000    0.000    0.875 
#    0.000    7.000    0.000    0.000    0.000    0.000 
#
# Total GULP energy -396480.952021 kJ/mol
# GULP energy per Si atom -12390.029751 kJ/mol
# Density = 1.675808 g / cm^3
# Si number density = 16.796310 Si / 1000 Ang^3
#
#
#
# Elastic Constant Matrix: (Units=GPa)
#
#
# Indices 1 2 3 4 5 6 
#
# 1 69.6114 24.0520 18.2189 0.0000 -10.3947 0.0000
# 2 24.0520 59.8817 17.5735 0.0000 -9.3233 0.0000
# 3 18.2189 17.5735 51.0932 0.0000 -13.7075 0.0000
# 4 0.0000 0.0000 0.0000 20.9691 0.0000 -2.9809
# 5 -10.3947 -9.3233 -13.7075 0.0000 23.3561 0.0000
# 6 0.0000 0.0000 0.0000 -2.9809 0.0000 24.4558
#
#
#
# Elastic Compliance Matrix: (Units=1/GPa)
#
#
# Indices 1 2 3 4 5 6 
#
# 1 0.017725 -0.005542 -0.003432 0.000000 0.003662 0.000000
# 2 -0.005542 0.020687 -0.004255 0.000000 0.003294 0.000000
# 3 -0.003432 -0.004255 0.025392 0.000000 0.011676 0.000000
# 4 0.000000 0.000000 0.000000 0.048530 0.000000 0.005915
# 5 0.003662 0.003294 0.011676 0.000000 0.052613 0.000000
# 6 0.000000 0.000000 0.000000 0.005915 0.000000 0.041611
#
#
# Mechanical properties :
#
#
# Convention : Reuss Voigt Hill
#
# Bulk Modulus (GPa) = 26.77666 33.36389 30.07027
# Shear Modulus (GPa) = 20.36937 21.80567 21.08752
#
# Velocity S-wave (km/s) = 3.48620 3.60702 3.54713
# Velocity P-wave (km/s) = 5.67287 6.10364 5.89219
#
# Compressibility (1/GPa) = 0.03734596
#
# Stress axis : x y z
#
# Youngs Moduli (GPa) = 56.41600 48.33867 39.38248
#
# Poissons Ratio (x) = 0.26791 0.13515
# Poissons Ratio (y) = 0.31267 0.16759
# Poissons Ratio (z) = 0.19361 0.20570
#
# Static dielectric constant tensor:
#      x y z
#    x 3.030040 0.000000 -0.352100 
#    y 0.000000 3.214300 0.000000 
#    z -0.352100 0.000000 3.522290 
# 
# 
# High freq. dielectric constant tensor:
#      x y z
#    x 1.620670 0.000000 -0.027980 
#    y 0.000000 1.655000 0.000000 
#    z -0.027980 0.000000 1.626620 
# 
# From -- ./inp_files/384584.got.cif
#   From: 2010.06.25/outbox.cif.g09.slc.cpg/sg12_193_cif.got.tgz:384584.got - 2010.06.28 00:19:55.
