data_PCOD8084845
_publ_section_title
;
Structure prediction by ZEFSAII (Michael W. Deem and Ramdas Pophale) SiO2 
 PCOD8084845
Probable space group: C 2/M
;
_chemical_formula_sum "Si O2"
_cell_formula_units_Z 64
_cell_length_a 25.062096
_cell_length_b 9.198533
_cell_length_c 21.277920
_cell_angle_alpha 90.000000
_cell_angle_beta 56.492606
_cell_angle_gamma 90.000000
_cell_volume 4090.106539
_symmetry_space_group_name_H-M "C 2/M"
_symmetry_group_IT_number 12
_symmetry_cell_setting 'monoclinic'
loop_
_space_group_symop_operation_xyz
x,y,z
-x,y,-z
-x,-y,-z
x,-y,z
1/2+x,1/2+y,z
1/2-x,1/2+y,-z
1/2-x,1/2-y,-z
1/2+x,1/2-y,z
loop_
_atom_site_type_symbol
_atom_site_label
_atom_site_fract_x
_atom_site_fract_y
_atom_site_fract_z
Si Si1 0.035513 0.159943 0.910920
Si Si2 0.909240 0.667310 0.795788
Si Si3 0.135069 0.835717 0.360756
Si Si4 0.513428 0.663931 0.349829
Si Si5 0.350183 0.328749 0.084373
Si Si6 0.074102 0.669299 0.071316
Si Si7 0.939065 0.664565 0.494414
Si Si8 0.290876 0.830380 0.786896
O O1 0.107789 0.211316 0.880771
O O2 0.998464 0.271548 0.889924
O O3 0.035882 0.000000 0.878811
O O4 0.000000 0.151197 0.000000
O O5 0.926959 0.500000 0.771780
O O6 0.966055 0.762557 0.728963
O O7 0.903438 0.702239 0.872836
O O8 0.841176 0.706343 0.809117
O O9 0.072979 0.834920 0.357771
O O10 0.119803 0.748323 0.434475
O O11 0.192981 0.757581 0.286813
O O12 0.155145 0.000000 0.364843
O O13 0.490086 0.500000 0.351939
O O14 0.455554 0.754032 0.418632
O O15 0.355335 0.500000 0.067070
O O16 0.278020 0.278747 0.143972
O O17 0.375134 0.246554 0.006689
O O18 0.073487 0.500000 0.055880
O O19 0.917848 0.500000 0.493153
O O20 0.000000 0.664799 0.500000
O O21 0.291433 0.000000 0.769275
#
# Coordination Sequence:
#
# PCOD8084845 Si02
#       8
#     8   8   8   8   8   8   8   8
#     4   8  15  29  46  62  79 100 131 172 214 251
#     4   9  18  30  41  57  84 114 141 169 203 247
#     4   9  16  25  37  56  81 106 136 173 206 239
#     4   9  16  25  38  56  78 106 139 173 206 239
#     4   9  18  31  46  62  80 106 140 175 210 249
#     4  10  19  29  43  63  84 107 137 173 211 249
#     4   9  15  23  37  55  76 106 140 170 203 243
#     4   9  17  30  44  57  80 114 144 169 203 247
#
# _framework density 15.647513
#
# number of rings (size 3 to 8) (size 9 to 14) (size 15 to 20)
#    0.000    3.000    0.000    2.250    0.000    8.750 
#    0.000    0.000    0.000    0.000    0.000    0.000 
#    0.000    1.000    0.000    3.000    0.000    5.000 
#
# Total GULP energy -396707.138237 kJ/mol
# GULP energy per Si atom -12397.098070 kJ/mol
# Density = 1.561190 g / cm^3
# Si number density = 15.647513 Si / 1000 Ang^3
#
#
#
# Elastic Constant Matrix: (Units=GPa)
#
#
# Indices 1 2 3 4 5 6 
#
# 1 57.6012 35.8621 46.8584 -0.0003 -7.6673 -0.0001
# 2 35.8621 107.0260 70.6167 0.0011 -8.5725 -0.0017
# 3 46.8584 70.6167 113.7273 -0.0002 -14.0918 0.0004
# 4 -0.0003 0.0011 -0.0002 27.7151 0.0003 0.8578
# 5 -7.6673 -8.5725 -14.0918 0.0003 2.9632 -0.0006
# 6 -0.0001 -0.0017 0.0004 0.8578 -0.0006 15.8603
#
#
#
# Elastic Compliance Matrix: (Units=1/GPa)
#
#
# Indices 1 2 3 4 5 6 
#
# 1 0.028848 -0.003215 -0.004366 0.000000 0.044581 0.000002
# 2 -0.003215 0.016193 -0.009632 -0.000001 -0.007277 0.000002
# 3 -0.004366 -0.009632 0.028533 -0.000001 0.096529 0.000002
# 4 0.000000 -0.000001 -0.000001 0.036142 -0.000009 -0.001955
# 5 0.044581 -0.007277 0.096529 -0.000009 0.890816 0.000031
# 6 0.000002 0.000002 0.000002 -0.001955 0.000031 0.063156
#
#
# Mechanical properties :
#
#
# Convention : Reuss Voigt Hill
#
# Bulk Modulus (GPa) = 25.54320 65.00322 45.27321
# Shear Modulus (GPa) = 4.49979 17.64221 11.07100
#
# Velocity S-wave (km/s) = 1.69763 3.36144 2.66282
# Velocity P-wave (km/s) = 4.49468 7.52981 6.20082
#
# Compressibility (1/GPa) = 0.03914936
#
# Stress axis : x y z
#
# Youngs Moduli (GPa) = 34.66412 61.75497 35.04675
#
# Poissons Ratio (x) = 0.19853 0.15301
# Poissons Ratio (y) = 0.11144 0.33756
# Poissons Ratio (z) = 0.15134 0.59481
#
# Static dielectric constant tensor:
#      x y z
#    x 2.867550 0.000000 -0.121180 
#    y 0.000000 3.135040 0.000000 
#    z -0.121180 0.000000 2.945660 
# 
# 
# High freq. dielectric constant tensor:
#      x y z
#    x 1.550570 0.000000 -0.007370 
#    y 0.000000 1.611630 0.000000 
#    z -0.007370 0.000000 1.592530 
# 
# From -- ./inp_files/323609.got.cif
#   From: 2010.06.25/outbox.cif.g09.slc.cpg/sg12_162_cif.got.tgz:323609.got - 2010.06.28 00:19:55.
