data_PCOD8084508
_publ_section_title
;
Structure prediction by ZEFSAII (Michael W. Deem and Ramdas Pophale) SiO2 
 PCOD8084508
Probable space group: C 2/M
;
_chemical_formula_sum "Si O2"
_cell_formula_units_Z 48
_cell_length_a 19.337937
_cell_length_b 15.049291
_cell_length_c 8.460602
_cell_angle_alpha 90.000000
_cell_angle_beta 70.732526
_cell_angle_gamma 90.000000
_cell_volume 2324.310355
_symmetry_space_group_name_H-M "C 2/M"
_symmetry_group_IT_number 12
_symmetry_cell_setting 'monoclinic'
loop_
_space_group_symop_operation_xyz
x,y,z
-x,y,-z
-x,-y,-z
x,-y,z
1/2+x,1/2+y,z
1/2-x,1/2+y,-z
1/2-x,1/2-y,-z
1/2+x,1/2-y,z
loop_
_atom_site_type_symbol
_atom_site_label
_atom_site_fract_x
_atom_site_fract_y
_atom_site_fract_z
Si Si1 0.904736 0.247272 0.768948
Si Si2 0.238992 0.153480 0.581779
Si Si3 0.962742 0.326535 0.181930
Si Si4 0.315154 0.771588 0.136819
Si Si5 0.395814 0.096775 0.525904
Si Si6 0.817391 0.101282 0.683454
O O1 0.909219 0.326124 0.640166
O O2 0.889092 0.153819 0.693582
O O3 0.981663 0.246664 0.805509
O O4 0.836162 0.265463 0.937401
O O5 0.250000 0.250000 0.500000
O O6 0.213162 0.174290 0.781237
O O7 0.312888 0.097233 0.526823
O O8 0.181758 0.102548 0.509958
O O9 0.884682 0.287595 0.196292
O O10 0.951472 0.393754 0.335765
O O11 0.000000 0.374088 0.000000
O O12 0.256898 0.851212 0.199971
O O13 0.411357 0.000000 0.589962
O O14 0.820470 0.000000 0.742563
#
# Coordination Sequence:
#
# PCOD8084508 Si02
#       6
#     8   8   8   8   8   8
#     4  11  23  39  60  92 128 159 201 253 309 366
#     4  10  18  36  62  85 114 158 203 252 301 356
#     4  10  22  39  62  86 121 167 206 246 302 366
#     4  10  20  40  63  88 118 165 204 249 306 361
#     4  12  23  38  60  90 124 160 205 254 308 365
#     4  11  21  37  63  91 120 157 204 254 303 357
#
# _framework density 20.651288000000001
#
# number of rings (size 3 to 8) (size 9 to 14) (size 15 to 20)
#    0.000    1.333    6.667    1.500    0.000    2.333 
#    0.000    4.167    0.000   13.500    0.000    0.000 
#    0.000    0.000    0.000    0.000    0.000    0.000 
#
# Total GULP energy -297378.220024 kJ/mol
# GULP energy per Si atom -12390.759168 kJ/mol
# Density = 2.060429 g / cm^3
# Si number density = 20.651288 Si / 1000 Ang^3
#
#
#
# Elastic Constant Matrix: (Units=GPa)
#
#
# Indices 1 2 3 4 5 6 
#
# 1 83.8998 44.8381 13.3254 0.0000 4.5339 0.0000
# 2 44.8381 129.0884 41.7667 0.0000 1.6832 0.0000
# 3 13.3254 41.7667 132.9360 0.0000 -4.1778 0.0000
# 4 0.0000 0.0000 0.0000 12.8661 0.0000 -3.6864
# 5 4.5339 1.6832 -4.1778 0.0000 30.2168 0.0000
# 6 0.0000 0.0000 0.0000 -3.6864 0.0000 4.7439
#
#
#
# Elastic Compliance Matrix: (Units=1/GPa)
#
#
# Indices 1 2 3 4 5 6 
#
# 1 0.014748 -0.005120 0.000070 0.000000 -0.001918 0.000000
# 2 -0.005120 0.010423 -0.002768 0.000000 -0.000195 0.000000
# 3 0.000070 -0.002768 0.008426 0.000000 0.001309 0.000000
# 4 0.000000 0.000000 0.000000 0.099986 0.000000 0.077698
# 5 -0.001918 -0.000195 0.001309 0.000000 0.033574 0.000000
# 6 0.000000 0.000000 0.000000 0.077698 0.000000 0.271173
#
#
# Mechanical properties :
#
#
# Convention : Reuss Voigt Hill
#
# Bulk Modulus (GPa) = 55.67479 60.64274 58.15876
# Shear Modulus (GPa) = 10.87069 25.96497 18.41783
#
# Velocity S-wave (km/s) = 2.29681 3.54970 2.98962
# Velocity P-wave (km/s) = 5.83539 6.79921 6.33566
#
# Compressibility (1/GPa) = 0.01796145
#
# Stress axis : x y z
#
# Youngs Moduli (GPa) = 67.80631 95.94016 118.67905
#
# Poissons Ratio (x) = 0.49124 -0.00832
# Poissons Ratio (y) = 0.34719 0.32847
# Poissons Ratio (z) = -0.00475 0.26553
#
# Static dielectric constant tensor:
#      x y z
#    x 4.045990 0.000000 0.030070 
#    y 0.000000 3.526390 0.000000 
#    z 0.030070 0.000000 4.437360 
# 
# 
# High freq. dielectric constant tensor:
#      x y z
#    x 1.819530 0.000000 0.011910 
#    y 0.000000 1.764610 0.000000 
#    z 0.011910 0.000000 1.816610 
# 
# From -- ./inp_files/85671.got.cif
#   From: 2010.06.25/outbox.cif.g09.slc.cpg/sg12_43_cif.got.tgz:85671.got - 2010.06.28 00:19:55.
