data_PCOD8084478
_publ_section_title
;
Structure prediction by ZEFSAII (Michael W. Deem and Ramdas Pophale) SiO2 
 PCOD8084478
Probable space group: C 2/M
;
_chemical_formula_sum "Si O2"
_cell_formula_units_Z 64
_cell_length_a 12.661039
_cell_length_b 19.369992
_cell_length_c 17.564369
_cell_angle_alpha 90.000000
_cell_angle_beta 127.761245
_cell_angle_gamma 90.000000
_cell_volume 3405.425177
_symmetry_space_group_name_H-M "C 2/M"
_symmetry_group_IT_number 12
_symmetry_cell_setting 'monoclinic'
loop_
_space_group_symop_operation_xyz
x,y,z
-x,y,-z
-x,-y,-z
x,-y,z
1/2+x,1/2+y,z
1/2-x,1/2+y,-z
1/2-x,1/2-y,-z
1/2+x,1/2-y,z
loop_
_atom_site_type_symbol
_atom_site_label
_atom_site_fract_x
_atom_site_fract_y
_atom_site_fract_z
Si Si1 0.849639 0.421028 0.440799
Si Si2 0.325937 0.421752 0.168283
Si Si3 0.449719 0.727676 0.616237
Si Si4 0.407833 0.359418 0.742799
Si Si5 0.709403 0.653780 0.690997
Si Si6 0.680575 0.795209 0.032195
Si Si7 0.404056 0.754919 0.853318
Si Si8 0.284940 0.146551 0.560582
O O1 0.852625 0.500000 0.417058
O O2 0.744946 0.383366 0.338028
O O3 0.797812 0.415151 0.505090
O O4 0.000000 0.389542 0.500000
O O5 0.274338 0.500000 0.134066
O O6 0.483546 0.420767 0.215545
O O7 0.307474 0.402168 0.249331
O O8 0.243692 0.371051 0.075259
O O9 0.453870 0.696324 0.701853
O O10 0.586393 0.707953 0.633308
O O11 0.423952 0.809738 0.616659
O O12 0.333079 0.697808 0.513139
O O13 0.426853 0.323039 0.833726
O O14 0.838380 0.701480 0.757416
O O15 0.741875 0.616407 0.624410
O O16 0.693376 0.751585 0.116307
O O17 0.750000 0.750000 0.000000
O O18 0.529662 0.800210 0.936269
#
# Coordination Sequence:
#
# PCOD8084478 Si02
#       8
#     8   8   8   8   8   8   8   8
#     4  10  23  38  51  75 114 161 195 226 282 338
#     4  10  21  37  61  87 115 153 188 233 294 356
#     4   9  19  30  49  82 115 139 184 241 282 315
#     4  10  18  36  58  83 110 146 197 238 270 335
#     4  10  20  33  52  85 116 144 188 236 281 343
#     4  10  20  38  58  84 117 142 182 239 298 351
#     4  10  20  33  57  88 107 142 185 234 294 336
#     4  10  19  32  53  77 111 154 191 236 279 323
#
# _framework density 18.793541000000001
#
# number of rings (size 3 to 8) (size 9 to 14) (size 15 to 20)
#    0.000    2.125    2.500    0.750    1.750    0.500 
#    0.000    5.000    0.000    6.750    0.000    0.000 
#    0.000    0.000    0.000    0.000    0.000    0.000 
#
# Total GULP energy -396468.373184 kJ/mol
# GULP energy per Si atom -12389.636662 kJ/mol
# Density = 1.875077 g / cm^3
# Si number density = 18.793541 Si / 1000 Ang^3
#
#
#
# Elastic Constant Matrix: (Units=GPa)
#
#
# Indices 1 2 3 4 5 6 
#
# 1 92.1641 35.6585 46.9385 0.0000 0.3227 0.0000
# 2 35.6585 87.0032 34.9423 0.0000 -2.9791 0.0000
# 3 46.9385 34.9423 83.3393 0.0000 2.7817 0.0000
# 4 0.0000 0.0000 0.0000 21.5240 0.0000 2.4630
# 5 0.3227 -2.9791 2.7817 0.0000 32.7648 0.0000
# 6 0.0000 0.0000 0.0000 2.4630 0.0000 20.1426
#
#
#
# Elastic Compliance Matrix: (Units=1/GPa)
#
#
# Indices 1 2 3 4 5 6 
#
# 1 0.016078 -0.003541 -0.007576 0.000000 0.000163 0.000000
# 2 -0.003541 0.014702 -0.004228 0.000000 0.001731 0.000000
# 3 -0.007576 -0.004228 0.018100 0.000000 -0.001846 0.000000
# 4 0.000000 0.000000 0.000000 0.047119 0.000000 -0.005762
# 5 0.000163 0.001731 -0.001846 0.000000 0.030833 0.000000
# 6 0.000000 0.000000 0.000000 -0.005762 0.000000 0.050350
#
#
# Mechanical properties :
#
#
# Convention : Reuss Voigt Hill
#
# Bulk Modulus (GPa) = 54.97313 55.28725 55.13019
# Shear Modulus (GPa) = 23.37127 24.55078 23.96102
#
# Velocity S-wave (km/s) = 3.53027 3.61826 3.57453
# Velocity P-wave (km/s) = 6.77729 6.85111 6.81430
#
# Compressibility (1/GPa) = 0.01819070
#
# Stress axis : x y z
#
# Youngs Moduli (GPa) = 62.19544 68.01602 55.24729
#
# Poissons Ratio (x) = 0.24087 0.41857
# Poissons Ratio (y) = 0.22026 0.23356
# Poissons Ratio (z) = 0.47121 0.28754
#
# Static dielectric constant tensor:
#      x y z
#    x 4.080580 0.000000 0.297880 
#    y 0.000000 3.167680 0.000000 
#    z 0.297880 0.000000 3.678320 
# 
# 
# High freq. dielectric constant tensor:
#      x y z
#    x 1.739410 0.000000 0.004190 
#    y 0.000000 1.691700 0.000000 
#    z 0.004190 0.000000 1.730000 
# 
# From -- ./inp_files/264825.got.cif
#   From: 2010.06.25/outbox.cif.g09.slc.cpg/sg12_133_cif.got.tgz:264825.got - 2010.06.28 00:19:55.
