data_PCOD8084634
_publ_section_title
;
Structure prediction by ZEFSAII (Michael W. Deem and Ramdas Pophale) SiO2 
 PCOD8084634
Probable space group: C 2/M
;
_chemical_formula_sum "Si O2"
_cell_formula_units_Z 44
_cell_length_a 14.409955
_cell_length_b 18.394542
_cell_length_c 21.696489
_cell_angle_alpha 90.000000
_cell_angle_beta 22.229324
_cell_angle_gamma 90.000000
_cell_volume 2175.675714
_symmetry_space_group_name_H-M "C 2/M"
_symmetry_group_IT_number 12
_symmetry_cell_setting 'monoclinic'
loop_
_space_group_symop_operation_xyz
x,y,z
-x,y,-z
-x,-y,-z
x,-y,z
1/2+x,1/2+y,z
1/2-x,1/2+y,-z
1/2-x,1/2-y,-z
1/2+x,1/2-y,z
loop_
_atom_site_type_symbol
_atom_site_label
_atom_site_fract_x
_atom_site_fract_y
_atom_site_fract_z
Si Si1 0.102393 0.500000 0.547940
Si Si2 0.039315 0.227244 0.048503
Si Si3 0.000000 0.876129 0.500000
Si Si4 0.941930 0.000000 0.229650
Si Si5 0.463624 0.000000 0.905739
Si Si6 0.023093 0.655116 0.155754
Si Si7 0.679712 0.122273 0.331850
Si Si8 0.015094 0.000000 0.393807
O O1 0.204038 0.500000 0.416966
O O2 0.329147 0.500000 0.452970
O O3 0.949432 0.575143 0.643828
O O4 0.794149 0.193465 0.230074
O O5 0.081098 0.305553 0.054866
O O6 0.000000 0.237659 0.000000
O O7 0.284761 0.179906 0.909868
O O8 0.242692 0.825659 0.348339
O O9 0.971149 0.926818 0.458153
O O10 0.916001 0.074267 0.206739
O O11 0.206479 0.000000 0.101139
O O12 0.467278 0.068425 0.857485
O O13 0.700201 0.000000 0.805019
O O14 0.500000 0.142985 0.500000
#
# Coordination Sequence:
#
# PCOD8084634 Si02
#       8
#     4   8   4   4   4   8   8   4
#     4   9  19  33  56  97 124 147 207 264 288 369
#     4  11  24  42  62  96 126 159 205 264 304 371
#     4   9  20  40  60  80 118 171 198 244 308 363
#     4   9  16  35  58  89 121 158 202 242 313 356
#     4  10  18  40  63  81 112 172 200 244 307 361
#     4  10  23  43  64  86 128 159 209 254 309 362
#     4   9  19  37  63  89 126 162 194 249 317 369
#     4   9  19  34  56  90 119 148 209 254 292 358
#
# _framework density 20.223603000000001
#
# number of rings (size 3 to 8) (size 9 to 14) (size 15 to 20)
#    0.000    2.364    1.818    1.636    3.818    0.364 
#    6.545    3.182    0.000    0.000    0.000    0.000 
#    0.000    0.000    0.000    0.000    0.000    0.000 
#
# Total GULP energy -272557.817344 kJ/mol
# GULP energy per Si atom -12388.991697 kJ/mol
# Density = 2.017757 g / cm^3
# Si number density = 20.223603 Si / 1000 Ang^3
#
#
#
# Elastic Constant Matrix: (Units=GPa)
#
#
# Indices 1 2 3 4 5 6 
#
# 1 115.9906 31.7649 38.0635 -0.0566 -26.6045 -0.0318
# 2 31.7649 79.9165 23.5542 0.1077 -5.0344 -0.1491
# 3 38.0635 23.5542 118.1513 0.0991 -22.7592 -0.1619
# 4 -0.0566 0.1077 0.0991 26.5028 -0.1470 1.6515
# 5 -26.6045 -5.0344 -22.7592 -0.1470 36.0129 -0.0168
# 6 -0.0318 -0.1491 -0.1619 1.6515 -0.0168 20.6601
#
#
#
# Elastic Compliance Matrix: (Units=1/GPa)
#
#
# Indices 1 2 3 4 5 6 
#
# 1 0.011848 -0.003761 -0.001688 0.000088 0.007160 -0.000023
# 2 -0.003761 0.014490 -0.002074 -0.000076 -0.002064 0.000087
# 3 -0.001688 -0.002074 0.010390 -0.000010 0.005029 0.000069
# 4 0.000088 -0.000076 -0.000010 0.037922 0.000201 -0.003032
# 5 0.007160 -0.002064 0.005029 0.000201 0.035948 0.000049
# 6 -0.000023 0.000087 0.000069 -0.003032 0.000049 0.048646
#
#
# Mechanical properties :
#
#
# Convention : Reuss Voigt Hill
#
# Bulk Modulus (GPa) = 46.12359 55.64706 50.88532
# Shear Modulus (GPa) = 27.54571 31.34690 29.44630
#
# Velocity S-wave (km/s) = 3.69461 3.94129 3.81994
# Velocity P-wave (km/s) = 6.40754 6.94891 6.68371
#
# Compressibility (1/GPa) = 0.02168088
#
# Stress axis : x y z
#
# Youngs Moduli (GPa) = 84.40548 69.01545 96.24723
#
# Poissons Ratio (x) = 0.25955 0.16246
# Poissons Ratio (y) = 0.31743 0.19966
# Poissons Ratio (z) = 0.14247 0.14317
#
# Static dielectric constant tensor:
#      x y z
#    x 3.273110 0.000000 -0.200440 
#    y 0.000000 3.603610 0.000650 
#    z -0.200440 0.000650 3.985090 
# 
# 
# High freq. dielectric constant tensor:
#      x y z
#    x 1.754950 0.000010 -0.022180 
#    y 0.000010 1.786560 0.000020 
#    z -0.022180 0.000020 1.806880 
# 
# From -- ./inp_files/145398.got.cif
#   From: 2010.06.25/outbox.cif.g09.slc.cpg/sg12_73_cif.got.tgz:145398.got - 2010.06.28 00:19:55.
