data_PCOD8084065
_publ_section_title
;
Structure prediction by ZEFSAII (Michael W. Deem and Ramdas Pophale) SiO2 
 PCOD8084065
Probable space group: C 2/M
;
_chemical_formula_sum "Si O2"
_cell_formula_units_Z 64
_cell_length_a 28.498427
_cell_length_b 8.941170
_cell_length_c 14.511643
_cell_angle_alpha 90.000000
_cell_angle_beta 121.244668
_cell_angle_gamma 90.000000
_cell_volume 3161.387248
_symmetry_space_group_name_H-M "C 2/M"
_symmetry_group_IT_number 12
_symmetry_cell_setting 'monoclinic'
loop_
_space_group_symop_operation_xyz
x,y,z
-x,y,-z
-x,-y,-z
x,-y,z
1/2+x,1/2+y,z
1/2-x,1/2+y,-z
1/2-x,1/2-y,-z
1/2+x,1/2-y,z
loop_
_atom_site_type_symbol
_atom_site_label
_atom_site_fract_x
_atom_site_fract_y
_atom_site_fract_z
Si Si1 0.478480 0.677073 0.878081
Si Si2 0.870198 0.326763 0.796551
Si Si3 0.248456 0.678399 0.398639
Si Si4 0.855193 0.165067 0.959184
Si Si5 0.166888 0.679274 0.655739
Si Si6 0.764377 0.664482 0.106140
Si Si7 0.559039 0.676280 0.601879
Si Si8 0.562165 0.326586 0.810437
O O1 0.476256 0.500000 0.873770
O O2 0.418201 0.739840 0.791926
O O3 0.518040 0.740120 0.837666
O O4 0.500000 0.733553 0.000000
O O5 0.879292 0.500000 0.789109
O O6 0.810333 0.274715 0.702767
O O7 0.877107 0.288075 0.911233
O O8 0.255394 0.500000 0.409932
O O9 0.250000 0.750000 0.500000
O O10 0.297774 0.747205 0.389325
O O11 0.790178 0.159532 0.888413
O O12 0.879086 0.000000 0.955711
O O13 0.877325 0.203505 0.084451
O O14 0.169728 0.500000 0.649222
O O15 0.190128 0.734669 0.779427
O O16 0.104606 0.738439 0.586911
O O17 0.783270 0.500000 0.094852
O O18 0.750000 0.750000 0.000000
O O19 0.500000 0.712722 0.500000
O O20 0.572245 0.500000 0.612797
O O21 0.559609 0.745149 0.706237
O O22 0.549565 0.500000 0.783618
#
# Coordination Sequence:
#
# PCOD8084065 Si02
#       8
#     8   8   8   8   8   8   8   8
#     4  10  19  34  58  84 116 163 209 246 296 365
#     4  11  23  37  56  87 122 154 193 250 310 356
#     4  11  25  44  66  92 124 164 208 255 308 367
#     4  10  18  34  57  80 113 156 198 242 295 362
#     4  11  23  41  65  93 125 161 205 255 312 371
#     4  10  21  34  56  88 122 161 203 248 304 365
#     4  10  22  41  64  89 120 160 209 258 306 363
#     4   9  18  34  58  86 115 154 206 254 295 354
#
# _framework density 20.244278000000001
#
# number of rings (size 3 to 8) (size 9 to 14) (size 15 to 20)
#    0.000    1.750    2.500    1.875    0.000    5.500 
#    0.000    2.500    0.000    0.000    0.000    0.000 
#    0.000    0.000    0.000    0.000    0.000    0.000 
#
# Total GULP energy -396697.277102 kJ/mol
# GULP energy per Si atom -12396.789909 kJ/mol
# Density = 2.019820 g / cm^3
# Si number density = 20.244278 Si / 1000 Ang^3
#
#
#
# Elastic Constant Matrix: (Units=GPa)
#
#
# Indices 1 2 3 4 5 6 
#
# 1 121.3532 41.1739 57.1933 0.0000 9.1954 0.0000
# 2 41.1739 57.2975 37.9873 0.0000 1.8785 0.0000
# 3 57.1933 37.9873 116.6260 0.0000 1.2430 0.0000
# 4 0.0000 0.0000 0.0000 27.2576 0.0000 2.1588
# 5 9.1954 1.8785 1.2430 0.0000 37.0890 0.0000
# 6 0.0000 0.0000 0.0000 2.1588 0.0000 31.4448
#
#
#
# Elastic Compliance Matrix: (Units=1/GPa)
#
#
# Indices 1 2 3 4 5 6 
#
# 1 0.012449 -0.006161 -0.004070 0.000000 -0.002638 0.000000
# 2 -0.006161 0.025338 -0.005236 0.000000 0.000420 0.000000
# 3 -0.004070 -0.005236 0.012267 0.000000 0.000863 0.000000
# 4 0.000000 0.000000 0.000000 0.036888 0.000000 -0.002532
# 5 -0.002638 0.000420 0.000863 0.000000 0.027566 0.000000
# 6 0.000000 0.000000 0.000000 -0.002532 0.000000 0.031976
#
#
# Mechanical properties :
#
#
# Convention : Reuss Voigt Hill
#
# Bulk Modulus (GPa) = 52.30387 63.10952 57.70670
# Shear Modulus (GPa) = 27.20503 29.75309 28.47906
#
# Velocity S-wave (km/s) = 3.66982 3.83783 3.75476
# Velocity P-wave (km/s) = 6.62187 7.13304 6.88220
#
# Compressibility (1/GPa) = 0.01911904
#
# Stress axis : x y z
#
# Youngs Moduli (GPa) = 80.32897 39.46695 81.52151
#
# Poissons Ratio (x) = 0.24315 0.33180
# Poissons Ratio (y) = 0.49489 0.42686
# Poissons Ratio (z) = 0.32694 0.20666
#
# Static dielectric constant tensor:
#      x y z
#    x 3.842830 0.000000 0.106820 
#    y 0.000000 3.587820 0.000000 
#    z 0.106820 0.000000 3.757900 
# 
# 
# High freq. dielectric constant tensor:
#      x y z
#    x 1.800950 0.000000 0.007760 
#    y 0.000000 1.767300 0.000000 
#    z 0.007760 0.000000 1.789460 
# 
# From -- ./inp_files/249957.got.cif
#   From: 2010.06.25/outbox.cif.g09.slc.cpg/sg12_125_cif.got.tgz:249957.got - 2010.06.28 00:19:55.
