data_PCOD8084465
_publ_section_title
;
Structure prediction by ZEFSAII (Michael W. Deem and Ramdas Pophale) SiO2 
 PCOD8084465
Probable space group: C 2/M
;
_chemical_formula_sum "Si O2"
_cell_formula_units_Z 56
_cell_length_a 28.597123
_cell_length_b 14.776139
_cell_length_c 11.312591
_cell_angle_alpha 90.000000
_cell_angle_beta 39.413329
_cell_angle_gamma 90.000000
_cell_volume 3034.993343
_symmetry_space_group_name_H-M "C 2/M"
_symmetry_group_IT_number 12
_symmetry_cell_setting 'monoclinic'
loop_
_space_group_symop_operation_xyz
x,y,z
-x,y,-z
-x,-y,-z
x,-y,z
1/2+x,1/2+y,z
1/2-x,1/2+y,-z
1/2-x,1/2-y,-z
1/2+x,1/2-y,z
loop_
_atom_site_type_symbol
_atom_site_label
_atom_site_fract_x
_atom_site_fract_y
_atom_site_fract_z
Si Si1 0.133058 0.100454 0.956875
Si Si2 0.796019 0.599640 0.677894
Si Si3 0.690007 0.272567 0.217146
Si Si4 0.804511 0.103218 0.572628
Si Si5 0.801405 0.661932 0.405811
Si Si6 0.412006 0.301173 0.183137
Si Si7 0.418583 0.399447 0.701254
O O1 0.210072 0.110423 0.876806
O O2 0.127082 0.164548 0.858171
O O3 0.121386 0.000000 0.929031
O O4 0.075090 0.125357 0.172143
O O5 0.826071 0.500000 0.656252
O O6 0.838052 0.678203 0.668253
O O7 0.798696 0.607013 0.531728
O O8 0.717932 0.338322 0.268087
O O9 0.621385 0.321131 0.292315
O O10 0.750000 0.250000 0.000000
O O11 0.730313 0.099346 0.637004
O O12 0.876606 0.146200 0.365193
O O13 0.824537 0.000000 0.569012
O O14 0.750000 0.750000 0.500000
O O15 0.886810 0.695704 0.231252
O O16 0.500000 0.312199 0.000000
O O17 0.500000 0.403526 0.500000
O O18 0.381644 0.500000 0.758061
#
# Coordination Sequence:
#
# PCOD8084465 Si02
#       7
#     8   8   8   8   8   8   8
#     4  10  19  33  53  81 116 152 187 227 286 352
#     4  11  20  36  60  83 109 147 197 245 287 335
#     4  12  23  37  58  85 116 153 197 243 283 340
#     4  11  22  37  60  89 119 148 188 243 293 342
#     4  10  18  36  57  81 112 150 190 230 287 338
#     4  11  22  34  56  90 123 154 185 232 293 356
#     4  10  23  39  56  83 121 160 190 228 289 354
#
# _framework density 18.451440999999999
#
# number of rings (size 3 to 8) (size 9 to 14) (size 15 to 20)
#    0.000    1.286    7.143    1.286    2.000    1.714 
#    0.000    0.000    0.000    2.143    0.000    0.000 
#    0.000    0.000    0.000    0.000    0.000    0.000 
#
# Total GULP energy -346883.979019 kJ/mol
# GULP energy per Si atom -12388.713536 kJ/mol
# Density = 1.840944 g / cm^3
# Si number density = 18.451441 Si / 1000 Ang^3
#
#
#
# Elastic Constant Matrix: (Units=GPa)
#
#
# Indices 1 2 3 4 5 6 
#
# 1 59.4774 38.8528 31.9427 0.0000 11.0474 0.0000
# 2 38.8528 113.8354 39.1332 0.0000 5.8417 0.0000
# 3 31.9427 39.1332 93.5823 0.0000 17.0164 0.0000
# 4 0.0000 0.0000 0.0000 23.4789 0.0000 1.4628
# 5 11.0474 5.8417 17.0164 0.0000 27.7819 0.0000
# 6 0.0000 0.0000 0.0000 1.4628 0.0000 23.5691
#
#
#
# Elastic Compliance Matrix: (Units=1/GPa)
#
#
# Indices 1 2 3 4 5 6 
#
# 1 0.024602 -0.006508 -0.004666 0.000000 -0.005557 0.000000
# 2 -0.006508 0.011988 -0.003155 0.000000 0.002000 0.000000
# 3 -0.004666 -0.003155 0.014787 0.000000 -0.006538 0.000000
# 4 0.000000 0.000000 0.000000 0.042757 0.000000 -0.002654
# 5 -0.005557 0.002000 -0.006538 0.000000 0.041788 0.000000
# 6 0.000000 0.000000 0.000000 -0.002654 0.000000 0.042593
#
#
# Mechanical properties :
#
#
# Convention : Reuss Voigt Hill
#
# Bulk Modulus (GPa) = 44.01590 54.08360 49.04975
# Shear Modulus (GPa) = 23.28340 25.43042 24.35691
#
# Velocity S-wave (km/s) = 3.55614 3.71649 3.63720
# Velocity P-wave (km/s) = 6.38501 6.91313 6.65431
#
# Compressibility (1/GPa) = 0.02271906
#
# Stress axis : x y z
#
# Youngs Moduli (GPa) = 40.64690 83.41807 67.62883
#
# Poissons Ratio (x) = 0.54287 0.31554
# Poissons Ratio (y) = 0.26452 0.21338
# Poissons Ratio (z) = 0.18965 0.26320
#
# Static dielectric constant tensor:
#      x y z
#    x 3.307130 0.000000 0.113240 
#    y 0.000000 3.727490 0.000000 
#    z 0.113240 0.000000 3.546940 
# 
# 
# High freq. dielectric constant tensor:
#      x y z
#    x 1.695480 0.000000 0.028580 
#    y 0.000000 1.716480 0.000000 
#    z 0.028580 0.000000 1.709140 
# 
# From -- ./inp_files/189167.got.cif
#   From: 2010.06.25/outbox.cif.g09.slc.cpg/sg12_95_cif.got.tgz:189167.got - 2010.06.28 00:19:55.
