data_PCOD8084249
_publ_section_title
;
Structure prediction by ZEFSAII (Michael W. Deem and Ramdas Pophale) SiO2 
 PCOD8084249
Probable space group: C 2/M
;
_chemical_formula_sum "Si O2"
_cell_formula_units_Z 64
_cell_length_a 9.413914
_cell_length_b 17.792400
_cell_length_c 29.611596
_cell_angle_alpha 90.000000
_cell_angle_beta 40.948165
_cell_angle_gamma 90.000000
_cell_volume 3250.551841
_symmetry_space_group_name_H-M "C 2/M"
_symmetry_group_IT_number 12
_symmetry_cell_setting 'monoclinic'
loop_
_space_group_symop_operation_xyz
x,y,z
-x,y,-z
-x,-y,-z
x,-y,z
1/2+x,1/2+y,z
1/2-x,1/2+y,-z
1/2-x,1/2-y,-z
1/2+x,1/2-y,z
loop_
_atom_site_type_symbol
_atom_site_label
_atom_site_fract_x
_atom_site_fract_y
_atom_site_fract_z
Si Si1 0.709955 0.678134 0.477715
Si Si2 0.846717 0.330696 0.930922
Si Si3 0.621215 0.587857 0.811661
Si Si4 0.060372 0.182076 0.913511
Si Si5 0.457439 0.583528 0.313981
Si Si6 0.264726 0.412552 0.829821
Si Si7 0.443135 0.915721 0.655168
Si Si8 0.759980 0.588594 0.548859
O O1 0.500000 0.697282 0.500000
O O2 0.750000 0.750000 0.500000
O O3 0.673695 0.608093 0.520048
O O4 0.892650 0.651470 0.397868
O O5 0.749707 0.312397 0.905218
O O6 0.004630 0.264152 0.908672
O O7 0.007038 0.401814 0.893072
O O8 0.658415 0.350808 0.011542
O O9 0.608028 0.500000 0.825852
O O10 0.646991 0.629954 0.852894
O O11 0.398177 0.617289 0.841374
O O12 0.828454 0.605663 0.730282
O O13 0.543404 0.500000 0.304242
O O14 0.637864 0.625444 0.239666
O O15 0.232823 0.579435 0.341493
O O16 0.405711 0.624563 0.374097
O O17 0.321911 0.500000 0.813492
O O18 0.550246 0.000000 0.633418
O O19 0.766088 0.500000 0.554019
O O20 0.000000 0.622157 0.500000
#
# Coordination Sequence:
#
# PCOD8084249 Si02
#       8
#     8   8   8   8   8   8   8   8
#     4  12  26  41  55  81 117 150 190 239 285 335
#     4  10  21  37  58  81 115 150 193 239 277 336
#     4   9  19  37  61  87 116 149 187 230 284 342
#     4  10  21  38  57  82 111 153 195 233 283 336
#     4   8  15  31  59  87 108 138 182 225 272 334
#     4   9  18  34  56  86 117 147 183 230 279 331
#     4   9  18  38  64  85 111 148 188 235 284 339
#     4  10  18  34  63  87 107 146 189 228 278 338
#
# _framework density 19.688965
#
# number of rings (size 3 to 8) (size 9 to 14) (size 15 to 20)
#    0.000    2.375    1.250    3.000    0.000    3.500 
#    4.500    2.500    0.000    0.000    0.000    0.000 
#    0.000    0.000    0.000    0.000    0.000    0.000 
#
# Total GULP energy -396490.077410 kJ/mol
# GULP energy per Si atom -12390.314919 kJ/mol
# Density = 1.964415 g / cm^3
# Si number density = 19.688965 Si / 1000 Ang^3
#
#
#
# Elastic Constant Matrix: (Units=GPa)
#
#
# Indices 1 2 3 4 5 6 
#
# 1 102.3269 24.0052 50.7947 0.0008 11.5057 0.0042
# 2 24.0052 44.5151 38.8802 0.0094 1.0778 -0.0012
# 3 50.7947 38.8802 111.5122 0.0045 16.1597 -0.0031
# 4 0.0008 0.0094 0.0045 25.3719 0.0067 4.2142
# 5 11.5057 1.0778 16.1597 0.0067 35.8230 -0.0042
# 6 0.0042 -0.0012 -0.0031 4.2142 -0.0042 26.1394
#
#
#
# Elastic Compliance Matrix: (Units=1/GPa)
#
#
# Indices 1 2 3 4 5 6 
#
# 1 0.012966 -0.002931 -0.004594 0.000003 -0.002004 -0.000003
# 2 -0.002931 0.033624 -0.011104 -0.000012 0.004939 0.000003
# 3 -0.004594 -0.011104 0.015695 0.000003 -0.005271 0.000001
# 4 0.000003 -0.000012 0.000003 0.040498 -0.000010 -0.006529
# 5 -0.002004 0.004939 -0.005271 -0.000010 0.030788 0.000006
# 6 -0.000003 0.000003 0.000001 -0.006529 0.000006 0.039309
#
#
# Mechanical properties :
#
#
# Convention : Reuss Voigt Hill
#
# Bulk Modulus (GPa) = 39.95612 53.96829 46.96221
# Shear Modulus (GPa) = 22.88542 27.11179 24.99860
#
# Velocity S-wave (km/s) = 3.41302 3.71483 3.56712
# Velocity P-wave (km/s) = 5.98910 6.77273 6.39293
#
# Compressibility (1/GPa) = 0.02502745
#
# Stress axis : x y z
#
# Youngs Moduli (GPa) = 77.12566 29.74089 63.71327
#
# Poissons Ratio (x) = 0.08718 0.29267
# Poissons Ratio (y) = 0.22608 0.70746
# Poissons Ratio (z) = 0.35428 0.33024
#
# Static dielectric constant tensor:
#      x y z
#    x 3.549920 -0.000010 0.277300 
#    y -0.000010 3.293330 0.000010 
#    z 0.277300 0.000010 3.971550 
# 
# 
# High freq. dielectric constant tensor:
#      x y z
#    x 1.756100 0.000000 0.016630 
#    y 0.000000 1.738720 0.000000 
#    z 0.016630 0.000000 1.778590 
# 
# From -- ./inp_files/372899.got.cif
#   From: 2010.06.25/outbox.cif.g09.slc.cpg/sg12_187_cif.got.tgz:372899.got - 2010.06.28 00:19:55.
