data_PCOD8084313
_publ_section_title
;
Structure prediction by ZEFSAII (Michael W. Deem and Ramdas Pophale) SiO2 
 PCOD8084313
Probable space group: C 2/M
;
_chemical_formula_sum "Si O2"
_cell_formula_units_Z 48
_cell_length_a 21.418637
_cell_length_b 21.417020
_cell_length_c 12.449594
_cell_angle_alpha 90.000000
_cell_angle_beta 155.118163
_cell_angle_gamma 90.000000
_cell_volume 2402.859544
_symmetry_space_group_name_H-M "C 2/M"
_symmetry_group_IT_number 12
_symmetry_cell_setting 'monoclinic'
loop_
_space_group_symop_operation_xyz
x,y,z
-x,y,-z
-x,-y,-z
x,-y,z
1/2+x,1/2+y,z
1/2-x,1/2+y,-z
1/2-x,1/2-y,-z
1/2+x,1/2-y,z
loop_
_atom_site_type_symbol
_atom_site_label
_atom_site_fract_x
_atom_site_fract_y
_atom_site_fract_z
Si Si1 0.664650 0.432530 0.299553
Si Si2 0.834262 0.782031 0.973809
Si Si3 0.166346 0.394444 0.637452
Si Si4 0.658844 0.929800 0.860136
Si Si5 0.668739 0.672454 0.791645
Si Si6 0.888449 0.202615 0.723801
O O1 0.692556 0.500000 0.404404
O O2 0.777810 0.433323 0.376720
O O3 0.679044 0.368250 0.390609
O O4 0.500000 0.432799 0.000000
O O5 0.801015 0.805835 0.040528
O O6 0.008822 0.784297 0.219562
O O7 0.741492 0.825951 0.747180
O O8 0.768111 0.712072 0.862757
O O9 0.212807 0.429405 0.820307
O O10 0.988960 0.388171 0.356766
O O11 0.627982 0.000000 0.849205
O O12 0.780590 0.899987 0.130589
O O13 0.500000 0.679946 0.500000
O O14 0.750000 0.250000 0.500000
O O15 0.000000 0.212948 0.000000
#
# Coordination Sequence:
#
# PCOD8084313 Si02
#       6
#     8   8   8   8   8   8
#     4  10  19  34  57  87 119 150 189 241 299 351
#     4  10  22  38  57  85 118 148 202 239 297 346
#     4  10  18  35  57  87 113 143 190 246 292 337
#     4  10  21  35  57  85 113 151 192 240 296 346
#     4  10  24  36  57  82 113 160 190 246 290 352
#     4  11  24  40  61  90 122 161 197 247 299 357
#
# _framework density 19.976199000000001
#
# number of rings (size 3 to 8) (size 9 to 14) (size 15 to 20)
#    0.000    1.833    3.333    2.000   11.667    0.333 
#    0.000    0.000    0.000    0.500    0.000    0.000 
#    0.000    0.000    0.000    0.000    0.000    0.000 
#
# Total GULP energy -297369.047377 kJ/mol
# GULP energy per Si atom -12390.376974 kJ/mol
# Density = 1.993073 g / cm^3
# Si number density = 19.976199 Si / 1000 Ang^3
#
#
#
# Elastic Constant Matrix: (Units=GPa)
#
#
# Indices 1 2 3 4 5 6 
#
# 1 51.3169 29.7278 21.2596 0.0000 30.8867 0.0000
# 2 29.7278 159.2546 61.9817 0.0000 13.2461 0.0000
# 3 21.2596 61.9817 67.4568 0.0000 20.3604 0.0000
# 4 0.0000 0.0000 0.0000 33.8142 0.0000 6.1908
# 5 30.8867 13.2461 20.3604 0.0000 33.8362 0.0000
# 6 0.0000 0.0000 0.0000 6.1908 0.0000 23.1999
#
#
#
# Elastic Compliance Matrix: (Units=1/GPa)
#
#
# Indices 1 2 3 4 5 6 
#
# 1 0.048160 -0.007146 0.004659 0.000000 -0.043967 0.000000
# 2 -0.007146 0.010939 -0.010356 0.000000 0.008472 0.000000
# 3 0.004659 -0.010356 0.028021 0.000000 -0.017059 0.000000
# 4 0.000000 0.000000 0.000000 0.031092 0.000000 -0.008297
# 5 -0.043967 0.008472 -0.017059 0.000000 0.076637 0.000000
# 6 0.000000 0.000000 0.000000 -0.008297 0.000000 0.045318
#
#
# Mechanical properties :
#
#
# Convention : Reuss Voigt Hill
#
# Bulk Modulus (GPa) = 16.27811 55.99629 36.13720
# Shear Modulus (GPa) = 17.46224 29.17401 23.31813
#
# Velocity S-wave (km/s) = 2.95981 3.82571 3.42028
# Velocity P-wave (km/s) = 4.45501 6.89979 5.80751
#
# Compressibility (1/GPa) = 0.06143220
#
# Stress axis : x y z
#
# Youngs Moduli (GPa) = 20.76426 91.41453 35.68765
#
# Poissons Ratio (x) = 0.65325 -0.16626
# Poissons Ratio (y) = 0.14838 0.36960
# Poissons Ratio (z) = -0.09673 0.94672
#
# Static dielectric constant tensor:
#      x y z
#    x 3.445060 0.000000 0.097270 
#    y 0.000000 4.204780 0.000000 
#    z 0.097270 0.000000 3.271070 
# 
# 
# High freq. dielectric constant tensor:
#      x y z
#    x 1.757150 0.000000 0.037650 
#    y 0.000000 1.788970 0.000000 
#    z 0.037650 0.000000 1.757590 
# 
# From -- ./inp_files/132483.got.cif
#   From: 2010.06.25/outbox.cif.g09.slc.cpg/sg12_67_cif.got.tgz:132483.got - 2010.06.28 00:19:55.
