data_PCOD8084036
_publ_section_title
;
Structure prediction by ZEFSAII (Michael W. Deem and Ramdas Pophale) SiO2 
 PCOD8084036
Probable space group: C 2/M
;
_chemical_formula_sum "Si O2"
_cell_formula_units_Z 56
_cell_length_a 11.707602
_cell_length_b 19.233483
_cell_length_c 16.926852
_cell_angle_alpha 90.000000
_cell_angle_beta 53.474131
_cell_angle_gamma 90.000000
_cell_volume 3062.919939
_symmetry_space_group_name_H-M "C 2/M"
_symmetry_group_IT_number 12
_symmetry_cell_setting 'monoclinic'
loop_
_space_group_symop_operation_xyz
x,y,z
-x,y,-z
-x,-y,-z
x,-y,z
1/2+x,1/2+y,z
1/2-x,1/2+y,-z
1/2-x,1/2-y,-z
1/2+x,1/2-y,z
loop_
_atom_site_type_symbol
_atom_site_label
_atom_site_fract_x
_atom_site_fract_y
_atom_site_fract_z
Si Si1 0.687344 0.920910 0.198231
Si Si2 0.137466 0.420914 0.643350
Si Si3 0.816969 0.681677 0.239546
Si Si4 0.341349 0.919183 0.544084
Si Si5 0.867329 0.337445 0.921028
Si Si6 0.649400 0.338959 0.743366
Si Si7 0.331306 0.310431 0.859388
O O1 0.530081 0.905962 0.296022
O O2 0.686950 0.904161 0.105435
O O3 0.797128 0.870631 0.196579
O O4 0.734194 0.000000 0.192879
O O5 0.164440 0.500000 0.659609
O O6 0.213924 0.371640 0.675993
O O7 0.198807 0.407208 0.530947
O O8 0.815972 0.757726 0.278068
O O9 0.697872 0.677949 0.221192
O O10 0.963956 0.662081 0.135509
O O11 0.500000 0.892216 0.500000
O O12 0.222814 0.877280 0.640257
O O13 0.330710 0.000000 0.572447
O O14 0.830270 0.270459 0.882943
O O15 0.791534 0.343970 0.036343
O O16 0.479895 0.348789 0.813722
#
# Coordination Sequence:
#
# PCOD8084036 Si02
#       7
#     8   8   8   8   8   8   8
#     4  10  18  34  56  82 112 140 183 237 278 324
#     4   9  19  36  59  80 103 148 196 225 262 329
#     4  10  20  36  57  80 113 146 187 229 272 333
#     4  10  19  35  59  83 109 147 189 227 277 341
#     4   9  19  35  57  79 105 150 194 221 269 337
#     4  11  21  32  54  85 115 138 182 236 290 325
#     4  10  20  35  54  80 113 147 183 229 279 333
#
# _framework density 18.283207000000001
#
# number of rings (size 3 to 8) (size 9 to 14) (size 15 to 20)
#    0.000    2.143    2.857    0.857    0.000    1.143 
#    0.000    5.000    0.000    5.143    0.000    0.000 
#    0.000    0.000    0.000    0.000    0.000    0.000 
#
# Total GULP energy -347178.112621 kJ/mol
# GULP energy per Si atom -12399.218308 kJ/mol
# Density = 1.824159 g / cm^3
# Si number density = 18.283207 Si / 1000 Ang^3
#
#
#
# Elastic Constant Matrix: (Units=GPa)
#
#
# Indices 1 2 3 4 5 6 
#
# 1 71.8894 26.9152 18.8243 0.0000 11.6576 0.0001
# 2 26.9152 68.3879 26.1975 0.0000 5.2615 0.0000
# 3 18.8243 26.1975 79.7029 0.0000 1.5837 0.0000
# 4 0.0000 0.0000 0.0000 26.7911 0.0000 2.3691
# 5 11.6576 5.2615 1.5837 0.0000 26.0670 0.0000
# 6 0.0001 0.0000 0.0000 2.3691 0.0000 29.4055
#
#
#
# Elastic Compliance Matrix: (Units=1/GPa)
#
#
# Indices 1 2 3 4 5 6 
#
# 1 0.017657 -0.005597 -0.002199 0.000000 -0.006633 0.000000
# 2 -0.005597 0.018748 -0.004821 0.000000 -0.000988 0.000000
# 3 -0.002199 -0.004821 0.014629 0.000000 0.001068 0.000000
# 4 0.000000 0.000000 0.000000 0.037594 0.000000 -0.003029
# 5 -0.006633 -0.000988 0.001068 0.000000 0.041464 0.000000
# 6 0.000000 0.000000 0.000000 -0.003029 0.000000 0.034251
#
#
# Mechanical properties :
#
#
# Convention : Reuss Voigt Hill
#
# Bulk Modulus (GPa) = 38.75718 40.42822 39.59270
# Shear Modulus (GPa) = 25.23012 26.32228 25.77620
#
# Velocity S-wave (km/s) = 3.71881 3.79845 3.75884
# Velocity P-wave (km/s) = 6.29950 6.43412 6.36716
#
# Compressibility (1/GPa) = 0.02580167
#
# Stress axis : x y z
#
# Youngs Moduli (GPa) = 56.63466 53.33951 68.35613
#
# Poissons Ratio (x) = 0.29852 0.15031
# Poissons Ratio (y) = 0.31696 0.32953
# Poissons Ratio (z) = 0.12454 0.25714
#
# Static dielectric constant tensor:
#      x y z
#    x 3.253480 0.000000 0.044730 
#    y 0.000000 3.348840 0.000000 
#    z 0.044730 0.000000 3.319500 
# 
# 
# High freq. dielectric constant tensor:
#      x y z
#    x 1.698930 0.000000 0.012050 
#    y 0.000000 1.699500 0.000000 
#    z 0.012050 0.000000 1.705610 
# 
# From -- ./inp_files/206556.got.cif
#   From: 2010.06.25/outbox.cif.g09.slc.cpg/sg12_104_cif.got.tgz:206556.got - 2010.06.28 00:19:55.
