data_PCOD8084536
_publ_section_title
;
Structure prediction by ZEFSAII (Michael W. Deem and Ramdas Pophale) SiO2 
 PCOD8084536
Probable space group: C 2/M
;
_chemical_formula_sum "Si O2"
_cell_formula_units_Z 44
_cell_length_a 28.229318
_cell_length_b 10.153218
_cell_length_c 6.955597
_cell_angle_alpha 90.000000
_cell_angle_beta 103.968588
_cell_angle_gamma 90.000000
_cell_volume 1934.647838
_symmetry_space_group_name_H-M "C 2/M"
_symmetry_group_IT_number 12
_symmetry_cell_setting 'monoclinic'
loop_
_space_group_symop_operation_xyz
x,y,z
-x,y,-z
-x,-y,-z
x,-y,z
1/2+x,1/2+y,z
1/2-x,1/2+y,-z
1/2-x,1/2-y,-z
1/2+x,1/2-y,z
loop_
_atom_site_type_symbol
_atom_site_label
_atom_site_fract_x
_atom_site_fract_y
_atom_site_fract_z
Si Si1 0.841834 0.500000 0.818581
Si Si2 0.857548 0.853910 0.568234
Si Si3 0.579494 0.000000 0.799269
Si Si4 0.198376 0.654528 0.738463
Si Si5 0.192731 0.234826 0.138194
Si Si6 0.049659 0.281481 0.473194
Si Si7 0.447188 0.000000 0.810440
O O1 0.805521 0.377703 0.756066
O O2 0.887707 0.500000 0.717075
O O3 0.866067 0.500000 0.058390
O O4 0.822341 0.739414 0.456576
O O5 0.849992 0.847380 0.793820
O O6 0.913396 0.829541 0.563164
O O7 0.843403 0.000000 0.480932
O O8 0.573734 0.129835 0.664679
O O9 0.540884 0.000000 0.946250
O O10 0.182567 0.500000 0.707012
O O11 0.256922 0.657182 0.793980
O O12 0.178579 0.734990 0.904472
O O13 0.032796 0.371263 0.277069
O O14 0.000000 0.212897 0.500000
#
# Coordination Sequence:
#
# PCOD8084536 Si02
#       7
#     4   8   4   8   8   8   4
#     4  10  18  36  67  92 130 170 197 271 315 382
#     4  12  27  44  65  93 133 178 218 269 330 391
#     4   9  19  37  61  98 127 161 210 266 330 370
#     4  11  26  42  70  98 128 172 221 274 320 389
#     4  11  23  42  65  97 133 169 215 262 333 383
#     4  11  23  38  62  94 128 168 218 270 323 391
#     4   9  19  37  63  96 127 165 206 274 322 379
#
# _framework density 22.743158000000001
#
# number of rings (size 3 to 8) (size 9 to 14) (size 15 to 20)
#    0.545    0.727    2.727    3.273    5.091    3.273 
#    0.000    0.000    0.000    0.000    0.000    6.364 
#    0.000    0.000    0.000    0.000    0.000    0.000 
#
# Total GULP energy -272587.460258 kJ/mol
# GULP energy per Si atom -12390.339103 kJ/mol
# Density = 2.269139 g / cm^3
# Si number density = 22.743158 Si / 1000 Ang^3
#
#
#
# Elastic Constant Matrix: (Units=GPa)
#
#
# Indices 1 2 3 4 5 6 
#
# 1 88.6606 32.8104 38.0315 0.0000 -30.0394 0.0000
# 2 32.8104 119.4214 46.5133 0.0000 -3.6102 0.0000
# 3 38.0315 46.5133 102.0223 0.0000 -17.6077 0.0000
# 4 0.0000 0.0000 0.0000 11.3898 0.0000 0.0582
# 5 -30.0394 -3.6102 -17.6077 0.0000 38.9925 0.0000
# 6 0.0000 0.0000 0.0000 0.0582 0.0000 31.6651
#
#
#
# Elastic Compliance Matrix: (Units=1/GPa)
#
#
# Indices 1 2 3 4 5 6 
#
# 1 0.017952 -0.003374 -0.003059 0.000000 0.012136 0.000000
# 2 -0.003374 0.010872 -0.004310 0.000000 -0.003539 0.000000
# 3 -0.003059 -0.004310 0.013482 0.000000 0.003332 0.000000
# 4 0.000000 0.000000 0.000000 0.087799 0.000000 -0.000162
# 5 0.012136 -0.003539 0.003332 0.000000 0.036172 0.000000
# 6 0.000000 0.000000 0.000000 -0.000162 0.000000 0.031581
#
#
# Mechanical properties :
#
#
# Convention : Reuss Voigt Hill
#
# Bulk Modulus (GPa) = 48.03004 60.53496 54.28250
# Shear Modulus (GPa) = 22.09612 29.25943 25.67777
#
# Velocity S-wave (km/s) = 3.12035 3.59069 3.36375
# Velocity P-wave (km/s) = 5.84349 6.62309 6.24547
#
# Compressibility (1/GPa) = 0.02082030
#
# Stress axis : x y z
#
# Youngs Moduli (GPa) = 55.70554 91.97697 74.17148
#
# Poissons Ratio (x) = 0.31030 0.22692
# Poissons Ratio (y) = 0.18793 0.31967
# Poissons Ratio (z) = 0.17042 0.39641
#
# Static dielectric constant tensor:
#      x y z
#    x 4.275870 0.000000 -0.517400 
#    y 0.000000 3.805510 0.000000 
#    z -0.517400 0.000000 4.189220 
# 
# 
# High freq. dielectric constant tensor:
#      x y z
#    x 1.909450 0.000000 -0.034530 
#    y 0.000000 1.868040 0.000000 
#    z -0.034530 0.000000 1.897920 
# 
# From -- ./inp_files/108262.got.cif
#   From: 2010.06.25/outbox.cif.g09.slc.cpg/sg12_55_cif.got.tgz:108262.got - 2010.06.28 00:19:55.
