data_PCOD8084907
_publ_section_title
;
Structure prediction by ZEFSAII (Michael W. Deem and Ramdas Pophale) SiO2 
 PCOD8084907
Probable space group: C 2/M
;
_chemical_formula_sum "Si O2"
_cell_formula_units_Z 44
_cell_length_a 7.634648
_cell_length_b 17.821888
_cell_length_c 18.249361
_cell_angle_alpha 90.000000
_cell_angle_beta 71.248437
_cell_angle_gamma 90.000000
_cell_volume 2351.279753
_symmetry_space_group_name_H-M "C 2/M"
_symmetry_group_IT_number 12
_symmetry_cell_setting 'monoclinic'
loop_
_space_group_symop_operation_xyz
x,y,z
-x,y,-z
-x,-y,-z
x,-y,z
1/2+x,1/2+y,z
1/2-x,1/2+y,-z
1/2-x,1/2-y,-z
1/2+x,1/2-y,z
loop_
_atom_site_type_symbol
_atom_site_label
_atom_site_fract_x
_atom_site_fract_y
_atom_site_fract_z
Si Si1 0.500000 0.303136 0.000000
Si Si2 0.814701 0.340490 0.060551
Si Si3 0.294070 0.415197 0.499205
Si Si4 0.820821 0.088461 0.335041
Si Si5 0.210281 0.910706 0.227056
Si Si6 0.069267 0.588452 0.663311
O O1 0.371467 0.353766 0.963733
O O2 0.644133 0.249052 0.936135
O O3 0.783196 0.375855 0.143059
O O4 0.000000 0.378514 0.000000
O O5 0.500000 0.412959 0.500000
O O6 0.222435 0.500000 0.498795
O O7 0.286226 0.375376 0.420463
O O8 0.162810 0.375517 0.577597
O O9 0.647871 0.107844 0.306327
O O10 0.004390 0.120118 0.271732
O O11 0.848724 0.000000 0.342158
O O12 0.340871 0.879910 0.274677
O O13 0.216150 0.000000 0.218835
O O14 0.107700 0.500000 0.655915
#
# Coordination Sequence:
#
# PCOD8084907 Si02
#       6
#     4   8   8   8   8   8
#     4   8  18  38  58  72  82 112 156 202 232 260
#     4   9  18  35  56  72  90 116 150 194 234 274
#     4   9  13  21  37  52  80 129 172 196 210 245
#     4   9  16  25  36  57  91 131 165 186 215 264
#     4  10  19  29  43  70 104 127 145 181 234 288
#     4   9  16  25  37  57  90 130 163 188 219 263
#
# _framework density 18.713213
#
# number of rings (size 3 to 8) (size 9 to 14) (size 15 to 20)
#    0.545    2.364    1.818    0.545    0.000    4.000 
#    0.000    0.455    0.000    0.000    0.000    0.000 
#    0.000    5.818    0.000    0.000    0.000    0.000 
#
# Total GULP energy -272565.660868 kJ/mol
# GULP energy per Si atom -12389.348221 kJ/mol
# Density = 1.867062 g / cm^3
# Si number density = 18.713213 Si / 1000 Ang^3
#
#
#
# Elastic Constant Matrix: (Units=GPa)
#
#
# Indices 1 2 3 4 5 6 
#
# 1 157.0948 11.8551 89.1809 0.0000 3.8138 0.0000
# 2 11.8551 9.8755 21.2127 0.0000 0.7324 0.0000
# 3 89.1809 21.2127 176.8677 0.0000 -5.8553 0.0000
# 4 0.0000 0.0000 0.0000 -15.9002 0.0000 -1.5477
# 5 3.8138 0.7324 -5.8553 0.0000 19.1712 0.0000
# 6 0.0000 0.0000 0.0000 -1.5477 0.0000 5.9097
#
#
#
# Elastic Compliance Matrix: (Units=1/GPa)
#
#
# Indices 1 2 3 4 5 6 
#
# 1 0.009119 -0.000818 -0.004606 0.000000 -0.003190 0.000000
# 2 -0.000818 0.138523 -0.016539 0.000000 -0.010181 0.000000
# 3 -0.004606 -0.016539 0.010113 0.000000 0.004637 0.000000
# 4 0.000000 0.000000 0.000000 -0.061329 0.000000 -0.016062
# 5 -0.003190 -0.010181 0.004637 0.000000 0.054601 0.000000
# 6 0.000000 0.000000 0.000000 -0.016062 0.000000 0.165008
#
#
# Mechanical properties :
#
#
# Convention : Reuss Voigt Hill
#
# Bulk Modulus (GPa) = 8.78489 65.37058 37.07773
# Shear Modulus (GPa) = 12.56584 16.60874 14.58729
#
# Velocity S-wave (km/s) = 2.59413 2.98239 2.79501
# Velocity P-wave (km/s) = 3.69830 6.84604 5.50207
#
# Compressibility (1/GPa) = 0.11383182
#
# Stress axis : x y z
#
# Youngs Moduli (GPa) = 109.65718 7.21901 98.87948
#
# Poissons Ratio (x) = 0.00590 0.45541
# Poissons Ratio (y) = 0.08966 1.63533
# Poissons Ratio (z) = 0.50505 0.11939
#
# Static dielectric constant tensor:
#      x y z
#    x 3.611950 0.000000 -0.002270 
#    y 0.000000 2.630740 0.000000 
#    z -0.002270 0.000000 3.415130 
# 
# 
# High freq. dielectric constant tensor:
#      x y z
#    x 1.748810 0.000000 0.001330 
#    y 0.000000 1.632400 0.000000 
#    z 0.001330 0.000000 1.727330 
# 
# From -- ./inp_files/197722.got.cif
#   From: 2010.06.25/outbox.cif.g09.slc.cpg/sg12_99_cif.got.tgz:197722.got - 2010.06.28 00:19:55.
