data_PCOD8084012
_publ_section_title
;
Structure prediction by ZEFSAII (Michael W. Deem and Ramdas Pophale) SiO2 
 PCOD8084012
Probable space group: C 2/M
;
_chemical_formula_sum "Si O2"
_cell_formula_units_Z 40
_cell_length_a 15.937583
_cell_length_b 27.652788
_cell_length_c 10.154935
_cell_angle_alpha 90.000000
_cell_angle_beta 25.646086
_cell_angle_gamma 90.000000
_cell_volume 1937.032117
_symmetry_space_group_name_H-M "C 2/M"
_symmetry_group_IT_number 12
_symmetry_cell_setting 'monoclinic'
loop_
_space_group_symop_operation_xyz
x,y,z
-x,y,-z
-x,-y,-z
x,-y,z
1/2+x,1/2+y,z
1/2-x,1/2+y,-z
1/2-x,1/2-y,-z
1/2+x,1/2-y,z
loop_
_atom_site_type_symbol
_atom_site_label
_atom_site_fract_x
_atom_site_fract_y
_atom_site_fract_z
Si Si1 0.731290 0.599785 0.946503
Si Si2 0.368852 0.608021 0.315788
Si Si3 0.568202 0.056298 0.587682
Si Si4 0.133706 0.701161 0.683956
Si Si5 0.128581 0.297672 0.193830
O O1 0.846740 0.588765 0.649208
O O2 0.733300 0.656860 0.972738
O O3 0.836531 0.569626 0.916736
O O4 0.505880 0.585867 0.238605
O O5 0.186764 0.571527 0.550847
O O6 0.289836 0.658819 0.479367
O O7 0.500000 0.615202 0.000000
O O8 0.598507 0.000000 0.517207
O O9 0.250000 0.750000 0.500000
O O10 0.002828 0.688896 0.744110
O O11 0.000000 0.705501 0.000000
O O12 0.000000 0.285595 0.500000
O O13 0.250000 0.250000 0.000000
#
# Coordination Sequence:
#
# PCOD8084012 Si02
#       5
#     8   8   8   8   8
#     4  10  18  34  55  85 127 157 206 260 316 369
#     4  10  20  36  59  89 128 162 209 265 316 381
#     4  10  19  34  60  93 129 165 207 272 330 369
#     4  12  24  41  61  91 130 173 216 263 321 385
#     4  12  22  38  60  87 125 166 209 259 314 376
#
# _framework density 20.650148999999999
#
# number of rings (size 3 to 8) (size 9 to 14) (size 15 to 20)
#    0.000    1.200    4.000    5.400    0.000    4.400 
#    0.000    0.000    0.000    0.600    0.000    1.400 
#    0.000    0.000    0.000    0.000    0.000    0.000 
#
# Total GULP energy -247866.793636 kJ/mol
# GULP energy per Si atom -12393.339682 kJ/mol
# Density = 2.060315 g / cm^3
# Si number density = 20.650149 Si / 1000 Ang^3
#
#
#
# Elastic Constant Matrix: (Units=GPa)
#
#
# Indices 1 2 3 4 5 6 
#
# 1 163.4037 55.4239 59.9731 -0.0107 -49.0710 0.0035
# 2 55.4239 125.4720 20.9807 -0.0017 -18.7467 -0.0001
# 3 59.9731 20.9807 73.0240 -0.0136 -8.8109 0.0048
# 4 -0.0107 -0.0017 -0.0136 19.8358 0.0083 -9.2363
# 5 -49.0710 -18.7467 -8.8109 0.0083 48.7392 -0.0028
# 6 0.0035 -0.0001 0.0048 -9.2363 -0.0028 27.8833
#
#
#
# Elastic Compliance Matrix: (Units=1/GPa)
#
#
# Indices 1 2 3 4 5 6 
#
# 1 0.013812 -0.002905 -0.009166 -0.000004 0.011132 0.000000
# 2 -0.002905 0.009389 -0.000234 -0.000001 0.000644 0.000000
# 3 -0.009166 -0.000234 0.020614 0.000012 -0.005592 0.000001
# 4 -0.000004 -0.000001 0.000012 0.059608 -0.000011 0.019745
# 5 0.011132 0.000644 -0.005592 -0.000011 0.030962 -0.000001
# 6 0.000000 0.000000 0.000001 0.019745 -0.000001 0.042404
#
#
# Mechanical properties :
#
#
# Convention : Reuss Voigt Hill
#
# Bulk Modulus (GPa) = 52.06864 70.51722 61.29293
# Shear Modulus (GPa) = 24.06149 34.32647 29.19398
#
# Velocity S-wave (km/s) = 3.41720 4.08154 3.76405
# Velocity P-wave (km/s) = 6.39055 7.51230 6.97401
#
# Compressibility (1/GPa) = 0.01920542
#
# Stress axis : x y z
#
# Youngs Moduli (GPa) = 72.39914 106.51304 48.50986
#
# Poissons Ratio (x) = 0.30946 0.44464
# Poissons Ratio (y) = 0.21034 0.01133
# Poissons Ratio (z) = 0.66360 0.02489
#
# Static dielectric constant tensor:
#      x y z
#    x 4.643280 -0.000040 -0.695910 
#    y -0.000040 3.658390 0.000070 
#    z -0.695910 0.000070 3.654500 
# 
# 
# High freq. dielectric constant tensor:
#      x y z
#    x 1.827610 0.000000 -0.039950 
#    y 0.000000 1.808800 0.000000 
#    z -0.039950 0.000000 1.766400 
# 
# From -- ./inp_files/68451.got.cif
#   From: 2010.06.25/outbox.cif.g09.slc.cpg/sg12_35_cif.got.tgz:68451.got - 2010.06.28 00:19:55.
