data_PCOD8084393
_publ_section_title
;
Structure prediction by ZEFSAII (Michael W. Deem and Ramdas Pophale) SiO2 
 PCOD8084393
Probable space group: C 2/M
;
_chemical_formula_sum "Si O2"
_cell_formula_units_Z 64
_cell_length_a 15.327095
_cell_length_b 8.926884
_cell_length_c 33.038718
_cell_angle_alpha 90.000000
_cell_angle_beta 45.853401
_cell_angle_gamma 90.000000
_cell_volume 3243.703814
_symmetry_space_group_name_H-M "C 2/M"
_symmetry_group_IT_number 12
_symmetry_cell_setting 'monoclinic'
loop_
_space_group_symop_operation_xyz
x,y,z
-x,y,-z
-x,-y,-z
x,-y,z
1/2+x,1/2+y,z
1/2-x,1/2+y,-z
1/2-x,1/2-y,-z
1/2+x,1/2-y,z
loop_
_atom_site_type_symbol
_atom_site_label
_atom_site_fract_x
_atom_site_fract_y
_atom_site_fract_z
Si Si1 0.324966 0.323608 0.887856
Si Si2 0.465777 0.174602 0.691084
Si Si3 0.964507 0.175491 0.122348
Si Si4 0.246763 0.675411 0.608467
Si Si5 0.590186 0.830330 0.008228
Si Si6 0.100509 0.674242 0.378005
Si Si7 0.844568 0.324019 0.499414
Si Si8 0.287792 0.677563 0.809722
O O1 0.305397 0.500000 0.891462
O O2 0.456573 0.282538 0.863426
O O3 0.219287 0.262552 0.951733
O O4 0.311127 0.256523 0.847246
O O5 0.606909 0.217960 0.647016
O O6 0.413112 0.218175 0.664402
O O7 0.398451 0.271579 0.746277
O O8 0.446372 0.000000 0.706631
O O9 0.838056 0.261143 0.167286
O O10 0.937839 0.000000 0.128801
O O11 0.039814 0.222032 0.058743
O O12 0.267925 0.500000 0.596304
O O13 0.289009 0.729302 0.639212
O O14 0.328983 0.761955 0.549459
O O15 0.602206 0.000000 0.021382
O O16 0.500000 0.829453 0.000000
O O17 0.131434 0.500000 0.372741
O O18 0.978555 0.716666 0.441206
O O19 0.821946 0.500000 0.506286
O O20 0.750000 0.250000 0.500000
O O21 0.280948 0.500000 0.812421
#
# Coordination Sequence:
#
# PCOD8084393 Si02
#       8
#     8   8   8   8   8   8   8   8
#     4   9  20  38  59  84 118 156 190 233 292 353
#     4  10  23  44  62  83 120 157 195 248 303 344
#     4  11  22  37  59  89 120 151 192 241 295 347
#     4  11  23  40  62  92 125 157 198 248 298 355
#     4  10  18  35  61  85 118 157 190 232 288 348
#     4  10  22  41  62  87 123 162 196 240 302 360
#     4  11  21  37  62  91 124 162 200 242 300 361
#     4  11  23  42  63  84 112 154 204 242 288 351
#
# _framework density 19.730532
#
# number of rings (size 3 to 8) (size 9 to 14) (size 15 to 20)
#    0.000    1.625    2.500    2.250    0.000    5.250 
#    0.000    6.875    0.000    0.000    0.000    0.000 
#    0.000    0.000    0.000    0.000    0.000    0.000 
#
# Total GULP energy -396922.847573 kJ/mol
# GULP energy per Si atom -12403.838987 kJ/mol
# Density = 1.968562 g / cm^3
# Si number density = 19.730532 Si / 1000 Ang^3
#
#
#
# Elastic Constant Matrix: (Units=GPa)
#
#
# Indices 1 2 3 4 5 6 
#
# 1 95.4886 26.9339 13.7687 0.0007 8.4031 0.0010
# 2 26.9339 54.6154 25.5006 0.0014 -1.7980 0.0009
# 3 13.7687 25.5006 79.7701 0.0006 1.9199 0.0006
# 4 0.0007 0.0014 0.0006 34.3799 0.0004 -3.4492
# 5 8.4031 -1.7980 1.9199 0.0004 15.2309 0.0005
# 6 0.0010 0.0009 0.0006 -3.4492 0.0005 29.4731
#
#
#
# Elastic Compliance Matrix: (Units=1/GPa)
#
#
# Indices 1 2 3 4 5 6 
#
# 1 0.013069 -0.006754 0.000096 0.000000 -0.008020 0.000000
# 2 -0.006754 0.025192 -0.007070 -0.000001 0.007592 -0.000001
# 3 0.000096 -0.007070 0.014846 0.000000 -0.002759 0.000000
# 4 0.000000 -0.000001 0.000000 0.029432 -0.000001 0.003444
# 5 -0.008020 0.007592 -0.002759 -0.000001 0.071325 -0.000001
# 6 0.000000 -0.000001 0.000000 0.003444 -0.000001 0.034332
#
#
# Mechanical properties :
#
#
# Convention : Reuss Voigt Hill
#
# Bulk Modulus (GPa) = 38.98465 40.25339 39.61902
# Shear Modulus (GPa) = 22.30119 26.72818 24.51468
#
# Velocity S-wave (km/s) = 3.36562 3.68456 3.52870
# Velocity P-wave (km/s) = 5.90802 6.20864 6.06019
#
# Compressibility (1/GPa) = 0.02565112
#
# Stress axis : x y z
#
# Youngs Moduli (GPa) = 76.51407 39.69540 67.35843
#
# Poissons Ratio (x) = 0.26812 -0.00649
# Poissons Ratio (y) = 0.51680 0.47623
# Poissons Ratio (z) = -0.00737 0.28065
#
# Static dielectric constant tensor:
#      x y z
#    x 3.755960 0.000000 0.074770 
#    y 0.000000 3.475010 0.000000 
#    z 0.074770 0.000000 3.624330 
# 
# 
# High freq. dielectric constant tensor:
#      x y z
#    x 1.785720 0.000000 0.000580 
#    y 0.000000 1.758300 0.000000 
#    z 0.000580 0.000000 1.767370 
# 
# From -- ./inp_files/375388.got.cif
#   From: 2010.06.25/outbox.cif.g09.slc.cpg/sg12_188_cif.got.tgz:375388.got - 2010.06.28 00:19:55.
