data_PCOD8084867
_publ_section_title
;
Structure prediction by ZEFSAII (Michael W. Deem and Ramdas Pophale) SiO2 
 PCOD8084867
Probable space group: C 2/M
;
_chemical_formula_sum "Si O2"
_cell_formula_units_Z 64
_cell_length_a 18.677025
_cell_length_b 8.770320
_cell_length_c 27.945366
_cell_angle_alpha 90.000000
_cell_angle_beta 131.939198
_cell_angle_gamma 90.000000
_cell_volume 3405.029882
_symmetry_space_group_name_H-M "C 2/M"
_symmetry_group_IT_number 12
_symmetry_cell_setting 'monoclinic'
loop_
_space_group_symop_operation_xyz
x,y,z
-x,y,-z
-x,-y,-z
x,-y,z
1/2+x,1/2+y,z
1/2-x,1/2+y,-z
1/2-x,1/2-y,-z
1/2+x,1/2-y,z
loop_
_atom_site_type_symbol
_atom_site_label
_atom_site_fract_x
_atom_site_fract_y
_atom_site_fract_z
Si Si1 0.050620 0.818708 0.378654
Si Si2 0.672393 0.181730 0.000000
Si Si3 0.462061 0.181106 0.882086
Si Si4 0.919277 0.181061 0.500000
Si Si5 0.319957 0.181168 0.739636
Si Si6 0.293313 0.818708 0.621346
Si Si7 0.802110 0.681106 0.882085
Si Si8 0.840685 0.818832 0.260364
O O1 0.060016 0.760597 0.437237
O O2 0.136381 0.750002 0.386380
O O3 0.948882 0.755372 0.313076
O O4 0.056492 0.000000 0.378393
O O5 0.569108 0.245953 0.936601
O O6 0.675411 0.000000 0.000000
O O7 0.750000 0.250000 0.000000
O O8 0.695907 0.245953 0.063400
O O9 0.416270 0.234772 0.810923
O O10 0.395606 0.242746 0.895606
O O11 0.464291 0.000000 0.885205
O O12 0.814457 0.239398 0.437236
O O13 0.000000 0.248225 0.500000
O O14 0.923080 0.000000 0.500002
O O15 0.322731 0.244628 0.686924
O O16 0.225378 0.242443 0.725378
O O17 0.314630 0.000000 0.736026
O O18 0.299710 0.000000 0.621609
O O19 0.806118 0.500000 0.885204
O O20 0.705574 0.734771 0.810922
O O21 0.842579 0.000000 0.263975
#
# Coordination Sequence:
#
# PCOD8084867 Si02
#       8
#     8   8   8   8   8   8   8   8
#     4  10  19  30  46  68  93 118 143 176 219 263
#     4  10  19  29  43  65  91 116 142 176 220 264
#     4   8  14  26  45  66  85 109 147 189 218 245
#     4   9  17  30  49  69  86 111 152 192 216 243
#     4   8  14  26  45  67  87 110 146 187 218 247
#     4  10  19  30  46  68  93 118 143 176 219 263
#     4   8  14  26  45  66  85 109 147 189 218 245
#     4   8  14  26  45  67  87 110 146 187 218 247
#
# _framework density 18.795724
#
# number of rings (size 3 to 8) (size 9 to 14) (size 15 to 20)
#    0.000    3.125    0.000    3.000    0.000    5.500 
#    0.000    0.000    0.000    5.250    0.000    3.500 
#    0.000    0.000    0.000    0.000    0.000    0.000 
#
# Total GULP energy -396614.991734 kJ/mol
# GULP energy per Si atom -12394.218492 kJ/mol
# Density = 1.875294 g / cm^3
# Si number density = 18.795724 Si / 1000 Ang^3
#
#
#
# Elastic Constant Matrix: (Units=GPa)
#
#
# Indices 1 2 3 4 5 6 
#
# 1 173.7190 14.8613 120.6623 0.0000 0.2402 0.0000
# 2 14.8613 7.8657 16.0561 0.0000 0.0805 0.0000
# 3 120.6623 16.0561 198.7051 0.0000 1.4349 0.0000
# 4 0.0000 0.0000 0.0000 7.1275 0.0000 -1.2252
# 5 0.2402 0.0805 1.4349 0.0000 28.4143 0.0000
# 6 0.0000 0.0000 0.0000 -1.2252 0.0000 25.3332
#
#
#
# Elastic Compliance Matrix: (Units=1/GPa)
#
#
# Indices 1 2 3 4 5 6 
#
# 1 0.010367 -0.008066 -0.005645 0.000000 0.000220 0.000000
# 2 -0.008066 0.158522 -0.007911 0.000000 0.000018 0.000000
# 3 -0.005645 -0.007911 0.009103 0.000000 -0.000390 0.000000
# 4 0.000000 0.000000 0.000000 0.141478 0.000000 0.006842
# 5 0.000220 0.000018 -0.000390 0.000000 0.035211 0.000000
# 6 0.000000 0.000000 0.000000 0.006842 0.000000 0.039805
#
#
# Mechanical properties :
#
#
# Convention : Reuss Voigt Hill
#
# Bulk Modulus (GPa) = 7.42132 75.93882 41.68007
# Shear Modulus (GPa) = 10.35952 27.42233 18.89092
#
# Velocity S-wave (km/s) = 2.35023 3.82379 3.17372
# Velocity P-wave (km/s) = 3.36479 7.74500 5.97105
#
# Compressibility (1/GPa) = 0.13474694
#
# Stress axis : x y z
#
# Youngs Moduli (GPa) = 96.45727 6.30826 109.85768
#
# Poissons Ratio (x) = 0.05088 0.62018
# Poissons Ratio (y) = 0.77806 0.86909
# Poissons Ratio (z) = 0.54453 0.04991
#
# Static dielectric constant tensor:
#      x y z
#    x 3.551270 0.000000 0.030250 
#    y 0.000000 2.729790 0.000000 
#    z 0.030250 0.000000 4.001070 
# 
# 
# High freq. dielectric constant tensor:
#      x y z
#    x 1.733430 0.000000 0.001280 
#    y 0.000000 1.654110 0.000000 
#    z 0.001280 0.000000 1.752480 
# 
# From -- ./inp_files/343092.got.cif
#   From: 2010.06.25/outbox.cif.g09.slc.cpg/sg12_172_cif.got.tgz:343092.got - 2010.06.28 00:19:55.
