data_PCOD8084246
_publ_section_title
;
Structure prediction by ZEFSAII (Michael W. Deem and Ramdas Pophale) SiO2 
 PCOD8084246
Probable space group: C 2/M
;
_chemical_formula_sum "Si O2"
_cell_formula_units_Z 40
_cell_length_a 15.247257
_cell_length_b 12.850956
_cell_length_c 9.981372
_cell_angle_alpha 90.000000
_cell_angle_beta 114.699277
_cell_angle_gamma 90.000000
_cell_volume 1776.841792
_symmetry_space_group_name_H-M "C 2/M"
_symmetry_group_IT_number 12
_symmetry_cell_setting 'monoclinic'
loop_
_space_group_symop_operation_xyz
x,y,z
-x,y,-z
-x,-y,-z
x,-y,z
1/2+x,1/2+y,z
1/2-x,1/2+y,-z
1/2-x,1/2-y,-z
1/2+x,1/2-y,z
loop_
_atom_site_type_symbol
_atom_site_label
_atom_site_fract_x
_atom_site_fract_y
_atom_site_fract_z
Si Si1 0.890128 0.880051 0.405682
Si Si2 0.301872 0.622084 0.897460
Si Si3 0.759577 0.120130 0.575646
Si Si4 0.117907 0.737172 0.841453
Si Si5 0.451125 0.118138 0.613146
O O1 0.833075 0.856502 0.504622
O O2 0.849172 0.811514 0.259630
O O3 0.000000 0.846632 0.500000
O O4 0.881709 0.000000 0.357932
O O5 0.326620 0.500000 0.928544
O O6 0.302346 0.660404 0.743331
O O7 0.197245 0.644984 0.897711
O O8 0.382181 0.691931 0.024753
O O9 0.655456 0.169993 0.470280
O O10 0.737007 0.000000 0.583495
O O11 0.012283 0.687044 0.756820
O O12 0.500000 0.120412 0.500000
O O13 0.446097 0.000000 0.665160
#
# Coordination Sequence:
#
# PCOD8084246 Si02
#       5
#     8   8   8   8   8
#     4  10  22  40  61  89 124 161 205 256 305 360
#     4  10  21  38  60  88 124 165 204 247 305 369
#     4   9  19  38  65  90 118 160 206 255 305 357
#     4  11  21  35  60  93 122 161 201 251 312 361
#     4  10  18  34  62  95 124 153 202 257 304 361
#
# _framework density 22.511852999999999
#
# number of rings (size 3 to 8) (size 9 to 14) (size 15 to 20)
#    0.000    2.000    2.000    1.800    0.000    0.800 
#    0.000    1.000    4.400    4.800    0.000   12.600 
#    0.000    0.000    0.000    0.000    0.000    0.000 
#
# Total GULP energy -248000.867210 kJ/mol
# GULP energy per Si atom -12400.043360 kJ/mol
# Density = 2.246062 g / cm^3
# Si number density = 22.511853 Si / 1000 Ang^3
#
#
#
# Elastic Constant Matrix: (Units=GPa)
#
#
# Indices 1 2 3 4 5 6 
#
# 1 120.7196 -3.1772 53.2264 0.0000 11.1252 0.0000
# 2 -3.1772 82.9910 58.0812 0.0000 17.8140 0.0000
# 3 53.2264 58.0812 167.2919 0.0000 19.2390 0.0000
# 4 0.0000 0.0000 0.0000 57.8120 0.0000 -15.3762
# 5 11.1252 17.8140 19.2390 0.0000 27.2343 0.0000
# 6 0.0000 0.0000 0.0000 -15.3762 0.0000 61.2163
#
#
#
# Elastic Compliance Matrix: (Units=1/GPa)
#
#
# Indices 1 2 3 4 5 6 
#
# 1 0.010761 0.004441 -0.004491 0.000000 -0.004128 0.000000
# 2 0.004441 0.019113 -0.006968 0.000000 -0.009393 0.000000
# 3 -0.004491 -0.006968 0.009894 0.000000 -0.000597 0.000000
# 4 0.000000 0.000000 0.000000 0.018536 0.000000 0.004656
# 5 -0.004128 -0.009393 -0.000597 0.000000 0.044971 0.000000
# 6 0.000000 0.000000 0.000000 0.004656 0.000000 0.017505
#
#
# Mechanical properties :
#
#
# Convention : Reuss Voigt Hill
#
# Bulk Modulus (GPa) = 38.86260 65.25149 52.05704
# Shear Modulus (GPa) = 34.86918 46.77731 40.82324
#
# Velocity S-wave (km/s) = 3.93991 4.56334 4.26304
# Velocity P-wave (km/s) = 6.16424 7.53749 6.88519
#
# Compressibility (1/GPa) = 0.02573168
#
# Stress axis : x y z
#
# Youngs Moduli (GPa) = 92.92742 52.32161 101.06719
#
# Poissons Ratio (x) = -0.23236 0.45388
# Poissons Ratio (y) = -0.41270 0.70427
# Poissons Ratio (z) = 0.41733 0.36460
#
# Static dielectric constant tensor:
#      x y z
#    x 3.827580 0.000000 0.286010 
#    y 0.000000 4.370780 0.000000 
#    z 0.286010 0.000000 4.189840 
# 
# 
# High freq. dielectric constant tensor:
#      x y z
#    x 1.863980 0.000000 0.013420 
#    y 0.000000 1.913690 0.000000 
#    z 0.013420 0.000000 1.877780 
# 
# From -- ./inp_files/58978.got.cif
#   From: 2010.06.25/outbox.cif.g09.slc.cpg/sg12_30_cif.got.tgz:58978.got - 2010.06.28 00:19:55.
