data_PCOD8084490
_publ_section_title
;
Structure prediction by ZEFSAII (Michael W. Deem and Ramdas Pophale) SiO2 
 PCOD8084490
Probable space group: C 2/M
;
_chemical_formula_sum "Si O2"
_cell_formula_units_Z 64
_cell_length_a 18.174656
_cell_length_b 14.623250
_cell_length_c 23.668824
_cell_angle_alpha 90.000000
_cell_angle_beta 29.896967
_cell_angle_gamma 90.000000
_cell_volume 3135.460133
_symmetry_space_group_name_H-M "C 2/M"
_symmetry_group_IT_number 12
_symmetry_cell_setting 'monoclinic'
loop_
_space_group_symop_operation_xyz
x,y,z
-x,y,-z
-x,-y,-z
x,-y,z
1/2+x,1/2+y,z
1/2-x,1/2+y,-z
1/2-x,1/2-y,-z
1/2+x,1/2-y,z
loop_
_atom_site_type_symbol
_atom_site_label
_atom_site_fract_x
_atom_site_fract_y
_atom_site_fract_z
Si Si1 0.975935 0.602701 0.199381
Si Si2 0.341913 0.339722 0.588408
Si Si3 0.568642 0.202771 0.562348
Si Si4 0.528781 0.395341 0.916897
Si Si5 0.149289 0.735540 0.013631
Si Si6 0.561054 0.748877 0.232114
Si Si7 0.801999 0.657017 0.672609
Si Si8 0.826910 0.102327 0.358593
O O1 0.040282 0.500000 0.158870
O O2 0.797027 0.592289 0.320119
O O3 0.032444 0.658175 0.216351
O O4 0.036832 0.651624 0.101226
O O5 0.500000 0.386542 0.500000
O O6 0.363038 0.292084 0.513476
O O7 0.291638 0.265344 0.668508
O O8 0.479928 0.234456 0.675908
O O9 0.469111 0.143953 0.584132
O O10 0.708570 0.138004 0.484191
O O11 0.482304 0.500000 0.935831
O O12 0.700731 0.378514 0.790950
O O13 0.500000 0.367184 0.000000
O O14 0.438834 0.329458 0.935659
O O15 0.265134 0.719535 0.884942
O O16 0.250000 0.750000 0.000000
O O17 0.469209 0.667187 0.264336
O O18 0.755589 0.603061 0.647086
O O19 0.877923 0.000000 0.339396
#
# Coordination Sequence:
#
# PCOD8084490 Si02
#       8
#     8   8   8   8   8   8   8   8
#     4  11  22  38  62  87 113 154 208 252 293 346
#     4   9  18  36  61  86 113 149 196 243 293 351
#     4  10  21  36  60  87 123 156 194 239 303 370
#     4  11  22  36  60  94 123 151 194 251 312 365
#     4  10  22  40  59  82 119 163 202 245 294 353
#     4  11  22  41  58  87 123 161 199 246 305 354
#     4  10  18  36  59  84 116 159 194 235 294 365
#     4  11  22  36  60  89 123 162 200 242 297 366
#
# _framework density 20.411677000000001
#
# number of rings (size 3 to 8) (size 9 to 14) (size 15 to 20)
#    0.000    1.625    3.750    3.375    0.000    4.750 
#    0.000    0.000    0.000    1.125    0.000    0.000 
#    0.000    0.000    0.000    0.000    0.000    0.000 
#
# Total GULP energy -396532.274589 kJ/mol
# GULP energy per Si atom -12391.633581 kJ/mol
# Density = 2.036522 g / cm^3
# Si number density = 20.411677 Si / 1000 Ang^3
#
#
#
# Elastic Constant Matrix: (Units=GPa)
#
#
# Indices 1 2 3 4 5 6 
#
# 1 49.9683 31.0640 21.8010 0.0101 2.3737 0.0009
# 2 31.0640 123.6350 39.8388 0.0233 -1.3581 -0.0047
# 3 21.8010 39.8388 134.5242 0.0627 8.0650 -0.0177
# 4 0.0101 0.0233 0.0627 15.6017 0.0030 3.9258
# 5 2.3737 -1.3581 8.0650 0.0030 37.5759 -0.0041
# 6 0.0009 -0.0047 -0.0177 3.9258 -0.0041 15.4477
#
#
#
# Elastic Compliance Matrix: (Units=1/GPa)
#
#
# Indices 1 2 3 4 5 6 
#
# 1 0.024436 -0.005418 -0.002280 0.000003 -0.001250 -0.000007
# 2 -0.005418 0.010173 -0.002206 -0.000004 0.001183 0.000002
# 3 -0.002280 -0.002206 0.008563 -0.000034 -0.001773 0.000017
# 4 0.000003 -0.000004 -0.000034 0.068475 0.000000 -0.017402
# 5 -0.001250 0.001183 -0.001773 0.000000 0.027115 0.000006
# 6 -0.000007 0.000002 0.000017 -0.017402 0.000006 0.069157
#
#
# Mechanical properties :
#
#
# Convention : Reuss Voigt Hill
#
# Bulk Modulus (GPa) = 42.80345 54.83724 48.82035
# Shear Modulus (GPa) = 21.23004 28.08663 24.65834
#
# Velocity S-wave (km/s) = 3.22855 3.71348 3.47947
# Velocity P-wave (km/s) = 5.90877 6.73131 6.33341
#
# Compressibility (1/GPa) = 0.02336260
#
# Stress axis : x y z
#
# Youngs Moduli (GPa) = 40.92396 98.29480 116.78540
#
# Poissons Ratio (x) = 0.53261 0.26632
# Poissons Ratio (y) = 0.22175 0.25759
# Poissons Ratio (z) = 0.09332 0.21681
#
# Static dielectric constant tensor:
#      x y z
#    x 3.497690 -0.000010 0.086160 
#    y -0.000010 3.416110 -0.000010 
#    z 0.086160 -0.000010 3.420800 
# 
# 
# High freq. dielectric constant tensor:
#      x y z
#    x 1.773080 0.000000 -0.006170 
#    y 0.000000 1.768370 0.000000 
#    z -0.006170 0.000000 1.824440 
# 
# From -- ./inp_files/344017.got.cif
#   From: 2010.06.25/outbox.cif.g09.slc.cpg/sg12_173_cif.got.tgz:344017.got - 2010.06.28 00:19:55.
