data_PCOD8084174
_publ_section_title
;
Structure prediction by ZEFSAII (Michael W. Deem and Ramdas Pophale) SiO2 
 PCOD8084174
Probable space group: C 2/M
;
_chemical_formula_sum "Si O2"
_cell_formula_units_Z 56
_cell_length_a 15.282843
_cell_length_b 8.992613
_cell_length_c 22.573386
_cell_angle_alpha 90.000000
_cell_angle_beta 108.015518
_cell_angle_gamma 90.000000
_cell_volume 2950.223057
_symmetry_space_group_name_H-M "C 2/M"
_symmetry_group_IT_number 12
_symmetry_cell_setting 'monoclinic'
loop_
_space_group_symop_operation_xyz
x,y,z
-x,y,-z
-x,-y,-z
x,-y,z
1/2+x,1/2+y,z
1/2-x,1/2+y,-z
1/2-x,1/2-y,-z
1/2+x,1/2-y,z
loop_
_atom_site_type_symbol
_atom_site_label
_atom_site_fract_x
_atom_site_fract_y
_atom_site_fract_z
Si Si1 0.401239 0.831737 0.508935
Si Si2 0.414043 0.674150 0.634579
Si Si3 0.125199 0.676052 0.077132
Si Si4 0.308596 0.823515 0.149529
Si Si5 0.576797 0.176094 0.937296
Si Si6 0.097432 0.676571 0.709796
Si Si7 0.286651 0.174822 0.376000
O O1 0.500000 0.831903 0.500000
O O2 0.401269 0.724163 0.564647
O O3 0.328755 0.763906 0.446414
O O4 0.375283 0.000000 0.523212
O O5 0.434747 0.500000 0.639597
O O6 0.495376 0.759024 0.684569
O O7 0.321001 0.713593 0.651026
O O8 0.138592 0.500000 0.084569
O O9 0.206743 0.757108 0.128441
O O10 0.029607 0.727712 0.087615
O O11 0.124124 0.729033 0.008299
O O12 0.366890 0.758116 0.106392
O O13 0.358341 0.770198 0.219554
O O14 0.301146 0.000000 0.144839
O O15 0.577995 0.000000 0.935765
O O16 0.090350 0.500000 0.705109
O O17 0.160052 0.741862 0.669552
O O18 0.304081 0.000000 0.380114
#
# Coordination Sequence:
#
# PCOD8084174 Si02
#       7
#     8   8   8   8   8   8   8
#     4  10  18  34  60  79 101 138 171 200 250 323
#     4  11  22  35  54  80 106 129 167 222 260 292
#     4   9  17  32  54  75 105 140 169 206 260 316
#     4  10  20  33  53  77 102 133 177 220 250 294
#     4   8  16  32  52  77 105 138 171 206 258 312
#     4  10  21  39  55  70 101 145 178 204 251 316
#     4   9  19  36  55  75 102 137 170 204 257 312
#
# _framework density 18.981615999999999
#
# number of rings (size 3 to 8) (size 9 to 14) (size 15 to 20)
#    0.000    2.429    1.429    2.143    0.000    2.000 
#    0.000    4.286    0.000    0.000    0.000    0.000 
#    0.000    0.000    0.000    0.000    0.000    0.000 
#
# Total GULP energy -347182.914690 kJ/mol
# GULP energy per Si atom -12399.389810 kJ/mol
# Density = 1.893841 g / cm^3
# Si number density = 18.981616 Si / 1000 Ang^3
#
#
#
# Elastic Constant Matrix: (Units=GPa)
#
#
# Indices 1 2 3 4 5 6 
#
# 1 98.3190 19.8526 56.6594 0.0000 23.7515 0.0000
# 2 19.8526 21.1738 25.9141 0.0000 4.7803 0.0000
# 3 56.6594 25.9141 133.1411 0.0000 25.0024 0.0000
# 4 0.0000 0.0000 0.0000 20.2674 0.0000 10.5310
# 5 23.7515 4.7803 25.0024 0.0000 25.7606 0.0000
# 6 0.0000 0.0000 0.0000 10.5310 0.0000 24.1321
#
#
#
# Elastic Compliance Matrix: (Units=1/GPa)
#
#
# Indices 1 2 3 4 5 6 
#
# 1 0.016351 -0.009000 -0.003288 0.000000 -0.010214 0.000000
# 2 -0.009000 0.066951 -0.010305 0.000000 0.005875 0.000000
# 3 -0.003288 -0.010305 0.012213 0.000000 -0.006910 0.000000
# 4 0.000000 0.000000 0.000000 0.063809 0.000000 -0.027846
# 5 -0.010214 0.005875 -0.006910 0.000000 0.053852 0.000000
# 6 0.000000 0.000000 0.000000 -0.027846 0.000000 0.053590
#
#
# Mechanical properties :
#
#
# Convention : Reuss Voigt Hill
#
# Bulk Modulus (GPa) = 19.86888 50.83179 35.35033
# Shear Modulus (GPa) = 15.21007 24.04588 19.62798
#
# Velocity S-wave (km/s) = 2.83381 3.56307 3.21916
# Velocity P-wave (km/s) = 4.60407 6.61551 5.69923
#
# Compressibility (1/GPa) = 0.05032997
#
# Stress axis : x y z
#
# Youngs Moduli (GPa) = 61.15950 14.93620 81.87668
#
# Poissons Ratio (x) = 0.13442 0.26925
# Poissons Ratio (y) = 0.55043 0.84370
# Poissons Ratio (z) = 0.20112 0.15391
#
# Static dielectric constant tensor:
#      x y z
#    x 3.792390 0.000000 -0.110240 
#    y 0.000000 3.111400 0.000000 
#    z -0.110240 0.000000 3.608420 
# 
# 
# High freq. dielectric constant tensor:
#      x y z
#    x 1.750640 0.000000 0.005900 
#    y 0.000000 1.700950 0.000000 
#    z 0.005900 0.000000 1.739130 
# 
# From -- ./inp_files/337853.got.cif
#   From: 2010.06.25/outbox.cif.g09.slc.cpg/sg12_169_cif.got.tgz:337853.got - 2010.06.28 00:19:55.
