data_PCOD8084662
_publ_section_title
;
Structure prediction by ZEFSAII (Michael W. Deem and Ramdas Pophale) SiO2 
 PCOD8084662
Probable space group: C 2/M
;
_chemical_formula_sum "Si O2"
_cell_formula_units_Z 48
_cell_length_a 14.939465
_cell_length_b 29.533028
_cell_length_c 11.252537
_cell_angle_alpha 90.000000
_cell_angle_beta 35.010251
_cell_angle_gamma 90.000000
_cell_volume 2848.365527
_symmetry_space_group_name_H-M "C 2/M"
_symmetry_group_IT_number 12
_symmetry_cell_setting 'monoclinic'
loop_
_space_group_symop_operation_xyz
x,y,z
-x,y,-z
-x,-y,-z
x,-y,z
1/2+x,1/2+y,z
1/2-x,1/2+y,-z
1/2-x,1/2-y,-z
1/2+x,1/2-y,z
loop_
_atom_site_type_symbol
_atom_site_label
_atom_site_fract_x
_atom_site_fract_y
_atom_site_fract_z
Si Si1 0.777274 0.682275 0.892469
Si Si2 0.341633 0.212523 0.324196
Si Si3 0.410658 0.050141 0.721085
Si Si4 0.337106 0.392863 0.122759
Si Si5 0.415190 0.132754 0.410302
Si Si6 0.195925 0.722802 0.897599
O O1 0.640045 0.651094 0.986897
O O2 0.785780 0.730629 0.820535
O O3 0.945321 0.660516 0.678888
O O4 0.746638 0.685960 0.067851
O O5 0.250000 0.250000 0.500000
O O6 0.347538 0.162131 0.374406
O O7 0.264432 0.205770 0.278112
O O8 0.513681 0.232290 0.118850
O O9 0.500000 0.048834 0.500000
O O10 0.236140 0.067358 0.878916
O O11 0.503476 0.083963 0.710901
O O12 0.401455 0.000000 0.788597
O O13 0.226291 0.376394 0.348704
O O14 0.500000 0.409731 0.000000
#
# Coordination Sequence:
#
# PCOD8084662 Si02
#       6
#     8   8   8   8   8   8
#     4   9  17  31  45  61  91 121 165 191 228 279
#     4  10  19  29  46  69  95 124 162 204 234 278
#     4   8  15  30  48  68  92 119 152 191 239 293
#     4  10  19  27  47  68  94 123 148 194 239 288
#     4   9  18  31  46  68  91 128 159 189 241 281
#     4   9  19  31  45  65  89 129 165 199 233 264
#
# _framework density 16.851769999999998
#
# number of rings (size 3 to 8) (size 9 to 14) (size 15 to 20)
#    0.000    2.833    0.000    2.500    4.667    1.667 
#    0.000    2.500    0.000    0.000    0.000   21.000 
#    0.000    0.000    0.000   45.833    0.000    0.000 
#
# Total GULP energy -297335.358138 kJ/mol
# GULP energy per Si atom -12388.973256 kJ/mol
# Density = 1.681342 g / cm^3
# Si number density = 16.851770 Si / 1000 Ang^3
#
#
#
# Elastic Constant Matrix: (Units=GPa)
#
#
# Indices 1 2 3 4 5 6 
#
# 1 101.4345 57.8528 27.2473 0.0000 8.1953 0.0000
# 2 57.8528 128.8501 37.5664 0.0000 0.2955 0.0000
# 3 27.2473 37.5664 51.7005 0.0000 0.8702 0.0000
# 4 0.0000 0.0000 0.0000 13.1220 0.0000 -1.6960
# 5 8.1953 0.2955 0.8702 0.0000 21.4020 0.0000
# 6 0.0000 0.0000 0.0000 -1.6960 0.0000 23.1578
#
#
#
# Elastic Compliance Matrix: (Units=1/GPa)
#
#
# Indices 1 2 3 4 5 6 
#
# 1 0.014301 -0.005376 -0.003542 0.000000 -0.005258 0.000000
# 2 -0.005376 0.011869 -0.005826 0.000000 0.002132 0.000000
# 3 -0.003542 -0.005826 0.025436 0.000000 0.000403 0.000000
# 4 0.000000 0.000000 0.000000 0.076936 0.000000 0.005635
# 5 -0.005258 0.002132 0.000403 0.000000 0.048692 0.000000
# 6 0.000000 0.000000 0.000000 0.005635 0.000000 0.043595
#
#
# Mechanical properties :
#
#
# Convention : Reuss Voigt Hill
#
# Bulk Modulus (GPa) = 45.21604 58.59089 51.90347
# Shear Modulus (GPa) = 19.40313 22.15760 20.78037
#
# Velocity S-wave (km/s) = 3.39691 3.63002 3.51540
# Velocity P-wave (km/s) = 6.50194 7.23970 6.88072
#
# Compressibility (1/GPa) = 0.02211604
#
# Stress axis : x y z
#
# Youngs Moduli (GPa) = 69.92378 84.25493 39.31489
#
# Poissons Ratio (x) = 0.45299 0.13925
# Poissons Ratio (y) = 0.37594 0.22906
# Poissons Ratio (z) = 0.24767 0.49090
#
# Static dielectric constant tensor:
#      x y z
#    x 3.380040 0.000000 -0.079810 
#    y 0.000000 3.400910 0.000000 
#    z -0.079810 0.000000 2.922530 
# 
# 
# High freq. dielectric constant tensor:
#      x y z
#    x 1.640700 0.000000 -0.013020 
#    y 0.000000 1.638240 0.000000 
#    z -0.013020 0.000000 1.624280 
# 
# From -- ./inp_files/150033.got.cif
#   From: 2010.06.25/outbox.cif.g09.slc.cpg/sg12_76_cif.got.tgz:150033.got - 2010.06.28 00:19:55.
