data_PCOD8084613
_publ_section_title
;
Structure prediction by ZEFSAII (Michael W. Deem and Ramdas Pophale) SiO2 
 PCOD8084613
Probable space group: C 2/M
;
_chemical_formula_sum "Si O2"
_cell_formula_units_Z 56
_cell_length_a 17.314521
_cell_length_b 13.657076
_cell_length_c 15.469088
_cell_angle_alpha 90.000000
_cell_angle_beta 46.117372
_cell_angle_gamma 90.000000
_cell_volume 2636.479434
_symmetry_space_group_name_H-M "C 2/M"
_symmetry_group_IT_number 12
_symmetry_cell_setting 'monoclinic'
loop_
_space_group_symop_operation_xyz
x,y,z
-x,y,-z
-x,-y,-z
x,-y,z
1/2+x,1/2+y,z
1/2-x,1/2+y,-z
1/2-x,1/2-y,-z
1/2+x,1/2-y,z
loop_
_atom_site_type_symbol
_atom_site_label
_atom_site_fract_x
_atom_site_fract_y
_atom_site_fract_z
Si Si1 0.444824 0.890999 0.763094
Si Si2 0.188608 0.609881 0.588599
Si Si3 0.298265 0.690865 0.338675
Si Si4 0.342698 0.612976 0.779136
Si Si5 0.467448 0.612391 0.862046
Si Si6 0.392621 0.214966 0.635077
Si Si7 0.159680 0.284040 0.006828
O O1 0.569576 0.887788 0.642485
O O2 0.382936 0.832887 0.737062
O O3 0.426197 0.848342 0.873239
O O4 0.398572 0.000000 0.798918
O O5 0.215778 0.500000 0.602235
O O6 0.270925 0.638785 0.449975
O O7 0.196442 0.690845 0.657765
O O8 0.409295 0.642438 0.224948
O O9 0.207207 0.670221 0.339068
O O10 0.335633 0.500000 0.760400
O O11 0.421441 0.629371 0.800503
O O12 0.389080 0.668780 0.658737
O O13 0.219823 0.652641 0.887028
O O14 0.451218 0.500000 0.903593
O O15 0.401842 0.685221 0.977916
O O16 0.500000 0.188852 0.500000
O O17 0.250000 0.250000 0.000000
#
# Coordination Sequence:
#
# PCOD8084613 Si02
#       7
#     8   8   8   8   8   8   8
#     4  11  21  38  63  89 118 156 205 250 295 356
#     4  10  21  37  60  85 113 160 208 248 294 354
#     4  11  22  37  59  83 128 161 196 251 302 358
#     4  10  22  41  66  91 118 157 205 254 300 354
#     4  10  20  37  64  91 115 152 202 248 300 354
#     4  12  24  40  58  89 130 161 198 244 306 366
#     4  10  18  38  66  89 117 150 205 256 291 347
#
# _framework density 21.240447
#
# number of rings (size 3 to 8) (size 9 to 14) (size 15 to 20)
#    0.000    1.429    5.714    0.857    2.000    2.857 
#    0.000    0.714    0.000    1.714    0.000    0.000 
#    0.000    0.000    0.000    0.000    0.000    0.000 
#
# Total GULP energy -347045.646218 kJ/mol
# GULP energy per Si atom -12394.487365 kJ/mol
# Density = 2.119210 g / cm^3
# Si number density = 21.240447 Si / 1000 Ang^3
#
#
#
# Elastic Constant Matrix: (Units=GPa)
#
#
# Indices 1 2 3 4 5 6 
#
# 1 74.2818 27.8187 24.4397 0.0000 -22.4480 0.0000
# 2 27.8187 138.4137 25.5656 0.0000 -13.8871 0.0000
# 3 24.4397 25.5656 53.0505 0.0000 -18.3341 0.0000
# 4 0.0000 0.0000 0.0000 28.1619 0.0000 -5.7787
# 5 -22.4480 -13.8871 -18.3341 0.0000 30.8289 0.0000
# 6 0.0000 0.0000 0.0000 -5.7787 0.0000 22.1398
#
#
#
# Elastic Compliance Matrix: (Units=1/GPa)
#
#
# Indices 1 2 3 4 5 6 
#
# 1 0.018645 -0.001961 -0.004100 0.000000 0.010254 0.000000
# 2 -0.001961 0.008203 -0.002852 0.000000 0.000571 0.000000
# 3 -0.004100 -0.002852 0.025977 0.000000 0.011178 0.000000
# 4 0.000000 0.000000 0.000000 0.037518 0.000000 0.009793
# 5 0.010254 0.000571 0.011178 0.000000 0.046808 0.000000
# 6 0.000000 0.000000 0.000000 0.009793 0.000000 0.047723
#
#
# Mechanical properties :
#
#
# Convention : Reuss Voigt Hill
#
# Bulk Modulus (GPa) = 28.57447 46.82154 37.69801
# Shear Modulus (GPa) = 23.32445 28.75426 26.03935
#
# Velocity S-wave (km/s) = 3.31738 3.68333 3.50513
# Velocity P-wave (km/s) = 5.30616 6.33882 5.84534
#
# Compressibility (1/GPa) = 0.03499627
#
# Stress axis : x y z
#
# Youngs Moduli (GPa) = 53.63493 121.90698 38.49622
#
# Poissons Ratio (x) = 0.23907 0.15785
# Poissons Ratio (y) = 0.10518 0.10981
# Poissons Ratio (z) = 0.21993 0.34773
#
# Static dielectric constant tensor:
#      x y z
#    x 3.511760 0.000000 -0.486870 
#    y 0.000000 4.736170 0.000000 
#    z -0.486870 0.000000 3.516400 
# 
# 
# High freq. dielectric constant tensor:
#      x y z
#    x 1.805230 0.000000 -0.029100 
#    y 0.000000 1.848820 0.000000 
#    z -0.029100 0.000000 1.820990 
# 
# From -- ./inp_files/225181.got.cif
#   From: 2010.06.25/outbox.cif.g09.slc.cpg/sg12_113_cif.got.tgz:225181.got - 2010.06.28 00:19:55.
