data_PCOD8084507
_publ_section_title
;
Structure prediction by ZEFSAII (Michael W. Deem and Ramdas Pophale) SiO2 
 PCOD8084507
Probable space group: C 2/M
;
_chemical_formula_sum "Si O2"
_cell_formula_units_Z 64
_cell_length_a 25.975857
_cell_length_b 8.848405
_cell_length_c 14.226888
_cell_angle_alpha 90.000000
_cell_angle_beta 93.720132
_cell_angle_gamma 90.000000
_cell_volume 3263.087463
_symmetry_space_group_name_H-M "C 2/M"
_symmetry_group_IT_number 12
_symmetry_cell_setting 'monoclinic'
loop_
_space_group_symop_operation_xyz
x,y,z
-x,y,-z
-x,-y,-z
x,-y,z
1/2+x,1/2+y,z
1/2-x,1/2+y,-z
1/2-x,1/2-y,-z
1/2+x,1/2-y,z
loop_
_atom_site_type_symbol
_atom_site_label
_atom_site_fract_x
_atom_site_fract_y
_atom_site_fract_z
Si Si1 0.151912 0.179247 0.600778
Si Si2 0.946786 0.178697 0.944816
Si Si3 0.848922 0.819726 0.612639
Si Si4 0.230852 0.323767 0.902686
Si Si5 0.888216 0.675408 0.095288
Si Si6 0.437594 0.678864 0.277319
Si Si7 0.550910 0.678663 0.266951
Si Si8 0.744468 0.820356 0.285327
O O1 0.151738 0.238988 0.494442
O O2 0.101093 0.243248 0.647808
O O3 0.202818 0.237852 0.659955
O O4 0.150478 0.000000 0.600610
O O5 0.945273 0.242475 0.838509
O O6 0.939369 0.000000 0.947000
O O7 0.899389 0.255186 0.994192
O O8 0.000000 0.228159 0.000000
O O9 0.902224 0.760350 0.664446
O O10 0.802289 0.741081 0.659588
O O11 0.843117 0.000000 0.618836
O O12 0.244311 0.500000 0.905531
O O13 0.170457 0.292738 0.883927
O O14 0.260203 0.246438 0.819503
O O15 0.250000 0.250000 0.000000
O O16 0.901207 0.500000 0.095349
O O17 0.924661 0.756126 0.174250
O O18 0.432166 0.500000 0.268655
O O19 0.496454 0.726784 0.308210
O O20 0.553851 0.500000 0.261910
O O21 0.742319 0.000000 0.280007
#
# Coordination Sequence:
#
# PCOD8084507 Si02
#       8
#     8   8   8   8   8   8   8   8
#     4   9  19  35  61  88 112 147 196 249 297 343
#     4  10  19  34  56  80 110 153 195 227 269 338
#     4  10  21  38  57  86 120 152 195 246 297 346
#     4  11  25  42  60  87 119 152 189 236 291 346
#     4  11  23  37  55  85 116 147 186 236 289 340
#     4  10  18  36  61  84 113 153 195 238 286 344
#     4   9  19  34  56  85 115 151 195 238 287 342
#     4  11  22  39  61  87 116 155 198 237 290 352
#
# _framework density 19.613326000000001
#
# number of rings (size 3 to 8) (size 9 to 14) (size 15 to 20)
#    0.000    1.875    2.500    1.500    1.750    2.250 
#    0.000    4.375    0.000    0.000    0.000    1.750 
#    0.000    0.000    0.000    0.000    0.000    0.000 
#
# Total GULP energy -396862.576697 kJ/mol
# GULP energy per Si atom -12401.955522 kJ/mol
# Density = 1.956869 g / cm^3
# Si number density = 19.613326 Si / 1000 Ang^3
#
#
#
# Elastic Constant Matrix: (Units=GPa)
#
#
# Indices 1 2 3 4 5 6 
#
# 1 133.3870 37.6917 80.4281 0.0000 -13.4617 0.0000
# 2 37.6917 47.6992 32.9186 0.0000 -3.8054 0.0000
# 3 80.4281 32.9186 166.7219 0.0000 -6.3528 0.0000
# 4 0.0000 0.0000 0.0000 20.6902 0.0000 -5.6485
# 5 -13.4617 -3.8054 -6.3528 0.0000 36.9329 0.0000
# 6 0.0000 0.0000 0.0000 -5.6485 0.0000 26.1908
#
#
#
# Elastic Compliance Matrix: (Units=1/GPa)
#
#
# Indices 1 2 3 4 5 6 
#
# 1 0.012376 -0.006362 -0.004597 0.000000 0.003065 0.000000
# 2 -0.006362 0.027648 -0.002385 0.000000 0.000119 0.000000
# 3 -0.004597 -0.002385 0.008670 0.000000 -0.000430 0.000000
# 4 0.000000 0.000000 0.000000 0.051356 0.000000 0.011076
# 5 0.003065 0.000119 -0.000430 0.000000 0.028131 0.000000
# 6 0.000000 0.000000 0.000000 0.011076 0.000000 0.040570
#
#
# Mechanical properties :
#
#
# Convention : Reuss Voigt Hill
#
# Bulk Modulus (GPa) = 45.44502 72.20944 58.82723
# Shear Modulus (GPa) = 24.65774 29.88077 27.26925
#
# Velocity S-wave (km/s) = 3.54954 3.90743 3.73278
# Velocity P-wave (km/s) = 6.32612 7.56662 6.97401
#
# Compressibility (1/GPa) = 0.02200461
#
# Stress axis : x y z
#
# Youngs Moduli (GPa) = 80.80042 36.16929 115.33516
#
# Poissons Ratio (x) = 0.23012 0.53024
# Poissons Ratio (y) = 0.51408 0.27509
# Poissons Ratio (z) = 0.37147 0.08627
#
# Static dielectric constant tensor:
#      x y z
#    x 3.890520 0.000000 -0.031440 
#    y 0.000000 3.267250 0.000000 
#    z -0.031440 0.000000 3.763900 
# 
# 
# High freq. dielectric constant tensor:
#      x y z
#    x 1.776070 0.000000 -0.007830 
#    y 0.000000 1.733630 0.000000 
#    z -0.007830 0.000000 1.772720 
# 
# From -- ./inp_files/238707.got.cif
#   From: 2010.06.25/outbox.cif.g09.slc.cpg/sg12_120_cif.got.tgz:238707.got - 2010.06.28 00:19:55.
