data_PCOD8084157
_publ_section_title
;
Structure prediction by ZEFSAII (Michael W. Deem and Ramdas Pophale) SiO2 
 PCOD8084157
Probable space group: C 2/M
;
_chemical_formula_sum "Si O2"
_cell_formula_units_Z 64
_cell_length_a 15.340430
_cell_length_b 8.956386
_cell_length_c 33.456368
_cell_angle_alpha 90.000000
_cell_angle_beta 134.486140
_cell_angle_gamma 90.000000
_cell_volume 3279.400029
_symmetry_space_group_name_H-M "C 2/M"
_symmetry_group_IT_number 12
_symmetry_cell_setting 'monoclinic'
loop_
_space_group_symop_operation_xyz
x,y,z
-x,y,-z
-x,-y,-z
x,-y,z
1/2+x,1/2+y,z
1/2-x,1/2+y,-z
1/2-x,1/2-y,-z
1/2+x,1/2-y,z
loop_
_atom_site_type_symbol
_atom_site_label
_atom_site_fract_x
_atom_site_fract_y
_atom_site_fract_z
Si Si1 0.220476 0.825249 0.368773
Si Si2 0.281635 0.673001 0.251902
Si Si3 0.481508 0.674189 0.250059
Si Si4 0.911614 0.822918 0.937204
Si Si5 0.860906 0.327305 0.139269
Si Si6 0.908898 0.674843 0.363982
Si Si7 0.330915 0.677260 0.559898
Si Si8 0.038982 0.671139 0.128531
O O1 0.347796 0.790493 0.387490
O O2 0.222820 0.764810 0.414942
O O3 0.106521 0.755131 0.307843
O O4 0.194635 0.000000 0.362736
O O5 0.291134 0.500000 0.267943
O O6 0.374234 0.710747 0.246286
O O7 0.312156 0.777620 0.299205
O O8 0.147611 0.716238 0.193511
O O9 0.494947 0.500000 0.246266
O O10 0.453538 0.749125 0.199072
O O11 0.775327 0.759094 0.901232
O O12 0.962205 0.772827 0.910789
O O13 0.910592 0.000000 0.938255
O O14 0.000000 0.758419 0.000000
O O15 0.858913 0.500000 0.150221
O O16 0.911173 0.303628 0.110502
O O17 0.939729 0.500000 0.369647
O O18 0.029722 0.772434 0.399420
O O19 0.324369 0.500000 0.553773
O O20 0.250000 0.750000 0.500000
O O21 0.056169 0.500000 0.120577
#
# Coordination Sequence:
#
# PCOD8084157 Si02
#       8
#     8   8   8   8   8   8   8   8
#     4   9  20  38  59  82 115 152 183 222 278 339
#     4  10  19  34  57  84 117 149 178 224 284 336
#     4  10  18  34  59  84 112 150 186 219 275 343
#     4  10  22  39  56  77 109 148 190 237 286 336
#     4  10  21  36  55  82 114 144 181 234 286 330
#     4  11  22  37  60  89 114 147 191 229 274 334
#     4  11  23  43  63  83 115 153 193 238 284 330
#     4  10  21  37  57  83 113 146 184 230 285 338
#
# _framework density 19.515764999999998
#
# number of rings (size 3 to 8) (size 9 to 14) (size 15 to 20)
#    0.000    1.875    2.500    1.500    0.000    2.750 
#    0.000    5.625    0.000    0.000    0.000    0.000 
#    0.000    0.000    0.000    0.000    0.000    0.000 
#
# Total GULP energy -396861.325840 kJ/mol
# GULP energy per Si atom -12401.916433 kJ/mol
# Density = 1.947135 g / cm^3
# Si number density = 19.515765 Si / 1000 Ang^3
#
#
#
# Elastic Constant Matrix: (Units=GPa)
#
#
# Indices 1 2 3 4 5 6 
#
# 1 106.1076 31.2978 48.4224 0.0000 -17.7834 0.0000
# 2 31.2978 41.8260 28.2006 0.0000 -5.6587 0.0000
# 3 48.4224 28.2006 121.8470 0.0000 -12.7383 0.0000
# 4 0.0000 0.0000 0.0000 31.5828 0.0000 -4.3546
# 5 -17.7834 -5.6587 -12.7383 0.0000 16.5061 0.0000
# 6 0.0000 0.0000 0.0000 -4.3546 0.0000 25.5411
#
#
#
# Elastic Compliance Matrix: (Units=1/GPa)
#
#
# Indices 1 2 3 4 5 6 
#
# 1 0.014908 -0.007630 -0.002994 0.000000 0.011135 0.000000
# 2 -0.007630 0.032628 -0.004579 0.000000 -0.000568 0.000000
# 3 -0.002994 -0.004579 0.010829 0.000000 0.003561 0.000000
# 4 0.000000 0.000000 0.000000 0.032425 0.000000 0.005528
# 5 0.011135 -0.000568 0.003561 0.000000 0.075134 0.000000
# 6 0.000000 0.000000 0.000000 0.005528 0.000000 0.040095
#
#
# Mechanical properties :
#
#
# Convention : Reuss Voigt Hill
#
# Bulk Modulus (GPa) = 35.76701 53.95802 44.86251
# Shear Modulus (GPa) = 20.34637 25.51667 22.93152
#
# Velocity S-wave (km/s) = 3.23237 3.61985 3.43158
# Velocity P-wave (km/s) = 5.68313 6.72157 6.22405
#
# Compressibility (1/GPa) = 0.02795873
#
# Stress axis : x y z
#
# Youngs Moduli (GPa) = 67.08023 30.64838 92.34422
#
# Poissons Ratio (x) = 0.23384 0.27651
# Poissons Ratio (y) = 0.51180 0.42283
# Poissons Ratio (z) = 0.20086 0.14033
#
# Static dielectric constant tensor:
#      x y z
#    x 3.720170 0.000000 0.062810 
#    y 0.000000 3.333610 0.000000 
#    z 0.062810 0.000000 3.688230 
# 
# 
# High freq. dielectric constant tensor:
#      x y z
#    x 1.774820 0.000000 -0.000570 
#    y 0.000000 1.740010 0.000000 
#    z -0.000570 0.000000 1.758680 
# 
# From -- ./inp_files/375554.got.cif
#   From: 2010.06.25/outbox.cif.g09.slc.cpg/sg12_188_cif.got.tgz:375554.got - 2010.06.28 00:19:55.
