data_PCOD8084854
_publ_section_title
;
Structure prediction by ZEFSAII (Michael W. Deem and Ramdas Pophale) SiO2 
 PCOD8084854
Probable space group: C 2/M
;
_chemical_formula_sum "Si O2"
_cell_formula_units_Z 64
_cell_length_a 27.357074
_cell_length_b 9.351774
_cell_length_c 19.602634
_cell_angle_alpha 90.000000
_cell_angle_beta 48.196818
_cell_angle_gamma 90.000000
_cell_volume 3738.437972
_symmetry_space_group_name_H-M "C 2/M"
_symmetry_group_IT_number 12
_symmetry_cell_setting 'monoclinic'
loop_
_space_group_symop_operation_xyz
x,y,z
-x,y,-z
-x,-y,-z
x,-y,z
1/2+x,1/2+y,z
1/2-x,1/2+y,-z
1/2-x,1/2-y,-z
1/2+x,1/2-y,z
loop_
_atom_site_type_symbol
_atom_site_label
_atom_site_fract_x
_atom_site_fract_y
_atom_site_fract_z
Si Si1 0.559316 0.329677 0.899939
Si Si2 0.959947 0.664246 0.358659
Si Si3 0.218248 0.840986 0.606759
Si Si4 0.052464 0.336319 0.395865
Si Si5 0.337323 0.340237 0.515230
Si Si6 0.569728 0.666791 0.737483
Si Si7 0.821061 0.159219 0.690277
Si Si8 0.797778 0.160430 0.216085
O O1 0.556557 0.500000 0.899906
O O2 0.554558 0.272377 0.826823
O O3 0.628627 0.282949 0.868789
O O4 0.500000 0.265403 0.000000
O O5 0.941747 0.500000 0.361944
O O6 0.899678 0.739088 0.452436
O O7 0.975040 0.744120 0.273355
O O8 0.023503 0.677353 0.347049
O O9 0.274046 0.724742 0.533059
O O10 0.145897 0.805925 0.643483
O O11 0.210915 0.838841 0.694827
O O12 0.240848 0.000000 0.563323
O O13 0.070866 0.500000 0.396673
O O14 0.116961 0.241594 0.337598
O O15 0.000000 0.279198 0.500000
O O16 0.351395 0.500000 0.473364
O O17 0.320942 0.347981 0.609422
O O18 0.552276 0.500000 0.749128
O O19 0.754296 0.239523 0.774381
O O20 0.820933 0.000000 0.721628
O O21 0.788005 0.000000 0.197111
#
# Coordination Sequence:
#
# PCOD8084854 Si02
#       8
#     8   8   8   8   8   8   8   8
#     4   8  14  28  53  81 102 123 154 187 223 276
#     4  11  22  33  46  63  87 122 160 197 236 279
#     4   8  15  28  44  61  86 122 158 186 221 268
#     4  10  20  34  49  64  85 120 166 207 241 279
#     4  10  19  29  43  64  88 118 157 198 235 269
#     4   9  18  32  48  68  95 123 151 190 231 272
#     4  10  19  29  45  68  94 122 155 200 244 278
#     4   8  14  26  46  70  96 124 153 187 225 272
#
# _framework density 17.119448999999999
#
# number of rings (size 3 to 8) (size 9 to 14) (size 15 to 20)
#    0.000    2.750    1.250    2.625    0.000    3.250 
#    0.000    1.875    0.000    1.500    0.000    0.875 
#    0.000    0.000    0.000    0.000    0.000    0.000 
#
# Total GULP energy -396732.904827 kJ/mol
# GULP energy per Si atom -12397.903276 kJ/mol
# Density = 1.708048 g / cm^3
# Si number density = 17.119449 Si / 1000 Ang^3
#
#
#
# Elastic Constant Matrix: (Units=GPa)
#
#
# Indices 1 2 3 4 5 6 
#
# 1 96.1542 55.5020 31.3357 0.0015 -15.8436 -0.0003
# 2 55.5020 101.4933 32.7009 0.0054 -13.4346 0.0005
# 3 31.3357 32.7009 66.3435 0.0007 -15.2825 0.0004
# 4 0.0015 0.0054 0.0007 10.7647 -0.0021 -0.2992
# 5 -15.8436 -13.4346 -15.2825 -0.0021 22.0321 -0.0001
# 6 -0.0003 0.0005 0.0004 -0.2992 -0.0001 26.5073
#
#
#
# Elastic Compliance Matrix: (Units=1/GPa)
#
#
# Indices 1 2 3 4 5 6 
#
# 1 0.016484 -0.007365 -0.002927 0.000003 0.005332 0.000000
# 2 -0.007365 0.015268 -0.003716 -0.000006 0.001436 0.000000
# 3 -0.002927 -0.003716 0.020567 0.000003 0.009895 0.000000
# 4 0.000003 -0.000006 0.000003 0.092925 0.000009 0.001049
# 5 0.005332 0.001436 0.009895 0.000009 0.056962 0.000000
# 6 0.000000 0.000000 0.000000 0.001049 0.000000 0.037737
#
#
# Mechanical properties :
#
#
# Convention : Reuss Voigt Hill
#
# Bulk Modulus (GPa) = 41.14947 55.89647 48.52297
# Shear Modulus (GPa) = 18.11196 21.49098 19.80147
#
# Velocity S-wave (km/s) = 3.25618 3.54694 3.40467
# Velocity P-wave (km/s) = 6.18270 7.03535 6.62276
#
# Compressibility (1/GPa) = 0.02430165
#
# Stress axis : x y z
#
# Youngs Moduli (GPa) = 60.66532 65.49647 48.62249
#
# Poissons Ratio (x) = 0.48240 0.14232
# Poissons Ratio (y) = 0.44682 0.18068
# Poissons Ratio (z) = 0.17757 0.24339
#
# Static dielectric constant tensor:
#      x y z
#    x 3.196530 0.000000 -0.109920 
#    y 0.000000 3.294010 0.000000 
#    z -0.109920 0.000000 3.070740 
# 
# 
# High freq. dielectric constant tensor:
#      x y z
#    x 1.658740 0.000000 -0.005240 
#    y 0.000000 1.654820 0.000000 
#    z -0.005240 0.000000 1.619200 
# 
# From -- ./inp_files/326879.got.cif
#   From: 2010.06.25/outbox.cif.g09.slc.cpg/sg12_164_cif.got.tgz:326879.got - 2010.06.28 00:19:55.
