data_PCOD8084886
_publ_section_title
;
Structure prediction by ZEFSAII (Michael W. Deem and Ramdas Pophale) SiO2 
 PCOD8084886
Probable space group: C 2/M
;
_chemical_formula_sum "Si O2"
_cell_formula_units_Z 56
_cell_length_a 19.084758
_cell_length_b 9.170004
_cell_length_c 20.665318
_cell_angle_alpha 90.000000
_cell_angle_beta 117.582167
_cell_angle_gamma 90.000000
_cell_volume 3205.548958
_symmetry_space_group_name_H-M "C 2/M"
_symmetry_group_IT_number 12
_symmetry_cell_setting 'monoclinic'
loop_
_space_group_symop_operation_xyz
x,y,z
-x,y,-z
-x,-y,-z
x,-y,z
1/2+x,1/2+y,z
1/2-x,1/2+y,-z
1/2-x,1/2-y,-z
1/2+x,1/2-y,z
loop_
_atom_site_type_symbol
_atom_site_label
_atom_site_fract_x
_atom_site_fract_y
_atom_site_fract_z
Si Si1 0.087156 0.335422 0.508327
Si Si2 0.536907 0.662269 0.919614
Si Si3 0.939892 0.825290 0.764861
Si Si4 0.127031 0.165006 0.075352
Si Si5 0.139882 0.167895 0.647915
Si Si6 0.695768 0.170299 0.216791
Si Si7 0.972577 0.170712 0.633448
O O1 0.115886 0.500000 0.509401
O O2 0.146356 0.259509 0.584361
O O3 0.000000 0.327476 0.500000
O O4 0.088144 0.252551 0.440194
O O5 0.568932 0.500000 0.922819
O O6 0.516272 0.731128 0.840311
O O7 0.453596 0.659228 0.919849
O O8 0.604804 0.735281 0.994567
O O9 0.860010 0.751229 0.755777
O O10 0.954410 0.775717 0.697976
O O11 0.931518 0.000000 0.768285
O O12 0.187743 0.267370 0.140200
O O13 0.161201 0.000000 0.083987
O O14 0.214677 0.200985 0.724455
O O15 0.062841 0.212693 0.656109
O O16 0.135380 0.000000 0.625165
O O17 0.674758 0.000000 0.207388
O O18 0.957516 0.000000 0.618986
#
# Coordination Sequence:
#
# PCOD8084886 Si02
#       7
#     8   8   8   8   8   8   8
#     4   9  17  29  47  70  91 112 143 184 223 258
#     4   7  11  22  41  63  84 109 146 186 215 247
#     4   9  17  30  48  68  89 115 149 185 220 259
#     4   8  13  24  42  61  84 115 150 184 214 251
#     4   9  18  32  48  66  89 118 150 180 214 261
#     4  10  19  29  43  66  95 120 143 179 224 264
#     4   9  17  31  51  69  86 114 150 184 217 258
#
# _framework density 17.469707
#
# number of rings (size 3 to 8) (size 9 to 14) (size 15 to 20)
#    0.000    3.286    0.000    2.571    0.000    3.429 
#    0.000    6.429    0.000    0.857    0.000    0.000 
#    0.000    0.000    0.000    0.000    0.000    0.857 
#
# Total GULP energy -346875.189857 kJ/mol
# GULP energy per Si atom -12388.399638 kJ/mol
# Density = 1.742995 g / cm^3
# Si number density = 17.469707 Si / 1000 Ang^3
#
#
#
# Elastic Constant Matrix: (Units=GPa)
#
#
# Indices 1 2 3 4 5 6 
#
# 1 21.2955 10.5687 1.5024 0.0000 6.6570 0.0000
# 2 10.5687 53.5991 25.5422 0.0000 8.1356 0.0000
# 3 1.5024 25.5422 66.0916 0.0000 16.2207 0.0000
# 4 0.0000 0.0000 0.0000 29.1884 0.0000 3.1468
# 5 6.6570 8.1356 16.2207 0.0000 20.2505 0.0000
# 6 0.0000 0.0000 0.0000 3.1468 0.0000 15.0045
#
#
#
# Elastic Compliance Matrix: (Units=1/GPa)
#
#
# Indices 1 2 3 4 5 6 
#
# 1 0.059321 -0.012633 0.008805 0.000000 -0.021479 0.000000
# 2 -0.012633 0.025672 -0.010109 0.000000 0.001937 0.000000
# 3 0.008805 -0.010109 0.023090 0.000000 -0.017328 0.000000
# 4 0.000000 0.000000 0.000000 0.035053 0.000000 -0.007351
# 5 -0.021479 0.001937 -0.017328 0.000000 0.069544 0.000000
# 6 0.000000 0.000000 0.000000 -0.007351 0.000000 0.068189
#
#
# Mechanical properties :
#
#
# Convention : Reuss Voigt Hill
#
# Bulk Modulus (GPa) = 12.46752 24.02363 18.24558
# Shear Modulus (GPa) = 14.90409 19.78018 17.34213
#
# Velocity S-wave (km/s) = 2.92402 3.36855 3.15413
# Velocity P-wave (km/s) = 4.30721 5.37689 4.87150
#
# Compressibility (1/GPa) = 0.08020842
#
# Stress axis : x y z
#
# Youngs Moduli (GPa) = 16.85746 38.95366 43.30849
#
# Poissons Ratio (x) = 0.49209 -0.38133
# Poissons Ratio (y) = 0.21296 0.43782
# Poissons Ratio (z) = -0.14843 0.39380
#
# Static dielectric constant tensor:
#      x y z
#    x 2.773360 0.000000 -0.076600 
#    y 0.000000 3.150500 0.000000 
#    z -0.076600 0.000000 3.897320 
# 
# 
# High freq. dielectric constant tensor:
#      x y z
#    x 1.616660 0.000000 0.000370 
#    y 0.000000 1.656750 0.000000 
#    z 0.000370 0.000000 1.702280 
# 
# From -- ./inp_files/287382.got.cif
#   From: 2010.06.25/outbox.cif.g09.slc.cpg/sg12_144_cif.got.tgz:287382.got - 2010.06.28 00:19:55.
