data_PCOD8084215
_publ_section_title
;
Structure prediction by ZEFSAII (Michael W. Deem and Ramdas Pophale) SiO2 
 PCOD8084215
Probable space group: C 2/M
;
_chemical_formula_sum "Si O2"
_cell_formula_units_Z 56
_cell_length_a 16.650532
_cell_length_b 18.306268
_cell_length_c 12.763662
_cell_angle_alpha 90.000000
_cell_angle_beta 41.406095
_cell_angle_gamma 90.000000
_cell_volume 2573.131239
_symmetry_space_group_name_H-M "C 2/M"
_symmetry_group_IT_number 12
_symmetry_cell_setting 'monoclinic'
loop_
_space_group_symop_operation_xyz
x,y,z
-x,y,-z
-x,-y,-z
x,-y,z
1/2+x,1/2+y,z
1/2-x,1/2+y,-z
1/2-x,1/2-y,-z
1/2+x,1/2-y,z
loop_
_atom_site_type_symbol
_atom_site_label
_atom_site_fract_x
_atom_site_fract_y
_atom_site_fract_z
Si Si1 0.774006 0.082377 0.679579
Si Si2 0.431543 0.081243 0.296226
Si Si3 0.635020 0.585723 0.913382
Si Si4 0.632114 0.292486 0.074972
Si Si5 0.600347 0.688826 0.574033
Si Si6 0.729048 0.832985 0.400803
Si Si7 0.402989 0.842554 0.009231
O O1 0.668986 0.085080 0.695791
O O2 0.892938 0.119810 0.511629
O O3 0.728723 0.126895 0.826735
O O4 0.806714 0.000000 0.680223
O O5 0.382861 0.120466 0.446546
O O6 0.464536 0.000000 0.295976
O O7 0.557006 0.119047 0.138177
O O8 0.670756 0.500000 0.889508
O O9 0.647309 0.625106 0.015449
O O10 0.728115 0.628748 0.747258
O O11 0.500000 0.592250 0.000000
O O12 0.589786 0.244378 0.016081
O O13 0.750000 0.250000 0.000000
O O14 0.538516 0.291758 0.264307
O O15 0.675998 0.751431 0.438255
O O16 0.658847 0.670042 0.628944
O O17 0.500000 0.865933 0.000000
#
# Coordination Sequence:
#
# PCOD8084215 Si02
#       7
#     8   8   8   8   8   8   8
#     4   9  18  31  54  89 120 147 188 252 311 353
#     4   9  16  28  53  89 125 149 182 246 314 362
#     4  11  23  40  66  97 128 162 211 268 317 371
#     4  12  25  42  61  85 124 167 207 246 310 385
#     4  10  20  34  58  90 121 160 202 253 311 364
#     4  10  18  34  60  93 123 150 205 263 307 364
#     4  10  19  35  60  88 116 153 206 254 297 363
#
# _framework density 21.763366999999999
#
# number of rings (size 3 to 8) (size 9 to 14) (size 15 to 20)
#    0.000    1.857    2.857    2.143    2.000    2.857 
#    0.000    4.286    0.000    1.714    0.000    0.000 
#    0.000    0.000    0.000    0.000    0.000    0.000 
#
# Total GULP energy -347056.056727 kJ/mol
# GULP energy per Si atom -12394.859169 kJ/mol
# Density = 2.171383 g / cm^3
# Si number density = 21.763367 Si / 1000 Ang^3
#
#
#
# Elastic Constant Matrix: (Units=GPa)
#
#
# Indices 1 2 3 4 5 6 
#
# 1 27.1939 12.3830 22.1781 0.0000 -5.8357 0.0000
# 2 12.3830 143.0982 62.4341 -0.0001 6.6137 0.0000
# 3 22.1781 62.4341 166.0603 -0.0001 1.2533 0.0000
# 4 0.0000 -0.0001 -0.0001 36.9898 0.0000 7.3520
# 5 -5.8357 6.6137 1.2533 0.0000 16.0411 0.0000
# 6 0.0000 0.0000 0.0000 7.3520 0.0000 16.7537
#
#
#
# Elastic Compliance Matrix: (Units=1/GPa)
#
#
# Indices 1 2 3 4 5 6 
#
# 1 0.046209 -0.002500 -0.005369 0.000000 0.018261 0.000000
# 2 -0.002500 0.008663 -0.002891 0.000000 -0.004255 0.000000
# 3 -0.005369 -0.002891 0.007836 0.000000 -0.001374 0.000000
# 4 0.000000 0.000000 0.000000 0.029618 0.000000 -0.012997
# 5 0.018261 -0.004255 -0.001374 0.000000 0.070845 0.000000
# 6 0.000000 0.000000 0.000000 -0.012997 0.000000 0.065392
#
#
# Mechanical properties :
#
#
# Convention : Reuss Voigt Hill
#
# Bulk Modulus (GPa) = 24.27923 58.92700 41.60311
# Shear Modulus (GPa) = 18.95290 29.91406 24.43348
#
# Velocity S-wave (km/s) = 2.95424 3.71147 3.35429
# Velocity P-wave (km/s) = 4.77671 6.74549 5.84460
#
# Compressibility (1/GPa) = 0.04118746
#
# Stress axis : x y z
#
# Youngs Moduli (GPa) = 21.64073 115.44001 127.61196
#
# Poissons Ratio (x) = 0.28861 0.68519
# Poissons Ratio (y) = 0.05410 0.36891
# Poissons Ratio (z) = 0.11620 0.33372
#
# Static dielectric constant tensor:
#      x y z
#    x 3.254750 0.000000 0.082400 
#    y 0.000000 4.244870 0.000000 
#    z 0.082400 0.000000 4.142830 
# 
# 
# High freq. dielectric constant tensor:
#      x y z
#    x 1.790350 0.000000 0.008050 
#    y 0.000000 1.866810 0.000000 
#    z 0.008050 0.000000 1.873940 
# 
# From -- ./inp_files/234650.got.cif
#   From: 2010.06.25/outbox.cif.g09.slc.cpg/sg12_118_cif.got.tgz:234650.got - 2010.06.28 00:19:55.
