data_PCOD8084948
_publ_section_title
;
Structure prediction by ZEFSAII (Michael W. Deem and Ramdas Pophale) SiO2 
 PCOD8084948
Probable space group: C 2/M
;
_chemical_formula_sum "Si O2"
_cell_formula_units_Z 64
_cell_length_a 26.206063
_cell_length_b 9.134369
_cell_length_c 16.717183
_cell_angle_alpha 90.000000
_cell_angle_beta 57.671200
_cell_angle_gamma 90.000000
_cell_volume 3381.400465
_symmetry_space_group_name_H-M "C 2/M"
_symmetry_group_IT_number 12
_symmetry_cell_setting 'monoclinic'
loop_
_space_group_symop_operation_xyz
x,y,z
-x,y,-z
-x,-y,-z
x,-y,z
1/2+x,1/2+y,z
1/2-x,1/2+y,-z
1/2-x,1/2-y,-z
1/2+x,1/2-y,z
loop_
_atom_site_type_symbol
_atom_site_label
_atom_site_fract_x
_atom_site_fract_y
_atom_site_fract_z
Si Si1 0.852303 0.667702 0.260720
Si Si2 0.891758 0.327377 0.771375
Si Si3 0.283790 0.668634 0.577831
Si Si4 0.811218 0.324636 0.981515
Si Si5 0.621695 0.170704 0.590918
Si Si6 0.169287 0.836556 0.871632
Si Si7 0.008389 0.674620 0.584725
Si Si8 0.193771 0.662400 0.293090
O O1 0.856143 0.500000 0.228791
O O2 0.786089 0.703644 0.350816
O O3 0.896219 0.698638 0.300186
O O4 0.869391 0.766126 0.169220
O O5 0.897134 0.500000 0.765222
O O6 0.868631 0.278678 0.878184
O O7 0.839950 0.272943 0.755001
O O8 0.955387 0.262053 0.687045
O O9 0.297038 0.500000 0.554448
O O10 0.313438 0.752735 0.478212
O O11 0.320604 0.727219 0.623699
O O12 0.801010 0.500000 0.991465
O O13 0.750000 0.250000 0.000000
O O14 0.831662 0.267241 0.050631
O O15 0.570146 0.231526 0.574166
O O16 0.632549 0.000000 0.568433
O O17 0.236612 0.847826 0.784806
O O18 0.144424 0.000000 0.911969
O O19 0.007465 0.500000 0.585143
O O20 0.000000 0.731776 0.500000
O O21 0.169143 0.500000 0.336715
#
# Coordination Sequence:
#
# PCOD8084948 Si02
#       8
#     8   8   8   8   8   8   8   8
#     4   9  19  33  48  71 101 132 168 210 259 308
#     4   9  17  30  49  75 103 132 170 212 252 296
#     4  10  19  29  44  69 100 132 165 205 255 307
#     4  11  20  32  51  77 110 140 169 208 256 309
#     4  10  19  32  51  72  96 130 172 216 257 303
#     4  10  19  32  50  75 102 132 168 204 254 310
#     4   9  17  30  52  78 101 130 172 216 253 293
#     4   9  16  29  47  68  97 130 164 203 246 300
#
# _framework density 18.927067999999998
#
# number of rings (size 3 to 8) (size 9 to 14) (size 15 to 20)
#    0.000    2.375    1.250    2.250    0.000    3.500 
#    0.000    0.000    0.000    5.625    0.000    5.250 
#    0.000    0.000    0.000    0.000    0.000    0.000 
#
# Total GULP energy -396480.053725 kJ/mol
# GULP energy per Si atom -12390.001679 kJ/mol
# Density = 1.888399 g / cm^3
# Si number density = 18.927068 Si / 1000 Ang^3
#
#
#
# Elastic Constant Matrix: (Units=GPa)
#
#
# Indices 1 2 3 4 5 6 
#
# 1 60.6792 25.7594 31.3098 0.0000 21.8160 0.0000
# 2 25.7594 59.0313 40.9905 0.0000 9.6233 0.0003
# 3 31.3098 40.9905 111.5425 0.0000 18.0640 0.0000
# 4 0.0000 0.0000 0.0000 24.0913 0.0000 7.2323
# 5 21.8160 9.6233 18.0640 0.0000 34.0921 0.0000
# 6 0.0000 0.0003 0.0000 7.2323 0.0000 13.9197
#
#
#
# Elastic Compliance Matrix: (Units=1/GPa)
#
#
# Indices 1 2 3 4 5 6 
#
# 1 0.025491 -0.007382 -0.002339 0.000000 -0.012989 0.000000
# 2 -0.007382 0.025030 -0.007380 0.000000 0.001569 -0.000001
# 3 -0.002339 -0.007380 0.012857 0.000000 -0.003233 0.000000
# 4 0.000000 0.000000 0.000000 0.049180 0.000000 -0.025553
# 5 -0.012989 0.001569 -0.003233 0.000000 0.038914 0.000000
# 6 0.000000 -0.000001 0.000000 -0.025553 0.000000 0.085117
#
#
# Mechanical properties :
#
#
# Convention : Reuss Voigt Hill
#
# Bulk Modulus (GPa) = 34.27447 47.48585 40.88016
# Shear Modulus (GPa) = 17.82422 23.30017 20.56219
#
# Velocity S-wave (km/s) = 3.07209 3.51244 3.29962
# Velocity P-wave (km/s) = 5.54362 6.44926 6.01351
#
# Compressibility (1/GPa) = 0.02917624
#
# Stress axis : x y z
#
# Youngs Moduli (GPa) = 39.23027 39.95135 77.77583
#
# Poissons Ratio (x) = 0.29491 0.18191
# Poissons Ratio (y) = 0.28959 0.57402
# Poissons Ratio (z) = 0.09176 0.29486
#
# Static dielectric constant tensor:
#      x y z
#    x 3.488320 0.000000 0.224250 
#    y 0.000000 3.349280 0.000000 
#    z 0.224250 0.000000 3.694060 
# 
# 
# High freq. dielectric constant tensor:
#      x y z
#    x 1.713740 0.000000 0.026240 
#    y 0.000000 1.706830 0.000000 
#    z 0.026240 0.000000 1.736340 
# 
# From -- ./inp_files/249086.got.cif
#   From: 2010.06.25/outbox.cif.g09.slc.cpg/sg12_125_cif.got.tgz:249086.got - 2010.06.28 00:19:55.
