data_PCOD8084107
_publ_section_title
;
Structure prediction by ZEFSAII (Michael W. Deem and Ramdas Pophale) SiO2 
 PCOD8084107
Probable space group: C 2/M
;
_chemical_formula_sum "Si O2"
_cell_formula_units_Z 40
_cell_length_a 29.313595
_cell_length_b 8.509653
_cell_length_c 7.837660
_cell_angle_alpha 90.000000
_cell_angle_beta 89.730276
_cell_angle_gamma 90.000000
_cell_volume 1955.071036
_symmetry_space_group_name_H-M "C 2/M"
_symmetry_group_IT_number 12
_symmetry_cell_setting 'monoclinic'
loop_
_space_group_symop_operation_xyz
x,y,z
-x,y,-z
-x,-y,-z
x,-y,z
1/2+x,1/2+y,z
1/2-x,1/2+y,-z
1/2-x,1/2-y,-z
1/2+x,1/2-y,z
loop_
_atom_site_type_symbol
_atom_site_label
_atom_site_fract_x
_atom_site_fract_y
_atom_site_fract_z
Si Si1 0.637304 0.315677 0.805226
Si Si2 0.300450 0.313865 0.506827
Si Si3 0.544591 0.316647 0.303798
Si Si4 0.140736 0.184320 0.183143
Si Si5 0.451783 0.182022 0.328269
O O1 0.627408 0.500000 0.785343
O O2 0.672316 0.255180 0.661073
O O3 0.589697 0.223643 0.795240
O O4 0.658359 0.277281 0.991847
O O5 0.298512 0.500000 0.511226
O O6 0.250000 0.250000 0.500000
O O7 0.325051 0.243542 0.675774
O O8 0.536928 0.500000 0.269105
O O9 0.589288 0.250496 0.206107
O O10 0.500056 0.223289 0.237079
O O11 0.552699 0.288742 0.504049
O O12 0.138678 0.000000 0.218319
O O13 0.450790 0.000000 0.379138
#
# Coordination Sequence:
#
# PCOD8084107 Si02
#       5
#     8   8   8   8   8
#     4  10  20  38  61  82 110 149 191 230 271 330
#     4  10  21  39  60  84 111 143 183 231 284 335
#     4  10  18  34  58  82 111 153 196 228 268 328
#     4   9  19  36  60  86 109 143 193 234 267 327
#     4  11  21  33  52  84 120 151 186 231 279 327
#
# _framework density 20.459614999999999
#
# number of rings (size 3 to 8) (size 9 to 14) (size 15 to 20)
#    0.000    2.000    2.000    3.600    0.000    2.400 
#    0.000    7.000    0.000    0.000    0.000    0.000 
#    0.000    0.000    0.000    0.000    0.000    0.000 
#
# Total GULP energy -247976.279969 kJ/mol
# GULP energy per Si atom -12398.813998 kJ/mol
# Density = 2.041305 g / cm^3
# Si number density = 20.459615 Si / 1000 Ang^3
#
#
#
# Elastic Constant Matrix: (Units=GPa)
#
#
# Indices 1 2 3 4 5 6 
#
# 1 169.4639 26.5483 87.1507 0.0000 5.5740 0.0000
# 2 26.5483 39.8167 19.7585 0.0000 1.4775 0.0000
# 3 87.1507 19.7585 144.4931 0.0000 2.7113 0.0000
# 4 0.0000 0.0000 0.0000 7.3020 0.0000 3.3447
# 5 5.5740 1.4775 2.7113 0.0000 16.7360 0.0000
# 6 0.0000 0.0000 0.0000 3.3447 0.0000 31.8692
#
#
#
# Elastic Compliance Matrix: (Units=1/GPa)
#
#
# Indices 1 2 3 4 5 6 
#
# 1 0.009058 -0.003514 -0.004947 0.000000 -0.001905 0.000000
# 2 -0.003514 0.028360 -0.001739 0.000000 -0.001052 0.000000
# 3 -0.004947 -0.001739 0.010139 0.000000 0.000159 0.000000
# 4 0.000000 0.000000 0.000000 0.143866 0.000000 -0.015099
# 5 -0.001905 -0.001052 0.000159 0.000000 0.060453 0.000000
# 6 0.000000 0.000000 0.000000 -0.015099 0.000000 0.032963
#
#
# Mechanical properties :
#
#
# Convention : Reuss Voigt Hill
#
# Bulk Modulus (GPa) = 36.82216 68.96541 52.89379
# Shear Modulus (GPa) = 15.90875 25.86918 20.88896
#
# Velocity S-wave (km/s) = 2.79152 3.55970 3.19875
# Velocity P-wave (km/s) = 5.33166 7.11875 6.28901
#
# Compressibility (1/GPa) = 0.02715756
#
# Stress axis : x y z
#
# Youngs Moduli (GPa) = 110.39489 35.26091 98.62442
#
# Poissons Ratio (x) = 0.12391 0.48792
# Poissons Ratio (y) = 0.38794 0.17149
# Poissons Ratio (z) = 0.54615 0.06131
#
# Static dielectric constant tensor:
#      x y z
#    x 3.999350 0.000000 0.017800 
#    y 0.000000 3.344710 0.000000 
#    z 0.017800 0.000000 3.735790 
# 
# 
# High freq. dielectric constant tensor:
#      x y z
#    x 1.801490 0.000000 0.001320 
#    y 0.000000 1.769360 0.000000 
#    z 0.001320 0.000000 1.795740 
# 
# From -- ./inp_files/92915.got.cif
#   From: 2010.06.25/outbox.cif.g09.slc.cpg/sg12_47_cif.got.tgz:92915.got - 2010.06.28 00:19:55.
