data_PCOD8084559
_publ_section_title
;
Structure prediction by ZEFSAII (Michael W. Deem and Ramdas Pophale) SiO2 
 PCOD8084559
Probable space group: C 2/M
;
_chemical_formula_sum "Si O2"
_cell_formula_units_Z 64
_cell_length_a 27.603036
_cell_length_b 13.611822
_cell_length_c 8.747339
_cell_angle_alpha 90.000000
_cell_angle_beta 108.843544
_cell_angle_gamma 90.000000
_cell_volume 3110.467514
_symmetry_space_group_name_H-M "C 2/M"
_symmetry_group_IT_number 12
_symmetry_cell_setting 'monoclinic'
loop_
_space_group_symop_operation_xyz
x,y,z
-x,y,-z
-x,-y,-z
x,-y,z
1/2+x,1/2+y,z
1/2-x,1/2+y,-z
1/2-x,1/2-y,-z
1/2+x,1/2-y,z
loop_
_atom_site_type_symbol
_atom_site_label
_atom_site_fract_x
_atom_site_fract_y
_atom_site_fract_z
Si Si1 0.038869 0.793532 0.158832
Si Si2 0.180007 0.611574 0.023102
Si Si3 0.029129 0.289633 0.674071
Si Si4 0.068714 0.608370 0.011041
Si Si5 0.274462 0.311720 0.308872
Si Si6 0.868755 0.888613 0.886684
Si Si7 0.636299 0.276480 0.801250
Si Si8 0.739420 0.609758 0.379559
O O1 0.046890 0.680188 0.116545
O O2 0.092157 0.852007 0.206188
O O3 0.011451 0.789468 0.296052
O O4 0.000000 0.845292 0.000000
O O5 0.195415 0.500000 0.993779
O O6 0.130364 0.612706 0.081386
O O7 0.226401 0.666359 0.152765
O O8 0.166135 0.672709 0.856365
O O9 0.080742 0.235637 0.666216
O O10 0.000000 0.339311 0.500000
O O11 0.048069 0.367073 0.819713
O O12 0.049691 0.500000 0.034479
O O13 0.326769 0.339049 0.271723
O O14 0.271556 0.381919 0.451694
O O15 0.276858 0.196740 0.362436
O O16 0.812604 0.876499 0.765097
O O17 0.881513 0.000000 0.942601
O O18 0.874418 0.824174 0.044221
O O19 0.762300 0.500000 0.372660
#
# Coordination Sequence:
#
# PCOD8084559 Si02
#       8
#     8   8   8   8   8   8   8   8
#     4  10  18  37  60  82 112 154 196 241 292 347
#     4  10  19  35  61  87 120 154 195 238 289 358
#     4  10  22  37  58  83 120 156 192 250 294 348
#     4   9  18  35  61  89 115 151 197 241 287 351
#     4  11  22  38  63  86 125 162 190 244 295 359
#     4  11  22  39  62  87 115 149 200 248 289 352
#     4  11  22  41  57  92 118 155 201 243 301 343
#     4  10  23  40  59  89 121 157 198 240 295 355
#
# _framework density 20.575686000000001
#
# number of rings (size 3 to 8) (size 9 to 14) (size 15 to 20)
#    0.000    1.750    5.000    0.750    1.750    4.250 
#    0.000    0.000    0.000    0.750    0.000    0.000 
#    0.000    0.000    0.000    0.000    0.000    0.000 
#
# Total GULP energy -396609.105376 kJ/mol
# GULP energy per Si atom -12394.034543 kJ/mol
# Density = 2.052885 g / cm^3
# Si number density = 20.575686 Si / 1000 Ang^3
#
#
#
# Elastic Constant Matrix: (Units=GPa)
#
#
# Indices 1 2 3 4 5 6 
#
# 1 103.6612 14.9085 26.5312 0.0000 -2.6493 0.0000
# 2 14.9085 81.5291 13.6739 0.0000 7.5073 0.0000
# 3 26.5312 13.6739 71.4281 0.0000 9.9343 0.0000
# 4 0.0000 0.0000 0.0000 14.8382 0.0000 1.7131
# 5 -2.6493 7.5073 9.9343 0.0000 19.9303 0.0000
# 6 0.0000 0.0000 0.0000 1.7131 0.0000 14.7679
#
#
#
# Elastic Compliance Matrix: (Units=1/GPa)
#
#
# Indices 1 2 3 4 5 6 
#
# 1 0.011129 -0.001693 -0.004410 0.000000 0.004315 0.000000
# 2 -0.001693 0.013208 -0.001264 0.000000 -0.004570 0.000000
# 3 -0.004410 -0.001264 0.017079 0.000000 -0.008623 0.000000
# 4 0.000000 0.000000 0.000000 0.068309 0.000000 -0.007924
# 5 0.004315 -0.004570 -0.008623 0.000000 0.056768 0.000000
# 6 0.000000 0.000000 0.000000 -0.007924 0.000000 0.068634
#
#
# Mechanical properties :
#
#
# Convention : Reuss Voigt Hill
#
# Bulk Modulus (GPa) = 37.47711 40.76063 39.11887
# Shear Modulus (GPa) = 19.32329 23.34093 21.33211
#
# Velocity S-wave (km/s) = 3.06785 3.37173 3.22337
# Velocity P-wave (km/s) = 5.55002 5.91703 5.73646
#
# Compressibility (1/GPa) = 0.02668295
#
# Stress axis : x y z
#
# Youngs Moduli (GPa) = 89.85344 75.71201 58.54987
#
# Poissons Ratio (x) = 0.12817 0.25820
# Poissons Ratio (y) = 0.15211 0.07401
# Poissons Ratio (z) = 0.39625 0.09571
#
# Static dielectric constant tensor:
#      x y z
#    x 3.926170 0.000000 0.124140 
#    y 0.000000 3.787940 0.000000 
#    z 0.124140 0.000000 3.494950 
# 
# 
# High freq. dielectric constant tensor:
#      x y z
#    x 1.818030 0.000000 0.009610 
#    y 0.000000 1.790470 0.000000 
#    z 0.009610 0.000000 1.781560 
# 
# From -- ./inp_files/111667.got.cif
#   From: 2010.06.25/outbox.cif.g09.slc.cpg/sg12_56_cif.got.tgz:111667.got - 2010.06.28 00:19:55.
