data_PCOD8084190
_publ_section_title
;
Structure prediction by ZEFSAII (Michael W. Deem and Ramdas Pophale) SiO2 
 PCOD8084190
Probable space group: C 2/M
;
_chemical_formula_sum "Si O2"
_cell_formula_units_Z 64
_cell_length_a 15.362718
_cell_length_b 8.735100
_cell_length_c 25.404228
_cell_angle_alpha 90.000000
_cell_angle_beta 108.576213
_cell_angle_gamma 90.000000
_cell_volume 3231.504817
_symmetry_space_group_name_H-M "C 2/M"
_symmetry_group_IT_number 12
_symmetry_cell_setting 'monoclinic'
loop_
_space_group_symop_operation_xyz
x,y,z
-x,y,-z
-x,-y,-z
x,-y,z
1/2+x,1/2+y,z
1/2-x,1/2+y,-z
1/2-x,1/2-y,-z
1/2+x,1/2-y,z
loop_
_atom_site_type_symbol
_atom_site_label
_atom_site_fract_x
_atom_site_fract_y
_atom_site_fract_z
Si Si1 0.019128 0.325735 0.744735
Si Si2 0.722648 0.819677 0.638305
Si Si3 0.086059 0.821899 0.368943
Si Si4 0.221159 0.319459 0.939536
Si Si5 0.835451 0.322112 0.870431
Si Si6 0.971125 0.681458 0.437758
Si Si7 0.769047 0.674309 0.242880
Si Si8 0.473033 0.179771 0.136896
O O1 0.982478 0.500000 0.732608
O O2 0.125356 0.319824 0.751713
O O3 0.005311 0.255963 0.800584
O O4 0.963807 0.217676 0.694953
O O5 0.806345 0.778901 0.615660
O O6 0.628370 0.748767 0.597026
O O7 0.743087 0.756661 0.700809
O O8 0.709304 0.000000 0.641811
O O9 0.047019 0.726204 0.409773
O O10 0.072371 0.000000 0.378022
O O11 0.216425 0.500000 0.944648
O O12 0.295623 0.278175 0.909844
O O13 0.121500 0.250671 0.904311
O O14 0.250000 0.250000 0.000000
O O15 0.820438 0.500000 0.880344
O O16 0.787700 0.283593 0.806204
O O17 0.943650 0.282466 0.886516
O O18 0.965703 0.500000 0.439169
O O19 0.000000 0.748863 0.500000
O O20 0.732220 0.500000 0.231001
O O21 0.458601 0.000000 0.141372
#
# Coordination Sequence:
#
# PCOD8084190 Si02
#       8
#     8   8   8   8   8   8   8   8
#     4  10  18  35  61  84 112 154 193 222 270 342
#     4   9  19  36  56  82 115 150 183 227 287 339
#     4  11  22  35  55  85 119 146 178 234 294 332
#     4  11  23  43  63  83 113 152 195 234 282 333
#     4  11  22  37  59  89 118 147 188 235 281 333
#     4  10  21  40  62  79 103 149 200 233 269 338
#     4  10  18  34  60  83 114 154 186 224 280 338
#     4   9  20  38  60  84 116 154 187 227 281 337
#
# _framework density 19.805014
#
# number of rings (size 3 to 8) (size 9 to 14) (size 15 to 20)
#    0.000    1.875    2.500    1.875    0.000    1.750 
#    0.000    7.500    0.000    0.000    0.000    0.000 
#    0.000    0.000    0.000    0.000    0.000    0.000 
#
# Total GULP energy -396844.167580 kJ/mol
# GULP energy per Si atom -12401.380237 kJ/mol
# Density = 1.975994 g / cm^3
# Si number density = 19.805014 Si / 1000 Ang^3
#
#
#
# Elastic Constant Matrix: (Units=GPa)
#
#
# Indices 1 2 3 4 5 6 
#
# 1 120.7499 17.2790 59.6865 0.0000 -7.9435 0.0000
# 2 17.2790 28.5225 15.6031 0.0000 2.4522 0.0000
# 3 59.6865 15.6031 149.0231 0.0000 -11.0894 0.0000
# 4 0.0000 0.0000 0.0000 22.8208 0.0000 -5.7401
# 5 -7.9435 2.4522 -11.0894 0.0000 13.4369 0.0000
# 6 0.0000 0.0000 0.0000 -5.7401 0.0000 26.1694
#
#
#
# Elastic Compliance Matrix: (Units=1/GPa)
#
#
# Indices 1 2 3 4 5 6 
#
# 1 0.011078 -0.005156 -0.003558 0.000000 0.004553 0.000000
# 2 -0.005156 0.041079 -0.003218 0.000000 -0.013201 0.000000
# 3 -0.003558 -0.003218 0.008907 0.000000 0.005834 0.000000
# 4 0.000000 0.000000 0.000000 0.046378 0.000000 0.010173
# 5 0.004553 -0.013201 0.005834 0.000000 0.084338 0.000000
# 6 0.000000 0.000000 0.000000 0.010173 0.000000 0.040444
#
#
# Mechanical properties :
#
#
# Convention : Reuss Voigt Hill
#
# Bulk Modulus (GPa) = 26.88280 53.71473 40.29876
# Shear Modulus (GPa) = 18.62280 26.20056 22.41168
#
# Velocity S-wave (km/s) = 3.06977 3.64115 3.36760
# Velocity P-wave (km/s) = 5.11545 6.69761 5.95927
#
# Compressibility (1/GPa) = 0.03719850
#
# Stress axis : x y z
#
# Youngs Moduli (GPa) = 90.27139 24.34330 112.27610
#
# Poissons Ratio (x) = 0.12551 0.39950
# Poissons Ratio (y) = 0.46543 0.36135
# Poissons Ratio (z) = 0.32120 0.07835
#
# Static dielectric constant tensor:
#      x y z
#    x 4.108210 0.000000 0.045490 
#    y 0.000000 3.336710 0.000000 
#    z 0.045490 0.000000 3.787070 
# 
# 
# High freq. dielectric constant tensor:
#      x y z
#    x 1.786880 0.000000 -0.002780 
#    y 0.000000 1.742880 0.000000 
#    z -0.002780 0.000000 1.773890 
# 
# From -- ./inp_files/359688.got.cif
#   From: 2010.06.25/outbox.cif.g09.slc.cpg/sg12_180_cif.got.tgz:359688.got - 2010.06.28 00:19:55.
