data_PCOD8084314
_publ_section_title
;
Structure prediction by ZEFSAII (Michael W. Deem and Ramdas Pophale) SiO2 
 PCOD8084314
Probable space group: C 2/M
;
_chemical_formula_sum "Si O2"
_cell_formula_units_Z 40
_cell_length_a 13.842952
_cell_length_b 19.287180
_cell_length_c 10.162987
_cell_angle_alpha 90.000000
_cell_angle_beta 134.315416
_cell_angle_gamma 90.000000
_cell_volume 1941.473037
_symmetry_space_group_name_H-M "C 2/M"
_symmetry_group_IT_number 12
_symmetry_cell_setting 'monoclinic'
loop_
_space_group_symop_operation_xyz
x,y,z
-x,y,-z
-x,-y,-z
x,-y,z
1/2+x,1/2+y,z
1/2-x,1/2+y,-z
1/2-x,1/2-y,-z
1/2+x,1/2-y,z
loop_
_atom_site_type_symbol
_atom_site_label
_atom_site_fract_x
_atom_site_fract_y
_atom_site_fract_z
Si Si1 0.375332 0.336577 0.300554
Si Si2 0.625485 0.075172 0.714457
Si Si3 0.595167 0.118239 0.975660
Si Si4 0.215980 0.298766 0.643053
Si Si5 0.972124 0.748642 0.751686
O O1 0.500000 0.371399 0.500000
O O2 0.312526 0.275419 0.324598
O O3 0.425960 0.304539 0.212164
O O4 0.254035 0.391086 0.163398
O O5 0.500000 0.074681 0.500000
O O6 0.574700 0.081673 0.816336
O O7 0.716993 0.139585 0.752163
O O8 0.700297 0.000000 0.772730
O O9 0.557986 0.200063 0.930697
O O10 0.500000 0.084992 0.000000
O O11 0.098591 0.304917 0.419935
O O12 0.363662 0.296837 0.721191
#
# Coordination Sequence:
#
# PCOD8084314 Si02
#       5
#     8   8   8   8   8
#     4  10  20  33  55  90 125 155 190 254 319 357
#     4  11  23  40  61  85 123 169 205 245 293 363
#     4  12  22  36  60  94 123 154 204 250 312 358
#     4  10  18  35  57  87 126 150 196 242 307 361
#     4  10  19  31  56  91 122 153 184 253 310 357
#
# _framework density 20.602913999999998
#
# number of rings (size 3 to 8) (size 9 to 14) (size 15 to 20)
#    0.000    1.400    6.000    1.200    0.000    0.400 
#    0.000    0.000    0.000    3.000    0.000    0.000 
#    0.000    0.000    0.000    0.000    0.000    0.000 
#
# Total GULP energy -247840.391236 kJ/mol
# GULP energy per Si atom -12392.019562 kJ/mol
# Density = 2.055602 g / cm^3
# Si number density = 20.602914 Si / 1000 Ang^3
#
#
#
# Elastic Constant Matrix: (Units=GPa)
#
#
# Indices 1 2 3 4 5 6 
#
# 1 129.0055 15.7625 41.5282 0.0000 -9.1029 0.0000
# 2 15.7625 45.2195 18.2666 0.0000 -8.6328 0.0000
# 3 41.5282 18.2666 108.7663 0.0000 3.5331 0.0000
# 4 0.0000 0.0000 0.0000 -10.5836 0.0000 2.3209
# 5 -9.1029 -8.6328 3.5331 0.0000 33.8042 0.0000
# 6 0.0000 0.0000 0.0000 2.3209 0.0000 5.1150
#
#
#
# Elastic Compliance Matrix: (Units=1/GPa)
#
#
# Indices 1 2 3 4 5 6 
#
# 1 0.009173 -0.001372 -0.003352 0.000000 0.002470 0.000000
# 2 -0.001372 0.025442 -0.003962 0.000000 0.006542 0.000000
# 3 -0.003352 -0.003962 0.011240 0.000000 -0.003089 0.000000
# 4 0.000000 0.000000 0.000000 -0.085935 0.000000 0.038993
# 5 0.002470 0.006542 -0.003089 0.000000 0.032241 0.000000
# 6 0.000000 0.000000 0.000000 0.038993 0.000000 0.177812
#
#
# Mechanical properties :
#
#
# Convention : Reuss Voigt Hill
#
# Bulk Modulus (GPa) = 35.10846 48.23399 41.67122
# Shear Modulus (GPa) = 25.40185 19.49607 22.44896
#
# Velocity S-wave (km/s) = 3.51511 3.07950 3.30449
# Velocity P-wave (km/s) = 5.79243 6.00887 5.90164
#
# Compressibility (1/GPa) = 0.02848316
#
# Stress axis : x y z
#
# Youngs Moduli (GPa) = 109.02084 39.30558 88.97170
#
# Poissons Ratio (x) = 0.05392 0.29824
# Poissons Ratio (y) = 0.14955 0.35247
# Poissons Ratio (z) = 0.36544 0.15571
#
# Static dielectric constant tensor:
#      x y z
#    x 3.994870 0.000000 -0.029390 
#    y 0.000000 3.545850 0.000000 
#    z -0.029390 0.000000 4.284670 
# 
# 
# High freq. dielectric constant tensor:
#      x y z
#    x 1.817700 0.000000 -0.012250 
#    y 0.000000 1.749560 0.000000 
#    z -0.012250 0.000000 1.809070 
# 
# From -- ./inp_files/147312.got.cif
#   From: 2010.06.25/outbox.cif.g09.slc.cpg/sg12_74_cif.got.tgz:147312.got - 2010.06.28 00:19:55.
