data_PCOD8084258
_publ_section_title
;
Structure prediction by ZEFSAII (Michael W. Deem and Ramdas Pophale) SiO2 
 PCOD8084258
Probable space group: C 2/M
;
_chemical_formula_sum "Si O2"
_cell_formula_units_Z 28
_cell_length_a 29.983882
_cell_length_b 14.257930
_cell_length_c 5.268796
_cell_angle_alpha 90.000000
_cell_angle_beta 130.670170
_cell_angle_gamma 90.000000
_cell_volume 1708.426381
_symmetry_space_group_name_H-M "C 2/M"
_symmetry_group_IT_number 12
_symmetry_cell_setting 'monoclinic'
loop_
_space_group_symop_operation_xyz
x,y,z
-x,y,-z
-x,-y,-z
x,-y,z
1/2+x,1/2+y,z
1/2-x,1/2+y,-z
1/2-x,1/2-y,-z
1/2+x,1/2-y,z
loop_
_atom_site_type_symbol
_atom_site_label
_atom_site_fract_x
_atom_site_fract_y
_atom_site_fract_z
Si Si1 0.868618 0.163694 0.748943
Si Si2 0.461093 0.500000 0.105759
Si Si3 0.255282 0.394030 0.096521
Si Si4 0.167856 0.756129 0.879477
O O1 0.806724 0.107349 0.500778
O O2 0.875464 0.229668 0.524042
O O3 0.868712 0.228081 0.999993
O O4 0.922134 0.092694 0.962713
O O5 0.500000 0.500000 0.500000
O O6 0.500000 0.500000 0.000000
O O7 0.241806 0.500000 0.960793
O O8 0.278283 0.332253 0.941065
O O9 0.195430 0.348090 0.983154
#
# Coordination Sequence:
#
# PCOD8084258 Si02
#       4
#     8   4   8   8
#     4  10  18  35  45  64 104 128 156 210 239 283
#     4  12  24  34  52  76  94 136 182 204 244 299
#     4   9  18  29  49  71 101 134 163 191 240 306
#     4   9  19  30  47  71  94 142 160 186 251 303
#
# _framework density 16.38935
#
# number of rings (size 3 to 8) (size 9 to 14) (size 15 to 20)
#    1.714    0.571    1.429    2.571    2.000    0.000 
#    0.000    0.000    0.000    0.000    0.000    0.000 
#    0.000   22.857    0.000    0.000    0.000    0.000 
#
# Total GULP energy -173448.443640 kJ/mol
# GULP energy per Si atom -12389.174546 kJ/mol
# Density = 1.635205 g / cm^3
# Si number density = 16.389350 Si / 1000 Ang^3
#
#
#
# Elastic Constant Matrix: (Units=GPa)
#
#
# Indices 1 2 3 4 5 6 
#
# 1 75.7442 19.2287 40.9553 0.0000 -15.8065 0.0000
# 2 19.2287 84.7632 25.9522 0.0000 3.8686 0.0000
# 3 40.9553 25.9522 100.7284 0.0000 -7.3120 0.0000
# 4 0.0000 0.0000 0.0000 22.0315 0.0000 12.7803
# 5 -15.8065 3.8686 -7.3120 0.0000 30.1425 0.0000
# 6 0.0000 0.0000 0.0000 12.7803 0.0000 26.8105
#
#
#
# Elastic Compliance Matrix: (Units=1/GPa)
#
#
# Indices 1 2 3 4 5 6 
#
# 1 0.019264 -0.002796 -0.006467 0.000000 0.008892 0.000000
# 2 -0.002796 0.013400 -0.002592 0.000000 -0.003815 0.000000
# 3 -0.006467 -0.002592 0.013236 0.000000 0.000152 0.000000
# 4 0.000000 0.000000 0.000000 0.062738 0.000000 -0.029907
# 5 0.008892 -0.003815 0.000152 0.000000 0.038365 0.000000
# 6 0.000000 0.000000 0.000000 -0.029907 0.000000 0.051555
#
#
# Mechanical properties :
#
#
# Convention : Reuss Voigt Hill
#
# Bulk Modulus (GPa) = 45.06639 48.16760 46.61699
# Shear Modulus (GPa) = 21.77073 27.47020 24.62047
#
# Velocity S-wave (km/s) = 3.64860 4.09846 3.88006
# Velocity P-wave (km/s) = 6.73103 7.20069 6.96982
#
# Compressibility (1/GPa) = 0.02218949
#
# Stress axis : x y z
#
# Youngs Moduli (GPa) = 51.90897 74.62849 75.55119
#
# Poissons Ratio (x) = 0.20867 0.48858
# Poissons Ratio (y) = 0.14514 0.19586
# Poissons Ratio (z) = 0.33569 0.19347
#
# Static dielectric constant tensor:
#      x y z
#    x 2.866180 0.000000 -0.125150 
#    y 0.000000 3.016330 0.000000 
#    z -0.125150 0.000000 2.933950 
# 
# 
# High freq. dielectric constant tensor:
#      x y z
#    x 1.607980 0.000000 -0.023300 
#    y 0.000000 1.608500 0.000000 
#    z -0.023300 0.000000 1.615270 
# 
# From -- ./inp_files/19369.got.cif
#   From: 2010.06.25/outbox.cif.g09.slc.cpg/sg12_10_cif.got.tgz:19369.got - 2010.06.28 00:19:55.
