data_PCOD8084500
_publ_section_title
;
Structure prediction by ZEFSAII (Michael W. Deem and Ramdas Pophale) SiO2 
 PCOD8084500
Probable space group: C 2/M
;
_chemical_formula_sum "Si O2"
_cell_formula_units_Z 56
_cell_length_a 9.458505
_cell_length_b 18.132496
_cell_length_c 15.750527
_cell_angle_alpha 90.000000
_cell_angle_beta 96.580405
_cell_angle_gamma 90.000000
_cell_volume 2683.518454
_symmetry_space_group_name_H-M "C 2/M"
_symmetry_group_IT_number 12
_symmetry_cell_setting 'monoclinic'
loop_
_space_group_symop_operation_xyz
x,y,z
-x,y,-z
-x,-y,-z
x,-y,z
1/2+x,1/2+y,z
1/2-x,1/2+y,-z
1/2-x,1/2-y,-z
1/2+x,1/2-y,z
loop_
_atom_site_type_symbol
_atom_site_label
_atom_site_fract_x
_atom_site_fract_y
_atom_site_fract_z
Si Si1 0.285236 0.083095 0.437647
Si Si2 0.982791 0.810540 0.094348
Si Si3 0.618184 0.284262 0.442621
Si Si4 0.197855 0.327502 0.878697
Si Si5 0.048013 0.585335 0.200033
Si Si6 0.576776 0.129588 0.382693
Si Si7 0.241574 0.412547 0.056272
O O1 0.167717 0.141969 0.395529
O O2 0.427096 0.091342 0.392746
O O3 0.311881 0.101609 0.539091
O O4 0.226974 0.000000 0.424226
O O5 0.140775 0.818360 0.145568
O O6 0.881171 0.751064 0.131696
O O7 0.903261 0.890086 0.092227
O O8 0.000000 0.782479 0.000000
O O9 0.500000 0.310604 0.500000
O O10 0.750000 0.250000 0.500000
O O11 0.557572 0.218710 0.379205
O O12 0.108922 0.378973 0.809085
O O13 0.195238 0.365396 0.971325
O O14 0.024974 0.500000 0.189704
O O15 0.129041 0.604726 0.293303
O O16 0.138882 0.613029 0.125720
O O17 0.233652 0.500000 0.037510
#
# Coordination Sequence:
#
# PCOD8084500 Si02
#       7
#     8   8   8   8   8   8   8
#     4  10  19  35  63  89 116 152 195 242 289 344
#     4  10  20  36  59  81 110 148 195 240 284 346
#     4  10  18  36  60  88 113 149 191 237 284 345
#     4  11  21  37  58  82 112 152 193 238 287 342
#     4  11  22  36  58  86 117 149 193 241 285 344
#     4  10  19  37  61  84 117 159 196 231 289 356
#     4  10  21  37  58  84 114 150 191 239 291 338
#
# _framework density 20.868126
#
# number of rings (size 3 to 8) (size 9 to 14) (size 15 to 20)
#    0.000    1.714    2.857    6.000    0.000    4.571 
#    5.143    0.000    0.000    0.000    0.000    0.000 
#    0.000    0.000    0.000    0.000    0.000    0.000 
#
# Total GULP energy -347054.386495 kJ/mol
# GULP energy per Si atom -12394.799518 kJ/mol
# Density = 2.082063 g / cm^3
# Si number density = 20.868126 Si / 1000 Ang^3
#
#
#
# Elastic Constant Matrix: (Units=GPa)
#
#
# Indices 1 2 3 4 5 6 
#
# 1 97.8460 32.2365 7.4057 0.0000 -0.0983 0.0000
# 2 32.2365 131.4819 13.7245 0.0000 -7.3343 0.0000
# 3 7.4057 13.7245 56.1069 0.0000 0.9190 0.0000
# 4 0.0000 0.0000 0.0000 8.2998 0.0000 2.6822
# 5 -0.0983 -7.3343 0.9190 0.0000 10.6036 0.0000
# 6 0.0000 0.0000 0.0000 2.6822 0.0000 37.9599
#
#
#
# Elastic Compliance Matrix: (Units=1/GPa)
#
#
# Indices 1 2 3 4 5 6 
#
# 1 0.011186 -0.002759 -0.000773 0.000000 -0.001737 0.000000
# 2 -0.002759 0.008828 -0.001898 0.000000 0.006245 0.000000
# 3 -0.000773 -0.001898 0.018437 0.000000 -0.002918 0.000000
# 4 0.000000 0.000000 0.000000 0.123301 0.000000 -0.008712
# 5 -0.001737 0.006245 -0.002918 0.000000 0.098864 0.000000
# 6 0.000000 0.000000 0.000000 -0.008712 0.000000 0.026959
#
#
# Mechanical properties :
#
#
# Convention : Reuss Voigt Hill
#
# Bulk Modulus (GPa) = 36.24214 43.57425 39.90819
# Shear Modulus (GPa) = 16.25320 26.84387 21.54853
#
# Velocity S-wave (km/s) = 2.79382 3.59047 3.21690
# Velocity P-wave (km/s) = 5.27373 6.17372 5.74138
#
# Compressibility (1/GPa) = 0.02759219
#
# Stress axis : x y z
#
# Youngs Moduli (GPa) = 89.39903 113.27007 54.23827
#
# Poissons Ratio (x) = 0.31248 0.04194
# Poissons Ratio (y) = 0.24663 0.10293
# Poissons Ratio (z) = 0.06912 0.21496
#
# Static dielectric constant tensor:
#      x y z
#    x 3.988890 0.000000 -0.042690 
#    y 0.000000 4.213110 0.000000 
#    z -0.042690 0.000000 3.505860 
# 
# 
# High freq. dielectric constant tensor:
#      x y z
#    x 1.809660 0.000000 -0.008740 
#    y 0.000000 1.832430 0.000000 
#    z -0.008740 0.000000 1.778080 
# 
# From -- ./inp_files/257659.got.cif
#   From: 2010.06.25/outbox.cif.g09.slc.cpg/sg12_129_cif.got.tgz:257659.got - 2010.06.28 00:19:55.
