data_PCOD8084710
_publ_section_title
;
Structure prediction by ZEFSAII (Michael W. Deem and Ramdas Pophale) SiO2 
 PCOD8084710
Probable space group: C 2/M
;
_chemical_formula_sum "Si O2"
_cell_formula_units_Z 64
_cell_length_a 23.221589
_cell_length_b 9.071273
_cell_length_c 17.791159
_cell_angle_alpha 90.000000
_cell_angle_beta 87.766918
_cell_angle_gamma 90.000000
_cell_volume 3744.850437
_symmetry_space_group_name_H-M "C 2/M"
_symmetry_group_IT_number 12
_symmetry_cell_setting 'monoclinic'
loop_
_space_group_symop_operation_xyz
x,y,z
-x,y,-z
-x,-y,-z
x,-y,z
1/2+x,1/2+y,z
1/2-x,1/2+y,-z
1/2-x,1/2-y,-z
1/2+x,1/2-y,z
loop_
_atom_site_type_symbol
_atom_site_label
_atom_site_fract_x
_atom_site_fract_y
_atom_site_fract_z
Si Si1 0.370797 0.326824 0.848957
Si Si2 0.566822 0.672364 0.002603
Si Si3 0.819636 0.834526 0.566246
Si Si4 0.316520 0.834538 0.422159
Si Si5 0.742381 0.341569 0.072585
Si Si6 0.365415 0.835771 0.133476
Si Si7 0.821902 0.673866 0.718959
Si Si8 0.688126 0.674498 0.730336
O O1 0.377430 0.500000 0.831064
O O2 0.307079 0.272523 0.874594
O O3 0.373142 0.235385 0.771336
O O4 0.413579 0.277893 0.914310
O O5 0.579797 0.500000 0.990382
O O6 0.599090 0.759598 0.935161
O O7 0.500000 0.709916 0.000000
O O8 0.751366 0.844305 0.563482
O O9 0.844411 0.749909 0.491886
O O10 0.838005 0.743763 0.638412
O O11 0.845544 0.000000 0.568518
O O12 0.331908 0.743591 0.347019
O O13 0.342252 0.000000 0.415043
O O14 0.718860 0.500000 0.046935
O O15 0.800212 0.357450 0.114070
O O16 0.750000 0.250000 0.000000
O O17 0.359433 0.735030 0.207656
O O18 0.391359 0.000000 0.148614
O O19 0.828277 0.500000 0.713163
O O20 0.755283 0.716430 0.744597
O O21 0.681255 0.500000 0.727161
#
# Coordination Sequence:
#
# PCOD8084710 Si02
#       8
#     8   8   8   8   8   8   8   8
#     4  10  19  32  48  67  93 122 154 195 240 285
#     4  10  22  39  55  69  89 122 161 198 239 289
#     4   9  16  26  40  58  87 127 164 194 228 274
#     4   9  16  26  40  59  88 125 163 197 229 271
#     4  10  19  29  45  68  92 118 150 189 237 286
#     4  11  21  32  48  70  95 121 154 197 242 285
#     4  10  19  28  42  66  94 124 159 197 236 279
#     4  10  19  29  43  65  94 126 160 195 234 281
#
# _framework density 17.090135
#
# number of rings (size 3 to 8) (size 9 to 14) (size 15 to 20)
#    0.000    2.125    2.500    1.875    0.000    5.750 
#    0.000    0.000    0.000    0.000    0.000    0.000 
#    0.000    1.000    0.000   10.750    0.000    5.250 
#
# Total GULP energy -396455.974454 kJ/mol
# GULP energy per Si atom -12389.249202 kJ/mol
# Density = 1.705124 g / cm^3
# Si number density = 17.090135 Si / 1000 Ang^3
#
#
#
# Elastic Constant Matrix: (Units=GPa)
#
#
# Indices 1 2 3 4 5 6 
#
# 1 52.4121 24.9618 33.9659 0.0000 8.3546 0.0000
# 2 24.9618 105.5565 74.2083 0.0000 7.7300 0.0000
# 3 33.9659 74.2083 147.6965 0.0000 13.4876 0.0000
# 4 0.0000 0.0000 0.0000 37.5047 0.0000 0.8877
# 5 8.3546 7.7300 13.4876 0.0000 6.5459 0.0000
# 6 0.0000 0.0000 0.0000 0.8877 0.0000 9.9242
#
#
#
# Elastic Compliance Matrix: (Units=1/GPa)
#
#
# Indices 1 2 3 4 5 6 
#
# 1 0.025841 -0.002639 -0.002328 0.000000 -0.025069 0.000000
# 2 -0.002639 0.014954 -0.006900 0.000000 -0.000074 0.000000
# 3 -0.002328 -0.006900 0.012019 0.000000 -0.013646 0.000000
# 4 0.000000 0.000000 0.000000 0.026720 0.000000 -0.002390
# 5 -0.025069 -0.000074 -0.013646 0.000000 0.212970 0.000000
# 6 0.000000 0.000000 0.000000 -0.002390 0.000000 0.100977
#
#
# Mechanical properties :
#
#
# Convention : Reuss Voigt Hill
#
# Bulk Modulus (GPa) = 34.38623 63.54857 48.96740
# Shear Modulus (GPa) = 11.71219 22.29688 17.00454
#
# Velocity S-wave (km/s) = 2.62070 3.61593 3.15777
# Velocity P-wave (km/s) = 5.41494 7.39583 6.48151
#
# Compressibility (1/GPa) = 0.02908141
#
# Stress axis : x y z
#
# Youngs Moduli (GPa) = 38.69856 66.87339 83.20356
#
# Poissons Ratio (x) = 0.17645 0.19366
# Poissons Ratio (y) = 0.10211 0.57408
# Poissons Ratio (z) = 0.09007 0.46141
#
# Static dielectric constant tensor:
#      x y z
#    x 2.698710 0.000000 0.046880 
#    y 0.000000 3.466210 0.000000 
#    z 0.046880 0.000000 3.345700 
# 
# 
# High freq. dielectric constant tensor:
#      x y z
#    x 1.587140 0.000000 0.005380 
#    y 0.000000 1.673660 0.000000 
#    z 0.005380 0.000000 1.671590 
# 
# From -- ./inp_files/281290.got.cif
#   From: 2010.06.25/outbox.cif.g09.slc.cpg/sg12_141_cif.got.tgz:281290.got - 2010.06.28 00:19:55.
