data_PCOD8084967
_publ_section_title
;
Structure prediction by ZEFSAII (Michael W. Deem and Ramdas Pophale) SiO2 
 PCOD8084967
Probable space group: C 2/M
;
_chemical_formula_sum "Si O2"
_cell_formula_units_Z 56
_cell_length_a 24.185892
_cell_length_b 9.294347
_cell_length_c 17.505131
_cell_angle_alpha 90.000000
_cell_angle_beta 63.380897
_cell_angle_gamma 90.000000
_cell_volume 3517.922405
_symmetry_space_group_name_H-M "C 2/M"
_symmetry_group_IT_number 12
_symmetry_cell_setting 'monoclinic'
loop_
_space_group_symop_operation_xyz
x,y,z
-x,y,-z
-x,-y,-z
x,-y,z
1/2+x,1/2+y,z
1/2-x,1/2+y,-z
1/2-x,1/2-y,-z
1/2+x,1/2-y,z
loop_
_atom_site_type_symbol
_atom_site_label
_atom_site_fract_x
_atom_site_fract_y
_atom_site_fract_z
Si Si1 0.571345 0.831678 0.958470
Si Si2 0.209667 0.837103 0.296981
Si Si3 0.336811 0.666807 0.999898
Si Si4 0.687402 0.837631 0.452070
Si Si5 0.719078 0.335465 0.123129
Si Si6 0.352567 0.165295 0.235988
Si Si7 0.667205 0.662824 0.607383
O O1 0.601826 0.746599 0.009820
O O2 0.602338 0.784618 0.859588
O O3 0.581113 0.000000 0.967426
O O4 0.500000 0.788464 0.000000
O O5 0.174344 0.732727 0.377466
O O6 0.186388 0.805923 0.225082
O O7 0.282944 0.809815 0.251272
O O8 0.195066 0.000000 0.331536
O O9 0.341282 0.500000 0.018699
O O10 0.276759 0.730084 0.078522
O O11 0.331288 0.690774 0.911997
O O12 0.651536 0.748174 0.539317
O O13 0.759927 0.833618 0.423472
O O14 0.662010 0.000000 0.467562
O O15 0.744096 0.500000 0.104946
O O16 0.367781 0.261228 0.300690
O O17 0.364168 0.000000 0.251387
O O18 0.643013 0.500000 0.614508
#
# Coordination Sequence:
#
# PCOD8084967 Si02
#       7
#     8   8   8   8   8   8   8
#     4  10  20  34  49  63  85 119 155 188 225 268
#     4   9  15  25  41  58  82 113 144 175 209 255
#     4  10  19  29  45  66  88 113 147 189 227 260
#     4   9  16  24  35  55  82 109 139 172 207 250
#     4   9  17  30  45  63  88 119 149 179 219 269
#     4   9  16  27  42  58  78 109 146 181 215 253
#     4   9  16  25  37  54  78 109 141 172 209 254
#
# _framework density 15.918487000000001
#
# number of rings (size 3 to 8) (size 9 to 14) (size 15 to 20)
#    0.000    2.714    1.429    1.286    0.000    5.429 
#    0.000    0.000    0.000    0.000    0.000    0.000 
#    0.000    1.143    0.000   13.143    0.000    4.571 
#
# Total GULP energy -347169.857442 kJ/mol
# GULP energy per Si atom -12398.923480 kJ/mol
# Density = 1.588226 g / cm^3
# Si number density = 15.918487 Si / 1000 Ang^3
#
#
#
# Elastic Constant Matrix: (Units=GPa)
#
#
# Indices 1 2 3 4 5 6 
#
# 1 63.6467 43.6188 41.3050 0.0000 13.7915 0.0000
# 2 43.6188 104.0922 59.6173 -0.0002 20.4453 -0.0001
# 3 41.3050 59.6173 105.3292 0.0000 30.7014 0.0000
# 4 0.0000 -0.0002 0.0000 27.0157 0.0000 7.4819
# 5 13.7915 20.4453 30.7014 0.0000 22.1642 0.0000
# 6 0.0000 -0.0001 0.0000 7.4819 0.0000 18.0859
#
#
#
# Elastic Compliance Matrix: (Units=1/GPa)
#
#
# Indices 1 2 3 4 5 6 
#
# 1 0.024057 -0.006852 -0.005090 0.000000 -0.001598 0.000000
# 2 -0.006852 0.016312 -0.005707 0.000000 -0.002879 0.000000
# 3 -0.005090 -0.005707 0.020566 0.000000 -0.020057 0.000000
# 4 0.000000 0.000000 0.000000 0.041805 0.000000 -0.017294
# 5 -0.001598 -0.002879 -0.020057 0.000000 0.076550 0.000000
# 6 0.000000 0.000000 0.000000 -0.017294 0.000000 0.062446
#
#
# Mechanical properties :
#
#
# Convention : Reuss Voigt Hill
#
# Bulk Modulus (GPa) = 39.00396 62.46114 50.73255
# Shear Modulus (GPa) = 17.50829 22.02162 19.76496
#
# Velocity S-wave (km/s) = 3.32003 3.72344 3.52751
# Velocity P-wave (km/s) = 6.26516 7.60320 6.96638
#
# Compressibility (1/GPa) = 0.02563842
#
# Stress axis : x y z
#
# Youngs Moduli (GPa) = 41.56797 61.30520 48.62349
#
# Poissons Ratio (x) = 0.42004 0.24749
# Poissons Ratio (y) = 0.28481 0.27748
# Poissons Ratio (z) = 0.21158 0.34985
#
# Static dielectric constant tensor:
#      x y z
#    x 2.634620 0.000000 0.327400 
#    y 0.000000 3.141610 0.000000 
#    z 0.327400 0.000000 3.078700 
# 
# 
# High freq. dielectric constant tensor:
#      x y z
#    x 1.550860 0.000000 0.036310 
#    y 0.000000 1.621390 0.000000 
#    z 0.036310 0.000000 1.609140 
# 
# From -- ./inp_files/287396.got.cif
#   From: 2010.06.25/outbox.cif.g09.slc.cpg/sg12_144_cif.got.tgz:287396.got - 2010.06.28 00:19:55.
