data_PCOD8084829
_publ_section_title
;
Structure prediction by ZEFSAII (Michael W. Deem and Ramdas Pophale) SiO2 
 PCOD8084829
Probable space group: C 2/M
;
_chemical_formula_sum "Si O2"
_cell_formula_units_Z 56
_cell_length_a 18.635999
_cell_length_b 9.109669
_cell_length_c 18.196376
_cell_angle_alpha 90.000000
_cell_angle_beta 87.796998
_cell_angle_gamma 90.000000
_cell_volume 3086.875215
_symmetry_space_group_name_H-M "C 2/M"
_symmetry_group_IT_number 12
_symmetry_cell_setting 'monoclinic'
loop_
_space_group_symop_operation_xyz
x,y,z
-x,y,-z
-x,-y,-z
x,-y,z
1/2+x,1/2+y,z
1/2-x,1/2+y,-z
1/2-x,1/2-y,-z
1/2+x,1/2-y,z
loop_
_atom_site_type_symbol
_atom_site_label
_atom_site_fract_x
_atom_site_fract_y
_atom_site_fract_z
Si Si1 0.387359 0.325718 0.144560
Si Si2 0.344886 0.165543 0.553782
Si Si3 0.449338 0.325591 0.831610
Si Si4 0.824363 0.165851 0.413900
Si Si5 0.802938 0.329830 0.271172
Si Si6 0.636420 0.329663 0.303688
Si Si7 0.919299 0.827350 0.987353
O O1 0.376561 0.500000 0.153738
O O2 0.467371 0.279477 0.167255
O O3 0.329594 0.239966 0.194552
O O4 0.373225 0.273027 0.059868
O O5 0.259950 0.167260 0.568005
O O6 0.365187 0.253283 0.479005
O O7 0.382907 0.242476 0.621506
O O8 0.373738 0.000000 0.545497
O O9 0.443096 0.500000 0.831346
O O10 0.413502 0.263241 0.758966
O O11 0.403809 0.266009 0.905299
O O12 0.841877 0.250027 0.337811
O O13 0.853520 0.000000 0.406679
O O14 0.823376 0.500000 0.273821
O O15 0.718166 0.304830 0.276973
O O16 0.620706 0.500000 0.319480
O O17 0.911446 0.000000 0.985873
O O18 0.000000 0.781103 0.000000
#
# Coordination Sequence:
#
# PCOD8084829 Si02
#       7
#     8   8   8   8   8   8   8
#     4   9  16  28  48  69  87 112 150 191 225 259
#     4   9  16  26  42  65  91 116 144 181 223 262
#     4   8  14  27  48  69  86 111 152 193 221 253
#     4   9  16  27  44  64  86 115 152 186 214 253
#     4  10  19  29  42  64  95 123 145 176 222 270
#     4   9  17  29  45  65  90 120 151 181 216 262
#     4   7  11  22  43  68  86 105 144 193 226 250
#
# _framework density 18.141323
#
# number of rings (size 3 to 8) (size 9 to 14) (size 15 to 20)
#    0.000    3.286    0.000    3.000    0.000    4.000 
#    0.000    1.429    0.000    5.571    0.000    6.000 
#    0.000    0.000    0.000    0.000    0.000    0.000 
#
# Total GULP energy -346896.045189 kJ/mol
# GULP energy per Si atom -12389.144471 kJ/mol
# Density = 1.810003 g / cm^3
# Si number density = 18.141323 Si / 1000 Ang^3
#
#
#
# Elastic Constant Matrix: (Units=GPa)
#
#
# Indices 1 2 3 4 5 6 
#
# 1 13.3157 7.9976 0.3769 0.0000 7.4466 0.0000
# 2 7.9976 68.2395 13.3184 0.0000 2.8248 0.0000
# 3 0.3769 13.3184 54.0682 0.0000 19.6827 0.0000
# 4 0.0000 0.0000 0.0000 23.8027 0.0000 -4.7426
# 5 7.4466 2.8248 19.6827 0.0000 28.2085 0.0000
# 6 0.0000 0.0000 0.0000 -4.7426 0.0000 10.9866
#
#
#
# Elastic Compliance Matrix: (Units=1/GPa)
#
#
# Indices 1 2 3 4 5 6 
#
# 1 0.103841 -0.013801 0.016290 0.000000 -0.037397 0.000000
# 2 -0.013801 0.017275 -0.006509 0.000000 0.006455 0.000000
# 3 0.016290 -0.006509 0.028570 0.000000 -0.023583 0.000000
# 4 0.000000 0.000000 0.000000 0.045965 0.000000 0.019842
# 5 -0.037397 0.006455 -0.023583 0.000000 0.061132 0.000000
# 6 0.000000 0.000000 0.000000 0.019842 0.000000 0.099586
#
#
# Mechanical properties :
#
#
# Convention : Reuss Voigt Hill
#
# Bulk Modulus (GPa) = 7.05990 19.88990 13.47490
# Shear Modulus (GPa) = 12.14697 20.19492 16.17095
#
# Velocity S-wave (km/s) = 2.59042 3.34008 2.98885
# Velocity P-wave (km/s) = 3.58429 5.08552 4.39941
#
# Compressibility (1/GPa) = 0.14164499
#
# Stress axis : x y z
#
# Youngs Moduli (GPa) = 9.63008 57.88743 35.00162
#
# Poissons Ratio (x) = 0.79892 -0.57016
# Poissons Ratio (y) = 0.13291 0.22782
# Poissons Ratio (z) = -0.15687 0.37678
#
# Static dielectric constant tensor:
#      x y z
#    x 2.883510 0.000000 0.139240 
#    y 0.000000 3.134780 0.000000 
#    z 0.139240 0.000000 3.919010 
# 
# 
# High freq. dielectric constant tensor:
#      x y z
#    x 1.645070 0.000000 0.001140 
#    y 0.000000 1.676320 0.000000 
#    z 0.001140 0.000000 1.729030 
# 
# From -- ./inp_files/280294.got.cif
#   From: 2010.06.25/outbox.cif.g09.slc.cpg/sg12_141_cif.got.tgz:280294.got - 2010.06.28 00:19:55.
