data_PCOD8084696
_publ_section_title
;
Structure prediction by ZEFSAII (Michael W. Deem and Ramdas Pophale) SiO2 
 PCOD8084696
Probable space group: C 2/M
;
_chemical_formula_sum "Si O2"
_cell_formula_units_Z 64
_cell_length_a 27.717339
_cell_length_b 8.861961
_cell_length_c 20.640396
_cell_angle_alpha 90.000000
_cell_angle_beta 52.341675
_cell_angle_gamma 90.000000
_cell_volume 4013.678240
_symmetry_space_group_name_H-M "C 2/M"
_symmetry_group_IT_number 12
_symmetry_cell_setting 'monoclinic'
loop_
_space_group_symop_operation_xyz
x,y,z
-x,y,-z
-x,-y,-z
x,-y,z
1/2+x,1/2+y,z
1/2-x,1/2+y,-z
1/2-x,1/2-y,-z
1/2+x,1/2-y,z
loop_
_atom_site_type_symbol
_atom_site_label
_atom_site_fract_x
_atom_site_fract_y
_atom_site_fract_z
Si Si1 0.864966 0.824305 0.765310
Si Si2 0.624554 0.676603 0.972208
Si Si3 0.969822 0.326801 0.440556
Si Si4 0.062738 0.669674 0.910148
Si Si5 0.257905 0.822692 0.062966
Si Si6 0.519304 0.826452 0.266697
Si Si7 0.415264 0.326074 0.592122
Si Si8 0.501751 0.324015 0.147442
O O1 0.799370 0.777832 0.845805
O O2 0.915158 0.725351 0.760946
O O3 0.863538 0.791515 0.688706
O O4 0.880069 0.000000 0.766148
O O5 0.637913 0.500000 0.960084
O O6 0.611859 0.732635 0.909563
O O7 0.682250 0.762852 0.951843
O O8 0.568170 0.717156 0.065149
O O9 0.984512 0.500000 0.445698
O O10 0.909074 0.272205 0.530191
O O11 0.967075 0.307162 0.365126
O O12 0.022161 0.216965 0.423530
O O13 0.087593 0.500000 0.881541
O O14 0.051631 0.741317 0.848754
O O15 0.000000 0.672252 0.000000
O O16 0.263412 0.000000 0.049366
O O17 0.250000 0.750000 0.000000
O O18 0.497493 0.726929 0.224844
O O19 0.525135 0.000000 0.240209
O O20 0.414885 0.500000 0.572424
O O21 0.489109 0.500000 0.152313
#
# Coordination Sequence:
#
# PCOD8084696 Si02
#       8
#     8   8   8   8   8   8   8   8
#     4   9  19  32  43  58  83 114 148 184 218 252
#     4  10  20  33  47  64  86 113 146 182 218 254
#     4   9  16  25  37  57  83 108 135 171 212 251
#     4   9  17  30  48  67  85 108 140 176 215 259
#     4  11  22  34  46  62  86 116 150 186 220 252
#     4  10  19  28  41  62  88 116 145 176 212 257
#     4   9  15  25  41  57  75 105 142 175 209 252
#     4  10  19  30  45  64  88 115 142 176 216 256
#
# _framework density 15.945473
#
# number of rings (size 3 to 8) (size 9 to 14) (size 15 to 20)
#    0.000    2.375    0.000    4.125    0.000    9.000 
#    0.000    0.000    0.000    0.000    0.000    0.000 
#    0.000    1.000    0.000    3.000    0.000    5.125 
#
# Total GULP energy -396633.386220 kJ/mol
# GULP energy per Si atom -12394.793319 kJ/mol
# Density = 1.590918 g / cm^3
# Si number density = 15.945473 Si / 1000 Ang^3
#
#
#
# Elastic Constant Matrix: (Units=GPa)
#
#
# Indices 1 2 3 4 5 6 
#
# 1 70.7384 27.0504 42.0233 0.0029 14.2162 -0.0022
# 2 27.0504 62.5113 43.0057 0.0091 5.2553 -0.0103
# 3 42.0233 43.0057 111.4111 0.0085 14.6476 -0.0073
# 4 0.0029 0.0091 0.0085 25.3871 -0.0008 6.4818
# 5 14.2162 5.2553 14.6476 -0.0008 17.9960 0.0008
# 6 -0.0022 -0.0103 -0.0073 6.4818 0.0008 26.1295
#
#
#
# Elastic Compliance Matrix: (Units=1/GPa)
#
#
# Indices 1 2 3 4 5 6 
#
# 1 0.021040 -0.005063 -0.004469 0.000001 -0.011504 -0.000001
# 2 -0.005063 0.023004 -0.007405 -0.000007 0.003309 0.000008
# 3 -0.004469 -0.007405 0.014302 -0.000002 -0.005948 0.000001
# 4 0.000001 -0.000007 -0.000002 0.042054 0.000006 -0.010432
# 5 -0.011504 0.003309 -0.005948 0.000006 0.068531 -0.000005
# 6 -0.000001 0.000008 0.000001 -0.010432 -0.000005 0.040859
#
#
# Mechanical properties :
#
#
# Convention : Reuss Voigt Hill
#
# Bulk Modulus (GPa) = 40.86364 52.09108 46.47736
# Shear Modulus (GPa) = 19.85542 22.74128 21.29835
#
# Velocity S-wave (km/s) = 3.53258 3.78059 3.65869
# Velocity P-wave (km/s) = 6.50550 7.19697 6.85995
#
# Compressibility (1/GPa) = 0.02447164
#
# Stress axis : x y z
#
# Youngs Moduli (GPa) = 47.52953 43.47021 69.92010
#
# Poissons Ratio (x) = 0.22007 0.31249
# Poissons Ratio (y) = 0.24062 0.51778
# Poissons Ratio (z) = 0.21242 0.32191
#
# Static dielectric constant tensor:
#      x y z
#    x 2.700180 0.000010 0.189950 
#    y 0.000010 3.170350 0.000010 
#    z 0.189950 0.000010 3.509340 
# 
# 
# High freq. dielectric constant tensor:
#      x y z
#    x 1.565460 0.000000 0.025950 
#    y 0.000000 1.632220 0.000000 
#    z 0.025950 0.000000 1.610330 
# 
# From -- ./inp_files/326579.got.cif
#   From: 2010.06.25/outbox.cif.g09.slc.cpg/sg12_164_cif.got.tgz:326579.got - 2010.06.28 00:19:55.
