data_PCOD8084401
_publ_section_title
;
Structure prediction by ZEFSAII (Michael W. Deem and Ramdas Pophale) SiO2 
 PCOD8084401
Probable space group: C 2/M
;
_chemical_formula_sum "Si O2"
_cell_formula_units_Z 64
_cell_length_a 26.822456
_cell_length_b 14.856314
_cell_length_c 11.634554
_cell_angle_alpha 90.000000
_cell_angle_beta 42.347365
_cell_angle_gamma 90.000000
_cell_volume 3123.034065
_symmetry_space_group_name_H-M "C 2/M"
_symmetry_group_IT_number 12
_symmetry_cell_setting 'monoclinic'
loop_
_space_group_symop_operation_xyz
x,y,z
-x,y,-z
-x,-y,-z
x,-y,z
1/2+x,1/2+y,z
1/2-x,1/2+y,-z
1/2-x,1/2-y,-z
1/2+x,1/2-y,z
loop_
_atom_site_type_symbol
_atom_site_label
_atom_site_fract_x
_atom_site_fract_y
_atom_site_fract_z
Si Si1 0.142063 0.236308 0.117140
Si Si2 0.417546 0.094887 0.679681
Si Si3 0.662807 0.899765 0.657008
Si Si4 0.913265 0.215173 0.175827
Si Si5 0.185093 0.373601 0.361195
Si Si6 0.645557 0.399430 0.927684
Si Si7 0.708098 0.689353 0.237834
Si Si8 0.821215 0.898274 0.490636
O O1 0.086278 0.318268 0.232393
O O2 0.159132 0.184147 0.206554
O O3 0.107714 0.160244 0.093168
O O4 0.209663 0.288823 0.943224
O O5 0.500000 0.092608 0.500000
O O6 0.363800 0.095053 0.662010
O O7 0.400059 0.000000 0.775371
O O8 0.608690 0.820946 0.795714
O O9 0.654892 0.909230 0.533158
O O10 0.746431 0.873422 0.548570
O O11 0.642155 0.000000 0.742219
O O12 0.866975 0.153848 0.167585
O O13 0.887880 0.170348 0.340465
O O14 0.000000 0.205920 0.000000
O O15 0.267484 0.409308 0.196031
O O16 0.182304 0.266440 0.369692
O O17 0.610537 0.500000 0.984116
O O18 0.697278 0.603881 0.339876
O O19 0.845991 0.000000 0.419167
#
# Coordination Sequence:
#
# PCOD8084401 Si02
#       8
#     8   8   8   8   8   8   8   8
#     4   9  20  36  58  87 121 157 203 253 305 371
#     4  10  21  36  57  87 125 163 200 245 309 381
#     4  11  21  37  65  94 121 159 209 258 311 374
#     4  12  26  42  62  90 131 169 208 262 320 380
#     4  10  18  35  61  87 116 155 205 256 300 367
#     4  11  22  39  63  88 116 160 212 255 306 371
#     4   9  18  35  59  89 121 155 200 257 310 360
#     4  11  22  38  64  95 126 163 211 267 319 370
#
# _framework density 20.492891
#
# number of rings (size 3 to 8) (size 9 to 14) (size 15 to 20)
#    0.000    1.625    2.500    4.125    0.000    3.250 
#    0.000    0.625    0.000    0.375    0.000    0.000 
#    0.000    0.000    0.000    0.000    0.000    0.000 
#
# Total GULP energy -396451.355507 kJ/mol
# GULP energy per Si atom -12389.104860 kJ/mol
# Density = 2.044625 g / cm^3
# Si number density = 20.492891 Si / 1000 Ang^3
#
#
#
# Elastic Constant Matrix: (Units=GPa)
#
#
# Indices 1 2 3 4 5 6 
#
# 1 44.3437 29.0559 33.7266 0.0000 4.0042 0.0000
# 2 29.0559 142.7630 45.0414 0.0000 5.5362 0.0000
# 3 33.7266 45.0414 76.9807 0.0000 2.1403 0.0000
# 4 0.0000 0.0000 0.0000 23.4964 0.0000 -3.4107
# 5 4.0042 5.5362 2.1403 0.0000 33.6806 0.0000
# 6 0.0000 0.0000 0.0000 -3.4107 0.0000 39.4456
#
#
#
# Elastic Compliance Matrix: (Units=1/GPa)
#
#
# Indices 1 2 3 4 5 6 
#
# 1 0.034966 -0.002695 -0.013663 0.000000 -0.002846 0.000000
# 2 -0.002695 0.008839 -0.003966 0.000000 -0.000880 0.000000
# 3 -0.013663 -0.003966 0.021271 0.000000 0.000925 0.000000
# 4 0.000000 0.000000 0.000000 0.043101 0.000000 0.003727
# 5 -0.002846 -0.000880 0.000925 0.000000 0.030115 0.000000
# 6 0.000000 0.000000 0.000000 0.003727 0.000000 0.025674
#
#
# Mechanical properties :
#
#
# Convention : Reuss Voigt Hill
#
# Bulk Modulus (GPa) = 40.93884 53.30389 47.12136
# Shear Modulus (GPa) = 23.50110 29.74210 26.62160
#
# Velocity S-wave (km/s) = 3.39011 3.81378 3.60816
# Velocity P-wave (km/s) = 5.94510 6.74244 6.35629
#
# Compressibility (1/GPa) = 0.02442668
#
# Stress axis : x y z
#
# Youngs Moduli (GPa) = 28.59927 113.13959 47.01215
#
# Poissons Ratio (x) = 0.30496 0.64232
# Poissons Ratio (y) = 0.07709 0.18645
# Poissons Ratio (z) = 0.39075 0.44872
#
# Static dielectric constant tensor:
#      x y z
#    x 3.255600 0.000000 0.256770 
#    y 0.000000 4.387950 0.000000 
#    z 0.256770 0.000000 3.470920 
# 
# 
# High freq. dielectric constant tensor:
#      x y z
#    x 1.785400 0.000000 0.017520 
#    y 0.000000 1.818950 0.000000 
#    z 0.017520 0.000000 1.775770 
# 
# From -- ./inp_files/183777.got.cif
#   From: 2010.06.25/outbox.cif.g09.slc.cpg/sg12_92_cif.got.tgz:183777.got - 2010.06.28 00:19:55.
