data_PCOD8084965
_publ_section_title
;
Structure prediction by ZEFSAII (Michael W. Deem and Ramdas Pophale) SiO2 
 PCOD8084965
Probable space group: C 2/M
;
_chemical_formula_sum "Si O2"
_cell_formula_units_Z 64
_cell_length_a 24.141801
_cell_length_b 9.337833
_cell_length_c 23.953039
_cell_angle_alpha 90.000000
_cell_angle_beta 49.812123
_cell_angle_gamma 90.000000
_cell_volume 4125.070952
_symmetry_space_group_name_H-M "C 2/M"
_symmetry_group_IT_number 12
_symmetry_cell_setting 'monoclinic'
loop_
_space_group_symop_operation_xyz
x,y,z
-x,y,-z
-x,-y,-z
x,-y,z
1/2+x,1/2+y,z
1/2-x,1/2+y,-z
1/2-x,1/2-y,-z
1/2+x,1/2-y,z
loop_
_atom_site_type_symbol
_atom_site_label
_atom_site_fract_x
_atom_site_fract_y
_atom_site_fract_z
Si Si1 0.176430 0.835790 0.664591
Si Si2 0.173791 0.335469 0.105824
Si Si3 0.559360 0.165978 0.797163
Si Si4 0.964740 0.333102 0.964416
Si Si5 0.468578 0.837363 0.746900
Si Si6 0.284094 0.669820 0.529985
Si Si7 0.336927 0.666039 0.999705
Si Si8 0.421602 0.341487 0.381317
O O1 0.131542 0.762377 0.743978
O O2 0.251045 0.745257 0.606790
O O3 0.128928 0.824805 0.639852
O O4 0.194979 0.000000 0.667784
O O5 0.162122 0.500000 0.093265
O O6 0.116981 0.299667 0.192497
O O7 0.156570 0.232477 0.065747
O O8 0.255005 0.312546 0.075903
O O9 0.521007 0.210280 0.879549
O O10 0.503599 0.200398 0.783794
O O11 0.582497 0.000000 0.782026
O O12 0.944997 0.500000 0.973817
O O13 0.890580 0.244524 0.007302
O O14 0.000000 0.291165 0.000000
O O15 0.507028 0.755415 0.670798
O O16 0.481111 0.000000 0.722957
O O17 0.265274 0.500000 0.540710
O O18 0.250000 0.750000 0.500000
O O19 0.371546 0.693254 0.468240
O O20 0.357930 0.500000 0.982090
O O21 0.452739 0.500000 0.365823
#
# Coordination Sequence:
#
# PCOD8084965 Si02
#       8
#     8   8   8   8   8   8   8   8
#     4   9  16  24  35  51  71  97 129 168 204 237
#     4   9  17  30  44  61  85 111 140 173 212 256
#     4   9  16  27  41  56  74 101 136 170 205 247
#     4  10  20  34  49  62  82 112 143 177 217 262
#     4   9  15  24  39  55  75 104 135 168 200 241
#     4   9  15  23  33  47  69  99 132 165 197 235
#     4  10  19  29  45  65  84 107 137 178 218 253
#     4   8  15  23  31  48  74  99 128 163 197 234
#
# _framework density 15.514884
#
# number of rings (size 3 to 8) (size 9 to 14) (size 15 to 20)
#    0.000    2.875    1.250    1.875    0.000    5.250 
#    0.000    0.000    0.000    0.000    0.000    0.000 
#    0.000    0.000    0.000    1.125    0.000   22.875 
#
# Total GULP energy -396573.297175 kJ/mol
# GULP energy per Si atom -12392.915537 kJ/mol
# Density = 1.547957 g / cm^3
# Si number density = 15.514884 Si / 1000 Ang^3
#
#
#
# Elastic Constant Matrix: (Units=GPa)
#
#
# Indices 1 2 3 4 5 6 
#
# 1 54.3590 41.3661 41.5696 0.0011 -14.4613 -0.0015
# 2 41.3661 96.2387 62.3457 0.0025 -22.4064 -0.0068
# 3 41.5696 62.3457 112.3790 0.0004 -36.0350 -0.0009
# 4 0.0011 0.0025 0.0004 26.4456 0.0000 -8.1227
# 5 -14.4613 -22.4064 -36.0350 0.0000 21.5053 0.0003
# 6 -0.0015 -0.0068 -0.0009 -8.1227 0.0003 16.3769
#
#
#
# Elastic Compliance Matrix: (Units=1/GPa)
#
#
# Indices 1 2 3 4 5 6 
#
# 1 0.029824 -0.008806 -0.005744 -0.000001 0.001255 -0.000002
# 2 -0.008806 0.018976 -0.006115 0.000001 0.003604 0.000007
# 3 -0.005744 -0.006115 0.024064 0.000000 0.030088 -0.000003
# 4 -0.000001 0.000001 0.000000 0.044609 -0.000001 0.022125
# 5 0.001255 0.003604 0.030088 -0.000001 0.101516 0.000001
# 6 -0.000002 0.000007 -0.000003 0.022125 0.000001 0.072035
#
#
# Mechanical properties :
#
#
# Convention : Reuss Voigt Hill
#
# Bulk Modulus (GPa) = 31.71174 61.50438 46.60806
# Shear Modulus (GPa) = 14.58302 20.71192 17.64747
#
# Velocity S-wave (km/s) = 3.06917 3.65769 3.37628
# Velocity P-wave (km/s) = 5.74836 7.58726 6.73090
#
# Compressibility (1/GPa) = 0.03153406
#
# Stress axis : x y z
#
# Youngs Moduli (GPa) = 33.53024 52.69814 41.55652
#
# Poissons Ratio (x) = 0.46404 0.23872
# Poissons Ratio (y) = 0.29525 0.25411
# Poissons Ratio (z) = 0.19261 0.32223
#
# Static dielectric constant tensor:
#      x y z
#    x 2.548760 0.000000 -0.429820 
#    y 0.000000 3.079150 0.000000 
#    z -0.429820 0.000000 3.296640 
# 
# 
# High freq. dielectric constant tensor:
#      x y z
#    x 1.524620 0.000000 -0.040890 
#    y 0.000000 1.605800 0.000000 
#    z -0.040890 0.000000 1.598220 
# 
# From -- ./inp_files/350939.got.cif
#   From: 2010.06.25/outbox.cif.g09.slc.cpg/sg12_176_cif.got.tgz:350939.got - 2010.06.28 00:19:55.
