data_PCOD8084341
_publ_section_title
;
Structure prediction by ZEFSAII (Michael W. Deem and Ramdas Pophale) SiO2 
 PCOD8084341
Probable space group: C 2/M
;
_chemical_formula_sum "Si O2"
_cell_formula_units_Z 64
_cell_length_a 20.059155
_cell_length_b 8.806373
_cell_length_c 23.974185
_cell_angle_alpha 90.000000
_cell_angle_beta 51.139976
_cell_angle_gamma 90.000000
_cell_volume 3297.715571
_symmetry_space_group_name_H-M "C 2/M"
_symmetry_group_IT_number 12
_symmetry_cell_setting 'monoclinic'
loop_
_space_group_symop_operation_xyz
x,y,z
-x,y,-z
-x,-y,-z
x,-y,z
1/2+x,1/2+y,z
1/2-x,1/2+y,-z
1/2-x,1/2-y,-z
1/2+x,1/2-y,z
loop_
_atom_site_type_symbol
_atom_site_label
_atom_site_fract_x
_atom_site_fract_y
_atom_site_fract_z
Si Si1 0.437811 0.820331 0.180475
Si Si2 0.364276 0.321227 0.327510
Si Si3 0.567404 0.680433 0.589540
Si Si4 0.682989 0.323498 0.427911
Si Si5 0.722148 0.180662 0.809146
Si Si6 0.382658 0.323587 0.920842
Si Si7 0.747936 0.176489 0.088105
Si Si8 0.883621 0.176135 0.656556
O O1 0.419519 0.761814 0.251942
O O2 0.363724 0.764900 0.177218
O O3 0.527256 0.753495 0.112547
O O4 0.443340 0.000000 0.178946
O O5 0.375420 0.500000 0.314360
O O6 0.399599 0.263991 0.368232
O O7 0.265824 0.277595 0.374945
O O8 0.563509 0.500000 0.586571
O O9 0.632670 0.739620 0.508033
O O10 0.472884 0.750857 0.629627
O O11 0.709711 0.500000 0.419965
O O12 0.622900 0.298997 0.406067
O O13 0.722671 0.248872 0.870131
O O14 0.803033 0.247025 0.732006
O O15 0.724577 0.000000 0.811601
O O16 0.396583 0.500000 0.901538
O O17 0.339509 0.251713 0.888407
O O18 0.323902 0.292822 0.004999
O O19 0.730139 0.000000 0.106381
O O20 0.884846 0.000000 0.670906
#
# Coordination Sequence:
#
# PCOD8084341 Si02
#       8
#     8   8   8   8   8   8   8   8
#     4  11  23  40  60  86 117 155 201 244 289 345
#     4  11  22  35  53  82 116 151 190 238 297 354
#     4   9  19  32  54  84 109 143 194 242 288 347
#     4  10  18  35  59  80 108 147 192 241 289 346
#     4  10  21  37  59  85 117 157 198 242 292 346
#     4  10  22  41  64  90 121 157 191 233 287 342
#     4  10  22  40  63  92 123 153 191 236 285 343
#     4   9  17  33  55  82 111 143 190 241 287 339
#
# _framework density 19.407374000000001
#
# number of rings (size 3 to 8) (size 9 to 14) (size 15 to 20)
#    0.000    2.000    1.250    2.250    1.750    4.500 
#    0.000    3.125    0.000    3.750    0.000    0.000 
#    0.000    0.000    0.000    0.000    0.000    0.000 
#
# Total GULP energy -396888.648552 kJ/mol
# GULP energy per Si atom -12402.770267 kJ/mol
# Density = 1.936320 g / cm^3
# Si number density = 19.407374 Si / 1000 Ang^3
#
#
#
# Elastic Constant Matrix: (Units=GPa)
#
#
# Indices 1 2 3 4 5 6 
#
# 1 61.8242 15.4458 22.0906 0.0002 -6.2371 0.0013
# 2 15.4458 33.8341 19.3213 0.0001 -4.8951 0.0016
# 3 22.0906 19.3213 74.1789 0.0001 6.0034 0.0008
# 4 0.0002 0.0001 0.0001 28.9060 0.0000 1.0066
# 5 -6.2371 -4.8951 6.0034 0.0000 36.6117 0.0001
# 6 0.0013 0.0016 0.0008 1.0066 0.0001 26.1336
#
#
#
# Elastic Compliance Matrix: (Units=1/GPa)
#
#
# Indices 1 2 3 4 5 6 
#
# 1 0.019609 -0.005857 -0.004582 0.000000 0.003309 0.000000
# 2 -0.005857 0.037920 -0.008576 0.000000 0.005479 -0.000002
# 3 -0.004582 -0.008576 0.017467 0.000000 -0.004791 0.000000
# 4 0.000000 0.000000 0.000000 0.034641 0.000000 -0.001334
# 5 0.003309 0.005479 -0.004791 0.000000 0.029396 0.000000
# 6 0.000000 -0.000002 0.000000 -0.001334 0.000000 0.038316
#
#
# Mechanical properties :
#
#
# Convention : Reuss Voigt Hill
#
# Bulk Modulus (GPa) = 27.05153 31.50583 29.27868
# Shear Modulus (GPa) = 21.95863 25.86222 23.91042
#
# Velocity S-wave (km/s) = 3.36736 3.65444 3.51383
# Velocity P-wave (km/s) = 5.39332 5.83744 5.61977
#
# Compressibility (1/GPa) = 0.03696649
#
# Stress axis : x y z
#
# Youngs Moduli (GPa) = 50.99680 26.37142 57.25055
#
# Poissons Ratio (x) = 0.15444 0.26232
# Poissons Ratio (y) = 0.29866 0.49100
# Poissons Ratio (z) = 0.23367 0.22617
#
# Static dielectric constant tensor:
#      x y z
#    x 3.737440 0.000000 -0.048480 
#    y 0.000000 3.304910 0.000000 
#    z -0.048480 0.000000 3.692110 
# 
# 
# High freq. dielectric constant tensor:
#      x y z
#    x 1.769260 0.000000 -0.000550 
#    y 0.000000 1.730730 0.000000 
#    z -0.000550 0.000000 1.764510 
# 
# From -- ./inp_files/319808.got.cif
#   From: 2010.06.25/outbox.cif.g09.slc.cpg/sg12_160_cif.got.tgz:319808.got - 2010.06.28 00:19:55.
