data_PCOD8084138
_publ_section_title
;
Structure prediction by ZEFSAII (Michael W. Deem and Ramdas Pophale) SiO2 
 PCOD8084138
Probable space group: C 2/M
;
_chemical_formula_sum "Si O2"
_cell_formula_units_Z 56
_cell_length_a 15.415084
_cell_length_b 8.486488
_cell_length_c 22.809505
_cell_angle_alpha 90.000000
_cell_angle_beta 109.343170
_cell_angle_gamma 90.000000
_cell_volume 2815.499394
_symmetry_space_group_name_H-M "C 2/M"
_symmetry_group_IT_number 12
_symmetry_cell_setting 'monoclinic'
loop_
_space_group_symop_operation_xyz
x,y,z
-x,y,-z
-x,-y,-z
x,-y,z
1/2+x,1/2+y,z
1/2-x,1/2+y,-z
1/2-x,1/2-y,-z
1/2+x,1/2-y,z
loop_
_atom_site_type_symbol
_atom_site_label
_atom_site_fract_x
_atom_site_fract_y
_atom_site_fract_z
Si Si1 0.434358 0.685365 0.063509
Si Si2 0.822191 0.187264 0.149991
Si Si3 0.582828 0.181911 0.365276
Si Si4 0.780806 0.813779 0.373519
Si Si5 0.608100 0.315071 0.711384
Si Si6 0.900762 0.179824 0.506284
Si Si7 0.379006 0.814689 0.929268
O O1 0.419866 0.500000 0.051040
O O2 0.388079 0.747874 0.112755
O O3 0.542546 0.724680 0.089842
O O4 0.385922 0.776537 0.999518
O O5 0.858994 0.258819 0.219517
O O6 0.718569 0.246736 0.116366
O O7 0.824743 0.000000 0.151603
O O8 0.673219 0.230041 0.348270
O O9 0.499207 0.284648 0.322683
O O10 0.603524 0.211418 0.437864
O O11 0.558444 0.000000 0.350692
O O12 0.830932 0.740265 0.327589
O O13 0.827784 0.749159 0.443484
O O14 0.796647 0.000000 0.377294
O O15 0.624799 0.500000 0.716788
O O16 0.000000 0.189698 0.500000
O O17 0.877897 0.000000 0.519105
O O18 0.391279 0.000000 0.922562
#
# Coordination Sequence:
#
# PCOD8084138 Si02
#       7
#     8   8   8   8   8   8   8
#     4  10  19  34  54  82 112 141 173 219 271 315
#     4   9  20  35  56  79 104 140 185 221 260 310
#     4  11  22  35  53  83 112 135 169 225 278 310
#     4   9  19  35  56  78 104 138 177 215 262 319
#     4  10  20  40  59  73 101 147 186 216 253 320
#     4  10  18  34  59  81 101 139 183 213 257 327
#     4  10  19  34  55  83 109 140 180 219 261 316
#
# _framework density 19.889900999999998
#
# number of rings (size 3 to 8) (size 9 to 14) (size 15 to 20)
#    0.000    2.143    1.429    3.000    0.000    1.429 
#    0.000    8.571    0.000    0.000    0.000    0.000 
#    0.000    0.000    0.000    0.000    0.000    0.000 
#
# Total GULP energy -347225.292431 kJ/mol
# GULP energy per Si atom -12400.903301 kJ/mol
# Density = 1.984463 g / cm^3
# Si number density = 19.889901 Si / 1000 Ang^3
#
#
#
# Elastic Constant Matrix: (Units=GPa)
#
#
# Indices 1 2 3 4 5 6 
#
# 1 135.0386 5.2303 80.0050 0.0000 9.3544 0.0000
# 2 5.2303 20.1476 0.9582 0.0000 -1.6663 0.0000
# 3 80.0050 0.9582 142.6063 0.0000 6.0549 0.0000
# 4 0.0000 0.0000 0.0000 15.8567 0.0000 2.7734
# 5 9.3544 -1.6663 6.0549 0.0000 16.6070 0.0000
# 6 0.0000 0.0000 0.0000 2.7734 0.0000 23.9025
#
#
#
# Elastic Compliance Matrix: (Units=1/GPa)
#
#
# Indices 1 2 3 4 5 6 
#
# 1 0.011552 -0.003075 -0.006268 0.000000 -0.004530 0.000000
# 2 -0.003075 0.050911 0.001110 0.000000 0.006436 0.000000
# 3 -0.006268 0.001110 0.010530 0.000000 -0.000197 0.000000
# 4 0.000000 0.000000 0.000000 0.064371 0.000000 -0.007469
# 5 -0.004530 0.006436 -0.000197 0.000000 0.063485 0.000000
# 6 0.000000 0.000000 0.000000 -0.007469 0.000000 0.042703
#
#
# Mechanical properties :
#
#
# Convention : Reuss Voigt Hill
#
# Bulk Modulus (GPa) = 17.69081 52.24216 34.96648
# Shear Modulus (GPa) = 17.93017 25.37986 21.65502
#
# Velocity S-wave (km/s) = 3.00571 3.57601 3.30319
# Velocity P-wave (km/s) = 4.57814 6.58583 5.67153
#
# Compressibility (1/GPa) = 0.05652653
#
# Stress axis : x y z
#
# Youngs Moduli (GPa) = 86.56849 19.64194 94.97126
#
# Poissons Ratio (x) = 0.06041 0.59525
# Poissons Ratio (y) = 0.26623 -0.10542
# Poissons Ratio (z) = 0.54258 -0.02180
#
# Static dielectric constant tensor:
#      x y z
#    x 3.830420 0.000000 -0.083570 
#    y 0.000000 3.269430 0.000000 
#    z -0.083570 0.000000 3.806240 
# 
# 
# High freq. dielectric constant tensor:
#      x y z
#    x 1.790570 0.000000 0.000890 
#    y 0.000000 1.743880 0.000000 
#    z 0.000890 0.000000 1.773410 
# 
# From -- ./inp_files/338194.got.cif
#   From: 2010.06.25/outbox.cif.g09.slc.cpg/sg12_170_cif.got.tgz:338194.got - 2010.06.28 00:19:55.
