data_PCOD8084312
_publ_section_title
;
Structure prediction by ZEFSAII (Michael W. Deem and Ramdas Pophale) SiO2 
 PCOD8084312
Probable space group: C 2/M
;
_chemical_formula_sum "Si O2"
_cell_formula_units_Z 64
_cell_length_a 24.239880
_cell_length_b 19.813684
_cell_length_c 16.605878
_cell_angle_alpha 90.000000
_cell_angle_beta 156.050301
_cell_angle_gamma 90.000000
_cell_volume 3237.527530
_symmetry_space_group_name_H-M "C 2/M"
_symmetry_group_IT_number 12
_symmetry_cell_setting 'monoclinic'
loop_
_space_group_symop_operation_xyz
x,y,z
-x,y,-z
-x,-y,-z
x,-y,z
1/2+x,1/2+y,z
1/2-x,1/2+y,-z
1/2-x,1/2-y,-z
1/2+x,1/2-y,z
loop_
_atom_site_type_symbol
_atom_site_label
_atom_site_fract_x
_atom_site_fract_y
_atom_site_fract_z
Si Si1 0.077573 0.366706 0.678069
Si Si2 0.372840 0.077596 0.085666
Si Si3 0.548557 0.179559 0.940091
Si Si4 0.713965 0.166443 0.314598
Si Si5 0.559162 0.426270 0.332271
Si Si6 0.029130 0.234336 0.398788
Si Si7 0.126642 0.810072 0.957439
Si Si8 0.559462 0.399951 0.658400
O O1 0.000000 0.403692 0.500000
O O2 0.977179 0.305595 0.566795
O O3 0.089656 0.416438 0.769953
O O4 0.221959 0.338372 0.842164
O O5 0.220405 0.101349 0.867813
O O6 0.396166 0.000000 0.090822
O O7 0.461425 0.128260 0.148816
O O8 0.395603 0.191622 0.766912
O O9 0.610099 0.253583 0.003904
O O10 0.642204 0.146977 0.134462
O O11 0.825018 0.225768 0.450432
O O12 0.788285 0.099751 0.447992
O O13 0.564967 0.500000 0.298009
O O14 0.476094 0.373394 0.165893
O O15 0.482896 0.436209 0.315832
O O16 0.907491 0.227446 0.171688
O O17 0.005801 0.174821 0.431719
O O18 0.500000 0.437700 0.500000
#
# Coordination Sequence:
#
# PCOD8084312 Si02
#       8
#     8   8   8   8   8   8   8   8
#     4  12  22  36  58  83 117 156 196 244 299 348
#     4  12  24  37  54  83 120 158 196 241 295 358
#     4  11  21  39  59  87 123 151 198 239 299 360
#     4   9  22  37  60  89 117 153 190 243 296 355
#     4  10  21  37  57  85 117 154 201 238 292 360
#     4  10  18  35  57  87 111 144 192 240 291 353
#     4  10  20  36  62  85 115 155 193 250 295 350
#     4  10  19  32  56  85 114 144 185 236 296 359
#
# _framework density 19.768172
#
# number of rings (size 3 to 8) (size 9 to 14) (size 15 to 20)
#    0.000    1.750    3.750    4.125    0.000    5.250 
#    0.000    1.250    0.000    0.000    0.000    1.750 
#    0.000    0.125    0.000    0.000    0.000    0.000 
#
# Total GULP energy -396670.488994 kJ/mol
# GULP energy per Si atom -12395.952781 kJ/mol
# Density = 1.972318 g / cm^3
# Si number density = 19.768172 Si / 1000 Ang^3
#
#
#
# Elastic Constant Matrix: (Units=GPa)
#
#
# Indices 1 2 3 4 5 6 
#
# 1 81.6220 30.3961 50.1353 0.0000 3.5337 0.0000
# 2 30.3961 93.7996 13.5877 0.0000 17.3864 0.0000
# 3 50.1353 13.5877 109.2894 0.0000 5.4438 0.0000
# 4 0.0000 0.0000 0.0000 2.3369 0.0000 0.1016
# 5 3.5337 17.3864 5.4438 0.0000 28.8841 0.0000
# 6 0.0000 0.0000 0.0000 0.1016 0.0000 6.1276
#
#
#
# Elastic Compliance Matrix: (Units=1/GPa)
#
#
# Indices 1 2 3 4 5 6 
#
# 1 0.019288 -0.005517 -0.008288 0.000000 0.002524 0.000000
# 2 -0.005517 0.013721 0.001214 0.000000 -0.007813 0.000000
# 3 -0.008288 0.001214 0.012908 0.000000 -0.002150 0.000000
# 4 0.000000 0.000000 0.000000 0.428234 0.000000 -0.007104
# 5 0.002524 -0.007813 -0.002150 0.000000 0.039421 0.000000
# 6 0.000000 0.000000 0.000000 -0.007104 0.000000 0.163313
#
#
# Mechanical properties :
#
#
# Convention : Reuss Voigt Hill
#
# Bulk Modulus (GPa) = 48.22695 52.54989 50.38842
# Shear Modulus (GPa) = 7.05241 20.17585 13.61413
#
# Velocity S-wave (km/s) = 1.89085 3.19818 2.62714
# Velocity P-wave (km/s) = 5.40521 6.34655 5.89470
#
# Compressibility (1/GPa) = 0.02073530
#
# Stress axis : x y z
#
# Youngs Moduli (GPa) = 51.84655 72.87937 77.47118
#
# Poissons Ratio (x) = 0.40211 0.64206
# Poissons Ratio (y) = 0.28606 -0.09407
# Poissons Ratio (z) = 0.42969 -0.08850
#
# Static dielectric constant tensor:
#      x y z
#    x 3.507900 0.000000 -0.009750 
#    y 0.000000 3.491860 0.000000 
#    z -0.009750 0.000000 3.639430 
# 
# 
# High freq. dielectric constant tensor:
#      x y z
#    x 1.751140 0.000000 0.001620 
#    y 0.000000 1.753540 0.000000 
#    z 0.001620 0.000000 1.775080 
# 
# From -- ./inp_files/294183.got.cif
#   From: 2010.06.25/outbox.cif.g09.slc.cpg/sg12_148_cif.got.tgz:294183.got - 2010.06.28 00:19:55.
