data_PCOD8084331
_publ_section_title
;
Structure prediction by ZEFSAII (Michael W. Deem and Ramdas Pophale) SiO2 
 PCOD8084331
Probable space group: C 2/M
;
_chemical_formula_sum "Si O2"
_cell_formula_units_Z 48
_cell_length_a 14.664686
_cell_length_b 9.037560
_cell_length_c 18.972932
_cell_angle_alpha 90.000000
_cell_angle_beta 87.777365
_cell_angle_gamma 90.000000
_cell_volume 2512.647454
_symmetry_space_group_name_H-M "C 2/M"
_symmetry_group_IT_number 12
_symmetry_cell_setting 'monoclinic'
loop_
_space_group_symop_operation_xyz
x,y,z
-x,y,-z
-x,-y,-z
x,-y,z
1/2+x,1/2+y,z
1/2-x,1/2+y,-z
1/2-x,1/2-y,-z
1/2+x,1/2-y,z
loop_
_atom_site_type_symbol
_atom_site_label
_atom_site_fract_x
_atom_site_fract_y
_atom_site_fract_z
Si Si1 0.994292 0.826295 0.610819
Si Si2 0.151738 0.829119 0.843011
Si Si3 0.848137 0.172866 0.499396
Si Si4 0.008689 0.675897 0.758043
Si Si5 0.353582 0.171213 0.864862
Si Si6 0.393506 0.165364 0.014683
O O1 0.905045 0.784740 0.567650
O O2 0.088295 0.781395 0.568632
O O3 0.986707 0.733168 0.681538
O O4 0.995271 0.000000 0.627541
O O5 0.105200 0.736008 0.782402
O O6 0.258990 0.804935 0.827505
O O7 0.126307 0.774842 0.921233
O O8 0.123767 0.000000 0.837105
O O9 0.750000 0.250000 0.500000
O O10 0.828788 0.000000 0.498251
O O11 0.010075 0.500000 0.756423
O O12 0.932548 0.740878 0.813964
O O13 0.377587 0.000000 0.875038
O O14 0.350002 0.236890 0.944541
O O15 0.354762 0.000000 0.032370
O O16 0.500000 0.154157 0.000000
#
# Coordination Sequence:
#
# PCOD8084331 Si02
#       6
#     8   8   8   8   8   8
#     4   9  20  39  58  83 117 151 180 223 276 320
#     4  11  22  36  55  81 110 141 184 235 282 332
#     4   9  19  37  62  87 117 149 183 222 269 322
#     4  11  22  39  58  79 110 150 188 224 272 333
#     4   9  20  37  55  76 107 146 183 225 282 333
#     4  10  18  35  59  77 104 144 184 231 281 333
#
# _framework density 19.103356000000002
#
# number of rings (size 3 to 8) (size 9 to 14) (size 15 to 20)
#    0.000    2.167    1.667    2.500    0.000    3.000 
#    0.000   10.833    0.000    0.000    0.000    0.000 
#    0.000    0.000    0.000    0.000    0.000    0.000 
#
# Total GULP energy -297559.745988 kJ/mol
# GULP energy per Si atom -12398.322750 kJ/mol
# Density = 1.905988 g / cm^3
# Si number density = 19.103356 Si / 1000 Ang^3
#
#
#
# Elastic Constant Matrix: (Units=GPa)
#
#
# Indices 1 2 3 4 5 6 
#
# 1 108.4345 37.5786 39.7261 0.0000 15.3483 0.0000
# 2 37.5786 64.3894 43.2165 0.0000 7.8692 0.0000
# 3 39.7261 43.2165 117.5987 0.0000 19.2627 0.0000
# 4 0.0000 0.0000 0.0000 29.7425 0.0000 13.2970
# 5 15.3483 7.8692 19.2627 0.0000 20.9220 0.0000
# 6 0.0000 0.0000 0.0000 13.2970 0.0000 16.2606
#
#
#
# Elastic Compliance Matrix: (Units=1/GPa)
#
#
# Indices 1 2 3 4 5 6 
#
# 1 0.012486 -0.005818 -0.001104 0.000000 -0.005954 0.000000
# 2 -0.005818 0.023341 -0.006916 0.000000 0.001857 0.000000
# 3 -0.001104 -0.006916 0.012788 0.000000 -0.008362 0.000000
# 4 0.000000 0.000000 0.000000 0.052997 0.000000 -0.043338
# 5 -0.005954 0.001857 -0.008362 0.000000 0.059166 0.000000
# 6 0.000000 0.000000 0.000000 -0.043338 0.000000 0.096938
#
#
# Mechanical properties :
#
#
# Convention : Reuss Voigt Hill
#
# Bulk Modulus (GPa) = 47.76151 59.05167 53.40659
# Shear Modulus (GPa) = 17.10150 24.71177 20.90664
#
# Velocity S-wave (km/s) = 2.99525 3.60054 3.31175
# Velocity P-wave (km/s) = 6.08424 6.94723 6.53001
#
# Compressibility (1/GPa) = 0.02093736
#
# Stress axis : x y z
#
# Youngs Moduli (GPa) = 80.09064 42.84280 78.19777
#
# Poissons Ratio (x) = 0.24926 0.08637
# Poissons Ratio (y) = 0.46596 0.54085
# Poissons Ratio (z) = 0.08846 0.29632
#
# Static dielectric constant tensor:
#      x y z
#    x 3.644460 0.000000 0.039740 
#    y 0.000000 3.341520 0.000000 
#    z 0.039740 0.000000 3.540180 
# 
# 
# High freq. dielectric constant tensor:
#      x y z
#    x 1.751250 0.000000 0.008430 
#    y 0.000000 1.726300 0.000000 
#    z 0.008430 0.000000 1.744210 
# 
# From -- ./inp_files/267618.got.cif
#   From: 2010.06.25/outbox.cif.g09.slc.cpg/sg12_134_cif.got.tgz:267618.got - 2010.06.28 00:19:55.
