data_PCOD8084761
_publ_section_title
;
Structure prediction by ZEFSAII (Michael W. Deem and Ramdas Pophale) SiO2 
 PCOD8084761
Probable space group: C 2/M
;
_chemical_formula_sum "Si O2"
_cell_formula_units_Z 64
_cell_length_a 28.933808
_cell_length_b 10.389270
_cell_length_c 18.404622
_cell_angle_alpha 90.000000
_cell_angle_beta 133.069782
_cell_angle_gamma 90.000000
_cell_volume 4041.579710
_symmetry_space_group_name_H-M "C 2/M"
_symmetry_group_IT_number 12
_symmetry_cell_setting 'monoclinic'
loop_
_space_group_symop_operation_xyz
x,y,z
-x,y,-z
-x,-y,-z
x,-y,z
1/2+x,1/2+y,z
1/2-x,1/2+y,-z
1/2-x,1/2-y,-z
1/2+x,1/2-y,z
loop_
_atom_site_type_symbol
_atom_site_label
_atom_site_fract_x
_atom_site_fract_y
_atom_site_fract_z
Si Si1 0.680421 0.645582 0.651298
Si Si2 0.101114 0.356257 0.632122
Si Si3 0.003834 0.862232 0.917027
Si Si4 0.369494 0.646415 0.703215
Si Si5 0.565264 0.862252 0.025469
Si Si6 0.985598 0.643809 0.601798
Si Si7 0.095384 0.854288 0.421473
Si Si8 0.181736 0.646601 0.253967
O O1 0.666064 0.500000 0.662803
O O2 0.655014 0.746955 0.683847
O O3 0.648388 0.669963 0.538970
O O4 0.754894 0.668588 0.723752
O O5 0.131277 0.500000 0.669257
O O6 0.056714 0.347381 0.514900
O O7 0.058480 0.329542 0.657783
O O8 0.055232 0.750023 0.954157
O O9 0.937730 0.824691 0.810482
O O10 0.026804 0.000000 0.910233
O O11 0.000000 0.871876 0.000000
O O12 0.348073 0.500000 0.698860
O O13 0.370674 0.668447 0.618563
O O14 0.320258 0.750065 0.682744
O O15 0.578610 0.000000 0.001743
O O16 0.500000 0.871760 0.000000
O O17 0.623126 0.824756 0.138766
O O18 0.979349 0.500000 0.629361
O O19 0.962533 0.753296 0.633160
O O20 0.068048 0.000000 0.397040
O O21 0.179123 0.500000 0.281955
#
# Coordination Sequence:
#
# PCOD8084761 Si02
#       8
#     8   8   8   8   8   8   8   8
#     4   9  18  30  41  57  84 114 142 171 201 238
#     4   8  14  26  44  63  81 103 134 172 209 241
#     4   9  15  25  41  58  74  97 129 169 211 244
#     4  10  19  29  41  58  81 110 143 175 204 239
#     4   9  15  25  41  58  74  97 129 169 211 244
#     4   8  14  26  44  63  81 103 134 172 209 241
#     4   9  18  30  41  57  84 114 142 171 201 238
#     4  10  19  29  41  58  81 110 143 175 204 239
#
# _framework density 15.835393
#
# number of rings (size 3 to 8) (size 9 to 14) (size 15 to 20)
#    0.000    3.000    2.500    0.750    0.000    2.000 
#    0.000    2.500    0.000    0.000    0.000    0.000 
#    0.000    1.000    0.000    2.250    0.000    4.000 
#
# Total GULP energy -396432.757321 kJ/mol
# GULP energy per Si atom -12388.523666 kJ/mol
# Density = 1.579935 g / cm^3
# Si number density = 15.835393 Si / 1000 Ang^3
#
#
#
# Elastic Constant Matrix: (Units=GPa)
#
#
# Indices 1 2 3 4 5 6 
#
# 1 58.2585 53.4322 13.1868 0.0000 18.2444 0.0000
# 2 53.4322 135.7885 12.2333 0.0000 14.6619 0.0000
# 3 13.1868 12.2333 26.6943 0.0000 12.8218 0.0000
# 4 0.0000 0.0000 0.0000 17.2379 0.0000 2.5074
# 5 18.2444 14.6619 12.8218 0.0000 10.7594 0.0000
# 6 0.0000 0.0000 0.0000 2.5074 0.0000 29.3087
#
#
#
# Elastic Compliance Matrix: (Units=1/GPa)
#
#
# Indices 1 2 3 4 5 6 
#
# 1 0.064288 -0.013970 0.041769 0.000000 -0.139750 0.000000
# 2 -0.013970 0.011854 -0.005030 0.000000 0.013529 0.000000
# 3 0.041769 -0.005030 0.116603 0.000000 -0.202927 0.000000
# 4 0.000000 0.000000 0.000000 0.058743 0.000000 -0.005026
# 5 -0.139750 0.013529 -0.202927 0.000000 0.553303 0.000000
# 6 0.000000 0.000000 0.000000 -0.005026 0.000000 0.034550
#
#
# Mechanical properties :
#
#
# Convention : Reuss Voigt Hill
#
# Bulk Modulus (GPa) = 4.19669 42.04954 23.12311
# Shear Modulus (GPa) = 5.72588 20.92045 13.32316
#
# Velocity S-wave (km/s) = 1.90361 3.63866 2.90376
# Velocity P-wave (km/s) = 2.73634 6.65319 5.08687
#
# Compressibility (1/GPa) = 0.23828319
#
# Stress axis : x y z
#
# Youngs Moduli (GPa) = 15.55499 84.35999 8.57614
#
# Poissons Ratio (x) = 1.17854 -0.35822
# Poissons Ratio (y) = 0.21731 0.04313
# Poissons Ratio (z) = -0.64972 0.42429
#
# Static dielectric constant tensor:
#      x y z
#    x 2.823160 0.000000 0.112320 
#    y 0.000000 4.325440 0.000000 
#    z 0.112320 0.000000 2.744860 
# 
# 
# High freq. dielectric constant tensor:
#      x y z
#    x 1.564460 0.000000 0.015310 
#    y 0.000000 1.636180 0.000000 
#    z 0.015310 0.000000 1.572470 
# 
# From -- ./inp_files/292765.got.cif
#   From: 2010.06.25/outbox.cif.g09.slc.cpg/sg12_147_cif.got.tgz:292765.got - 2010.06.28 00:19:55.
