data_PCOD8084047
_publ_section_title
;
Structure prediction by ZEFSAII (Michael W. Deem and Ramdas Pophale) SiO2 
 PCOD8084047
Probable space group: C 2/M
;
_chemical_formula_sum "Si O2"
_cell_formula_units_Z 48
_cell_length_a 14.775429
_cell_length_b 8.948094
_cell_length_c 19.243626
_cell_angle_alpha 90.000000
_cell_angle_beta 91.617279
_cell_angle_gamma 90.000000
_cell_volume 2543.223388
_symmetry_space_group_name_H-M "C 2/M"
_symmetry_group_IT_number 12
_symmetry_cell_setting 'monoclinic'
loop_
_space_group_symop_operation_xyz
x,y,z
-x,y,-z
-x,-y,-z
x,-y,z
1/2+x,1/2+y,z
1/2-x,1/2+y,-z
1/2-x,1/2-y,-z
1/2+x,1/2-y,z
loop_
_atom_site_type_symbol
_atom_site_label
_atom_site_fract_x
_atom_site_fract_y
_atom_site_fract_z
Si Si1 0.648932 0.827394 0.363352
Si Si2 0.893830 0.332474 0.488630
Si Si3 0.649246 0.671674 0.652468
Si Si4 0.005498 0.322124 0.739052
Si Si5 0.496319 0.822687 0.894411
Si Si6 0.151146 0.676949 0.000481
O O1 0.648022 0.760210 0.441541
O O2 0.745093 0.806143 0.329040
O O3 0.574256 0.754304 0.311022
O O4 0.622766 0.000000 0.372806
O O5 0.855959 0.500000 0.472719
O O6 0.869883 0.223312 0.425849
O O7 0.000000 0.340426 0.500000
O O8 0.619545 0.500000 0.658743
O O9 0.600054 0.770018 0.709171
O O10 0.002689 0.500000 0.740958
O O11 0.994683 0.256784 0.816464
O O12 0.589143 0.769720 0.934027
O O13 0.496827 0.000000 0.894241
O O14 0.404952 0.770406 0.932263
O O15 0.165107 0.500000 0.000391
O O16 0.250000 0.750000 0.000000
#
# Coordination Sequence:
#
# PCOD8084047 Si02
#       6
#     8   8   8   8   8   8
#     4   9  19  34  52  73  99 132 173 213 257 308
#     4  10  18  34  57  74  93 133 182 217 247 310
#     4  11  22  34  50  78 108 131 163 220 274 307
#     4  10  19  37  57  72  98 143 181 207 245 309
#     4   8  17  33  55  77 104 139 177 209 244 301
#     4   9  17  33  55  83 108 135 172 211 251 299
#
# _framework density 18.873685999999999
#
# number of rings (size 3 to 8) (size 9 to 14) (size 15 to 20)
#    0.000    2.500    1.667    2.000    0.000    1.667 
#    0.000    7.500    0.000    0.000    0.000    0.000 
#    0.000    0.000    0.000    0.000    0.000    0.000 
#
# Total GULP energy -297501.196500 kJ/mol
# GULP energy per Si atom -12395.883187 kJ/mol
# Density = 1.883073 g / cm^3
# Si number density = 18.873686 Si / 1000 Ang^3
#
#
#
# Elastic Constant Matrix: (Units=GPa)
#
#
# Indices 1 2 3 4 5 6 
#
# 1 121.3494 22.3048 57.7651 0.0000 -14.2421 0.0000
# 2 22.3048 23.9658 18.8170 0.0000 0.8746 0.0000
# 3 57.7651 18.8170 157.1385 0.0000 -16.8607 0.0000
# 4 0.0000 0.0000 0.0000 4.4781 0.0000 -8.2258
# 5 -14.2421 0.8746 -16.8607 0.0000 17.1770 0.0000
# 6 0.0000 0.0000 0.0000 -8.2258 0.0000 27.7318
#
#
#
# Elastic Compliance Matrix: (Units=1/GPa)
#
#
# Indices 1 2 3 4 5 6 
#
# 1 0.012135 -0.009690 -0.002423 0.000000 0.008176 0.000000
# 2 -0.009690 0.054979 -0.004677 0.000000 -0.015424 0.000000
# 3 -0.002423 -0.004677 0.008522 0.000000 0.006594 0.000000
# 4 0.000000 0.000000 0.000000 0.490647 0.000000 0.145536
# 5 0.008176 -0.015424 0.006594 0.000000 0.072254 0.000000
# 6 0.000000 0.000000 0.000000 0.145536 0.000000 0.079228
#
#
# Mechanical properties :
#
#
# Convention : Reuss Voigt Hill
#
# Bulk Modulus (GPa) = 23.77720 55.58083 39.67901
# Shear Modulus (GPa) = 6.53284 23.44850 14.99067
#
# Velocity S-wave (km/s) = 1.86249 3.52858 2.82132
# Velocity P-wave (km/s) = 4.15338 6.79073 5.62870
#
# Compressibility (1/GPa) = 0.04205710
#
# Stress axis : x y z
#
# Youngs Moduli (GPa) = 82.40787 18.18880 117.34113
#
# Poissons Ratio (x) = 0.17624 0.28434
# Poissons Ratio (y) = 0.79849 0.54876
# Poissons Ratio (z) = 0.19969 0.08506
#
# Static dielectric constant tensor:
#      x y z
#    x 3.562020 0.000000 0.004020 
#    y 0.000000 3.098160 0.000000 
#    z 0.004020 0.000000 3.839150 
# 
# 
# High freq. dielectric constant tensor:
#      x y z
#    x 1.741680 0.000000 -0.005300 
#    y 0.000000 1.691850 0.000000 
#    z -0.005300 0.000000 1.737300 
# 
# From -- ./inp_files/267648.got.cif
#   From: 2010.06.25/outbox.cif.g09.slc.cpg/sg12_134_cif.got.tgz:267648.got - 2010.06.28 00:19:55.
