data_PCOD8084700
_publ_section_title
;
Structure prediction by ZEFSAII (Michael W. Deem and Ramdas Pophale) SiO2 
 PCOD8084700
Probable space group: C 2/M
;
_chemical_formula_sum "Si O2"
_cell_formula_units_Z 64
_cell_length_a 22.420113
_cell_length_b 9.329507
_cell_length_c 23.347502
_cell_angle_alpha 90.000000
_cell_angle_beta 125.909069
_cell_angle_gamma 90.000000
_cell_volume 3955.437155
_symmetry_space_group_name_H-M "C 2/M"
_symmetry_group_IT_number 12
_symmetry_cell_setting 'monoclinic'
loop_
_space_group_symop_operation_xyz
x,y,z
-x,y,-z
-x,-y,-z
x,-y,z
1/2+x,1/2+y,z
1/2-x,1/2+y,-z
1/2-x,1/2-y,-z
1/2+x,1/2-y,z
loop_
_atom_site_type_symbol
_atom_site_label
_atom_site_fract_x
_atom_site_fract_y
_atom_site_fract_z
Si Si1 0.675910 0.830345 0.941946
Si Si2 0.428510 0.335523 0.035208
Si Si3 0.267009 0.833040 0.780036
Si Si4 0.449548 0.163895 0.351386
Si Si5 0.846681 0.835280 0.375383
Si Si6 0.659463 0.163963 0.802193
Si Si7 0.569633 0.841044 0.496624
Si Si8 0.096675 0.836323 0.109851
O O1 0.609797 0.774383 0.943683
O O2 0.655603 0.789120 0.865617
O O3 0.685727 0.000000 0.956047
O O4 0.750000 0.750000 0.000000
O O5 0.413035 0.500000 0.044625
O O6 0.514973 0.302023 0.085590
O O7 0.396629 0.308387 0.954077
O O8 0.234423 0.809974 0.697294
O O9 0.218153 0.758788 0.801360
O O10 0.348358 0.767329 0.825349
O O11 0.270533 0.000000 0.797367
O O12 0.402169 0.275466 0.360004
O O13 0.423720 0.181657 0.270851
O O14 0.536358 0.196114 0.414088
O O15 0.433124 0.000000 0.362883
O O16 0.862141 0.759073 0.445416
O O17 0.863606 0.000000 0.394990
O O18 0.686386 0.000000 0.811794
O O19 0.500000 0.824906 0.500000
O O20 0.602502 0.000000 0.515727
O O21 0.117316 0.000000 0.135276
#
# Coordination Sequence:
#
# PCOD8084700 Si02
#       8
#     8   8   8   8   8   8   8   8
#     4  11  22  33  47  67  90 117 146 176 213 254
#     4   9  19  35  51  67  86 109 141 179 217 257
#     4  10  19  28  41  64  90 115 145 179 213 249
#     4   8  14  25  38  51  72 105 143 177 204 238
#     4   9  16  23  32  52  82 110 135 167 207 249
#     4   9  18  31  44  59  84 118 150 177 210 255
#     4   8  13  21  34  51  71 101 140 174 203 239
#     4   9  18  33  51  66  83 111 143 175 215 260
#
# _framework density 16.180259
#
# number of rings (size 3 to 8) (size 9 to 14) (size 15 to 20)
#    0.000    2.875    0.000    3.375    0.000    8.750 
#    0.000    1.250    0.000    0.000    0.000    0.000 
#    0.000    1.000    0.000    2.250    0.000    5.625 
#
# Total GULP energy -396478.781296 kJ/mol
# GULP energy per Si atom -12389.961915 kJ/mol
# Density = 1.614343 g / cm^3
# Si number density = 16.180259 Si / 1000 Ang^3
#
#
#
# Elastic Constant Matrix: (Units=GPa)
#
#
# Indices 1 2 3 4 5 6 
#
# 1 49.4404 34.4363 40.2807 0.0000 4.9903 0.0000
# 2 34.4363 94.4907 70.1093 0.0000 13.1731 0.0000
# 3 40.2807 70.1093 148.2818 0.0000 15.9617 0.0000
# 4 0.0000 0.0000 0.0000 25.8386 0.0000 3.0824
# 5 4.9903 13.1731 15.9617 0.0000 15.9416 0.0000
# 6 0.0000 0.0000 0.0000 3.0824 0.0000 21.5544
#
#
#
# Elastic Compliance Matrix: (Units=1/GPa)
#
#
# Indices 1 2 3 4 5 6 
#
# 1 0.028906 -0.007399 -0.004526 0.000000 0.001597 0.000000
# 2 -0.007399 0.018810 -0.006119 0.000000 -0.007100 0.000000
# 3 -0.004526 -0.006119 0.011398 0.000000 -0.004939 0.000000
# 4 0.000000 0.000000 0.000000 0.039373 0.000000 -0.005631
# 5 0.001597 -0.007100 -0.004939 0.000000 0.073041 0.000000
# 6 0.000000 0.000000 0.000000 -0.005631 0.000000 0.047200
#
#
# Mechanical properties :
#
#
# Convention : Reuss Voigt Hill
#
# Bulk Modulus (GPa) = 43.42966 64.65172 54.04069
# Shear Modulus (GPa) = 19.04817 22.49270 20.77043
#
# Velocity S-wave (km/s) = 3.43483 3.73249 3.58675
# Velocity P-wave (km/s) = 6.52917 7.65632 7.11510
#
# Compressibility (1/GPa) = 0.02302574
#
# Stress axis : x y z
#
# Youngs Moduli (GPa) = 34.59458 53.16399 87.73267
#
# Poissons Ratio (x) = 0.39337 0.39706
# Poissons Ratio (y) = 0.25597 0.53685
# Poissons Ratio (z) = 0.15657 0.32532
#
# Static dielectric constant tensor:
#      x y z
#    x 2.558760 0.000000 0.177220 
#    y 0.000000 3.134140 0.000000 
#    z 0.177220 0.000000 3.722590 
# 
# 
# High freq. dielectric constant tensor:
#      x y z
#    x 1.554160 0.000000 0.019250 
#    y 0.000000 1.630130 0.000000 
#    z 0.019250 0.000000 1.643760 
# 
# From -- ./inp_files/350975.got.cif
#   From: 2010.06.25/outbox.cif.g09.slc.cpg/sg12_176_cif.got.tgz:350975.got - 2010.06.28 00:19:55.
