data_PCOD8084774
_publ_section_title
;
Structure prediction by ZEFSAII (Michael W. Deem and Ramdas Pophale) SiO2 
 PCOD8084774
Probable space group: C 2/M
;
_chemical_formula_sum "Si O2"
_cell_formula_units_Z 64
_cell_length_a 26.203646
_cell_length_b 9.060248
_cell_length_c 14.784300
_cell_angle_alpha 90.000000
_cell_angle_beta 99.357315
_cell_angle_gamma 90.000000
_cell_volume 3463.258202
_symmetry_space_group_name_H-M "C 2/M"
_symmetry_group_IT_number 12
_symmetry_cell_setting 'monoclinic'
loop_
_space_group_symop_operation_xyz
x,y,z
-x,y,-z
-x,-y,-z
x,-y,z
1/2+x,1/2+y,z
1/2-x,1/2+y,-z
1/2-x,1/2-y,-z
1/2+x,1/2-y,z
loop_
_atom_site_type_symbol
_atom_site_label
_atom_site_fract_x
_atom_site_fract_y
_atom_site_fract_z
Si Si1 0.589308 0.171960 0.384278
Si Si2 0.932640 0.826207 0.789962
Si Si3 0.039549 0.328079 0.846933
Si Si4 0.699955 0.671219 0.948395
Si Si5 0.107929 0.331530 0.587522
Si Si6 0.094956 0.171760 0.017472
Si Si7 0.146603 0.666186 0.782093
Si Si8 0.989117 0.159645 0.395548
O O1 0.606539 0.261445 0.299036
O O2 0.620337 0.216535 0.486609
O O3 0.529472 0.216544 0.376052
O O4 0.595197 0.000000 0.365966
O O5 0.909200 0.780257 0.879562
O O6 0.990388 0.760164 0.793666
O O7 0.934882 0.000000 0.779528
O O8 0.025604 0.500000 0.850402
O O9 0.087400 0.297265 0.793466
O O10 0.053262 0.266472 0.950200
O O11 0.711897 0.500000 0.946227
O O12 0.686575 0.726259 0.843373
O O13 0.750000 0.750000 0.000000
O O14 0.652775 0.708388 0.001772
O O15 0.087032 0.500000 0.576397
O O16 0.154617 0.320276 0.674449
O O17 0.067280 0.228225 0.625924
O O18 0.081550 0.000000 0.999355
O O19 0.159517 0.500000 0.817114
O O20 0.000000 0.118507 0.500000
O O21 0.992488 0.000000 0.343522
#
# Coordination Sequence:
#
# PCOD8084774 Si02
#       8
#     8   8   8   8   8   8   8   8
#     4  10  19  29  41  60  88 125 167 206 241 274
#     4  11  21  32  46  65  94 134 173 204 236 276
#     4  10  19  30  47  71  98 129 166 205 240 278
#     4  10  20  36  57  79 100 120 146 186 238 293
#     4   9  17  29  44  62  90 126 161 199 240 281
#     4   9  20  36  51  69  96 129 161 194 238 291
#     4   9  18  32  49  71  98 128 160 193 235 286
#     4   9  16  25  38  57  83 119 163 205 240 274
#
# _framework density 18.479707999999999
#
# number of rings (size 3 to 8) (size 9 to 14) (size 15 to 20)
#    0.000    2.375    0.000    3.000    0.000    7.000 
#    0.000    0.000    0.000    0.000    0.000    0.875 
#    0.000    0.000    0.000    0.000    0.000    0.000 
#
# Total GULP energy -396444.382508 kJ/mol
# GULP energy per Si atom -12388.886953 kJ/mol
# Density = 1.843765 g / cm^3
# Si number density = 18.479708 Si / 1000 Ang^3
#
#
#
# Elastic Constant Matrix: (Units=GPa)
#
#
# Indices 1 2 3 4 5 6 
#
# 1 34.8245 22.3468 30.4252 0.0000 14.1081 0.0000
# 2 22.3468 78.7121 55.2570 0.0000 12.0672 0.0000
# 3 30.4252 55.2570 172.6647 0.0000 7.9713 0.0000
# 4 0.0000 0.0000 0.0000 30.5896 0.0000 1.5988
# 5 14.1081 12.0672 7.9713 0.0000 16.8401 0.0000
# 6 0.0000 0.0000 0.0000 1.5988 0.0000 18.5567
#
#
#
# Elastic Compliance Matrix: (Units=1/GPa)
#
#
# Indices 1 2 3 4 5 6 
#
# 1 0.052176 -0.004952 -0.005883 0.000000 -0.037378 0.000000
# 2 -0.004952 0.018478 -0.004724 0.000000 -0.006856 0.000000
# 3 -0.005883 -0.004724 0.008134 0.000000 0.004464 0.000000
# 4 0.000000 0.000000 0.000000 0.032839 0.000000 -0.002829
# 5 -0.037378 -0.006856 0.004464 0.000000 0.093496 0.000000
# 6 0.000000 0.000000 0.000000 -0.002829 0.000000 0.054133
#
#
# Mechanical properties :
#
#
# Convention : Reuss Voigt Hill
#
# Bulk Modulus (GPa) = 20.97847 55.80659 38.39253
# Shear Modulus (GPa) = 16.32573 25.07544 20.70059
#
# Velocity S-wave (km/s) = 2.97550 3.68763 3.35054
# Velocity P-wave (km/s) = 4.81473 6.95672 5.98237
#
# Compressibility (1/GPa) = 0.04766792
#
# Stress axis : x y z
#
# Youngs Moduli (GPa) = 19.16587 54.11817 122.93942
#
# Poissons Ratio (x) = 0.26802 0.72331
# Poissons Ratio (y) = 0.09492 0.58080
# Poissons Ratio (z) = 0.11276 0.25567
#
# Static dielectric constant tensor:
#      x y z
#    x 2.737250 0.000000 0.007130 
#    y 0.000000 3.474420 0.000000 
#    z 0.007130 0.000000 3.916620 
# 
# 
# High freq. dielectric constant tensor:
#      x y z
#    x 1.637480 0.000000 0.002590 
#    y 0.000000 1.728940 0.000000 
#    z 0.002590 0.000000 1.745200 
# 
# From -- ./inp_files/244047.got.cif
#   From: 2010.06.25/outbox.cif.g09.slc.cpg/sg12_123_cif.got.tgz:244047.got - 2010.06.28 00:19:55.
