data_PCOD8084917
_publ_section_title
;
Structure prediction by ZEFSAII (Michael W. Deem and Ramdas Pophale) SiO2 
 PCOD8084917
Probable space group: C 2/M
;
_chemical_formula_sum "Si O2"
_cell_formula_units_Z 56
_cell_length_a 30.285967
_cell_length_b 13.545841
_cell_length_c 8.980318
_cell_angle_alpha 90.000000
_cell_angle_beta 107.248582
_cell_angle_gamma 90.000000
_cell_volume 3518.478590
_symmetry_space_group_name_H-M "C 2/M"
_symmetry_group_IT_number 12
_symmetry_cell_setting 'monoclinic'
loop_
_space_group_symop_operation_xyz
x,y,z
-x,y,-z
-x,-y,-z
x,-y,z
1/2+x,1/2+y,z
1/2-x,1/2+y,-z
1/2-x,1/2-y,-z
1/2+x,1/2-y,z
loop_
_atom_site_type_symbol
_atom_site_label
_atom_site_fract_x
_atom_site_fract_y
_atom_site_fract_z
Si Si1 0.820323 0.700957 0.647686
Si Si2 0.764156 0.889366 0.594219
Si Si3 0.092450 0.386044 0.767540
Si Si4 0.500000 0.882768 0.832369
Si Si5 0.764156 0.110634 0.934093
Si Si6 0.679677 0.799043 0.007041
Si Si7 0.092450 0.386044 0.417361
O O1 0.805834 0.814213 0.601137
O O2 0.779170 0.629020 0.556120
O O3 0.830667 0.681244 0.830667
O O4 0.865885 0.680290 0.599380
O O5 0.747045 0.874776 0.747046
O O6 0.782791 0.000000 0.585771
O O7 0.101418 0.500000 0.820760
O O8 0.087720 0.373620 0.587720
O O9 0.045592 0.344494 0.794015
O O10 0.134115 0.319711 0.867610
O O11 0.454409 0.844494 0.702832
O O12 0.500000 0.000000 0.830432
O O13 0.500000 0.841107 0.000000
O O14 0.805834 0.185787 0.010531
O O15 0.782791 0.000000 0.979810
O O16 0.720830 0.129020 0.997780
O O17 0.101418 0.500000 0.382076
#
# Coordination Sequence:
#
# PCOD8084917 Si02
#       7
#     8   8   8   8   8   8   8
#     4  10  19  29  44  66  88 113 148 184 216 254
#     4   9  18  32  46  61  86 118 148 180 219 260
#     4  10  19  30  44  63  90 121 147 173 212 261
#     4   9  17  29  45  65  88 113 144 181 215 250
#     4   9  18  32  46  61  86 118 148 180 219 260
#     4  10  19  29  44  66  88 113 148 184 216 254
#     4  10  19  30  44  63  90 121 147 173 212 261
#
# _framework density 15.91597
#
# number of rings (size 3 to 8) (size 9 to 14) (size 15 to 20)
#    0.000    2.429    0.000    3.000    0.000    8.571 
#    0.000    0.000    0.000    0.000    0.000    1.000 
#    0.000    8.000    0.000    0.000    0.000    0.000 
#
# Total GULP energy -347242.304583 kJ/mol
# GULP energy per Si atom -12401.510878 kJ/mol
# Density = 1.587974 g / cm^3
# Si number density = 15.915970 Si / 1000 Ang^3
#
#
#
# Elastic Constant Matrix: (Units=GPa)
#
#
# Indices 1 2 3 4 5 6 
#
# 1 120.4586 43.4163 47.5966 0.0000 1.0818 0.0000
# 2 43.4163 83.4591 34.5433 0.0000 4.8486 0.0000
# 3 47.5966 34.5433 95.6064 0.0000 12.4984 0.0000
# 4 0.0000 0.0000 0.0000 19.4144 0.0000 0.3006
# 5 1.0818 4.8486 12.4984 0.0000 29.2026 0.0000
# 6 0.0000 0.0000 0.0000 0.3006 0.0000 19.9647
#
#
#
# Elastic Compliance Matrix: (Units=1/GPa)
#
#
# Indices 1 2 3 4 5 6 
#
# 1 0.011618 -0.004302 -0.004520 0.000000 0.002218 0.000000
# 2 -0.004302 0.015683 -0.003395 0.000000 -0.000991 0.000000
# 3 -0.004520 -0.003395 0.014661 0.000000 -0.005544 0.000000
# 4 0.000000 0.000000 0.000000 0.051520 0.000000 -0.000776
# 5 0.002218 -0.000991 -0.005544 0.000000 0.036699 0.000000
# 6 0.000000 0.000000 0.000000 -0.000776 0.000000 0.050100
#
#
# Mechanical properties :
#
#
# Convention : Reuss Voigt Hill
#
# Bulk Modulus (GPa) = 57.04987 61.18183 59.11585
# Shear Modulus (GPa) = 23.74664 25.31421 24.53042
#
# Velocity S-wave (km/s) = 3.86683 3.99242 3.93013
# Velocity P-wave (km/s) = 7.47387 7.73153 7.60379
#
# Compressibility (1/GPa) = 0.01752852
#
# Stress axis : x y z
#
# Youngs Moduli (GPa) = 86.07289 63.76479 68.20887
#
# Poissons Ratio (x) = 0.27432 0.30827
# Poissons Ratio (y) = 0.37029 0.23156
# Poissons Ratio (z) = 0.38901 0.21647
#
# Static dielectric constant tensor:
#      x y z
#    x 3.023810 0.000000 -0.069210 
#    y 0.000000 2.877580 0.000000 
#    z -0.069210 0.000000 3.150460 
# 
# 
# High freq. dielectric constant tensor:
#      x y z
#    x 1.608430 0.000000 -0.008840 
#    y 0.000000 1.579120 0.000000 
#    z -0.008840 0.000000 1.624610 
# 
# From -- ./inp_files/103991.got.cif
#   From: 2010.06.25/outbox.cif.g09.slc.cpg/sg12_52_cif.got.tgz:103991.got - 2010.06.28 00:19:55.
