data_PCOD8084116
_publ_section_title
;
Structure prediction by ZEFSAII (Michael W. Deem and Ramdas Pophale) SiO2 
 PCOD8084116
Probable space group: C 2/M
;
_chemical_formula_sum "Si O2"
_cell_formula_units_Z 48
_cell_length_a 27.221764
_cell_length_b 13.414637
_cell_length_c 9.365449
_cell_angle_alpha 90.000000
_cell_angle_beta 135.144982
_cell_angle_gamma 90.000000
_cell_volume 2412.165297
_symmetry_space_group_name_H-M "C 2/M"
_symmetry_group_IT_number 12
_symmetry_cell_setting 'monoclinic'
loop_
_space_group_symop_operation_xyz
x,y,z
-x,y,-z
-x,-y,-z
x,-y,z
1/2+x,1/2+y,z
1/2-x,1/2+y,-z
1/2-x,1/2-y,-z
1/2+x,1/2-y,z
loop_
_atom_site_type_symbol
_atom_site_label
_atom_site_fract_x
_atom_site_fract_y
_atom_site_fract_z
Si Si1 0.684554 0.111896 0.917176
Si Si2 0.322925 0.385102 0.526937
Si Si3 0.942043 0.114592 0.269816
Si Si4 0.571418 0.709700 0.060689
Si Si5 0.162569 0.806637 0.735152
Si Si6 0.335368 0.888543 0.803485
O O1 0.647540 0.188743 0.732015
O O2 0.687470 0.000000 0.857266
O O3 0.758332 0.160133 0.100754
O O4 0.646377 0.109507 0.990713
O O5 0.318028 0.500000 0.473312
O O6 0.372336 0.370516 0.765507
O O7 0.362623 0.329005 0.477862
O O8 0.243387 0.348227 0.390248
O O9 0.870473 0.126793 0.207907
O O10 0.000000 0.152965 0.500000
O O11 0.953858 0.000000 0.249366
O O12 0.944242 0.183141 0.135033
O O13 0.608136 0.817232 0.154240
O O14 0.500000 0.707785 0.000000
O O15 0.343894 0.000000 0.757244
#
# Coordination Sequence:
#
# PCOD8084116 Si02
#       6
#     8   8   8   8   8   8
#     4   9  17  32  59  87 112 144 185 239 290 337
#     4  10  21  38  61  88 121 155 190 241 304 355
#     4  11  23  38  57  83 115 151 195 240 291 352
#     4  12  24  38  58  87 120 159 199 241 293 351
#     4  10  18  34  58  85 113 145 186 234 288 344
#     4   9  19  39  62  85 117 157 197 241 295 349
#
# _framework density 19.899132000000002
#
# number of rings (size 3 to 8) (size 9 to 14) (size 15 to 20)
#    0.000    1.833    1.667    4.500    0.000    3.000 
#    0.000    0.833    0.000    4.000    0.000    0.000 
#    0.000    0.000    0.000    0.000    0.000    0.000 
#
# Total GULP energy -297497.617196 kJ/mol
# GULP energy per Si atom -12395.734050 kJ/mol
# Density = 1.985384 g / cm^3
# Si number density = 19.899132 Si / 1000 Ang^3
#
#
#
# Elastic Constant Matrix: (Units=GPa)
#
#
# Indices 1 2 3 4 5 6 
#
# 1 57.5207 18.4841 27.4228 0.0000 0.2345 0.0000
# 2 18.4841 100.6262 35.6607 0.0000 3.7402 0.0000
# 3 27.4228 35.6607 90.2222 0.0000 -8.5901 0.0000
# 4 0.0000 0.0000 0.0000 23.9835 0.0000 -7.6421
# 5 0.2345 3.7402 -8.5901 0.0000 21.9533 0.0000
# 6 0.0000 0.0000 0.0000 -7.6421 0.0000 22.5183
#
#
#
# Elastic Compliance Matrix: (Units=1/GPa)
#
#
# Indices 1 2 3 4 5 6 
#
# 1 0.020716 -0.001646 -0.005859 0.000000 -0.002233 0.000000
# 2 -0.001646 0.012018 -0.004615 0.000000 -0.003836 0.000000
# 3 -0.005859 -0.004615 0.015341 0.000000 0.006852 0.000000
# 4 0.000000 0.000000 0.000000 0.046751 0.000000 0.015866
# 5 -0.002233 -0.003836 0.006852 0.000000 0.048910 0.000000
# 6 0.000000 0.000000 0.000000 0.015866 0.000000 0.049793
#
#
# Mechanical properties :
#
#
# Convention : Reuss Voigt Hill
#
# Bulk Modulus (GPa) = 41.95402 45.72272 43.83837
# Shear Modulus (GPa) = 22.15195 24.81112 23.48153
#
# Velocity S-wave (km/s) = 3.34010 3.53490 3.43888
# Velocity P-wave (km/s) = 6.00035 6.29983 6.15191
#
# Compressibility (1/GPa) = 0.02383562
#
# Stress axis : x y z
#
# Youngs Moduli (GPa) = 48.27141 83.20661 65.18501
#
# Poissons Ratio (x) = 0.13697 0.38189
# Poissons Ratio (y) = 0.07946 0.30084
# Poissons Ratio (z) = 0.28280 0.38401
#
# Static dielectric constant tensor:
#      x y z
#    x 3.606160 0.000000 -0.128500 
#    y 0.000000 3.756030 0.000000 
#    z -0.128500 0.000000 3.664390 
# 
# 
# High freq. dielectric constant tensor:
#      x y z
#    x 1.767300 0.000000 -0.004140 
#    y 0.000000 1.776930 0.000000 
#    z -0.004140 0.000000 1.759250 
# 
# From -- ./inp_files/105041.got.cif
#   From: 2010.06.25/outbox.cif.g09.slc.cpg/sg12_53_cif.got.tgz:105041.got - 2010.06.28 00:19:55.
