data_PCOD8084299
_publ_section_title
;
Structure prediction by ZEFSAII (Michael W. Deem and Ramdas Pophale) SiO2 
 PCOD8084299
Probable space group: C 2/M
;
_chemical_formula_sum "Si O2"
_cell_formula_units_Z 48
_cell_length_a 16.777164
_cell_length_b 29.323007
_cell_length_c 15.969857
_cell_angle_alpha 90.000000
_cell_angle_beta 162.224132
_cell_angle_gamma 90.000000
_cell_volume 2398.538624
_symmetry_space_group_name_H-M "C 2/M"
_symmetry_group_IT_number 12
_symmetry_cell_setting 'monoclinic'
loop_
_space_group_symop_operation_xyz
x,y,z
-x,y,-z
-x,-y,-z
x,-y,z
1/2+x,1/2+y,z
1/2-x,1/2+y,-z
1/2-x,1/2-y,-z
1/2+x,1/2-y,z
loop_
_atom_site_type_symbol
_atom_site_label
_atom_site_fract_x
_atom_site_fract_y
_atom_site_fract_z
Si Si1 0.065668 0.142394 0.469503
Si Si2 0.697200 0.180199 0.886378
Si Si3 0.047413 0.388934 0.860038
Si Si4 0.443815 0.600427 0.040753
Si Si5 0.956039 0.767613 0.639451
Si Si6 0.047105 0.446890 0.379355
O O1 0.000000 0.136185 0.500000
O O2 0.328668 0.114460 0.712507
O O3 0.136996 0.195725 0.522897
O O4 0.834312 0.120090 0.183793
O O5 0.491109 0.146099 0.725708
O O6 0.559809 0.221327 0.696555
O O7 0.896208 0.151732 0.028124
O O8 0.823125 0.205399 0.090913
O O9 0.029914 0.437799 0.795550
O O10 0.682848 0.578040 0.328606
O O11 0.500000 0.605039 0.000000
O O12 0.184585 0.570162 0.792111
O O13 0.750000 0.750000 0.500000
O O14 0.088599 0.500000 0.435287
#
# Coordination Sequence:
#
# PCOD8084299 Si02
#       6
#     8   8   8   8   8   8
#     4  11  22  37  58  89 120 154 197 248 302 349
#     4   9  20  35  55  80 113 162 202 238 287 345
#     4  10  20  39  61  81 116 153 198 245 295 358
#     4  11  24  40  58  91 130 160 195 247 311 358
#     4  10  18  35  56  80 114 158 206 248 278 339
#     4  11  23  41  67  91 113 156 208 246 297 374
#
# _framework density 20.012184999999999
#
# number of rings (size 3 to 8) (size 9 to 14) (size 15 to 20)
#    0.000    1.667    1.667    4.500    2.333    2.000 
#    3.000    0.000    0.000    3.000    0.000    0.000 
#    0.000    0.000    0.000    0.000    0.000    0.000 
#
# Total GULP energy -297378.178774 kJ/mol
# GULP energy per Si atom -12390.757449 kJ/mol
# Density = 1.996664 g / cm^3
# Si number density = 20.012185 Si / 1000 Ang^3
#
#
#
# Elastic Constant Matrix: (Units=GPa)
#
#
# Indices 1 2 3 4 5 6 
#
# 1 118.2315 40.2326 17.6403 -0.0025 21.9000 0.0014
# 2 40.2326 110.9435 33.7692 -0.0005 7.3223 0.0009
# 3 17.6403 33.7692 84.5917 -0.0018 21.8558 0.0103
# 4 -0.0025 -0.0005 -0.0018 21.2769 0.0011 1.1955
# 5 21.9000 7.3223 21.8558 0.0011 33.7408 0.0050
# 6 0.0014 0.0009 0.0103 1.1955 0.0050 19.0527
#
#
#
# Elastic Compliance Matrix: (Units=1/GPa)
#
#
# Indices 1 2 3 4 5 6 
#
# 1 0.010877 -0.003803 0.001034 0.000002 -0.006904 0.000001
# 2 -0.003803 0.011598 -0.004593 -0.000001 0.002927 0.000001
# 3 0.001034 -0.004593 0.016040 0.000002 -0.010064 -0.000006
# 4 0.000002 -0.000001 0.000002 0.047166 -0.000003 -0.002960
# 5 -0.006904 0.002927 -0.010064 -0.000003 0.040003 -0.000004
# 6 0.000001 0.000001 -0.000006 -0.002960 -0.000004 0.052672
#
#
# Mechanical properties :
#
#
# Convention : Reuss Voigt Hill
#
# Bulk Modulus (GPa) = 42.03555 55.22789 48.63172
# Shear Modulus (GPa) = 24.87453 29.62238 27.24845
#
# Velocity S-wave (km/s) = 3.52940 3.85153 3.69398
# Velocity P-wave (km/s) = 6.13673 6.88739 6.52287
#
# Compressibility (1/GPa) = 0.02378939
#
# Stress axis : x y z
#
# Youngs Moduli (GPa) = 91.93877 86.22413 62.34565
#
# Poissons Ratio (x) = 0.32795 -0.06446
# Poissons Ratio (y) = 0.34968 0.28635
# Poissons Ratio (z) = -0.09506 0.39602
#
# Static dielectric constant tensor:
#      x y z
#    x 3.388930 0.014550 0.289390 
#    y 0.014550 12.643400 -0.039570 
#    z 0.289390 -0.039570 3.167480 
# 
# 
# High freq. dielectric constant tensor:
#      x y z
#    x 1.761880 0.000000 0.019270 
#    y 0.000000 1.779290 0.000000 
#    z 0.019270 0.000000 1.783420 
# 
# From -- ./inp_files/219605.got.cif
#   From: 2010.06.25/outbox.cif.g09.slc.cpg/sg12_110_cif.got.tgz:219605.got - 2010.06.28 00:19:55.
