data_PCOD8084279
_publ_section_title
;
Structure prediction by ZEFSAII (Michael W. Deem and Ramdas Pophale) SiO2 
 PCOD8084279
Probable space group: C 2/M
;
_chemical_formula_sum "Si O2"
_cell_formula_units_Z 56
_cell_length_a 28.670070
_cell_length_b 13.315294
_cell_length_c 12.249024
_cell_angle_alpha 90.000000
_cell_angle_beta 141.426841
_cell_angle_gamma 90.000000
_cell_volume 2915.592338
_symmetry_space_group_name_H-M "C 2/M"
_symmetry_group_IT_number 12
_symmetry_cell_setting 'monoclinic'
loop_
_space_group_symop_operation_xyz
x,y,z
-x,y,-z
-x,-y,-z
x,-y,z
1/2+x,1/2+y,z
1/2-x,1/2+y,-z
1/2-x,1/2-y,-z
1/2+x,1/2-y,z
loop_
_atom_site_type_symbol
_atom_site_label
_atom_site_fract_x
_atom_site_fract_y
_atom_site_fract_z
Si Si1 0.214455 0.782344 0.758757
Si Si2 0.037895 0.115960 0.952290
Si Si3 0.292619 0.886573 0.087145
Si Si4 0.059720 0.248613 0.373509
Si Si5 0.436578 0.116578 0.217428
Si Si6 0.077609 0.382749 0.200738
Si Si7 0.147627 0.291103 0.135096
O O1 0.228813 0.677635 0.846884
O O2 0.129604 0.796161 0.566524
O O3 0.267290 0.785069 0.749357
O O4 0.235024 0.870288 0.881581
O O5 0.982153 0.153761 0.755754
O O6 0.057324 0.000000 0.966425
O O7 0.114543 0.178937 0.086130
O O8 0.000000 0.132024 0.000000
O O9 0.376306 0.858841 0.200613
O O10 0.287007 0.000000 0.115445
O O11 0.086524 0.326802 0.331125
O O12 0.007943 0.310790 0.364467
O O13 0.460894 0.000000 0.265437
O O14 0.402630 0.140744 0.036807
O O15 0.081791 0.500000 0.232492
O O16 0.145816 0.347685 0.248071
O O17 0.000000 0.351255 0.000000
#
# Coordination Sequence:
#
# PCOD8084279 Si02
#       7
#     8   8   8   8   8   8   8
#     4  10  23  36  57  81 112 144 177 230 280 329
#     4  10  19  35  54  72 103 150 192 217 246 304
#     4   9  20  41  60  78 105 145 187 226 279 334
#     4  11  20  34  53  86 117 139 179 226 276 317
#     4   9  17  32  59  84 105 138 180 227 277 328
#     4  11  19  32  56  85 115 144 178 221 270 327
#     4  10  18  35  54  77 109 148 186 214 265 324
#
# _framework density 19.207073999999999
#
# number of rings (size 3 to 8) (size 9 to 14) (size 15 to 20)
#    0.000    2.000    4.286    0.857    0.000    4.000 
#    0.000    1.429    0.000    0.000    0.000    8.000 
#    0.000    0.000    0.000    0.000    0.000    0.000 
#
# Total GULP energy -347235.390418 kJ/mol
# GULP energy per Si atom -12401.263943 kJ/mol
# Density = 1.916336 g / cm^3
# Si number density = 19.207074 Si / 1000 Ang^3
#
#
#
# Elastic Constant Matrix: (Units=GPa)
#
#
# Indices 1 2 3 4 5 6 
#
# 1 58.2620 2.7709 1.0981 0.0000 6.1048 0.0000
# 2 2.7709 48.1245 -10.2934 0.0000 0.2285 0.0000
# 3 1.0981 -10.2934 56.0228 0.0000 13.3204 0.0000
# 4 0.0000 0.0000 0.0000 9.0777 0.0000 5.5576
# 5 6.1048 0.2285 13.3204 0.0000 23.3186 0.0000
# 6 0.0000 0.0000 0.0000 5.5576 0.0000 24.6556
#
#
#
# Elastic Compliance Matrix: (Units=1/GPa)
#
#
# Indices 1 2 3 4 5 6 
#
# 1 0.017718 -0.000848 0.000692 0.000000 -0.005025 0.000000
# 2 -0.000848 0.021838 0.004660 0.000000 -0.002654 0.000000
# 3 0.000692 0.004660 0.021693 0.000000 -0.012618 0.000000
# 4 0.000000 0.000000 0.000000 0.127796 0.000000 -0.028806
# 5 -0.005025 -0.002654 -0.012618 0.000000 0.051434 0.000000
# 6 0.000000 0.000000 0.000000 -0.028806 0.000000 0.047052
#
#
# Mechanical properties :
#
#
# Convention : Reuss Voigt Hill
#
# Bulk Modulus (GPa) = 14.23391 16.61783 15.42587
# Shear Modulus (GPa) = 16.55949 22.66597 19.61273
#
# Velocity S-wave (km/s) = 2.93943 3.43896 3.19896
# Velocity P-wave (km/s) = 4.35284 4.94362 4.65760
#
# Compressibility (1/GPa) = 0.07025475
#
# Stress axis : x y z
#
# Youngs Moduli (GPa) = 56.44066 45.79259 46.09834
#
# Poissons Ratio (x) = 0.03885 -0.03189
# Poissons Ratio (y) = 0.04788 -0.21482
# Poissons Ratio (z) = -0.03904 -0.21339
#
# Static dielectric constant tensor:
#      x y z
#    x 3.684520 0.000000 0.055790 
#    y 0.000000 3.477270 0.000000 
#    z 0.055790 0.000000 3.209500 
# 
# 
# High freq. dielectric constant tensor:
#      x y z
#    x 1.754900 0.000000 -0.002440 
#    y 0.000000 1.746670 0.000000 
#    z -0.002440 0.000000 1.716120 
# 
# From -- ./inp_files/183545.got.cif
#   From: 2010.06.25/outbox.cif.g09.slc.cpg/sg12_92_cif.got.tgz:183545.got - 2010.06.28 00:19:55.
