data_PCOD8084140
_publ_section_title
;
Structure prediction by ZEFSAII (Michael W. Deem and Ramdas Pophale) SiO2 
 PCOD8084140
Probable space group: C 2/M
;
_chemical_formula_sum "Si O2"
_cell_formula_units_Z 56
_cell_length_a 30.948351
_cell_length_b 9.117482
_cell_length_c 19.882966
_cell_angle_alpha 90.000000
_cell_angle_beta 148.768172
_cell_angle_gamma 90.000000
_cell_volume 2909.002585
_symmetry_space_group_name_H-M "C 2/M"
_symmetry_group_IT_number 12
_symmetry_cell_setting 'monoclinic'
loop_
_space_group_symop_operation_xyz
x,y,z
-x,y,-z
-x,-y,-z
x,-y,z
1/2+x,1/2+y,z
1/2-x,1/2+y,-z
1/2-x,1/2-y,-z
1/2+x,1/2-y,z
loop_
_atom_site_type_symbol
_atom_site_label
_atom_site_fract_x
_atom_site_fract_y
_atom_site_fract_z
Si Si1 0.000713 0.172225 0.076263
Si Si2 0.471446 0.669214 0.665736
Si Si3 0.942877 0.831345 0.361959
Si Si4 0.306828 0.838047 0.482028
Si Si5 0.725828 0.175152 0.897806
Si Si6 0.108817 0.171668 0.950822
Si Si7 0.659197 0.161174 0.318564
O O1 0.075970 0.245294 0.215768
O O2 0.916513 0.211283 0.005862
O O3 0.016844 0.000000 0.096417
O O4 0.000000 0.236866 0.000000
O O5 0.451977 0.500000 0.657495
O O6 0.502967 0.687576 0.632352
O O7 0.387501 0.760622 0.559839
O O8 0.541153 0.737894 0.808476
O O9 0.860641 0.732043 0.247541
O O10 0.000000 0.777828 0.500000
O O11 0.914986 0.000000 0.334695
O O12 0.306129 0.855592 0.560851
O O13 0.224656 0.742115 0.355869
O O14 0.299095 0.000000 0.438709
O O15 0.721789 0.000000 0.902235
O O16 0.750000 0.250000 0.000000
O O17 0.797766 0.224990 0.940704
O O18 0.105318 0.000000 0.933653
O O19 0.641274 0.000000 0.264174
#
# Coordination Sequence:
#
# PCOD8084140 Si02
#       7
#     8   8   8   8   8   8   8
#     4  10  20  36  57  78 108 148 187 230 284 338
#     4  10  18  34  59  81 109 147 186 232 289 343
#     4  10  22  41  61  84 119 157 194 238 296 357
#     4  10  20  33  53  82 108 137 183 232 275 326
#     4  11  21  37  62  90 120 153 198 246 294 352
#     4   9  18  34  57  83 110 144 187 236 287 342
#     4  10  20  34  53  77 108 142 180 226 280 330
#
# _framework density 19.250585000000001
#
# number of rings (size 3 to 8) (size 9 to 14) (size 15 to 20)
#    0.000    2.000    2.857    1.286    0.000    2.286 
#    2.571    1.429    0.000    0.000    0.000    0.000 
#    0.000    0.000    0.000    0.000    0.000    0.000 
#
# Total GULP energy -347105.408918 kJ/mol
# GULP energy per Si atom -12396.621747 kJ/mol
# Density = 1.920677 g / cm^3
# Si number density = 19.250585 Si / 1000 Ang^3
#
#
#
# Elastic Constant Matrix: (Units=GPa)
#
#
# Indices 1 2 3 4 5 6 
#
# 1 117.0997 50.2087 53.5857 0.0000 16.6402 0.0000
# 2 50.2087 81.0550 45.8199 0.0000 16.9372 0.0000
# 3 53.5857 45.8199 93.8661 0.0000 18.8751 0.0000
# 4 0.0000 0.0000 0.0000 26.9087 0.0000 5.7571
# 5 16.6402 16.9372 18.8751 0.0000 41.4124 0.0000
# 6 0.0000 0.0000 0.0000 5.7571 0.0000 20.1043
#
#
#
# Elastic Compliance Matrix: (Units=1/GPa)
#
#
# Indices 1 2 3 4 5 6 
#
# 1 0.013080 -0.005233 -0.004718 0.000000 -0.000965 0.000000
# 2 -0.005233 0.019606 -0.005938 0.000000 -0.003210 0.000000
# 3 -0.004718 -0.005938 0.016927 0.000000 -0.003391 0.000000
# 4 0.000000 0.000000 0.000000 0.039588 0.000000 -0.011337
# 5 -0.000965 -0.003210 -0.003391 0.000000 0.027393 0.000000
# 6 0.000000 0.000000 0.000000 -0.011337 0.000000 0.052987
#
#
# Mechanical properties :
#
#
# Convention : Reuss Voigt Hill
#
# Bulk Modulus (GPa) = 56.07018 65.69438 60.88228
# Shear Modulus (GPa) = 24.11901 27.17884 25.64892
#
# Velocity S-wave (km/s) = 3.54347 3.76153 3.65413
# Velocity P-wave (km/s) = 6.77726 7.28460 7.03551
#
# Compressibility (1/GPa) = 0.01783479
#
# Stress axis : x y z
#
# Youngs Moduli (GPa) = 76.45328 51.00420 59.07620
#
# Poissons Ratio (x) = 0.26692 0.27874
# Poissons Ratio (y) = 0.40011 0.35077
# Poissons Ratio (z) = 0.36073 0.30284
#
# Static dielectric constant tensor:
#      x y z
#    x 3.628570 0.000000 0.170530 
#    y 0.000000 3.585770 0.000000 
#    z 0.170530 0.000000 3.428650 
# 
# 
# High freq. dielectric constant tensor:
#      x y z
#    x 1.748480 0.000000 0.019260 
#    y 0.000000 1.739020 0.000000 
#    z 0.019260 0.000000 1.737270 
# 
# From -- ./inp_files/329672.got.cif
#   From: 2010.06.25/outbox.cif.g09.slc.cpg/sg12_165_cif.got.tgz:329672.got - 2010.06.28 00:19:55.
