data_PCOD8084685
_publ_section_title
;
Structure prediction by ZEFSAII (Michael W. Deem and Ramdas Pophale) SiO2 
 PCOD8084685
Probable space group: C 2/M
;
_chemical_formula_sum "Si O2"
_cell_formula_units_Z 64
_cell_length_a 27.716445
_cell_length_b 9.133073
_cell_length_c 20.299492
_cell_angle_alpha 90.000000
_cell_angle_beta 127.578546
_cell_angle_gamma 90.000000
_cell_volume 4072.384612
_symmetry_space_group_name_H-M "C 2/M"
_symmetry_group_IT_number 12
_symmetry_cell_setting 'monoclinic'
loop_
_space_group_symop_operation_xyz
x,y,z
-x,y,-z
-x,-y,-z
x,-y,z
1/2+x,1/2+y,z
1/2-x,1/2+y,-z
1/2-x,1/2-y,-z
1/2+x,1/2-y,z
loop_
_atom_site_type_symbol
_atom_site_label
_atom_site_fract_x
_atom_site_fract_y
_atom_site_fract_z
Si Si1 0.888909 0.671351 0.760057
Si Si2 0.239874 0.832964 0.149541
Si Si3 0.874636 0.829952 0.035027
Si Si4 0.306329 0.831960 0.077977
Si Si5 0.502985 0.669276 0.079360
Si Si6 0.340312 0.334620 0.600240
Si Si7 0.208621 0.334641 0.556064
Si Si8 0.260560 0.171065 0.716866
O O1 0.894955 0.500000 0.751288
O O2 0.946533 0.727550 0.847724
O O3 0.886249 0.752434 0.687604
O O4 0.829504 0.707827 0.753699
O O5 0.299061 0.818024 0.151045
O O6 0.250635 0.725275 0.218834
O O7 0.233294 0.000000 0.169393
O O8 0.178185 0.785929 0.060470
O O9 0.866910 0.742391 0.097865
O O10 0.938818 0.786919 0.057484
O O11 0.870110 0.000000 0.048285
O O12 0.304815 0.000000 0.054866
O O13 0.250000 0.750000 0.000000
O O14 0.519520 0.500000 0.106458
O O15 0.500000 0.702416 0.000000
O O16 0.363516 0.500000 0.608352
O O17 0.273461 0.334429 0.574917
O O18 0.339789 0.250301 0.530072
O O19 0.185510 0.500000 0.548130
O O20 0.213214 0.253035 0.629697
O O21 0.246788 0.000000 0.700703
#
# Coordination Sequence:
#
# PCOD8084685 Si02
#       8
#     8   8   8   8   8   8   8   8
#     4  10  20  31  42  60  86 115 149 184 216 252
#     4   9  17  29  44  62  84 111 142 175 215 262
#     4   9  18  31  46  63  83 110 146 184 219 257
#     4   9  17  29  45  63  83 108 139 176 218 262
#     4  10  20  33  47  62  84 116 151 184 218 255
#     4   9  16  27  43  60  80 109 144 178 212 252
#     4   9  16  26  41  60  83 111 140 173 213 255
#     4  10  19  28  40  61  88 116 145 177 213 255
#
# _framework density 15.715609000000001
#
# number of rings (size 3 to 8) (size 9 to 14) (size 15 to 20)
#    0.000    2.625    0.000    3.375    0.000    8.750 
#    0.000    0.000    0.000    0.000    0.000    0.000 
#    0.000    1.000    0.000   10.500    0.000    6.250 
#
# Total GULP energy -396747.046473 kJ/mol
# GULP energy per Si atom -12398.345202 kJ/mol
# Density = 1.567984 g / cm^3
# Si number density = 15.715609 Si / 1000 Ang^3
#
#
#
# Elastic Constant Matrix: (Units=GPa)
#
#
# Indices 1 2 3 4 5 6 
#
# 1 78.1835 46.8609 37.5034 0.0000 -12.4480 0.0000
# 2 46.8609 107.2449 54.8590 0.0000 -14.8639 0.0000
# 3 37.5034 54.8590 86.7973 0.0000 -16.9342 0.0000
# 4 0.0000 0.0000 0.0000 31.6737 0.0000 -5.4258
# 5 -12.4480 -14.8639 -16.9342 0.0000 15.8304 0.0000
# 6 0.0000 0.0000 0.0000 -5.4258 0.0000 23.8508
#
#
#
# Elastic Compliance Matrix: (Units=1/GPa)
#
#
# Indices 1 2 3 4 5 6 
#
# 1 0.018722 -0.005642 -0.003393 0.000000 0.005795 0.000000
# 2 -0.005642 0.015747 -0.006945 0.000000 0.002920 0.000000
# 3 -0.003393 -0.006945 0.019694 0.000000 0.011878 0.000000
# 4 0.000000 0.000000 0.000000 0.032852 0.000000 0.007474
# 5 0.005795 0.002920 0.011878 0.000000 0.083174 0.000000
# 6 0.000000 0.000000 0.000000 0.007474 0.000000 0.043627
#
#
# Mechanical properties :
#
#
# Convention : Reuss Voigt Hill
#
# Bulk Modulus (GPa) = 45.03884 61.18579 53.11232
# Shear Modulus (GPa) = 19.74885 23.13781 21.44333
#
# Velocity S-wave (km/s) = 3.54876 3.84120 3.69787
# Velocity P-wave (km/s) = 6.74629 7.66099 7.21814
#
# Compressibility (1/GPa) = 0.02220306
#
# Stress axis : x y z
#
# Youngs Moduli (GPa) = 53.41241 63.50366 50.77610
#
# Poissons Ratio (x) = 0.35828 0.17228
# Poissons Ratio (y) = 0.30135 0.35266
# Poissons Ratio (z) = 0.18123 0.44106
#
# Static dielectric constant tensor:
#      x y z
#    x 3.297840 0.000000 -0.214070 
#    y 0.000000 3.175170 0.000000 
#    z -0.214070 0.000000 2.892490 
# 
# 
# High freq. dielectric constant tensor:
#      x y z
#    x 1.568980 0.000000 -0.023340 
#    y 0.000000 1.618600 0.000000 
#    z -0.023340 0.000000 1.584840 
# 
# From -- ./inp_files/326923.got.cif
#   From: 2010.06.25/outbox.cif.g09.slc.cpg/sg12_164_cif.got.tgz:326923.got - 2010.06.28 00:19:55.
