data_PCOD8084219
_publ_section_title
;
Structure prediction by ZEFSAII (Michael W. Deem and Ramdas Pophale) SiO2 
 PCOD8084219
Probable space group: C 2/M
;
_chemical_formula_sum "Si O2"
_cell_formula_units_Z 56
_cell_length_a 15.159235
_cell_length_b 8.461443
_cell_length_c 24.311846
_cell_angle_alpha 90.000000
_cell_angle_beta 62.661377
_cell_angle_gamma 90.000000
_cell_volume 2770.149180
_symmetry_space_group_name_H-M "C 2/M"
_symmetry_group_IT_number 12
_symmetry_cell_setting 'monoclinic'
loop_
_space_group_symop_operation_xyz
x,y,z
-x,y,-z
-x,-y,-z
x,-y,z
1/2+x,1/2+y,z
1/2-x,1/2+y,-z
1/2-x,1/2-y,-z
1/2+x,1/2-y,z
loop_
_atom_site_type_symbol
_atom_site_label
_atom_site_fract_x
_atom_site_fract_y
_atom_site_fract_z
Si Si1 0.161950 0.815717 0.287520
Si Si2 0.014359 0.185078 0.933156
Si Si3 0.770166 0.686923 0.148185
Si Si4 0.823949 0.314411 0.933093
Si Si5 0.098369 0.178611 0.507394
Si Si6 0.547503 0.818575 0.635923
Si Si7 0.747645 0.313835 0.375158
O O1 0.214288 0.747067 0.218270
O O2 0.209073 0.737457 0.329062
O O3 0.044590 0.787480 0.319810
O O4 0.182549 0.000000 0.282823
O O5 0.125085 0.225085 0.883224
O O6 0.937327 0.278651 0.916829
O O7 0.993279 0.000000 0.932892
O O8 0.000000 0.240611 0.000000
O O9 0.788230 0.500000 0.144156
O O10 0.700835 0.729681 0.116816
O O11 0.807475 0.500000 0.931011
O O12 0.750000 0.250000 0.000000
O O13 0.084609 0.289267 0.563685
O O14 0.186562 0.253179 0.444957
O O15 0.000000 0.179459 0.500000
O O16 0.122367 0.000000 0.520218
O O17 0.636428 0.774806 0.652052
O O18 0.516237 0.000000 0.650679
O O19 0.726186 0.500000 0.380604
#
# Coordination Sequence:
#
# PCOD8084219 Si02
#       7
#     8   8   8   8   8   8   8
#     4  10  22  43  63  82 116 163 206 238 288 366
#     4  11  23  40  65  95 127 161 199 250 307 366
#     4  11  24  41  65  94 124 162 208 257 309 369
#     4  12  24  40  65  94 127 162 202 251 305 365
#     4  10  18  34  61  83 110 157 202 242 299 365
#     4  11  22  35  57  89 122 151 194 256 306 347
#     4   9  19  37  59  83 115 156 199 242 296 358
#
# _framework density 20.215520000000001
#
# number of rings (size 3 to 8) (size 9 to 14) (size 15 to 20)
#    0.000    1.429    2.857    3.000    0.000    3.143 
#    0.000    3.571    0.000    0.000    0.000    0.000 
#    0.000    0.000    0.000    0.000    0.000    0.000 
#
# Total GULP energy -347292.800781 kJ/mol
# GULP energy per Si atom -12403.314314 kJ/mol
# Density = 2.016951 g / cm^3
# Si number density = 20.215520 Si / 1000 Ang^3
#
#
#
# Elastic Constant Matrix: (Units=GPa)
#
#
# Indices 1 2 3 4 5 6 
#
# 1 120.3253 4.8798 55.0561 0.0000 -8.4943 0.0000
# 2 4.8798 34.2249 8.3758 0.0000 2.2165 0.0000
# 3 55.0561 8.3758 155.2748 0.0000 -6.6685 0.0000
# 4 0.0000 0.0000 0.0000 10.1570 0.0000 -6.1543
# 5 -8.4943 2.2165 -6.6685 0.0000 18.0046 0.0000
# 6 0.0000 0.0000 0.0000 -6.1543 0.0000 30.9911
#
#
#
# Elastic Compliance Matrix: (Units=1/GPa)
#
#
# Indices 1 2 3 4 5 6 
#
# 1 0.010158 -0.000852 -0.003399 0.000000 0.003638 0.000000
# 2 -0.000852 0.030013 -0.001517 0.000000 -0.004659 0.000000
# 3 -0.003399 -0.001517 0.007790 0.000000 0.001468 0.000000
# 4 0.000000 0.000000 0.000000 0.111921 0.000000 0.022226
# 5 0.003638 -0.004659 0.001468 0.000000 0.058375 0.000000
# 6 0.000000 0.000000 0.000000 0.022226 0.000000 0.036681
#
#
# Mechanical properties :
#
#
# Convention : Reuss Voigt Hill
#
# Bulk Modulus (GPa) = 27.45420 49.60538 38.52979
# Shear Modulus (GPa) = 17.94583 27.93142 22.93863
#
# Velocity S-wave (km/s) = 2.98270 3.72113 3.37219
# Velocity P-wave (km/s) = 5.04701 6.56155 5.85347
#
# Compressibility (1/GPa) = 0.03642430
#
# Stress axis : x y z
#
# Youngs Moduli (GPa) = 98.44828 33.31903 128.36282
#
# Poissons Ratio (x) = 0.02839 0.43636
# Poissons Ratio (y) = 0.08387 0.19472
# Poissons Ratio (z) = 0.33467 0.05054
#
# Static dielectric constant tensor:
#      x y z
#    x 3.843160 0.000000 0.129910 
#    y 0.000000 3.531520 0.000000 
#    z 0.129910 0.000000 3.861600 
# 
# 
# High freq. dielectric constant tensor:
#      x y z
#    x 1.804130 0.000000 -0.001200 
#    y 0.000000 1.773710 0.000000 
#    z -0.001200 0.000000 1.790590 
# 
# From -- ./inp_files/338537.got.cif
#   From: 2010.06.25/outbox.cif.g09.slc.cpg/sg12_170_cif.got.tgz:338537.got - 2010.06.28 00:19:55.
