data_PCOD8084191
_publ_section_title
;
Structure prediction by ZEFSAII (Michael W. Deem and Ramdas Pophale) SiO2 
 PCOD8084191
Probable space group: C 2/M
;
_chemical_formula_sum "Si O2"
_cell_formula_units_Z 64
_cell_length_a 25.166262
_cell_length_b 9.140325
_cell_length_c 18.900959
_cell_angle_alpha 90.000000
_cell_angle_beta 130.162048
_cell_angle_gamma 90.000000
_cell_volume 3322.649459
_symmetry_space_group_name_H-M "C 2/M"
_symmetry_group_IT_number 12
_symmetry_cell_setting 'monoclinic'
loop_
_space_group_symop_operation_xyz
x,y,z
-x,y,-z
-x,-y,-z
x,-y,z
1/2+x,1/2+y,z
1/2-x,1/2+y,-z
1/2-x,1/2-y,-z
1/2+x,1/2-y,z
loop_
_atom_site_type_symbol
_atom_site_label
_atom_site_fract_x
_atom_site_fract_y
_atom_site_fract_z
Si Si1 0.515496 0.830365 0.334546
Si Si2 0.342494 0.168409 0.806466
Si Si3 0.184919 0.163997 0.970868
Si Si4 0.877625 0.165852 0.229844
Si Si5 0.797291 0.674461 0.273122
Si Si6 0.570512 0.169302 0.527670
Si Si7 0.545311 0.173488 0.203609
Si Si8 0.908206 0.667501 0.008916
O O1 0.449282 0.746045 0.308664
O O2 0.574034 0.808384 0.445373
O O3 0.541791 0.767696 0.281522
O O4 0.494636 0.000000 0.308487
O O5 0.276016 0.269748 0.760473
O O6 0.382115 0.223904 0.769622
O O7 0.317752 0.000000 0.779243
O O8 0.400796 0.182401 0.918238
O O9 0.128512 0.166567 0.859972
O O10 0.155161 0.240459 0.014384
O O11 0.206684 0.000000 0.010121
O O12 0.250000 0.250000 0.000000
O O13 0.813441 0.253756 0.210533
O O14 0.878332 0.000000 0.259563
O O15 0.794059 0.500000 0.263954
O O16 0.858829 0.733411 0.377842
O O17 0.500000 0.241286 0.500000
O O18 0.569041 0.000000 0.546915
O O19 0.480745 0.232221 0.100962
O O20 0.543365 0.000000 0.200856
O O21 0.899695 0.500000 0.026218
#
# Coordination Sequence:
#
# PCOD8084191 Si02
#       8
#     8   8   8   8   8   8   8   8
#     4  10  18  34  60  84 105 138 185 224 263 324
#     4  10  21  37  55  81 115 144 180 232 277 315
#     4  11  23  35  49  74 111 147 180 221 270 324
#     4  11  22  35  52  79 113 143 172 221 281 324
#     4  11  22  37  57  80 109 146 187 225 270 331
#     4   9  17  32  56  84 109 137 179 231 271 314
#     4   9  18  34  59  84 107 144 188 226 268 322
#     4  10  19  34  57  81 106 141 187 228 266 318
#
# _framework density 19.261737
#
# number of rings (size 3 to 8) (size 9 to 14) (size 15 to 20)
#    0.000    1.875    2.500    2.250    0.000    6.500 
#    0.000    3.750    0.000    1.500    0.000    0.000 
#    0.000    0.000    0.000    0.000    0.000    0.000 
#
# Total GULP energy -396721.220334 kJ/mol
# GULP energy per Si atom -12397.538135 kJ/mol
# Density = 1.921790 g / cm^3
# Si number density = 19.261737 Si / 1000 Ang^3
#
#
#
# Elastic Constant Matrix: (Units=GPa)
#
#
# Indices 1 2 3 4 5 6 
#
# 1 129.2435 36.4200 29.4582 0.0000 -2.8655 0.0000
# 2 36.4200 77.0156 14.7344 0.0000 -0.1018 0.0000
# 3 29.4582 14.7344 73.2296 0.0000 -4.5213 0.0000
# 4 0.0000 0.0000 0.0000 19.6561 0.0000 4.2136
# 5 -2.8655 -0.1018 -4.5213 0.0000 23.8846 0.0000
# 6 0.0000 0.0000 0.0000 4.2136 0.0000 26.6732
#
#
#
# Elastic Compliance Matrix: (Units=1/GPa)
#
#
# Indices 1 2 3 4 5 6 
#
# 1 0.009546 -0.003937 -0.003013 0.000000 0.000558 0.000000
# 2 -0.003937 0.015133 -0.001504 0.000000 -0.000693 0.000000
# 3 -0.003013 -0.001504 0.015327 0.000000 0.002533 0.000000
# 4 0.000000 0.000000 0.000000 0.052658 0.000000 -0.008318
# 5 0.000558 -0.000693 0.002533 0.000000 0.042411 0.000000
# 6 0.000000 0.000000 0.000000 -0.008318 0.000000 0.038805
#
#
# Mechanical properties :
#
#
# Convention : Reuss Voigt Hill
#
# Bulk Modulus (GPa) = 43.29532 48.96820 46.13176
# Shear Modulus (GPa) = 25.19045 27.30119 26.24582
#
# Velocity S-wave (km/s) = 3.62027 3.76889 3.69533
# Velocity P-wave (km/s) = 6.32466 6.66462 6.49686
#
# Compressibility (1/GPa) = 0.02309719
#
# Stress axis : x y z
#
# Youngs Moduli (GPa) = 104.75638 66.08109 65.24463
#
# Poissons Ratio (x) = 0.26016 0.19661
# Poissons Ratio (y) = 0.41242 0.09812
# Poissons Ratio (z) = 0.31568 0.09938
#
# Static dielectric constant tensor:
#      x y z
#    x 3.347360 0.000000 -0.168530 
#    y 0.000000 3.097760 0.000000 
#    z -0.168530 0.000000 3.681340 
# 
# 
# High freq. dielectric constant tensor:
#      x y z
#    x 1.744790 0.000000 -0.008130 
#    y 0.000000 1.721600 0.000000 
#    z -0.008130 0.000000 1.749260 
# 
# From -- ./inp_files/324237.got.cif
#   From: 2010.06.25/outbox.cif.g09.slc.cpg/sg12_163_cif.got.tgz:324237.got - 2010.06.28 00:19:55.
