data_PCOD8084392
_publ_section_title
;
Structure prediction by ZEFSAII (Michael W. Deem and Ramdas Pophale) SiO2 
 PCOD8084392
Probable space group: C 2/M
;
_chemical_formula_sum "Si O2"
_cell_formula_units_Z 56
_cell_length_a 15.121489
_cell_length_b 8.960545
_cell_length_c 23.949124
_cell_angle_alpha 90.000000
_cell_angle_beta 63.190823
_cell_angle_gamma 90.000000
_cell_volume 2896.232706
_symmetry_space_group_name_H-M "C 2/M"
_symmetry_group_IT_number 12
_symmetry_cell_setting 'monoclinic'
loop_
_space_group_symop_operation_xyz
x,y,z
-x,y,-z
-x,-y,-z
x,-y,z
1/2+x,1/2+y,z
1/2-x,1/2+y,-z
1/2-x,1/2-y,-z
1/2+x,1/2-y,z
loop_
_atom_site_type_symbol
_atom_site_label
_atom_site_fract_x
_atom_site_fract_y
_atom_site_fract_z
Si Si1 0.262314 0.827526 0.657024
Si Si2 0.988673 0.673744 0.566793
Si Si3 0.596182 0.168037 0.010307
Si Si4 0.243407 0.324897 0.876957
Si Si5 0.173429 0.175421 0.563559
Si Si6 0.450778 0.325773 0.863162
Si Si7 0.846067 0.676821 0.212137
O O1 0.378153 0.792711 0.618214
O O2 0.204935 0.783209 0.617176
O O3 0.222053 0.725603 0.717615
O O4 0.244097 0.000000 0.676857
O O5 0.016275 0.500000 0.563219
O O6 0.000000 0.728747 0.500000
O O7 0.062758 0.765145 0.585132
O O8 0.578132 0.276782 0.066735
O O9 0.620008 0.000000 0.025075
O O10 0.500000 0.163530 0.000000
O O11 0.685642 0.237642 0.947812
O O12 0.222465 0.500000 0.882424
O O13 0.359484 0.288169 0.848059
O O14 0.200629 0.256695 0.831754
O O15 0.250000 0.250000 0.500000
O O16 0.177331 0.000000 0.552317
O O17 0.475214 0.500000 0.856920
O O18 0.543685 0.238747 0.811688
O O19 0.851160 0.500000 0.209074
#
# Coordination Sequence:
#
# PCOD8084392 Si02
#       7
#     8   8   8   8   8   8   8
#     4  10  23  42  61  86 123 158 191 243 302 348
#     4  10  20  39  63  89 123 157 190 239 300 353
#     4  10  18  35  61  85 116 154 194 241 295 349
#     4   9  20  38  59  83 116 156 193 240 295 347
#     4  11  22  38  62  91 123 156 196 241 296 354
#     4  11  22  37  59  88 120 151 194 246 298 348
#     4  11  23  42  62  82 114 159 204 239 287 355
#
# _framework density 19.335462
#
# number of rings (size 3 to 8) (size 9 to 14) (size 15 to 20)
#    0.000    1.714    2.857    1.714    0.000    3.429 
#    0.000    7.857    0.000    0.000    0.000    0.000 
#    0.000    0.000    0.000    0.000    0.000    0.000 
#
# Total GULP energy -347288.417665 kJ/mol
# GULP energy per Si atom -12403.157774 kJ/mol
# Density = 1.929145 g / cm^3
# Si number density = 19.335462 Si / 1000 Ang^3
#
#
#
# Elastic Constant Matrix: (Units=GPa)
#
#
# Indices 1 2 3 4 5 6 
#
# 1 118.1078 38.9629 43.9711 0.0000 -12.1496 0.0000
# 2 38.9629 62.2693 38.2959 0.0000 -4.7562 0.0000
# 3 43.9711 38.2959 111.6528 0.0000 -16.5880 0.0000
# 4 0.0000 0.0000 0.0000 32.4575 0.0000 -9.7694
# 5 -12.1496 -4.7562 -16.5880 0.0000 22.3745 0.0000
# 6 0.0000 0.0000 0.0000 -9.7694 0.0000 18.3697
#
#
#
# Elastic Compliance Matrix: (Units=1/GPa)
#
#
# Indices 1 2 3 4 5 6 
#
# 1 0.011451 -0.005632 -0.002059 0.000000 0.003494 0.000000
# 2 -0.005632 0.023140 -0.006116 0.000000 -0.002674 0.000000
# 3 -0.002059 -0.006116 0.012930 0.000000 0.007168 0.000000
# 4 0.000000 0.000000 0.000000 0.036681 0.000000 0.019508
# 5 0.003494 -0.002674 0.007168 0.000000 0.051337 0.000000
# 6 0.000000 0.000000 0.000000 0.019508 0.000000 0.064812
#
#
# Mechanical properties :
#
#
# Convention : Reuss Voigt Hill
#
# Bulk Modulus (GPa) = 50.23249 59.38773 54.81011
# Shear Modulus (GPa) = 21.31279 26.02700 23.66989
#
# Velocity S-wave (km/s) = 3.32364 3.67287 3.50261
# Velocity P-wave (km/s) = 6.38472 6.98339 6.69075
#
# Compressibility (1/GPa) = 0.01990743
#
# Stress axis : x y z
#
# Youngs Moduli (GPa) = 87.33138 43.21429 77.34073
#
# Poissons Ratio (x) = 0.24338 0.15922
# Poissons Ratio (y) = 0.49184 0.47303
# Poissons Ratio (z) = 0.17979 0.26431
#
# Static dielectric constant tensor:
#      x y z
#    x 3.676280 0.000000 -0.031800 
#    y 0.000000 3.434970 0.000000 
#    z -0.031800 0.000000 3.510590 
# 
# 
# High freq. dielectric constant tensor:
#      x y z
#    x 1.767840 0.000000 -0.005990 
#    y 0.000000 1.740050 0.000000 
#    z -0.005990 0.000000 1.752780 
# 
# From -- ./inp_files/338548.got.cif
#   From: 2010.06.25/outbox.cif.g09.slc.cpg/sg12_170_cif.got.tgz:338548.got - 2010.06.28 00:19:55.
