data_PCOD8084317
_publ_section_title
;
Structure prediction by ZEFSAII (Michael W. Deem and Ramdas Pophale) SiO2 
 PCOD8084317
Probable space group: C 2/M
;
_chemical_formula_sum "Si O2"
_cell_formula_units_Z 40
_cell_length_a 18.859724
_cell_length_b 18.395506
_cell_length_c 8.883822
_cell_angle_alpha 90.000000
_cell_angle_beta 140.308032
_cell_angle_gamma 90.000000
_cell_volume 1968.414720
_symmetry_space_group_name_H-M "C 2/M"
_symmetry_group_IT_number 12
_symmetry_cell_setting 'monoclinic'
loop_
_space_group_symop_operation_xyz
x,y,z
-x,y,-z
-x,-y,-z
x,-y,z
1/2+x,1/2+y,z
1/2-x,1/2+y,-z
1/2-x,1/2-y,-z
1/2+x,1/2-y,z
loop_
_atom_site_type_symbol
_atom_site_label
_atom_site_fract_x
_atom_site_fract_y
_atom_site_fract_z
Si Si1 0.477800 0.146317 0.295271
Si Si2 0.446752 0.304027 0.678951
Si Si3 0.839399 0.583631 0.600422
Si Si4 0.273109 0.165927 0.784949
Si Si5 0.160940 0.821320 0.181214
O O1 0.500000 0.119707 0.500000
O O2 0.521808 0.227917 0.344895
O O3 0.541756 0.093339 0.284912
O O4 0.344546 0.140189 0.046224
O O5 0.360941 0.350594 0.431303
O O6 0.381185 0.291135 0.727175
O O7 0.559903 0.346799 0.905900
O O8 0.819497 0.500000 0.607758
O O9 0.835070 0.630176 0.744902
O O10 0.742456 0.610324 0.328894
O O11 0.274876 0.253489 0.785049
#
# Coordination Sequence:
#
# PCOD8084317 Si02
#       5
#     8   8   8   8   8
#     4  11  22  33  51  83 113 142 176 218 269 317
#     4   9  16  32  54  80 105 133 175 223 270 305
#     4  11  21  36  56  80 108 143 182 216 264 323
#     4  10  18  35  58  77 106 139 182 226 263 312
#     4   9  16  32  58  79 105 135 178 226 271 300
#
# _framework density 20.320920000000001
#
# number of rings (size 3 to 8) (size 9 to 14) (size 15 to 20)
#    0.000    2.000    4.000    1.800    0.000    2.800 
#    0.000    8.000    0.000    0.000    0.000    1.400 
#    0.000    0.000    0.000    0.000    0.000    0.000 
#
# Total GULP energy -247797.716457 kJ/mol
# GULP energy per Si atom -12389.885823 kJ/mol
# Density = 2.027467 g / cm^3
# Si number density = 20.320920 Si / 1000 Ang^3
#
#
#
# Elastic Constant Matrix: (Units=GPa)
#
#
# Indices 1 2 3 4 5 6 
#
# 1 17.0823 6.3321 20.2487 0.0000 3.8852 0.0000
# 2 6.3321 58.3877 26.8489 0.0000 6.1933 0.0000
# 3 20.2487 26.8489 185.7298 0.0000 22.7759 0.0000
# 4 0.0000 0.0000 0.0000 11.1448 0.0000 6.5512
# 5 3.8852 6.1933 22.7759 0.0000 26.9651 0.0000
# 6 0.0000 0.0000 0.0000 6.5512 0.0000 9.5191
#
#
#
# Elastic Compliance Matrix: (Units=1/GPa)
#
#
# Indices 1 2 3 4 5 6 
#
# 1 0.068493 -0.004093 -0.006449 0.000000 -0.003482 0.000000
# 2 -0.004093 0.018709 -0.002012 0.000000 -0.002008 0.000000
# 3 -0.006449 -0.002012 0.006925 0.000000 -0.004458 0.000000
# 4 0.000000 0.000000 0.000000 0.150688 0.000000 -0.103705
# 5 -0.003482 -0.002008 -0.004458 0.000000 0.041813 0.000000
# 6 0.000000 0.000000 0.000000 -0.103705 0.000000 0.176423
#
#
# Mechanical properties :
#
#
# Convention : Reuss Voigt Hill
#
# Bulk Modulus (GPa) = 14.48879 40.89544 27.69211
# Shear Modulus (GPa) = 9.78157 23.37715 16.57936
#
# Velocity S-wave (km/s) = 2.19636 3.39543 2.85945
# Velocity P-wave (km/s) = 3.68476 5.96158 4.95570
#
# Compressibility (1/GPa) = 0.06901889
#
# Stress axis : x y z
#
# Youngs Moduli (GPa) = 14.59998 53.45018 144.41054
#
# Poissons Ratio (x) = 0.21879 0.93124
# Poissons Ratio (y) = 0.05976 0.29056
# Poissons Ratio (z) = 0.09415 0.10755
#
# Static dielectric constant tensor:
#      x y z
#    x 3.338140 0.000000 0.372910 
#    y 0.000000 3.155540 0.000000 
#    z 0.372910 0.000000 4.403870 
# 
# 
# High freq. dielectric constant tensor:
#      x y z
#    x 1.756280 0.000000 0.023310 
#    y 0.000000 1.734100 0.000000 
#    z 0.023310 0.000000 1.824920 
# 
# From -- ./inp_files/88233.got.cif
#   From: 2010.06.25/outbox.cif.g09.slc.cpg/sg12_45_cif.got.tgz:88233.got - 2010.06.28 00:19:55.
