data_PCOD8084338
_publ_section_title
;
Structure prediction by ZEFSAII (Michael W. Deem and Ramdas Pophale) SiO2 
 PCOD8084338
Probable space group: C 2/M
;
_chemical_formula_sum "Si O2"
_cell_formula_units_Z 56
_cell_length_a 7.731543
_cell_length_b 27.928886
_cell_length_c 17.430649
_cell_angle_alpha 90.000000
_cell_angle_beta 125.721239
_cell_angle_gamma 90.000000
_cell_volume 3055.753515
_symmetry_space_group_name_H-M "C 2/M"
_symmetry_group_IT_number 12
_symmetry_cell_setting 'monoclinic'
loop_
_space_group_symop_operation_xyz
x,y,z
-x,y,-z
-x,-y,-z
x,-y,z
1/2+x,1/2+y,z
1/2-x,1/2+y,-z
1/2-x,1/2-y,-z
1/2+x,1/2-y,z
loop_
_atom_site_type_symbol
_atom_site_label
_atom_site_fract_x
_atom_site_fract_y
_atom_site_fract_z
Si Si1 0.309265 0.555071 0.891797
Si Si2 0.909992 0.274049 0.600026
Si Si3 0.417003 0.943515 0.896338
Si Si4 0.454417 0.947951 0.399770
Si Si5 0.552642 0.404712 0.230503
Si Si6 0.332730 0.681706 0.645606
Si Si7 0.275836 0.366548 0.467227
O O1 0.297848 0.500000 0.860563
O O2 0.361078 0.589370 0.833830
O O3 0.087065 0.570439 0.874329
O O4 0.500000 0.561350 0.000000
O O5 0.750000 0.250000 0.500000
O O6 0.978084 0.230044 0.673375
O O7 0.780278 0.319916 0.600803
O O8 0.105732 0.297488 0.608600
O O9 0.190038 0.920215 0.819638
O O10 0.384844 0.000000 0.892231
O O11 0.500000 0.924539 0.000000
O O12 0.500000 0.951390 0.500000
O O13 0.205773 0.936024 0.324275
O O14 0.601166 0.906699 0.401982
O O15 0.503635 0.000000 0.374402
O O16 0.567213 0.349124 0.259519
O O17 0.291930 0.648366 0.560818
O O18 0.500000 0.388455 0.500000
#
# Coordination Sequence:
#
# PCOD8084338 Si02
#       7
#     8   8   8   8   8   8   8
#     4  10  20  37  63  94 124 161 208 257 312 367
#     4  10  18  35  59  78 110 152 205 260 306 344
#     4  10  20  37  64  93 124 164 210 259 310 366
#     4  11  22  38  55  77 125 177 203 231 296 377
#     4  12  22  38  61  90 130 161 202 260 312 373
#     4  11  22  37  57  89 114 155 204 259 322 361
#     4  11  20  36  58  82 117 161 214 258 295 354
#
# _framework density 18.326084000000002
#
# number of rings (size 3 to 8) (size 9 to 14) (size 15 to 20)
#    0.000    1.286    4.286    4.714    0.000    1.429 
#    2.571    0.000    0.000    0.000    0.000    3.000 
#    0.000    0.000    0.000    0.000    0.000    0.000 
#
# Total GULP energy -346935.234217 kJ/mol
# GULP energy per Si atom -12390.544079 kJ/mol
# Density = 1.828437 g / cm^3
# Si number density = 18.326084 Si / 1000 Ang^3
#
#
#
# Elastic Constant Matrix: (Units=GPa)
#
#
# Indices 1 2 3 4 5 6 
#
# 1 124.6398 49.2347 54.7269 0.0000 21.9328 0.0000
# 2 49.2347 134.4106 45.3476 0.0000 8.1167 0.0000
# 3 54.7269 45.3476 89.4593 0.0000 12.0449 0.0000
# 4 0.0000 0.0000 0.0000 31.0112 0.0000 2.5662
# 5 21.9328 8.1167 12.0449 0.0000 33.9513 0.0000
# 6 0.0000 0.0000 0.0000 2.5662 0.0000 26.0309
#
#
#
# Elastic Compliance Matrix: (Units=1/GPa)
#
#
# Indices 1 2 3 4 5 6 
#
# 1 0.012378 -0.002290 -0.005680 0.000000 -0.005434 0.000000
# 2 -0.002290 0.009408 -0.003429 0.000000 0.000446 0.000000
# 3 -0.005680 -0.003429 0.016578 0.000000 -0.001393 0.000000
# 4 0.000000 0.000000 0.000000 0.032512 0.000000 -0.003205
# 5 -0.005434 0.000446 -0.001393 0.000000 0.033352 0.000000
# 6 0.000000 0.000000 0.000000 -0.003205 0.000000 0.038732
#
#
# Mechanical properties :
#
#
# Convention : Reuss Voigt Hill
#
# Bulk Modulus (GPa) = 64.23279 71.90315 68.06797
# Shear Modulus (GPa) = 29.24920 31.47870 30.36395
#
# Velocity S-wave (km/s) = 3.99938 4.14901 4.07488
# Velocity P-wave (km/s) = 7.51351 7.89132 7.70473
#
# Compressibility (1/GPa) = 0.01556837
#
# Stress axis : x y z
#
# Youngs Moduli (GPa) = 80.79120 106.28854 60.31941
#
# Poissons Ratio (x) = 0.24335 0.34260
# Poissons Ratio (y) = 0.18497 0.20681
# Poissons Ratio (z) = 0.45888 0.36442
#
# Static dielectric constant tensor:
#      x y z
#    x 3.681290 0.000000 0.059640 
#    y 0.000000 3.762840 0.000000 
#    z 0.059640 0.000000 3.341440 
# 
# 
# High freq. dielectric constant tensor:
#      x y z
#    x 1.716710 0.000000 0.014010 
#    y 0.000000 1.708470 0.000000 
#    z 0.014010 0.000000 1.681570 
# 
# From -- ./inp_files/260164.got.cif
#   From: 2010.06.25/outbox.cif.g09.slc.cpg/sg12_131_cif.got.tgz:260164.got - 2010.06.28 00:19:55.
