data_PCOD8084688
_publ_section_title
;
Structure prediction by ZEFSAII (Michael W. Deem and Ramdas Pophale) SiO2 
 PCOD8084688
Probable space group: C 2/M
;
_chemical_formula_sum "Si O2"
_cell_formula_units_Z 64
_cell_length_a 30.058949
_cell_length_b 9.241376
_cell_length_c 13.878635
_cell_angle_alpha 90.000000
_cell_angle_beta 91.567575
_cell_angle_gamma 90.000000
_cell_volume 3853.848376
_symmetry_space_group_name_H-M "C 2/M"
_symmetry_group_IT_number 12
_symmetry_cell_setting 'monoclinic'
loop_
_space_group_symop_operation_xyz
x,y,z
-x,y,-z
-x,-y,-z
x,-y,z
1/2+x,1/2+y,z
1/2-x,1/2+y,-z
1/2-x,1/2-y,-z
1/2+x,1/2-y,z
loop_
_atom_site_type_symbol
_atom_site_label
_atom_site_fract_x
_atom_site_fract_y
_atom_site_fract_z
Si Si1 0.450318 0.167688 0.968867
Si Si2 0.583397 0.829705 0.828949
Si Si3 0.376886 0.829691 0.620640
Si Si4 0.795848 0.672850 0.482043
Si Si5 0.562407 0.159258 0.545421
Si Si6 0.422296 0.335296 0.779532
Si Si7 0.647948 0.158457 0.684516
Si Si8 0.483417 0.335261 0.306304
O O1 0.431028 0.261273 0.881793
O O2 0.451130 0.000000 0.937902
O O3 0.500000 0.218373 0.000000
O O4 0.417248 0.195759 0.056849
O O5 0.630684 0.771078 0.784984
O O6 0.541803 0.747715 0.780305
O O7 0.577851 0.000000 0.804851
O O8 0.330072 0.786225 0.569048
O O9 0.418124 0.782935 0.554435
O O10 0.381951 0.744800 0.721649
O O11 0.378431 0.000000 0.640811
O O12 0.790207 0.500000 0.476185
O O13 0.750000 0.750000 0.500000
O O14 0.814513 0.735682 0.379690
O O15 0.603404 0.148265 0.620063
O O16 0.524962 0.264098 0.588798
O O17 0.541222 0.000000 0.531078
O O18 0.408293 0.500000 0.798381
O O19 0.464886 0.325288 0.713547
O O20 0.667029 0.000000 0.708945
O O21 0.466422 0.500000 0.308536
#
# Coordination Sequence:
#
# PCOD8084688 Si02
#       8
#     8   8   8   8   8   8   8   8
#     4  10  19  31  49  70  88 118 168 214 242 270
#     4   9  16  29  48  66  88 121 162 204 236 268
#     4   9  19  35  51  67  91 123 160 196 229 276
#     4   9  17  31  52  77 100 122 147 181 228 283
#     4   8  15  29  47  63  83 118 160 197 228 265
#     4  11  23  33  43  63  95 130 160 196 244 285
#     4   7  12  25  45  68  93 118 147 183 226 275
#     4  10  19  28  40  62  91 124 158 195 237 278
#
# _framework density 16.606776
#
# number of rings (size 3 to 8) (size 9 to 14) (size 15 to 20)
#    0.000    2.875    1.250    3.000    0.000    3.750 
#    0.000    7.500    0.000    0.000    0.000    0.875 
#    0.000    0.000    0.000    0.000    0.000    0.000 
#
# Total GULP energy -396451.877512 kJ/mol
# GULP energy per Si atom -12389.121172 kJ/mol
# Density = 1.656898 g / cm^3
# Si number density = 16.606776 Si / 1000 Ang^3
#
#
#
# Elastic Constant Matrix: (Units=GPa)
#
#
# Indices 1 2 3 4 5 6 
#
# 1 82.2658 31.2935 48.0638 0.0000 -13.1248 0.0000
# 2 31.2935 68.1121 51.0266 0.0000 1.2824 0.0000
# 3 48.0638 51.0266 113.0021 0.0000 -7.0685 0.0000
# 4 0.0000 0.0000 0.0000 16.8147 0.0000 -4.2486
# 5 -13.1248 1.2824 -7.0685 0.0000 20.3148 0.0000
# 6 0.0000 0.0000 0.0000 -4.2486 0.0000 21.7388
#
#
#
# Elastic Compliance Matrix: (Units=1/GPa)
#
#
# Indices 1 2 3 4 5 6 
#
# 1 0.018701 -0.005037 -0.005013 0.000000 0.010656 0.000000
# 2 -0.005037 0.024051 -0.009217 0.000000 -0.007980 0.000000
# 3 -0.005013 -0.009217 0.015311 0.000000 0.002670 0.000000
# 4 0.000000 0.000000 0.000000 0.062561 0.000000 0.012227
# 5 0.010656 -0.007980 0.002670 0.000000 0.057542 0.000000
# 6 0.000000 0.000000 0.000000 0.012227 0.000000 0.048390
#
#
# Mechanical properties :
#
#
# Convention : Reuss Voigt Hill
#
# Bulk Modulus (GPa) = 51.20790 58.23865 54.72327
# Shear Modulus (GPa) = 18.40942 20.64007 19.52475
#
# Velocity S-wave (km/s) = 3.33310 3.52926 3.43258
# Velocity P-wave (km/s) = 6.76130 7.19395 6.98098
#
# Compressibility (1/GPa) = 0.01952824
#
# Stress axis : x y z
#
# Youngs Moduli (GPa) = 53.47409 41.57796 65.31352
#
# Poissons Ratio (x) = 0.20942 0.32742
# Poissons Ratio (y) = 0.26934 0.60201
# Poissons Ratio (z) = 0.26807 0.38323
#
# Static dielectric constant tensor:
#      x y z
#    x 2.987180 0.000000 -0.377950 
#    y 0.000000 3.042260 0.000000 
#    z -0.377950 0.000000 3.283060 
# 
# 
# High freq. dielectric constant tensor:
#      x y z
#    x 1.604910 0.000000 -0.020690 
#    y 0.000000 1.624900 0.000000 
#    z -0.020690 0.000000 1.636600 
# 
# From -- ./inp_files/244084.got.cif
#   From: 2010.06.25/outbox.cif.g09.slc.cpg/sg12_123_cif.got.tgz:244084.got - 2010.06.28 00:19:55.
