data_PCOD8084113
_publ_section_title
;
Structure prediction by ZEFSAII (Michael W. Deem and Ramdas Pophale) SiO2 
 PCOD8084113
Probable space group: C 2/M
;
_chemical_formula_sum "Si O2"
_cell_formula_units_Z 44
_cell_length_a 14.557034
_cell_length_b 10.477208
_cell_length_c 31.555171
_cell_angle_alpha 90.000000
_cell_angle_beta 148.410846
_cell_angle_gamma 90.000000
_cell_volume 2521.012186
_symmetry_space_group_name_H-M "C 2/M"
_symmetry_group_IT_number 12
_symmetry_cell_setting 'monoclinic'
loop_
_space_group_symop_operation_xyz
x,y,z
-x,y,-z
-x,-y,-z
x,-y,z
1/2+x,1/2+y,z
1/2-x,1/2+y,-z
1/2-x,1/2-y,-z
1/2+x,1/2-y,z
loop_
_atom_site_type_symbol
_atom_site_label
_atom_site_fract_x
_atom_site_fract_y
_atom_site_fract_z
Si Si1 0.371186 0.000000 0.887496
Si Si2 0.930357 0.140747 0.800369
Si Si3 0.885401 0.000000 0.413139
Si Si4 0.001582 0.000000 0.366002
Si Si5 0.293176 0.000000 0.414197
Si Si6 0.181760 0.791278 0.759225
Si Si7 0.744660 0.000000 0.061835
Si Si8 0.143066 0.254299 0.315247
O O1 0.290161 0.875557 0.834670
O O2 0.324238 0.000000 0.917720
O O3 0.583097 0.000000 0.965482
O O4 0.810669 0.185025 0.791991
O O5 0.918850 0.240190 0.757474
O O6 0.865407 0.000000 0.759659
O O7 0.132639 0.126410 0.896141
O O8 0.769114 0.874083 0.368238
O O9 0.000000 0.000000 0.500000
O O10 0.010547 0.000000 0.420640
O O11 0.896473 0.124725 0.309664
O O12 0.197116 0.000000 0.422536
O O13 0.500000 0.000000 0.500000
O O14 0.239145 0.874523 0.367399
O O15 0.025815 0.719277 0.722187
#
# Coordination Sequence:
#
# PCOD8084113 Si02
#       8
#     4   8   4   4   4   8   4   8
#     4  10  18  34  58  84 114 149 191 233 282 320
#     4  10  19  35  56  82 111 145 196 226 274 329
#     4  12  25  40  54  86 121 144 175 244 302 332
#     4   9  20  37  58  80 101 147 194 215 277 350
#     4  10  20  40  60  77 103 147 189 233 280 340
#     4  10  19  35  60  80 108 152 187 229 273 338
#     4   9  19  33  54  88 114 145 196 237 267 329
#     4  11  21  39  58  81 112 145 193 232 279 339
#
# _framework density 17.453306999999999
#
# number of rings (size 3 to 8) (size 9 to 14) (size 15 to 20)
#    0.545    1.273    4.545    1.091    1.273    0.727 
#    3.273    2.727    0.000    0.000    0.000    3.818 
#    0.000    0.000    0.000    0.000    0.000    0.000 
#
# Total GULP energy -272701.636646 kJ/mol
# GULP energy per Si atom -12395.528938 kJ/mol
# Density = 1.741358 g / cm^3
# Si number density = 17.453307 Si / 1000 Ang^3
#
#
#
# Elastic Constant Matrix: (Units=GPa)
#
#
# Indices 1 2 3 4 5 6 
#
# 1 104.0761 28.3000 39.2116 0.0000 15.2049 0.0000
# 2 28.3000 78.6360 20.3225 0.0000 10.4048 0.0001
# 3 39.2116 20.3225 93.9124 -0.0004 17.3258 -0.0001
# 4 0.0000 0.0000 -0.0004 44.6259 -0.0001 20.4991
# 5 15.2049 10.4048 17.3258 -0.0001 31.7858 0.0000
# 6 0.0000 0.0001 -0.0001 20.4991 0.0000 47.8859
#
#
#
# Elastic Compliance Matrix: (Units=1/GPa)
#
#
# Indices 1 2 3 4 5 6 
#
# 1 0.012339 -0.003049 -0.003988 0.000000 -0.002730 0.000000
# 2 -0.003049 0.014510 -0.001401 0.000000 -0.002528 0.000000
# 3 -0.003988 -0.001401 0.013542 0.000000 -0.005015 0.000000
# 4 0.000000 0.000000 0.000000 0.027894 0.000000 -0.011941
# 5 -0.002730 -0.002528 -0.005015 0.000000 0.036328 0.000000
# 6 0.000000 0.000000 0.000000 -0.011941 0.000000 0.025995
#
#
# Mechanical properties :
#
#
# Convention : Reuss Voigt Hill
#
# Bulk Modulus (GPa) = 42.52489 50.25474 46.38982
# Shear Modulus (GPa) = 32.19133 37.44554 34.81843
#
# Velocity S-wave (km/s) = 4.29934 4.63695 4.47133
# Velocity P-wave (km/s) = 7.00454 7.58450 7.30028
#
# Compressibility (1/GPa) = 0.02351564
#
# Stress axis : x y z
#
# Youngs Moduli (GPa) = 81.04448 68.91578 73.84503
#
# Poissons Ratio (x) = 0.21009 0.29453
# Poissons Ratio (y) = 0.24707 0.10344
# Poissons Ratio (z) = 0.32324 0.09654
#
# Static dielectric constant tensor:
#      x y z
#    x 3.321950 0.000000 0.131030 
#    y 0.000000 3.114150 0.000000 
#    z 0.131030 0.000000 3.277870 
# 
# 
# High freq. dielectric constant tensor:
#      x y z
#    x 1.686300 0.000000 0.007920 
#    y 0.000000 1.665040 0.000000 
#    z 0.007920 0.000000 1.663910 
# 
# From -- ./inp_files/375951.got.cif
#   From: 2010.06.25/outbox.cif.g09.slc.cpg/sg12_188_cif.got.tgz:375951.got - 2010.06.28 00:19:55.
