data_PCOD8084115
_publ_section_title
;
Structure prediction by ZEFSAII (Michael W. Deem and Ramdas Pophale) SiO2 
 PCOD8084115
Probable space group: C 2/M
;
_chemical_formula_sum "Si O2"
_cell_formula_units_Z 56
_cell_length_a 23.685232
_cell_length_b 8.717060
_cell_length_c 15.720601
_cell_angle_alpha 90.000000
_cell_angle_beta 56.902011
_cell_angle_gamma 90.000000
_cell_volume 2719.098740
_symmetry_space_group_name_H-M "C 2/M"
_symmetry_group_IT_number 12
_symmetry_cell_setting 'monoclinic'
loop_
_space_group_symop_operation_xyz
x,y,z
-x,y,-z
-x,-y,-z
x,-y,z
1/2+x,1/2+y,z
1/2-x,1/2+y,-z
1/2-x,1/2-y,-z
1/2+x,1/2-y,z
loop_
_atom_site_type_symbol
_atom_site_label
_atom_site_fract_x
_atom_site_fract_y
_atom_site_fract_z
Si Si1 0.931173 0.679946 0.010724
Si Si2 0.571547 0.180000 0.648015
Si Si3 0.566357 0.681200 0.174277
Si Si4 0.423726 0.675526 0.533886
Si Si5 0.204540 0.320697 0.785598
Si Si6 0.337789 0.679748 0.760182
Si Si7 0.201658 0.819498 0.610719
O O1 0.931176 0.500000 0.990117
O O2 0.869426 0.727234 0.122085
O O3 0.922047 0.771364 0.931647
O O4 0.000000 0.730292 0.000000
O O5 0.498657 0.240308 0.732645
O O6 0.589450 0.219210 0.536574
O O7 0.625884 0.257849 0.664626
O O8 0.574585 0.000000 0.660876
O O9 0.556488 0.500000 0.188244
O O10 0.630987 0.739708 0.176435
O O11 0.500000 0.685553 0.500000
O O12 0.404038 0.500000 0.527236
O O13 0.378239 0.747085 0.646182
O O14 0.207529 0.500000 0.760965
O O15 0.258677 0.279354 0.815502
O O16 0.226289 0.228010 0.684142
O O17 0.350294 0.500000 0.747286
O O18 0.250000 0.750000 0.500000
O O19 0.203309 0.000000 0.599387
#
# Coordination Sequence:
#
# PCOD8084115 Si02
#       7
#     8   8   8   8   8   8   8
#     4  10  22  40  61  87 120 157 202 258 317 368
#     4  12  24  38  59  90 125 161 206 257 310 365
#     4  11  22  39  62  89 119 157 206 255 308 367
#     4  10  18  34  58  84 120 163 204 246 302 363
#     4  10  21  40  64  88 122 166 205 248 308 371
#     4   9  19  36  59  87 120 160 203 246 302 367
#     4  12  25  42  64  92 125 162 206 253 306 364
#
# _framework density 20.59506
#
# number of rings (size 3 to 8) (size 9 to 14) (size 15 to 20)
#    0.000    1.429    1.429    4.714    0.000    4.000 
#    0.000    1.429    0.000    0.000    0.000    0.000 
#    0.000    0.000    0.000    0.000    0.000    0.000 
#
# Total GULP energy -347276.030419 kJ/mol
# GULP energy per Si atom -12402.715372 kJ/mol
# Density = 2.054818 g / cm^3
# Si number density = 20.595060 Si / 1000 Ang^3
#
#
#
# Elastic Constant Matrix: (Units=GPa)
#
#
# Indices 1 2 3 4 5 6 
#
# 1 150.4394 49.7499 62.6360 0.0000 -0.1935 0.0000
# 2 49.7499 102.3566 42.7707 -0.0001 6.4476 0.0001
# 3 62.6360 42.7707 113.4538 -0.0001 3.7320 0.0000
# 4 0.0000 -0.0001 -0.0001 32.9199 0.0000 7.1972
# 5 -0.1935 6.4476 3.7320 0.0000 38.7730 0.0000
# 6 0.0000 0.0001 0.0000 7.1972 0.0000 20.1520
#
#
#
# Elastic Compliance Matrix: (Units=1/GPa)
#
#
# Indices 1 2 3 4 5 6 
#
# 1 0.009297 -0.002871 -0.004080 0.000000 0.000917 0.000000
# 2 -0.002871 0.012573 -0.003095 0.000000 -0.001807 0.000000
# 3 -0.004080 -0.003095 0.012256 0.000000 -0.000685 0.000000
# 4 0.000000 0.000000 0.000000 0.032950 0.000000 -0.011768
# 5 0.000917 -0.001807 -0.000685 0.000000 0.026162 0.000000
# 6 0.000000 0.000000 0.000000 -0.011768 0.000000 0.053826
#
#
# Mechanical properties :
#
#
# Convention : Reuss Voigt Hill
#
# Bulk Modulus (GPa) = 71.26519 75.17368 73.21943
# Shear Modulus (GPa) = 29.09794 32.44185 30.76990
#
# Velocity S-wave (km/s) = 3.76288 3.97322 3.86948
# Velocity P-wave (km/s) = 7.31828 7.59135 7.45607
#
# Compressibility (1/GPa) = 0.01403210
#
# Stress axis : x y z
#
# Youngs Moduli (GPa) = 107.56412 79.53863 81.59185
#
# Poissons Ratio (x) = 0.22839 0.33292
# Poissons Ratio (y) = 0.30886 0.25252
# Poissons Ratio (z) = 0.43889 0.24617
#
# Static dielectric constant tensor:
#      x y z
#    x 4.052080 0.000000 0.035460 
#    y 0.000000 3.584260 0.000000 
#    z 0.035460 0.000000 3.739210 
# 
# 
# High freq. dielectric constant tensor:
#      x y z
#    x 1.825620 0.000000 0.001630 
#    y 0.000000 1.785290 0.000000 
#    z 0.001630 0.000000 1.805620 
# 
# From -- ./inp_files/238290.got.cif
#   From: 2010.06.25/outbox.cif.g09.slc.cpg/sg12_120_cif.got.tgz:238290.got - 2010.06.28 00:19:55.
