data_PCOD8084276
_publ_section_title
;
Structure prediction by ZEFSAII (Michael W. Deem and Ramdas Pophale) SiO2 
 PCOD8084276
Probable space group: C 2/M
;
_chemical_formula_sum "Si O2"
_cell_formula_units_Z 56
_cell_length_a 29.846282
_cell_length_b 13.970518
_cell_length_c 11.871754
_cell_angle_alpha 90.000000
_cell_angle_beta 141.342155
_cell_angle_gamma 90.000000
_cell_volume 3092.196590
_symmetry_space_group_name_H-M "C 2/M"
_symmetry_group_IT_number 12
_symmetry_cell_setting 'monoclinic'
loop_
_space_group_symop_operation_xyz
x,y,z
-x,y,-z
-x,-y,-z
x,-y,z
1/2+x,1/2+y,z
1/2-x,1/2+y,-z
1/2-x,1/2-y,-z
1/2+x,1/2-y,z
loop_
_atom_site_type_symbol
_atom_site_label
_atom_site_fract_x
_atom_site_fract_y
_atom_site_fract_z
Si Si1 0.577480 0.107220 0.598512
Si Si2 0.242829 0.260170 0.304145
Si Si3 0.053847 0.107448 0.199802
Si Si4 0.102136 0.771096 0.483753
Si Si5 0.415559 0.388567 0.339123
Si Si6 0.179808 0.264499 0.939127
Si Si7 0.786327 0.107214 0.577659
O O1 0.500000 0.106390 0.500000
O O2 0.571433 0.173947 0.476585
O O3 0.635959 0.146737 0.801500
O O4 0.600706 0.000000 0.609020
O O5 0.325020 0.243870 0.434415
O O6 0.215729 0.162009 0.307295
O O7 0.235496 0.344227 0.382876
O O8 0.198385 0.286825 0.105168
O O9 0.045848 0.182535 0.286116
O O10 0.133146 0.106506 0.307566
O O11 0.032501 0.000000 0.198454
O O12 0.000000 0.145057 0.000000
O O13 0.116451 0.852772 0.605227
O O14 0.500000 0.363896 0.500000
O O15 0.400485 0.500000 0.292349
O O16 0.371074 0.329946 0.158100
O O17 0.250000 0.250000 0.000000
O O18 0.757895 0.000000 0.541570
#
# Coordination Sequence:
#
# PCOD8084276 Si02
#       7
#     8   8   8   8   8   8   8
#     4  10  22  38  54  76 109 150 190 224 269 327
#     4  10  20  35  53  79 108 138 185 224 273 332
#     4   9  18  32  54  82 105 135 179 222 278 339
#     4  10  18  35  54  75 106 145 180 226 277 328
#     4  10  21  35  53  82 117 148 177 219 284 344
#     4  11  20  36  55  86 112 140 184 231 277 327
#     4   9  20  36  53  75 108 144 176 224 276 321
#
# _framework density 18.110102999999999
#
# number of rings (size 3 to 8) (size 9 to 14) (size 15 to 20)
#    0.000    2.143    2.857    2.143    0.000    5.143 
#    0.000    2.857    0.000    0.429    0.000    0.000 
#    0.000    0.000    0.000    0.000    0.000    0.000 
#
# Total GULP energy -347122.076824 kJ/mol
# GULP energy per Si atom -12397.217029 kJ/mol
# Density = 1.806888 g / cm^3
# Si number density = 18.110103 Si / 1000 Ang^3
#
#
#
# Elastic Constant Matrix: (Units=GPa)
#
#
# Indices 1 2 3 4 5 6 
#
# 1 54.2671 35.8425 23.2466 0.0000 -16.8033 0.0000
# 2 35.8425 146.6216 57.0019 0.0000 -13.8291 0.0000
# 3 23.2466 57.0019 114.6923 0.0000 -24.9622 0.0000
# 4 0.0000 0.0000 0.0000 19.6674 0.0000 2.3857
# 5 -16.8033 -13.8291 -24.9622 0.0000 34.8472 0.0000
# 6 0.0000 0.0000 0.0000 2.3857 0.0000 26.1474
#
#
#
# Elastic Compliance Matrix: (Units=1/GPa)
#
#
# Indices 1 2 3 4 5 6 
#
# 1 0.024933 -0.005003 -0.000453 0.000000 0.009713 0.000000
# 2 -0.005003 0.009462 -0.004024 0.000000 -0.001540 0.000000
# 3 -0.000453 -0.004024 0.012339 0.000000 0.007024 0.000000
# 4 0.000000 0.000000 0.000000 0.051415 0.000000 -0.004691
# 5 0.009713 -0.001540 0.007024 0.000000 0.037800 0.000000
# 6 0.000000 0.000000 0.000000 -0.004691 0.000000 0.038673
#
#
# Mechanical properties :
#
#
# Convention : Reuss Voigt Hill
#
# Bulk Modulus (GPa) = 36.00353 60.86256 48.43304
# Shear Modulus (GPa) = 24.64985 29.43175 27.04080
#
# Velocity S-wave (km/s) = 3.69333 4.03570 3.86830
# Velocity P-wave (km/s) = 6.17341 7.44283 6.83764
#
# Compressibility (1/GPa) = 0.02777505
#
# Stress axis : x y z
#
# Youngs Moduli (GPa) = 40.10705 105.68168 81.04129
#
# Poissons Ratio (x) = 0.52870 0.03674
# Poissons Ratio (y) = 0.20065 0.32610
# Poissons Ratio (z) = 0.01818 0.42525
#
# Static dielectric constant tensor:
#      x y z
#    x 3.335910 0.000000 -0.109750 
#    y 0.000000 3.606940 0.000000 
#    z -0.109750 0.000000 3.661820 
# 
# 
# High freq. dielectric constant tensor:
#      x y z
#    x 1.698760 0.000000 -0.002130 
#    y 0.000000 1.702020 0.000000 
#    z -0.002130 0.000000 1.697220 
# 
# From -- ./inp_files/183552.got.cif
#   From: 2010.06.25/outbox.cif.g09.slc.cpg/sg12_92_cif.got.tgz:183552.got - 2010.06.28 00:19:55.
