data_PCOD8084842
_publ_section_title
;
Structure prediction by ZEFSAII (Michael W. Deem and Ramdas Pophale) SiO2 
 PCOD8084842
Probable space group: C 2/M
;
_chemical_formula_sum "Si O2"
_cell_formula_units_Z 64
_cell_length_a 31.929598
_cell_length_b 9.079091
_cell_length_c 29.951234
_cell_angle_alpha 90.000000
_cell_angle_beta 29.598048
_cell_angle_gamma 90.000000
_cell_volume 4288.449813
_symmetry_space_group_name_H-M "C 2/M"
_symmetry_group_IT_number 12
_symmetry_cell_setting 'monoclinic'
loop_
_space_group_symop_operation_xyz
x,y,z
-x,y,-z
-x,-y,-z
x,-y,z
1/2+x,1/2+y,z
1/2-x,1/2+y,-z
1/2-x,1/2-y,-z
1/2+x,1/2-y,z
loop_
_atom_site_type_symbol
_atom_site_label
_atom_site_fract_x
_atom_site_fract_y
_atom_site_fract_z
Si Si1 0.199414 0.326249 0.307486
Si Si2 0.898942 0.173555 0.680339
Si Si3 0.045864 0.662087 0.504648
Si Si4 0.545638 0.830508 0.026391
Si Si5 0.869258 0.828374 0.972871
Si Si6 0.129935 0.330618 0.855646
Si Si7 0.672981 0.832471 0.170479
Si Si8 0.838598 0.669587 0.917428
O O1 0.197487 0.500000 0.300063
O O2 0.165423 0.246775 0.294751
O O3 0.141986 0.286518 0.404283
O O4 0.293795 0.273070 0.230704
O O5 0.872213 0.219726 0.754603
O O6 0.996461 0.223878 0.582076
O O7 0.893356 0.000000 0.680201
O O8 0.045222 0.500000 0.527966
O O9 0.000000 0.652125 0.500000
O O10 0.569613 0.726080 0.044802
O O11 0.447367 0.803241 0.106394
O O12 0.561377 0.000000 0.024875
O O13 0.602654 0.788035 0.930994
O O14 0.896799 0.746823 0.901189
O O15 0.883184 0.000000 0.952521
O O16 0.772170 0.791103 0.075084
O O17 0.159043 0.500000 0.826985
O O18 0.625936 0.816037 0.165996
O O19 0.663610 0.000000 0.196723
O O20 0.825681 0.500000 0.942376
O O21 0.750000 0.750000 0.000000
#
# Coordination Sequence:
#
# PCOD8084842 Si02
#       8
#     8   8   8   8   8   8   8   8
#     4  10  19  30  44  60  81 111 142 172 209 249
#     4  11  20  27  41  63  84 109 140 173 206 242
#     4   8  16  30  43  56  79 109 137 168 206 246
#     4   9  18  31  44  60  84 112 141 174 212 246
#     4  10  19  29  43  62  83 111 144 174 206 245
#     4   9  18  31  45  61  82 109 142 179 211 240
#     4   9  18  30  42  59  84 112 140 169 205 248
#     4   9  17  29  44  60  80 108 139 172 208 245
#
# _framework density 14.923807999999999
#
# number of rings (size 3 to 8) (size 9 to 14) (size 15 to 20)
#    0.000    2.625    0.000    5.250    0.000    8.750 
#    0.000    1.250    0.000    0.000    0.000    0.000 
#    0.000    1.000    0.000    3.250    0.000    4.000 
#
# Total GULP energy -396678.968379 kJ/mol
# GULP energy per Si atom -12396.217762 kJ/mol
# Density = 1.488984 g / cm^3
# Si number density = 14.923808 Si / 1000 Ang^3
#
#
#
# Elastic Constant Matrix: (Units=GPa)
#
#
# Indices 1 2 3 4 5 6 
#
# 1 80.8503 46.0689 29.2665 -0.0011 4.9588 -0.0016
# 2 46.0689 101.3270 47.6084 -0.0348 5.1959 0.0240
# 3 29.2665 47.6084 81.9515 -0.0118 -2.9007 0.0123
# 4 -0.0011 -0.0348 -0.0118 22.7233 0.0017 -0.0176
# 5 4.9588 5.1959 -2.9007 0.0017 15.1751 -0.0022
# 6 -0.0016 0.0240 0.0123 -0.0176 -0.0022 25.6589
#
#
#
# Elastic Compliance Matrix: (Units=1/GPa)
#
#
# Indices 1 2 3 4 5 6 
#
# 1 0.017187 -0.006416 -0.002549 -0.000010 -0.003906 0.000008
# 2 -0.006416 0.016574 -0.007515 0.000022 -0.005015 -0.000013
# 3 -0.002549 -0.007515 0.017718 -0.000003 0.006793 -0.000001
# 4 -0.000010 0.000022 -0.000003 0.044008 -0.000010 0.000030
# 5 -0.003906 -0.005015 0.006793 -0.000010 0.070189 0.000007
# 6 0.000008 -0.000013 -0.000001 0.000030 0.000007 0.038973
#
#
# Mechanical properties :
#
#
# Convention : Reuss Voigt Hill
#
# Bulk Modulus (GPa) = 53.99459 56.66849 55.33154
# Shear Modulus (GPa) = 20.51015 22.12376 21.31696
#
# Velocity S-wave (km/s) = 3.71121 3.85443 3.78350
# Velocity P-wave (km/s) = 7.39072 7.60679 7.49953
#
# Compressibility (1/GPa) = 0.01852037
#
# Stress axis : x y z
#
# Youngs Moduli (GPa) = 58.18447 60.33502 56.43858
#
# Poissons Ratio (x) = 0.38713 0.14384
# Poissons Ratio (y) = 0.37333 0.42411
# Poissons Ratio (z) = 0.14829 0.45339
#
# Static dielectric constant tensor:
#      x y z
#    x 2.711120 -0.000050 0.075420 
#    y -0.000050 2.967560 0.000070 
#    z 0.075420 0.000070 2.958440 
# 
# 
# High freq. dielectric constant tensor:
#      x y z
#    x 1.546240 0.000000 0.008600 
#    y 0.000000 1.582510 0.000000 
#    z 0.008600 0.000000 1.548880 
# 
# From -- ./inp_files/384567.got.cif
#   From: 2010.06.25/outbox.cif.g09.slc.cpg/sg12_193_cif.got.tgz:384567.got - 2010.06.28 00:19:55.
