data_PCOD8084020
_publ_section_title
;
Structure prediction by ZEFSAII (Michael W. Deem and Ramdas Pophale) SiO2 
 PCOD8084020
Probable space group: C 2/M
;
_chemical_formula_sum "Si O2"
_cell_formula_units_Z 64
_cell_length_a 20.188718
_cell_length_b 8.837628
_cell_length_c 31.583436
_cell_angle_alpha 90.000000
_cell_angle_beta 143.089730
_cell_angle_gamma 90.000000
_cell_volume 3384.252889
_symmetry_space_group_name_H-M "C 2/M"
_symmetry_group_IT_number 12
_symmetry_cell_setting 'monoclinic'
loop_
_space_group_symop_operation_xyz
x,y,z
-x,y,-z
-x,-y,-z
x,-y,z
1/2+x,1/2+y,z
1/2-x,1/2+y,-z
1/2-x,1/2-y,-z
1/2+x,1/2-y,z
loop_
_atom_site_type_symbol
_atom_site_label
_atom_site_fract_x
_atom_site_fract_y
_atom_site_fract_z
Si Si1 0.481433 0.820843 0.924425
Si Si2 0.001025 0.178516 0.596435
Si Si3 0.677349 0.821055 0.083248
Si Si4 0.941404 0.821711 0.659057
Si Si5 0.714216 0.679742 0.561772
Si Si6 0.944084 0.679772 0.811969
Si Si7 0.285432 0.679910 0.341266
Si Si8 0.413976 0.178474 0.193885
O O1 0.377057 0.772323 0.899809
O O2 0.470522 0.750802 0.871837
O O3 0.483708 0.000000 0.923672
O O4 0.595824 0.767026 0.004033
O O5 0.111237 0.248054 0.631842
O O6 0.000819 0.222479 0.645575
O O7 0.893152 0.241726 0.517493
O O8 0.001629 0.000000 0.590355
O O9 0.790396 0.734191 0.135402
O O10 0.699073 0.000000 0.092917
O O11 0.818377 0.758561 0.593615
O O12 0.008629 0.748057 0.731106
O O13 0.938092 0.000000 0.664148
O O14 0.728132 0.500000 0.565103
O O15 0.704726 0.732670 0.605393
O O16 0.937034 0.500000 0.811300
O O17 0.827191 0.745509 0.736258
O O18 0.039945 0.729032 0.828453
O O19 0.284595 0.500000 0.338132
O O20 0.419028 0.000000 0.201673
#
# Coordination Sequence:
#
# PCOD8084020 Si02
#       8
#     8   8   8   8   8   8   8   8
#     4   8  16  32  55  82 109 135 172 213 253 304
#     4   9  19  31  51  81 104 131 176 220 259 306
#     4   9  18  34  57  84 108 135 168 212 261 305
#     4  11  22  35  52  77 106 139 175 215 261 311
#     4  10  18  34  56  78 105 134 169 217 265 311
#     4   9  17  30  51  77 104 138 177 215 253 300
#     4   9  16  29  51  79 104 132 173 219 257 297
#     4  11  22  36  53  77 106 141 177 213 258 306
#
# _framework density 18.911116
#
# number of rings (size 3 to 8) (size 9 to 14) (size 15 to 20)
#    0.000    2.500    1.250    2.250    1.750    2.000 
#    0.000    1.875    0.000    6.750    0.000    0.000 
#    0.000    0.000    0.000    0.000    0.000    0.000 
#
# Total GULP energy -396758.590904 kJ/mol
# GULP energy per Si atom -12398.705966 kJ/mol
# Density = 1.886807 g / cm^3
# Si number density = 18.911116 Si / 1000 Ang^3
#
#
#
# Elastic Constant Matrix: (Units=GPa)
#
#
# Indices 1 2 3 4 5 6 
#
# 1 112.0660 26.8205 42.7905 0.0000 3.1397 0.0001
# 2 26.8205 29.3825 14.9808 0.0002 -2.4256 -0.0003
# 3 42.7905 14.9808 88.7411 -0.0001 -5.6305 0.0002
# 4 0.0000 0.0002 -0.0001 22.4976 0.0000 7.6152
# 5 3.1397 -2.4256 -5.6305 0.0000 41.2517 0.0001
# 6 0.0001 -0.0003 0.0002 7.6152 0.0001 21.6643
#
#
#
# Elastic Compliance Matrix: (Units=1/GPa)
#
#
# Indices 1 2 3 4 5 6 
#
# 1 0.013166 -0.009731 -0.004848 0.000000 -0.002236 0.000000
# 2 -0.009731 0.044505 -0.002631 -0.000001 0.002998 0.000001
# 3 -0.004848 -0.002631 0.014187 0.000000 0.002151 0.000000
# 4 0.000000 -0.000001 0.000000 0.050452 0.000000 -0.017734
# 5 -0.002236 0.002998 0.002151 0.000000 0.024881 0.000000
# 6 0.000000 0.000001 0.000000 -0.017734 0.000000 0.052393
#
#
# Mechanical properties :
#
#
# Convention : Reuss Voigt Hill
#
# Bulk Modulus (GPa) = 26.70991 44.37480 35.54236
# Shear Modulus (GPa) = 20.28547 26.78926 23.53736
#
# Velocity S-wave (km/s) = 3.27872 3.76784 3.53176
# Velocity P-wave (km/s) = 5.33741 6.51496 5.95536
#
# Compressibility (1/GPa) = 0.03743928
#
# Stress axis : x y z
#
# Youngs Moduli (GPa) = 75.95437 22.46936 70.48803
#
# Poissons Ratio (x) = 0.21865 0.34170
# Poissons Ratio (y) = 0.73910 0.18544
# Poissons Ratio (z) = 0.36820 0.05911
#
# Static dielectric constant tensor:
#      x y z
#    x 3.790640 0.000000 -0.080610 
#    y 0.000000 2.963490 0.000000 
#    z -0.080610 0.000000 3.766050 
# 
# 
# High freq. dielectric constant tensor:
#      x y z
#    x 1.751000 0.000000 -0.000800 
#    y 0.000000 1.681040 0.000000 
#    z -0.000800 0.000000 1.747260 
# 
# From -- ./inp_files/378347.got.cif
#   From: 2010.06.25/outbox.cif.g09.slc.cpg/sg12_190_cif.got.tgz:378347.got - 2010.06.28 00:19:55.
