data_PCOD8084435
_publ_section_title
;
Structure prediction by ZEFSAII (Michael W. Deem and Ramdas Pophale) SiO2 
 PCOD8084435
Probable space group: C 2/M
;
_chemical_formula_sum "Si O2"
_cell_formula_units_Z 40
_cell_length_a 17.710303
_cell_length_b 14.833135
_cell_length_c 6.741297
_cell_angle_alpha 90.000000
_cell_angle_beta 66.280002
_cell_angle_gamma 90.000000
_cell_volume 1621.329569
_symmetry_space_group_name_H-M "C 2/M"
_symmetry_group_IT_number 12
_symmetry_cell_setting 'monoclinic'
loop_
_space_group_symop_operation_xyz
x,y,z
-x,y,-z
-x,-y,-z
x,-y,z
1/2+x,1/2+y,z
1/2-x,1/2+y,-z
1/2-x,1/2-y,-z
1/2+x,1/2-y,z
loop_
_atom_site_type_symbol
_atom_site_label
_atom_site_fract_x
_atom_site_fract_y
_atom_site_fract_z
Si Si1 0.334956 0.229664 0.303796
Si Si2 0.900505 0.848109 0.761454
Si Si3 0.279950 0.099973 0.021439
Si Si4 0.070925 0.099816 0.715469
Si Si5 0.589254 0.847942 0.405090
O O1 0.250000 0.250000 0.500000
O O2 0.320297 0.172959 0.123066
O O3 0.381913 0.323827 0.204012
O O4 0.391236 0.170193 0.387046
O O5 0.810365 0.866073 0.949896
O O6 0.901871 0.893260 0.542817
O O7 0.918957 0.743064 0.715009
O O8 0.971024 0.888872 0.832421
O O9 0.274860 0.000000 0.122753
O O10 0.338015 0.092487 0.766301
O O11 0.094747 0.000000 0.768135
O O12 0.500000 0.897394 0.500000
#
# Coordination Sequence:
#
# PCOD8084435 Si02
#       5
#     8   8   8   8   8
#     4  11  23  40  69 103 139 182 223 284 343 409
#     4  10  18  38  68  99 133 174 221 281 348 409
#     4  12  26  43  71 104 138 184 236 282 336 407
#     4  10  18  35  68 102 136 175 218 279 353 412
#     4  11  23  46  69  97 136 188 230 280 345 406
#
# _framework density 24.671109000000001
#
# number of rings (size 3 to 8) (size 9 to 14) (size 15 to 20)
#    0.000    1.200    8.000    3.000    0.000    2.000 
#    0.000    1.000    0.000    2.400    0.000    0.000 
#    0.000    0.000    0.000    0.000    0.000    0.000 
#
# Total GULP energy -248034.371073 kJ/mol
# GULP energy per Si atom -12401.718554 kJ/mol
# Density = 2.461496 g / cm^3
# Si number density = 24.671109 Si / 1000 Ang^3
#
#
#
# Elastic Constant Matrix: (Units=GPa)
#
#
# Indices 1 2 3 4 5 6 
#
# 1 165.3230 51.7770 46.3293 0.0000 -28.3415 0.0000
# 2 51.7770 137.3877 20.9831 0.0000 7.3105 0.0000
# 3 46.3293 20.9831 94.9208 0.0000 -47.8669 0.0000
# 4 0.0000 0.0000 0.0000 24.7373 0.0000 -4.0514
# 5 -28.3415 7.3105 -47.8669 0.0000 49.0266 0.0000
# 6 0.0000 0.0000 0.0000 -4.0514 0.0000 18.2089
#
#
#
# Elastic Compliance Matrix: (Units=1/GPa)
#
#
# Indices 1 2 3 4 5 6 
#
# 1 0.008017 -0.003017 -0.001344 0.000000 0.003772 0.000000
# 2 -0.003017 0.009476 -0.004362 0.000000 -0.007416 0.000000
# 3 -0.001344 -0.004362 0.023819 0.000000 0.023129 0.000000
# 4 0.000000 0.000000 0.000000 0.041954 0.000000 0.009334
# 5 0.003772 -0.007416 0.023129 0.000000 0.046266 0.000000
# 6 0.000000 0.000000 0.000000 0.009334 0.000000 0.056995
#
#
# Mechanical properties :
#
#
# Convention : Reuss Voigt Hill
#
# Bulk Modulus (GPa) = 41.89909 70.64557 56.27233
# Shear Modulus (GPa) = 23.59302 36.96405 30.27853
#
# Velocity S-wave (km/s) = 3.09577 3.87495 3.50707
# Velocity P-wave (km/s) = 5.45878 6.97979 6.26561
#
# Compressibility (1/GPa) = 0.02386687
#
# Stress axis : x y z
#
# Youngs Moduli (GPa) = 124.73759 105.52474 41.98365
#
# Poissons Ratio (x) = 0.31835 0.05641
# Poissons Ratio (y) = 0.37631 0.18314
# Poissons Ratio (z) = 0.16760 0.46032
#
# Static dielectric constant tensor:
#      x y z
#    x 4.787700 0.000000 -0.028600 
#    y 0.000000 4.350970 0.000000 
#    z -0.028600 0.000000 4.870840 
# 
# 
# High freq. dielectric constant tensor:
#      x y z
#    x 1.985220 0.000000 -0.012280 
#    y 0.000000 1.967090 0.000000 
#    z -0.012280 0.000000 1.992260 
# 
# From -- ./inp_files/72824.got.cif
#   From: 2010.06.25/outbox.cif.g09.slc.cpg/sg12_37_cif.got.tgz:72824.got - 2010.06.28 00:19:55.
