data_PCOD8084769
_publ_section_title
;
Structure prediction by ZEFSAII (Michael W. Deem and Ramdas Pophale) SiO2 
 PCOD8084769
Probable space group: C 2/M
;
_chemical_formula_sum "Si O2"
_cell_formula_units_Z 56
_cell_length_a 32.269351
_cell_length_b 9.109262
_cell_length_c 13.868626
_cell_angle_alpha 90.000000
_cell_angle_beta 64.106272
_cell_angle_gamma 90.000000
_cell_volume 3667.406124
_symmetry_space_group_name_H-M "C 2/M"
_symmetry_group_IT_number 12
_symmetry_cell_setting 'monoclinic'
loop_
_space_group_symop_operation_xyz
x,y,z
-x,y,-z
-x,-y,-z
x,-y,z
1/2+x,1/2+y,z
1/2-x,1/2+y,-z
1/2-x,1/2-y,-z
1/2+x,1/2-y,z
loop_
_atom_site_type_symbol
_atom_site_label
_atom_site_fract_x
_atom_site_fract_y
_atom_site_fract_z
Si Si1 0.152317 0.832760 0.704568
Si Si2 0.428959 0.826443 0.113586
Si Si3 0.254305 0.169908 0.596047
Si Si4 0.979713 0.673527 0.664136
Si Si5 0.572321 0.826211 0.469017
Si Si6 0.657539 0.326401 0.476182
Si Si7 0.020383 0.674562 0.123554
O O1 0.119422 0.738074 0.804966
O O2 0.203928 0.815615 0.696434
O O3 0.149899 0.780397 0.595536
O O4 0.135834 0.000000 0.726680
O O5 0.469668 0.771485 0.142894
O O6 0.424684 0.000000 0.121447
O O7 0.441181 0.772553 0.992352
O O8 0.250000 0.250000 0.500000
O O9 0.295373 0.251089 0.612119
O O10 0.267268 0.000000 0.567591
O O11 0.981804 0.500000 0.666393
O O12 0.940205 0.718659 0.628368
O O13 0.968523 0.739514 0.781457
O O14 0.030092 0.726479 0.579055
O O15 0.616600 0.734167 0.452899
O O16 0.581758 0.000000 0.469550
O O17 0.662017 0.500000 0.459810
O O18 0.020117 0.500000 0.125608
#
# Coordination Sequence:
#
# PCOD8084769 Si02
#       7
#     8   8   8   8   8   8   8
#     4   9  18  29  40  58  85 110 132 163 205 244
#     4   9  16  25  42  63  81 108 143 170 198 236
#     4   9  17  29  43  60  83 110 137 167 204 248
#     4   8  14  25  41  61  86 111 139 173 205 241
#     4   9  16  26  43  64  81 108 145 173 202 243
#     4  10  19  29  41  60  86 113 137 168 208 248
#     4   8  14  25  39  60  87 110 136 172 203 232
#
# _framework density 15.269648
#
# number of rings (size 3 to 8) (size 9 to 14) (size 15 to 20)
#    0.000    3.143    0.000    4.286    0.000    4.571 
#    0.000    2.857    0.000    2.571    0.000    1.000 
#    0.000    0.000    0.000    0.000    0.000    0.000 
#
# Total GULP energy -346958.302137 kJ/mol
# GULP energy per Si atom -12391.367933 kJ/mol
# Density = 1.523489 g / cm^3
# Si number density = 15.269648 Si / 1000 Ang^3
#
#
#
# Elastic Constant Matrix: (Units=GPa)
#
#
# Indices 1 2 3 4 5 6 
#
# 1 120.6806 42.3087 59.6103 0.0000 -5.1859 0.0000
# 2 42.3087 53.2593 31.8883 0.0000 -7.7731 0.0000
# 3 59.6103 31.8883 100.0416 0.0000 2.7842 0.0000
# 4 0.0000 0.0000 0.0000 16.9303 0.0000 -5.7711
# 5 -5.1859 -7.7731 2.7842 0.0000 25.5075 0.0000
# 6 0.0000 0.0000 0.0000 -5.7711 0.0000 24.3345
#
#
#
# Elastic Compliance Matrix: (Units=1/GPa)
#
#
# Indices 1 2 3 4 5 6 
#
# 1 0.013820 -0.007221 -0.005968 0.000000 0.001261 0.000000
# 2 -0.007221 0.028683 -0.005058 0.000000 0.007825 0.000000
# 3 -0.005968 -0.005058 0.015287 0.000000 -0.004423 0.000000
# 4 0.000000 0.000000 0.000000 0.064261 0.000000 0.015240
# 5 0.001261 0.007825 -0.004423 0.000000 0.042328 0.000000
# 6 0.000000 0.000000 0.000000 0.015240 0.000000 0.044708
#
#
# Mechanical properties :
#
#
# Convention : Reuss Voigt Hill
#
# Bulk Modulus (GPa) = 46.95685 60.17736 53.56711
# Shear Modulus (GPa) = 19.78795 22.69941 21.24368
#
# Velocity S-wave (km/s) = 3.60377 3.85979 3.73397
# Velocity P-wave (km/s) = 6.93792 7.70450 7.33124
#
# Compressibility (1/GPa) = 0.02129615
#
# Stress axis : x y z
#
# Youngs Moduli (GPa) = 72.35832 34.86422 65.41441
#
# Poissons Ratio (x) = 0.25176 0.39040
# Poissons Ratio (y) = 0.52252 0.33084
# Poissons Ratio (z) = 0.43184 0.17633
#
# Static dielectric constant tensor:
#      x y z
#    x 3.034730 0.000000 0.046720 
#    y 0.000000 2.734720 0.000000 
#    z 0.046720 0.000000 3.090110 
# 
# 
# High freq. dielectric constant tensor:
#      x y z
#    x 1.579880 0.000000 -0.009710 
#    y 0.000000 1.566120 0.000000 
#    z -0.009710 0.000000 1.562390 
# 
# From -- ./inp_files/248155.got.cif
#   From: 2010.06.25/outbox.cif.g09.slc.cpg/sg12_125_cif.got.tgz:248155.got - 2010.06.28 00:19:55.
