data_PCOD8084173
_publ_section_title
;
Structure prediction by ZEFSAII (Michael W. Deem and Ramdas Pophale) SiO2 
 PCOD8084173
Probable space group: C 2/M
;
_chemical_formula_sum "Si O2"
_cell_formula_units_Z 44
_cell_length_a 16.795454
_cell_length_b 22.375181
_cell_length_c 15.089425
_cell_angle_alpha 90.000000
_cell_angle_beta 159.776929
_cell_angle_gamma 90.000000
_cell_volume 1960.199665
_symmetry_space_group_name_H-M "C 2/M"
_symmetry_group_IT_number 12
_symmetry_cell_setting 'monoclinic'
loop_
_space_group_symop_operation_xyz
x,y,z
-x,y,-z
-x,-y,-z
x,-y,z
1/2+x,1/2+y,z
1/2-x,1/2+y,-z
1/2-x,1/2-y,-z
1/2+x,1/2-y,z
loop_
_atom_site_type_symbol
_atom_site_label
_atom_site_fract_x
_atom_site_fract_y
_atom_site_fract_z
Si Si1 0.500000 0.329009 0.500000
Si Si2 0.786239 0.239208 0.433034
Si Si3 0.681093 0.929924 0.438325
Si Si4 0.103300 0.350530 0.975031
Si Si5 0.509602 0.855535 0.612558
Si Si6 0.431496 0.660758 0.153757
O O1 0.535606 0.288442 0.451357
O O2 0.731878 0.366928 0.767788
O O3 0.538173 0.210447 0.152997
O O4 0.806688 0.310216 0.434439
O O5 0.889453 0.217130 0.640214
O O6 0.568867 0.904744 0.229612
O O7 0.531258 0.914416 0.369847
O O8 0.935515 0.901903 0.712116
O O9 0.707428 0.000000 0.456765
O O10 0.253413 0.339213 0.046451
O O11 0.500000 0.872486 0.500000
O O12 0.769535 0.829594 0.898643
#
# Coordination Sequence:
#
# PCOD8084173 Si02
#       6
#     4   8   8   8   8   8
#     4  10  18  34  59  98 135 160 184 248 316 384
#     4  10  19  36  60  93 130 163 192 246 314 387
#     4  10  23  43  63  85 120 170 222 262 296 350
#     4   9  20  37  64  92 124 163 204 249 314 372
#     4  11  23  39  60  96 125 161 205 254 312 371
#     4   9  21  38  59  86 124 163 209 252 313 364
#
# _framework density 22.446693
#
# number of rings (size 3 to 8) (size 9 to 14) (size 15 to 20)
#    0.000    2.182    0.909    1.091    0.000   13.455 
#    3.273    1.364    0.000   14.182    0.000    0.000 
#    0.000    0.000    0.000    0.000    0.000    0.000 
#
# Total GULP energy -272682.959092 kJ/mol
# GULP energy per Si atom -12394.679959 kJ/mol
# Density = 2.239560 g / cm^3
# Si number density = 22.446693 Si / 1000 Ang^3
#
#
#
# Elastic Constant Matrix: (Units=GPa)
#
#
# Indices 1 2 3 4 5 6 
#
# 1 52.6854 21.3670 34.8895 0.0000 -6.2294 0.0001
# 2 21.3670 135.0010 52.5043 0.0001 8.2168 0.0000
# 3 34.8895 52.5043 179.0643 -0.0004 -11.4202 -0.0001
# 4 0.0000 0.0001 -0.0004 18.7679 -0.0004 4.0243
# 5 -6.2294 8.2168 -11.4202 -0.0004 41.1409 -0.0001
# 6 0.0001 0.0000 -0.0001 4.0243 -0.0001 25.5240
#
#
#
# Elastic Compliance Matrix: (Units=1/GPa)
#
#
# Indices 1 2 3 4 5 6 
#
# 1 0.022628 -0.002390 -0.003522 0.000000 0.002926 0.000000
# 2 -0.002390 0.008851 -0.002306 0.000000 -0.002770 0.000000
# 3 -0.003522 -0.002306 0.007067 0.000000 0.001889 0.000000
# 4 0.000000 0.000000 0.000000 0.055147 0.000001 -0.008695
# 5 0.002926 -0.002770 0.001889 0.000001 0.025827 0.000000
# 6 0.000000 0.000000 0.000000 -0.008695 0.000000 0.040550
#
#
# Mechanical properties :
#
#
# Convention : Reuss Voigt Hill
#
# Bulk Modulus (GPa) = 45.22624 64.91912 55.07268
# Shear Modulus (GPa) = 27.19225 34.28590 30.73907
#
# Velocity S-wave (km/s) = 3.48431 3.91248 3.70459
# Velocity P-wave (km/s) = 6.03152 7.02811 6.54880
#
# Compressibility (1/GPa) = 0.02211106
#
# Stress axis : x y z
#
# Youngs Moduli (GPa) = 44.19338 112.97970 141.49353
#
# Poissons Ratio (x) = 0.27001 0.49827
# Poissons Ratio (y) = 0.10562 0.32632
# Poissons Ratio (z) = 0.15563 0.26056
#
# Static dielectric constant tensor:
#      x y z
#    x 4.324550 0.000000 0.005080 
#    y 0.000000 3.619180 0.000000 
#    z 0.005080 0.000000 5.413090 
# 
# 
# High freq. dielectric constant tensor:
#      x y z
#    x 1.909150 0.000000 0.013400 
#    y 0.000000 1.829890 0.000000 
#    z 0.013400 0.000000 1.907900 
# 
# From -- ./inp_files/228213.got.cif
#   From: 2010.06.25/outbox.cif.g09.slc.cpg/sg12_115_cif.got.tgz:228213.got - 2010.06.28 00:19:55.
