data_PCOD8084336
_publ_section_title
;
Structure prediction by ZEFSAII (Michael W. Deem and Ramdas Pophale) SiO2 
 PCOD8084336
Probable space group: C 2/M
;
_chemical_formula_sum "Si O2"
_cell_formula_units_Z 48
_cell_length_a 14.768163
_cell_length_b 8.698263
_cell_length_c 29.319984
_cell_angle_alpha 90.000000
_cell_angle_beta 40.108110
_cell_angle_gamma 90.000000
_cell_volume 2426.414336
_symmetry_space_group_name_H-M "C 2/M"
_symmetry_group_IT_number 12
_symmetry_cell_setting 'monoclinic'
loop_
_space_group_symop_operation_xyz
x,y,z
-x,y,-z
-x,-y,-z
x,-y,z
1/2+x,1/2+y,z
1/2-x,1/2+y,-z
1/2-x,1/2-y,-z
1/2+x,1/2-y,z
loop_
_atom_site_type_symbol
_atom_site_label
_atom_site_fract_x
_atom_site_fract_y
_atom_site_fract_z
Si Si1 0.885404 0.676538 0.849570
Si Si2 0.887350 0.181811 0.506242
Si Si3 0.080431 0.324431 0.854553
Si Si4 0.605707 0.674316 0.000837
Si Si5 0.904039 0.819727 0.396080
Si Si6 0.127713 0.320672 0.245696
O O1 0.841418 0.500000 0.858968
O O2 0.912559 0.745328 0.788843
O O3 0.027804 0.694892 0.823019
O O4 0.752375 0.750455 0.927252
O O5 0.926713 0.235770 0.439712
O O6 0.730564 0.243034 0.576642
O O7 0.000000 0.247605 0.500000
O O8 0.883871 0.000000 0.511782
O O9 0.127474 0.500000 0.845751
O O10 0.207079 0.206645 0.811645
O O11 0.951625 0.281956 0.937030
O O12 0.625570 0.500000 0.011582
O O13 0.500000 0.676632 0.000000
O O14 0.043513 0.775025 0.315450
O O15 0.880248 0.000000 0.403974
O O16 0.092911 0.500000 0.265075
#
# Coordination Sequence:
#
# PCOD8084336 Si02
#       6
#     8   8   8   8   8   8
#     4   9  20  37  56  77 106 147 187 227 276 338
#     4   9  19  38  63  87 114 152 188 216 264 332
#     4  11  22  36  55  82 110 138 184 240 287 320
#     4  10  18  35  59  78 104 144 189 227 276 341
#     4  10  21  37  58  88 119 143 181 234 274 310
#     4  11  22  40  59  77 110 155 190 217 272 342
#
# _framework density 19.782278000000002
#
# number of rings (size 3 to 8) (size 9 to 14) (size 15 to 20)
#    0.000    2.000    1.667    2.000    0.000    2.667 
#    0.000   10.833    0.000    0.000    0.000    0.000 
#    0.000    0.000    0.000    0.000    0.000    0.000 
#
# Total GULP energy -297605.790775 kJ/mol
# GULP energy per Si atom -12400.241282 kJ/mol
# Density = 1.973725 g / cm^3
# Si number density = 19.782278 Si / 1000 Ang^3
#
#
#
# Elastic Constant Matrix: (Units=GPa)
#
#
# Indices 1 2 3 4 5 6 
#
# 1 116.1032 24.4607 28.5759 0.0005 14.7970 0.0013
# 2 24.4607 29.5308 12.2747 0.0010 4.3810 0.0020
# 3 28.5759 12.2747 97.9591 0.0000 15.2330 0.0002
# 4 0.0005 0.0010 0.0000 32.2547 -0.0002 -5.6712
# 5 14.7970 4.3810 15.2330 -0.0002 14.0930 0.0001
# 6 0.0013 0.0020 0.0002 -5.6712 0.0001 24.8302
#
#
#
# Elastic Compliance Matrix: (Units=1/GPa)
#
#
# Indices 1 2 3 4 5 6 
#
# 1 0.011641 -0.007923 -0.001064 0.000000 -0.008610 0.000000
# 2 -0.007923 0.041794 -0.002643 -0.000002 -0.001816 -0.000003
# 3 -0.001064 -0.002643 0.012680 0.000000 -0.011766 0.000000
# 4 0.000000 -0.000002 0.000000 0.032300 0.000001 0.007377
# 5 -0.008610 -0.001816 -0.011766 0.000001 0.093279 0.000000
# 6 0.000000 -0.000003 0.000000 0.007377 0.000000 0.041959
#
#
# Mechanical properties :
#
#
# Convention : Reuss Voigt Hill
#
# Bulk Modulus (GPa) = 23.33519 41.57949 32.45734
# Shear Modulus (GPa) = 18.43664 26.12104 22.27884
#
# Velocity S-wave (km/s) = 3.05614 3.63771 3.35953
# Velocity P-wave (km/s) = 4.92696 6.22158 5.61173
#
# Compressibility (1/GPa) = 0.04285373
#
# Stress axis : x y z
#
# Youngs Moduli (GPa) = 85.89967 23.92693 78.86605
#
# Poissons Ratio (x) = 0.18958 0.08394
# Poissons Ratio (y) = 0.68059 0.20846
# Poissons Ratio (z) = 0.09143 0.06324
#
# Static dielectric constant tensor:
#      x y z
#    x 3.695740 0.000000 0.155160 
#    y 0.000000 3.393590 0.000000 
#    z 0.155160 0.000000 3.615650 
# 
# 
# High freq. dielectric constant tensor:
#      x y z
#    x 1.778630 0.000000 0.003490 
#    y 0.000000 1.752080 0.000000 
#    z 0.003490 0.000000 1.768850 
# 
# From -- ./inp_files/308584.got.cif
#   From: 2010.06.25/outbox.cif.g09.slc.cpg/sg12_155_cif.got.tgz:308584.got - 2010.06.28 00:19:55.
