data_PCOD8084185
_publ_section_title
;
Structure prediction by ZEFSAII (Michael W. Deem and Ramdas Pophale) SiO2 
 PCOD8084185
Probable space group: C 2/M
;
_chemical_formula_sum "Si O2"
_cell_formula_units_Z 56
_cell_length_a 15.176289
_cell_length_b 9.168971
_cell_length_c 24.574194
_cell_angle_alpha 90.000000
_cell_angle_beta 118.877298
_cell_angle_gamma 90.000000
_cell_volume 2994.325240
_symmetry_space_group_name_H-M "C 2/M"
_symmetry_group_IT_number 12
_symmetry_cell_setting 'monoclinic'
loop_
_space_group_symop_operation_xyz
x,y,z
-x,y,-z
-x,-y,-z
x,-y,z
1/2+x,1/2+y,z
1/2-x,1/2+y,-z
1/2-x,1/2-y,-z
1/2+x,1/2-y,z
loop_
_atom_site_type_symbol
_atom_site_label
_atom_site_fract_x
_atom_site_fract_y
_atom_site_fract_z
Si Si1 0.749610 0.671063 0.366456
Si Si2 0.389169 0.664729 0.490493
Si Si3 0.528792 0.329143 0.068887
Si Si4 0.676076 0.329830 0.937482
Si Si5 0.439613 0.329327 0.622974
Si Si6 0.837182 0.172798 0.291596
Si Si7 0.233881 0.329147 0.149359
O O1 0.768625 0.500000 0.364530
O O2 0.822066 0.728062 0.435137
O O3 0.634690 0.704797 0.349349
O O4 0.766429 0.752754 0.315009
O O5 0.500000 0.661918 0.500000
O O6 0.344154 0.500000 0.475896
O O7 0.393534 0.732000 0.552789
O O8 0.551697 0.500000 0.074749
O O9 0.438964 0.288508 0.083434
O O10 0.627258 0.249479 0.119457
O O11 0.500000 0.273816 0.000000
O O12 0.693820 0.500000 0.951781
O O13 0.700786 0.281269 0.883447
O O14 0.750000 0.250000 0.000000
O O15 0.453440 0.500000 0.617817
O O16 0.549589 0.263983 0.668789
O O17 0.797676 0.218233 0.220701
O O18 0.833119 0.000000 0.299312
O O19 0.212327 0.500000 0.142262
#
# Coordination Sequence:
#
# PCOD8084185 Si02
#       7
#     8   8   8   8   8   8   8
#     4  11  22  35  56  87 115 142 183 237 284 319
#     4  10  18  34  60  83 107 149 189 222 274 335
#     4  10  20  35  57  85 115 145 174 217 280 336
#     4  10  20  35  56  84 112 144 180 221 274 328
#     4   9  19  36  58  81 109 148 188 223 273 336
#     4  10  21  41  59  75 108 153 193 224 267 336
#     4  10  22  37  58  84 109 144 190 233 268 318
#
# _framework density 18.702043
#
# number of rings (size 3 to 8) (size 9 to 14) (size 15 to 20)
#    0.000    2.000    2.857    0.857    0.000    2.857 
#    0.000    5.000    0.000    0.000    0.000    0.000 
#    0.000    0.000    0.000    0.000    0.000    0.000 
#
# Total GULP energy -347241.804785 kJ/mol
# GULP energy per Si atom -12401.493028 kJ/mol
# Density = 1.865948 g / cm^3
# Si number density = 18.702043 Si / 1000 Ang^3
#
#
#
# Elastic Constant Matrix: (Units=GPa)
#
#
# Indices 1 2 3 4 5 6 
#
# 1 139.1853 39.4756 74.0405 0.0000 -17.7073 0.0000
# 2 39.4756 39.2437 44.8230 0.0000 -3.8720 0.0000
# 3 74.0405 44.8230 143.4873 0.0000 -21.3616 0.0000
# 4 0.0000 0.0000 0.0000 18.0923 0.0000 -1.5530
# 5 -17.7073 -3.8720 -21.3616 0.0000 25.4220 0.0000
# 6 0.0000 0.0000 0.0000 -1.5530 0.0000 28.3870
#
#
#
# Elastic Compliance Matrix: (Units=1/GPa)
#
#
# Indices 1 2 3 4 5 6 
#
# 1 0.011481 -0.007929 -0.002785 0.000000 0.004449 0.000000
# 2 -0.007929 0.045654 -0.011381 0.000000 -0.008132 0.000000
# 3 -0.002785 -0.011381 0.013047 0.000000 0.007290 0.000000
# 4 0.000000 0.000000 0.000000 0.055533 0.000000 0.003038
# 5 0.004449 -0.008132 0.007290 0.000000 0.047322 0.000000
# 6 0.000000 0.000000 0.000000 0.003038 0.000000 0.035394
#
#
# Mechanical properties :
#
#
# Convention : Reuss Voigt Hill
#
# Bulk Modulus (GPa) = 38.47312 70.95495 54.71403
# Shear Modulus (GPa) = 19.13631 25.28541 22.21086
#
# Velocity S-wave (km/s) = 3.20225 3.68096 3.44992
# Velocity P-wave (km/s) = 5.85567 7.48919 6.72223
#
# Compressibility (1/GPa) = 0.02599218
#
# Stress axis : x y z
#
# Youngs Moduli (GPa) = 87.10051 21.90395 76.64700
#
# Poissons Ratio (x) = 0.17367 0.21347
# Poissons Ratio (y) = 0.69060 0.87231
# Poissons Ratio (z) = 0.24259 0.24929
#
# Static dielectric constant tensor:
#      x y z
#    x 5.439680 0.000000 -0.593420 
#    y 0.000000 3.286590 0.000000 
#    z -0.593420 0.000000 3.683760 
# 
# 
# High freq. dielectric constant tensor:
#      x y z
#    x 1.741270 0.000000 -0.006070 
#    y 0.000000 1.705550 0.000000 
#    z -0.006070 0.000000 1.726140 
# 
# From -- ./inp_files/337831.got.cif
#   From: 2010.06.25/outbox.cif.g09.slc.cpg/sg12_169_cif.got.tgz:337831.got - 2010.06.28 00:19:55.
