data_PCOD8084075
_publ_section_title
;
Structure prediction by ZEFSAII (Michael W. Deem and Ramdas Pophale) SiO2 
 PCOD8084075
Probable space group: C 2/M
;
_chemical_formula_sum "Si O2"
_cell_formula_units_Z 56
_cell_length_a 21.806732
_cell_length_b 15.026362
_cell_length_c 9.493458
_cell_angle_alpha 90.000000
_cell_angle_beta 122.995583
_cell_angle_gamma 90.000000
_cell_volume 2609.047643
_symmetry_space_group_name_H-M "C 2/M"
_symmetry_group_IT_number 12
_symmetry_cell_setting 'monoclinic'
loop_
_space_group_symop_operation_xyz
x,y,z
-x,y,-z
-x,-y,-z
x,-y,z
1/2+x,1/2+y,z
1/2-x,1/2+y,-z
1/2-x,1/2-y,-z
1/2+x,1/2-y,z
loop_
_atom_site_type_symbol
_atom_site_label
_atom_site_fract_x
_atom_site_fract_y
_atom_site_fract_z
Si Si1 0.506409 0.400255 0.171741
Si Si2 0.473213 0.232068 0.310238
Si Si3 0.804370 0.599129 0.769003
Si Si4 0.167148 0.853329 0.424566
Si Si5 0.334948 0.105732 0.116482
Si Si6 0.759630 0.598177 0.296225
Si Si7 0.383166 0.165336 0.616912
O O1 0.473308 0.500000 0.156262
O O2 0.464335 0.325191 0.212266
O O3 0.591760 0.406654 0.319406
O O4 0.500000 0.372928 0.000000
O O5 0.500000 0.257268 0.500000
O O6 0.401333 0.172421 0.230747
O O7 0.530609 0.166959 0.302559
O O8 0.834970 0.500000 0.808339
O O9 0.724321 0.598482 0.598525
O O10 0.865867 0.653950 0.760832
O O11 0.800536 0.633162 0.924030
O O12 0.204105 0.839804 0.315159
O O13 0.151028 0.759052 0.474170
O O14 0.270978 0.128112 0.149302
O O15 0.356667 0.000000 0.154540
O O16 0.725114 0.500000 0.260168
O O17 0.840365 0.592974 0.470049
#
# Coordination Sequence:
#
# PCOD8084075 Si02
#       7
#     8   8   8   8   8   8   8
#     4  10  23  43  69  93 115 153 208 260 306 361
#     4  11  23  40  60  85 129 166 200 251 303 354
#     4  10  20  36  57  86 122 156 200 248 299 359
#     4  10  20  37  63  90 115 152 198 250 307 363
#     4  10  23  37  57  93 130 165 202 244 295 365
#     4  10  18  34  57  84 120 157 196 240 292 358
#     4  10  20  35  57  84 113 158 206 245 298 354
#
# _framework density 21.46377
#
# number of rings (size 3 to 8) (size 9 to 14) (size 15 to 20)
#    0.000    1.857    1.429    4.286    4.000    1.714 
#    0.000    7.143    0.000    3.429    0.000    0.000 
#    0.000    0.000    0.000    0.000    0.000    0.000 
#
# Total GULP energy -346989.302290 kJ/mol
# GULP energy per Si atom -12392.475082 kJ/mol
# Density = 2.141492 g / cm^3
# Si number density = 21.463770 Si / 1000 Ang^3
#
#
#
# Elastic Constant Matrix: (Units=GPa)
#
#
# Indices 1 2 3 4 5 6 
#
# 1 68.5559 17.4225 23.0119 0.0000 -9.3386 0.0000
# 2 17.4225 68.2709 23.4580 0.0000 -4.5961 0.0000
# 3 23.0119 23.4580 108.9698 0.0000 -30.9790 0.0000
# 4 0.0000 0.0000 0.0000 26.7961 0.0000 -10.8815
# 5 -9.3386 -4.5961 -30.9790 0.0000 32.3322 0.0000
# 6 0.0000 0.0000 0.0000 -10.8815 0.0000 21.8577
#
#
#
# Elastic Compliance Matrix: (Units=1/GPa)
#
#
# Indices 1 2 3 4 5 6 
#
# 1 0.016448 -0.003318 -0.002120 0.000000 0.002248 0.000000
# 2 -0.003318 0.016532 -0.003385 0.000000 -0.001851 0.000000
# 3 -0.002120 -0.003385 0.013802 0.000000 0.012131 0.000000
# 4 0.000000 0.000000 0.000000 0.046775 0.000000 0.023286
# 5 0.002248 -0.001851 0.012131 0.000000 0.042938 0.000000
# 6 0.000000 0.000000 0.000000 0.023286 0.000000 0.057343
#
#
# Mechanical properties :
#
#
# Convention : Reuss Voigt Hill
#
# Bulk Modulus (GPa) = 34.32044 41.50905 37.91475
# Shear Modulus (GPa) = 22.60446 28.32415 25.46430
#
# Velocity S-wave (km/s) = 3.24874 3.63661 3.44813
# Velocity P-wave (km/s) = 5.48608 6.08394 5.79273
#
# Compressibility (1/GPa) = 0.02913716
#
# Stress axis : x y z
#
# Youngs Moduli (GPa) = 60.79919 60.48696 72.45416
#
# Poissons Ratio (x) = 0.20067 0.15362
# Poissons Ratio (y) = 0.20170 0.24523
# Poissons Ratio (z) = 0.12891 0.20472
#
# Static dielectric constant tensor:
#      x y z
#    x 3.837600 0.000000 -0.210740 
#    y 0.000000 3.864070 0.000000 
#    z -0.210740 0.000000 3.884700 
# 
# 
# High freq. dielectric constant tensor:
#      x y z
#    x 1.830840 0.000000 -0.016710 
#    y 0.000000 1.844540 0.000000 
#    z -0.016710 0.000000 1.835290 
# 
# From -- ./inp_files/96965.got.cif
#   From: 2010.06.25/outbox.cif.g09.slc.cpg/sg12_49_cif.got.tgz:96965.got - 2010.06.28 00:19:55.
