data_PCOD8084627
_publ_section_title
;
Structure prediction by ZEFSAII (Michael W. Deem and Ramdas Pophale) SiO2 
 PCOD8084627
Probable space group: C 2/M
;
_chemical_formula_sum "Si O2"
_cell_formula_units_Z 56
_cell_length_a 11.338638
_cell_length_b 30.248639
_cell_length_c 9.198822
_cell_angle_alpha 90.000000
_cell_angle_beta 116.864994
_cell_angle_gamma 90.000000
_cell_volume 2814.490081
_symmetry_space_group_name_H-M "C 2/M"
_symmetry_group_IT_number 12
_symmetry_cell_setting 'monoclinic'
loop_
_space_group_symop_operation_xyz
x,y,z
-x,y,-z
-x,-y,-z
x,-y,z
1/2+x,1/2+y,z
1/2-x,1/2+y,-z
1/2-x,1/2-y,-z
1/2+x,1/2-y,z
loop_
_atom_site_type_symbol
_atom_site_label
_atom_site_fract_x
_atom_site_fract_y
_atom_site_fract_z
Si Si1 0.071144 0.177238 0.306532
Si Si2 0.185209 0.873921 0.846469
Si Si3 0.227706 0.669636 0.830953
Si Si4 0.006014 0.728308 0.672595
Si Si5 0.799248 0.651497 0.616039
Si Si6 0.357263 0.091703 0.383473
Si Si7 0.652718 0.550827 0.052431
O O1 0.143597 0.163963 0.197683
O O2 0.019517 0.226933 0.253957
O O3 0.168427 0.178884 0.499261
O O4 0.962935 0.139683 0.280625
O O5 0.283392 0.871779 0.763879
O O6 0.194730 0.921152 0.933512
O O7 0.232239 0.836154 0.981746
O O8 0.120802 0.632776 0.715532
O O9 0.159457 0.717002 0.785311
O O10 0.916271 0.687486 0.678152
O O11 0.000000 0.737294 0.500000
O O12 0.807307 0.610712 0.508820
O O13 0.500000 0.068746 0.500000
O O14 0.247794 0.059932 0.245846
O O15 0.668813 0.500000 0.017859
O O16 0.500000 0.562406 0.000000
#
# Coordination Sequence:
#
# PCOD8084627 Si02
#       7
#     8   8   8   8   8   8   8
#     4  11  23  36  59  81 118 164 212 257 294 354
#     4  11  23  39  59  89 123 157 196 252 318 367
#     4  10  21  39  55  78 119 162 203 246 303 359
#     4  12  21  37  58  81 116 164 216 255 291 353
#     4  11  21  37  59  87 116 163 201 250 309 356
#     4  10  18  39  66  89 117 160 208 248 301 369
#     4  10  22  42  69  94 122 161 201 249 316 389
#
# _framework density 19.897031999999999
#
# number of rings (size 3 to 8) (size 9 to 14) (size 15 to 20)
#    0.000    1.286    4.286    4.714    2.000    1.429 
#    2.571    0.714    0.000    4.286    0.000    0.000 
#    0.000    0.000    0.000    0.000    0.000    0.000 
#
# Total GULP energy -346997.702116 kJ/mol
# GULP energy per Si atom -12392.775076 kJ/mol
# Density = 1.985175 g / cm^3
# Si number density = 19.897032 Si / 1000 Ang^3
#
#
#
# Elastic Constant Matrix: (Units=GPa)
#
#
# Indices 1 2 3 4 5 6 
#
# 1 67.5229 26.0380 40.6352 0.0000 -1.4480 0.0000
# 2 26.0380 91.0364 23.4198 0.0000 -3.8918 0.0000
# 3 40.6352 23.4198 79.9048 0.0000 -14.6845 0.0000
# 4 0.0000 0.0000 0.0000 46.0061 0.0000 27.1482
# 5 -1.4480 -3.8918 -14.6845 0.0000 39.9180 0.0000
# 6 0.0000 0.0000 0.0000 27.1482 0.0000 46.8493
#
#
#
# Elastic Compliance Matrix: (Units=1/GPa)
#
#
# Indices 1 2 3 4 5 6 
#
# 1 0.022970 -0.003837 -0.011231 0.000000 -0.003673 0.000000
# 2 -0.003837 0.012522 -0.001630 0.000000 0.000482 0.000000
# 3 -0.011231 -0.001630 0.019949 0.000000 0.006772 0.000000
# 4 0.000000 0.000000 0.000000 0.033031 0.000000 -0.019141
# 5 -0.003673 0.000482 0.006772 0.000000 0.027456 0.000000
# 6 0.000000 0.000000 0.000000 -0.019141 0.000000 0.032437
#
#
# Mechanical properties :
#
#
# Convention : Reuss Voigt Hill
#
# Bulk Modulus (GPa) = 45.36580 46.51668 45.94124
# Shear Modulus (GPa) = 26.43946 36.44608 31.44277
#
# Velocity S-wave (km/s) = 3.64925 4.28452 3.97958
# Velocity P-wave (km/s) = 6.37227 6.92139 6.65249
#
# Compressibility (1/GPa) = 0.02204304
#
# Stress axis : x y z
#
# Youngs Moduli (GPa) = 43.53526 79.85840 50.12801
#
# Poissons Ratio (x) = 0.30645 0.56301
# Poissons Ratio (y) = 0.16706 0.08171
# Poissons Ratio (z) = 0.48896 0.13018
#
# Static dielectric constant tensor:
#      x y z
#    x 3.754360 0.000000 0.267510 
#    y 0.000000 3.359400 0.000000 
#    z 0.267510 0.000000 3.743900 
# 
# 
# High freq. dielectric constant tensor:
#      x y z
#    x 1.776170 0.000000 0.012050 
#    y 0.000000 1.749040 0.000000 
#    z 0.012050 0.000000 1.780500 
# 
# From -- ./inp_files/54814.got.cif
#   From: 2010.06.25/outbox.cif.g09.slc.cpg/sg12_28_cif.got.tgz:54814.got - 2010.06.28 00:19:55.
