data_PCOD8084635
_publ_section_title
;
Structure prediction by ZEFSAII (Michael W. Deem and Ramdas Pophale) SiO2 
 PCOD8084635
Probable space group: C 2/M
;
_chemical_formula_sum "Si O2"
_cell_formula_units_Z 48
_cell_length_a 19.630902
_cell_length_b 16.896593
_cell_length_c 9.627981
_cell_angle_alpha 90.000000
_cell_angle_beta 46.189111
_cell_angle_gamma 90.000000
_cell_volume 2304.562041
_symmetry_space_group_name_H-M "C 2/M"
_symmetry_group_IT_number 12
_symmetry_cell_setting 'monoclinic'
loop_
_space_group_symop_operation_xyz
x,y,z
-x,y,-z
-x,-y,-z
x,-y,z
1/2+x,1/2+y,z
1/2-x,1/2+y,-z
1/2-x,1/2-y,-z
1/2+x,1/2-y,z
loop_
_atom_site_type_symbol
_atom_site_label
_atom_site_fract_x
_atom_site_fract_y
_atom_site_fract_z
Si Si1 0.098707 0.341051 0.406832
Si Si2 0.096029 0.850355 0.799325
Si Si3 0.204620 0.091363 0.897221
Si Si4 0.715861 0.592347 0.385567
Si Si5 0.656643 0.805225 0.632498
Si Si6 0.673825 0.693738 0.178171
O O1 0.184806 0.393679 0.225037
O O2 0.111658 0.334417 0.552993
O O3 0.093899 0.252658 0.347543
O O4 0.000000 0.382035 0.500000
O O5 0.183160 0.870894 0.778036
O O6 0.123838 0.889012 0.611604
O O7 0.081518 0.755018 0.808554
O O8 0.000000 0.887062 0.000000
O O9 0.179545 0.000000 0.932431
O O10 0.138892 0.133478 0.107178
O O11 0.718929 0.500000 0.345762
O O12 0.814783 0.617125 0.320086
O O13 0.713533 0.641844 0.247863
O O14 0.750000 0.750000 0.500000
O O15 0.750000 0.750000 0.000000
#
# Coordination Sequence:
#
# PCOD8084635 Si02
#       6
#     8   8   8   8   8   8
#     4  11  22  38  63  91 121 162 215 259 309 376
#     4  11  23  39  65  94 126 167 218 266 313 381
#     4  11  23  40  60  90 129 164 203 259 325 382
#     4  11  21  39  68  95 128 166 208 264 328 382
#     4  10  18  40  63  90 119 166 216 259 309 375
#     4  10  21  39  62  89 121 166 211 257 309 377
#
# _framework density 20.828251999999999
#
# number of rings (size 3 to 8) (size 9 to 14) (size 15 to 20)
#    0.000    1.333    6.667    2.000    2.333    1.667 
#    0.000    0.000    0.000    3.500    0.000    0.000 
#    0.000    0.000    0.000    0.000    0.000    0.000 
#
# Total GULP energy -297378.063958 kJ/mol
# GULP energy per Si atom -12390.752665 kJ/mol
# Density = 2.078085 g / cm^3
# Si number density = 20.828252 Si / 1000 Ang^3
#
#
#
# Elastic Constant Matrix: (Units=GPa)
#
#
# Indices 1 2 3 4 5 6 
#
# 1 72.6214 7.8244 30.8047 0.0000 4.4653 0.0000
# 2 7.8244 97.4350 42.0675 0.0000 12.8688 0.0000
# 3 30.8047 42.0675 83.6157 0.0000 21.3722 0.0000
# 4 0.0000 0.0000 0.0000 17.7276 0.0000 2.9660
# 5 4.4653 12.8688 21.3722 0.0000 34.2694 0.0000
# 6 0.0000 0.0000 0.0000 2.9660 0.0000 18.8264
#
#
#
# Elastic Compliance Matrix: (Units=1/GPa)
#
#
# Indices 1 2 3 4 5 6 
#
# 1 0.016626 0.001621 -0.007413 0.000000 0.001848 0.000000
# 2 0.001621 0.013296 -0.007086 0.000000 -0.000785 0.000000
# 3 -0.007413 -0.007086 0.020615 0.000000 -0.009229 0.000000
# 4 0.000000 0.000000 0.000000 0.057936 0.000000 -0.009128
# 5 0.001848 -0.000785 -0.009229 0.000000 0.034990 0.000000
# 6 0.000000 0.000000 0.000000 -0.009128 0.000000 0.054555
#
#
# Mechanical properties :
#
#
# Convention : Reuss Voigt Hill
#
# Bulk Modulus (GPa) = 40.35317 46.11835 43.23576
# Shear Modulus (GPa) = 21.54843 25.69638 23.62240
#
# Velocity S-wave (km/s) = 3.21997 3.51626 3.37137
# Velocity P-wave (km/s) = 5.76547 6.21898 5.99651
#
# Compressibility (1/GPa) = 0.02478120
#
# Stress axis : x y z
#
# Youngs Moduli (GPa) = 60.14547 75.20989 48.50899
#
# Poissons Ratio (x) = -0.12195 0.35962
# Poissons Ratio (y) = -0.09753 0.34374
# Poissons Ratio (z) = 0.44588 0.53294
#
# Static dielectric constant tensor:
#      x y z
#    x 3.638170 0.000000 0.178140 
#    y 0.000000 3.971190 0.000000 
#    z 0.178140 0.000000 4.008810 
# 
# 
# High freq. dielectric constant tensor:
#      x y z
#    x 1.800030 0.000000 0.021790 
#    y 0.000000 1.809460 0.000000 
#    z 0.021790 0.000000 1.809520 
# 
# From -- ./inp_files/87747.got.cif
#   From: 2010.06.25/outbox.cif.g09.slc.cpg/sg12_44_cif.got.tgz:87747.got - 2010.06.28 00:19:55.
