data_PCOD8084013
_publ_section_title
;
Structure prediction by ZEFSAII (Michael W. Deem and Ramdas Pophale) SiO2 
 PCOD8084013
Probable space group: C 2/M
;
_chemical_formula_sum "Si O2"
_cell_formula_units_Z 32
_cell_length_a 14.390483
_cell_length_b 21.308210
_cell_length_c 13.442952
_cell_angle_alpha 90.000000
_cell_angle_beta 158.636604
_cell_angle_gamma 90.000000
_cell_volume 1501.601089
_symmetry_space_group_name_H-M "C 2/M"
_symmetry_group_IT_number 12
_symmetry_cell_setting 'monoclinic'
loop_
_space_group_symop_operation_xyz
x,y,z
-x,y,-z
-x,-y,-z
x,-y,z
1/2+x,1/2+y,z
1/2-x,1/2+y,-z
1/2-x,1/2-y,-z
1/2+x,1/2-y,z
loop_
_atom_site_type_symbol
_atom_site_label
_atom_site_fract_x
_atom_site_fract_y
_atom_site_fract_z
Si Si1 0.500000 0.687093 0.500000
Si Si2 0.500000 0.896143 0.000000
Si Si3 0.986034 0.500000 0.148404
Si Si4 0.483562 0.500000 0.773671
Si Si5 0.507754 0.366888 0.890449
Si Si6 0.007936 0.692792 0.397473
O O1 0.749945 0.645714 0.758549
O O2 0.483076 0.731323 0.581949
O O3 0.525263 0.937981 0.122928
O O4 0.199463 0.500000 0.446201
O O5 0.698837 0.500000 0.903578
O O6 0.518663 0.440150 0.878595
O O7 0.259320 0.333966 0.592769
O O8 0.500000 0.354349 0.000000
O O9 0.753833 0.331618 0.087943
O O10 0.000000 0.661718 0.500000
#
# Coordination Sequence:
#
# PCOD8084013 Si02
#       6
#     4   4   4   4   8   8
#     4  10  18  35  68  91 102 150 194 248 284 348
#     4  11  22  42  68  80 108 143 210 240 310 341
#     4  11  26  42  57  90 110 150 193 262 280 343
#     4  12  23  37  60  82 130 156 188 229 299 326
#     4  10  18  34  55  89 121 159 186 221 268 354
#     4   8  17  30  54  89 114 141 195 228 269 327
#
# _framework density 21.310586000000001
#
# number of rings (size 3 to 8) (size 9 to 14) (size 15 to 20)
#    0.750    1.250    0.000    4.875    0.000    2.000 
#    0.000    5.000    0.000   30.000    0.000    0.000 
#    0.000    0.000    0.000    0.000    0.000    0.000 
#
# Total GULP energy -198315.889804 kJ/mol
# GULP energy per Si atom -12394.743113 kJ/mol
# Density = 2.126208 g / cm^3
# Si number density = 21.310586 Si / 1000 Ang^3
#
#
#
# Elastic Constant Matrix: (Units=GPa)
#
#
# Indices 1 2 3 4 5 6 
#
# 1 20.3491 6.8630 15.0926 0.0001 6.7718 -0.0020
# 2 6.8630 149.0781 67.1717 0.0007 8.8646 -0.0055
# 3 15.0926 67.1717 177.7284 -0.0035 25.6091 -0.0026
# 4 0.0001 0.0007 -0.0035 36.3936 0.0003 15.3764
# 5 6.7718 8.8646 25.6091 0.0003 21.8012 -0.0035
# 6 -0.0020 -0.0055 -0.0026 15.3764 -0.0035 19.3706
#
#
#
# Elastic Compliance Matrix: (Units=1/GPa)
#
#
# Indices 1 2 3 4 5 6 
#
# 1 0.055911 -0.000617 -0.002466 -0.000002 -0.014220 0.000004
# 2 -0.000617 0.008094 -0.003082 -0.000002 0.000521 0.000003
# 3 -0.002466 -0.003082 0.008077 0.000002 -0.007469 -0.000003
# 4 -0.000002 -0.000002 0.000002 0.041343 -0.000007 -0.032818
# 5 -0.014220 0.000521 -0.007469 -0.000007 0.058847 0.000014
# 6 0.000004 0.000003 -0.000003 -0.032818 0.000014 0.077676
#
#
# Mechanical properties :
#
#
# Convention : Reuss Voigt Hill
#
# Bulk Modulus (GPa) = 16.73567 58.37891 37.55729
# Shear Modulus (GPa) = 17.71819 32.71496 25.21658
#
# Velocity S-wave (km/s) = 2.88658 3.92235 3.44363
# Velocity P-wave (km/s) = 4.35661 6.92581 5.78563
#
# Compressibility (1/GPa) = 0.05975260
#
# Stress axis : x y z
#
# Youngs Moduli (GPa) = 17.88544 123.55010 123.81138
#
# Poissons Ratio (x) = 0.07628 0.30528
# Poissons Ratio (y) = 0.01104 0.38154
# Poissons Ratio (z) = 0.04410 0.38074
#
# Static dielectric constant tensor:
#      x y z
#    x 3.377920 0.000000 0.285180 
#    y 0.000000 3.808360 -0.000010 
#    z 0.285180 -0.000010 4.226230 
# 
# 
# High freq. dielectric constant tensor:
#      x y z
#    x 1.790310 0.000000 0.020380 
#    y 0.000000 1.843190 0.000000 
#    z 0.020380 0.000000 1.860440 
# 
# From -- ./inp_files/217965.got.cif
#   From: 2010.06.25/outbox.cif.g09.slc.cpg/sg12_109_cif.got.tgz:217965.got - 2010.06.28 00:19:55.
