data_PCOD8084736
_publ_section_title
;
Structure prediction by ZEFSAII (Michael W. Deem and Ramdas Pophale) SiO2 
 PCOD8084736
Probable space group: C 2/M
;
_chemical_formula_sum "Si O2"
_cell_formula_units_Z 56
_cell_length_a 19.290102
_cell_length_b 9.330726
_cell_length_c 21.565886
_cell_angle_alpha 90.000000
_cell_angle_beta 125.280822
_cell_angle_gamma 90.000000
_cell_volume 3168.717598
_symmetry_space_group_name_H-M "C 2/M"
_symmetry_group_IT_number 12
_symmetry_cell_setting 'monoclinic'
loop_
_space_group_symop_operation_xyz
x,y,z
-x,y,-z
-x,-y,-z
x,-y,z
1/2+x,1/2+y,z
1/2-x,1/2+y,-z
1/2-x,1/2-y,-z
1/2+x,1/2-y,z
loop_
_atom_site_type_symbol
_atom_site_label
_atom_site_fract_x
_atom_site_fract_y
_atom_site_fract_z
Si Si1 0.050708 0.161421 0.191469
Si Si2 0.230640 0.334256 0.893985
Si Si3 0.687696 0.829668 0.421762
Si Si4 0.872317 0.835901 0.059429
Si Si5 0.790945 0.335557 0.707380
Si Si6 0.522072 0.335067 0.319334
Si Si7 0.333998 0.665913 0.252228
O O1 0.131519 0.257906 0.217861
O O2 0.015474 0.187295 0.242460
O O3 0.972852 0.196705 0.104598
O O4 0.082486 0.000000 0.199309
O O5 0.208264 0.500000 0.872886
O O6 0.164953 0.270634 0.909100
O O7 0.223113 0.255296 0.824825
O O8 0.326496 0.313146 0.969558
O O9 0.750000 0.750000 0.500000
O O10 0.718596 0.785718 0.368668
O O11 0.593258 0.769000 0.384781
O O12 0.689156 0.000000 0.433753
O O13 0.859254 0.000000 0.075956
O O14 0.816305 0.500000 0.722080
O O15 0.703214 0.305295 0.698255
O O16 0.543811 0.500000 0.347374
O O17 0.432334 0.287086 0.302580
O O18 0.326542 0.500000 0.229393
#
# Coordination Sequence:
#
# PCOD8084736 Si02
#       7
#     8   8   8   8   8   8   8
#     4   9  16  30  51  72  96 131 173 214 253 298
#     4  10  19  28  46  74 102 132 172 220 260 297
#     4  10  20  36  57  81 105 129 163 204 246 297
#     4   9  17  31  47  69 100 136 175 215 261 304
#     4   9  20  35  53  76 102 133 168 208 250 299
#     4   9  17  31  54  77  97 131 171 204 245 296
#     4  10  19  35  53  72 104 139 169 206 256 307
#
# _framework density 17.672764999999998
#
# number of rings (size 3 to 8) (size 9 to 14) (size 15 to 20)
#    0.000    2.571    1.429    0.857    0.000    2.857 
#    0.000    1.429    0.000    8.571    0.000    0.000 
#    0.000    0.000    0.000    0.000    0.000    0.000 
#
# Total GULP energy -347161.232029 kJ/mol
# GULP energy per Si atom -12398.615430 kJ/mol
# Density = 1.763254 g / cm^3
# Si number density = 17.672765 Si / 1000 Ang^3
#
#
#
# Elastic Constant Matrix: (Units=GPa)
#
#
# Indices 1 2 3 4 5 6 
#
# 1 100.0504 41.0849 49.7509 0.0000 12.8661 0.0000
# 2 41.0849 77.4712 58.1492 0.0000 6.7356 0.0000
# 3 49.7509 58.1492 118.4160 0.0000 15.4492 0.0000
# 4 0.0000 0.0000 0.0000 32.0385 0.0000 3.9272
# 5 12.8661 6.7356 15.4492 0.0000 21.1519 0.0000
# 6 0.0000 0.0000 0.0000 3.9272 0.0000 24.0956
#
#
#
# Elastic Compliance Matrix: (Units=1/GPa)
#
#
# Indices 1 2 3 4 5 6 
#
# 1 0.014054 -0.004870 -0.002874 0.000000 -0.004899 0.000000
# 2 -0.004870 0.022146 -0.009169 0.000000 0.002607 0.000000
# 3 -0.002874 -0.009169 0.014973 0.000000 -0.006268 0.000000
# 4 0.000000 0.000000 0.000000 0.031849 0.000000 -0.005191
# 5 -0.004899 0.002607 -0.006268 0.000000 0.054005 0.000000
# 6 0.000000 0.000000 0.000000 -0.005191 0.000000 0.042347
#
#
# Mechanical properties :
#
#
# Convention : Reuss Voigt Hill
#
# Bulk Modulus (GPa) = 57.64879 65.98975 61.81927
# Shear Modulus (GPa) = 22.83288 25.25403 24.04346
#
# Velocity S-wave (km/s) = 3.59831 3.78429 3.69247
# Velocity P-wave (km/s) = 7.06787 7.51767 7.29623
#
# Compressibility (1/GPa) = 0.01734642
#
# Stress axis : x y z
#
# Youngs Moduli (GPa) = 71.15477 45.15403 66.78839
#
# Poissons Ratio (x) = 0.21990 0.19195
# Poissons Ratio (y) = 0.34653 0.61240
# Poissons Ratio (z) = 0.20450 0.41403
#
# Static dielectric constant tensor:
#      x y z
#    x 3.184940 0.000000 0.114240 
#    y 0.000000 3.334270 0.000000 
#    z 0.114240 0.000000 3.315320 
# 
# 
# High freq. dielectric constant tensor:
#      x y z
#    x 1.662980 0.000000 0.014510 
#    y 0.000000 1.686670 0.000000 
#    z 0.014510 0.000000 1.675940 
# 
# From -- ./inp_files/275140.got.cif
#   From: 2010.06.25/outbox.cif.g09.slc.cpg/sg12_138_cif.got.tgz:275140.got - 2010.06.28 00:19:55.
