data_PCOD8084491
_publ_section_title
;
Structure prediction by ZEFSAII (Michael W. Deem and Ramdas Pophale) SiO2 
 PCOD8084491
Probable space group: C 2/M
;
_chemical_formula_sum "Si O2"
_cell_formula_units_Z 64
_cell_length_a 22.665000
_cell_length_b 16.809872
_cell_length_c 19.919857
_cell_angle_alpha 90.000000
_cell_angle_beta 27.098028
_cell_angle_gamma 90.000000
_cell_volume 3457.071254
_symmetry_space_group_name_H-M "C 2/M"
_symmetry_group_IT_number 12
_symmetry_cell_setting 'monoclinic'
loop_
_space_group_symop_operation_xyz
x,y,z
-x,y,-z
-x,-y,-z
x,-y,z
1/2+x,1/2+y,z
1/2-x,1/2+y,-z
1/2-x,1/2-y,-z
1/2+x,1/2-y,z
loop_
_atom_site_type_symbol
_atom_site_label
_atom_site_fract_x
_atom_site_fract_y
_atom_site_fract_z
Si Si1 0.484422 0.685077 0.829752
Si Si2 0.250051 0.343117 0.483970
Si Si3 0.018451 0.174836 0.557611
Si Si4 0.762392 0.907785 0.860659
Si Si5 0.008585 0.697537 0.303009
Si Si6 0.270195 0.092272 0.351645
Si Si7 0.523351 0.814449 0.052912
Si Si8 0.742710 0.092479 0.036663
O O1 0.623614 0.640412 0.689322
O O2 0.470489 0.743572 0.780532
O O3 0.468005 0.732827 0.915067
O O4 0.377954 0.616505 0.933056
O O5 0.250000 0.250000 0.500000
O O6 0.262165 0.397162 0.537396
O O7 0.115675 0.360442 0.581792
O O8 0.157698 0.132759 0.422180
O O9 0.000000 0.201526 0.500000
O O10 0.907969 0.113610 0.692465
O O11 0.012674 0.253997 0.607556
O O12 0.740425 0.000000 0.869019
O O13 0.659080 0.860532 0.920716
O O14 0.740461 0.885826 0.960407
O O15 0.131944 0.641534 0.186663
O O16 0.408710 0.130941 0.197113
O O17 0.277198 0.000000 0.325649
O O18 0.500000 0.791290 0.000000
O O19 0.718799 0.000000 0.072994
#
# Coordination Sequence:
#
# PCOD8084491 Si02
#       8
#     8   8   8   8   8   8   8   8
#     4  11  19  38  62  80 114 151 191 242 279 328
#     4  10  18  36  60  79 104 152 197 238 277 315
#     4  12  24  37  56  84 116 157 194 225 277 344
#     4  11  22  36  53  81 120 156 187 224 277 343
#     4  11  19  38  62  80 114 151 191 242 279 328
#     4  12  23  37  57  85 119 155 191 231 280 337
#     4  12  24  37  56  84 116 157 194 225 277 344
#     4  11  22  36  61  92 113 143 193 243 293 333
#
# _framework density 18.512779999999999
#
# number of rings (size 3 to 8) (size 9 to 14) (size 15 to 20)
#    0.000    0.750    7.500    2.625    0.000    6.000 
#    0.000    0.000    0.000    0.750    0.000    1.750 
#    0.000    0.000    0.000    0.000    0.000    0.000 
#
# Total GULP energy -396918.512459 kJ/mol
# GULP energy per Si atom -12403.703514 kJ/mol
# Density = 1.847064 g / cm^3
# Si number density = 18.512780 Si / 1000 Ang^3
#
#
#
# Elastic Constant Matrix: (Units=GPa)
#
#
# Indices 1 2 3 4 5 6 
#
# 1 92.6496 26.7254 12.1251 0.0013 4.6088 -0.0010
# 2 26.7254 43.8243 11.2912 0.0011 7.4472 -0.0015
# 3 12.1251 11.2912 59.6265 -0.0003 -22.6996 -0.0001
# 4 0.0013 0.0011 -0.0003 15.0483 -0.0009 -4.0756
# 5 4.6088 7.4472 -22.6996 -0.0009 36.6614 0.0015
# 6 -0.0010 -0.0015 -0.0001 -4.0756 0.0015 15.5272
#
#
#
# Elastic Compliance Matrix: (Units=1/GPa)
#
#
# Indices 1 2 3 4 5 6 
#
# 1 0.013219 -0.007394 -0.001765 -0.000001 -0.001253 0.000000
# 2 -0.007394 0.031337 -0.008505 -0.000002 -0.010702 0.000003
# 3 -0.001765 -0.008505 0.025491 0.000002 0.017733 -0.000002
# 4 -0.000001 -0.000002 0.000002 0.071538 0.000003 0.018778
# 5 -0.001253 -0.010702 0.017733 0.000003 0.040588 -0.000004
# 6 0.000000 0.000003 -0.000002 0.018778 -0.000004 0.069332
#
#
# Mechanical properties :
#
#
# Convention : Reuss Voigt Hill
#
# Bulk Modulus (GPa) = 28.80136 32.93151 30.86644
# Shear Modulus (GPa) = 16.75559 23.17795 19.96677
#
# Velocity S-wave (km/s) = 3.01172 3.54220 3.28768
# Velocity P-wave (km/s) = 5.26168 5.87849 5.57862
#
# Compressibility (1/GPa) = 0.03472058
#
# Stress axis : x y z
#
# Youngs Moduli (GPa) = 75.64586 31.91075 39.22897
#
# Poissons Ratio (x) = 0.23595 0.06923
# Poissons Ratio (y) = 0.55933 0.33364
# Poissons Ratio (z) = 0.13351 0.27140
#
# Static dielectric constant tensor:
#      x y z
#    x 3.517850 0.000000 -0.305050 
#    y 0.000000 3.201830 0.000000 
#    z -0.305050 0.000000 3.841350 
# 
# 
# High freq. dielectric constant tensor:
#      x y z
#    x 1.712170 0.000000 -0.024120 
#    y 0.000000 1.694360 0.000000 
#    z -0.024120 0.000000 1.732820 
# 
# From -- ./inp_files/285187.got.cif
#   From: 2010.06.25/outbox.cif.g09.slc.cpg/sg12_143_cif.got.tgz:285187.got - 2010.06.28 00:19:55.
