data_PCOD8084466
_publ_section_title
;
Structure prediction by ZEFSAII (Michael W. Deem and Ramdas Pophale) SiO2 
 PCOD8084466
Probable space group: C 2/M
;
_chemical_formula_sum "Si O2"
_cell_formula_units_Z 56
_cell_length_a 27.201944
_cell_length_b 16.354591
_cell_length_c 11.243694
_cell_angle_alpha 90.000000
_cell_angle_beta 35.935823
_cell_angle_gamma 90.000000
_cell_volume 2935.600804
_symmetry_space_group_name_H-M "C 2/M"
_symmetry_group_IT_number 12
_symmetry_cell_setting 'monoclinic'
loop_
_space_group_symop_operation_xyz
x,y,z
-x,y,-z
-x,-y,-z
x,-y,z
1/2+x,1/2+y,z
1/2-x,1/2+y,-z
1/2-x,1/2-y,-z
1/2+x,1/2-y,z
loop_
_atom_site_type_symbol
_atom_site_label
_atom_site_fract_x
_atom_site_fract_y
_atom_site_fract_z
Si Si1 0.279781 0.809137 0.203469
Si Si2 0.074780 0.281511 0.776641
Si Si3 0.410704 0.296692 0.491785
Si Si4 0.193975 0.409980 0.626322
Si Si5 0.931078 0.095912 0.815944
Si Si6 0.155892 0.238700 0.142313
Si Si7 0.156330 0.843112 0.786441
O O1 0.183770 0.826565 0.352611
O O2 0.310165 0.881806 0.228325
O O3 0.283504 0.723760 0.267961
O O4 0.347748 0.802334 0.961579
O O5 0.050627 0.259706 0.688137
O O6 0.143752 0.351368 0.636768
O O7 0.102641 0.199298 0.788624
O O8 0.000000 0.319891 0.000000
O O9 0.473370 0.372880 0.389295
O O10 0.405581 0.243718 0.625172
O O11 0.155938 0.500000 0.694981
O O12 0.287963 0.409759 0.391050
O O13 0.866569 0.146743 0.858812
O O14 0.926454 0.000000 0.791824
O O15 0.904748 0.109790 0.004178
O O16 0.250000 0.250000 0.000000
#
# Coordination Sequence:
#
# PCOD8084466 Si02
#       7
#     8   8   8   8   8   8   8
#     4   9  18  36  57  78 109 151 198 230 266 337
#     4  11  20  36  58  82 112 151 192 229 274 346
#     4  11  19  35  57  82 113 150 182 224 281 337
#     4  11  21  34  57  83 113 149 190 242 284 320
#     4  11  23  36  56  90 122 142 176 235 289 333
#     4   9  21  38  59  77 105 151 199 220 261 339
#     4  10  18  36  57  81 115 153 190 223 272 344
#
# _framework density 19.076163999999999
#
# number of rings (size 3 to 8) (size 9 to 14) (size 15 to 20)
#    0.000    1.714    4.286    1.714    0.000    2.000 
#    0.000    2.857    0.000    0.857    0.000    1.000 
#    0.000    0.000    0.000    0.000    0.000    0.000 
#
# Total GULP energy -346917.166657 kJ/mol
# GULP energy per Si atom -12389.898809 kJ/mol
# Density = 1.903275 g / cm^3
# Si number density = 19.076164 Si / 1000 Ang^3
#
#
#
# Elastic Constant Matrix: (Units=GPa)
#
#
# Indices 1 2 3 4 5 6 
#
# 1 77.3287 35.7572 37.5498 0.0000 10.6908 0.0000
# 2 35.7572 73.1649 36.0178 0.0000 1.9079 0.0000
# 3 37.5498 36.0178 121.0853 0.0000 27.1037 0.0000
# 4 0.0000 0.0000 0.0000 15.7966 0.0000 -2.4637
# 5 10.6908 1.9079 27.1037 0.0000 42.6746 0.0000
# 6 0.0000 0.0000 0.0000 -2.4637 0.0000 7.8805
#
#
#
# Elastic Compliance Matrix: (Units=1/GPa)
#
#
# Indices 1 2 3 4 5 6 
#
# 1 0.018055 -0.007341 -0.002887 0.000000 -0.002361 0.000000
# 2 -0.007341 0.019267 -0.004282 0.000000 0.003697 0.000000
# 3 -0.002887 -0.004282 0.011917 0.000000 -0.006654 0.000000
# 4 0.000000 0.000000 0.000000 0.066550 0.000000 0.020806
# 5 -0.002361 0.003697 -0.006654 0.000000 0.028086 0.000000
# 6 0.000000 0.000000 0.000000 0.020806 0.000000 0.133400
#
#
# Mechanical properties :
#
#
# Convention : Reuss Voigt Hill
#
# Bulk Modulus (GPa) = 49.45878 54.46986 51.96432
# Shear Modulus (GPa) = 15.97271 24.08728 20.02999
#
# Velocity S-wave (km/s) = 2.89677 3.55729 3.24389
# Velocity P-wave (km/s) = 6.09686 6.74450 6.42884
#
# Compressibility (1/GPa) = 0.02021886
#
# Stress axis : x y z
#
# Youngs Moduli (GPa) = 55.38781 51.90185 83.91293
#
# Poissons Ratio (x) = 0.38101 0.24223
# Poissons Ratio (y) = 0.40660 0.35934
# Poissons Ratio (z) = 0.15989 0.22226
#
# Static dielectric constant tensor:
#      x y z
#    x 3.698370 0.000000 0.256700 
#    y 0.000000 3.086040 0.000000 
#    z 0.256700 0.000000 4.096600 
# 
# 
# High freq. dielectric constant tensor:
#      x y z
#    x 1.745690 0.000000 0.013210 
#    y 0.000000 1.691700 0.000000 
#    z 0.013210 0.000000 1.761300 
# 
# From -- ./inp_files/183456.got.cif
#   From: 2010.06.25/outbox.cif.g09.slc.cpg/sg12_92_cif.got.tgz:183456.got - 2010.06.28 00:19:55.
