data_PCOD8084324
_publ_section_title
;
Structure prediction by ZEFSAII (Michael W. Deem and Ramdas Pophale) SiO2 
 PCOD8084324
Probable space group: C 2/M
;
_chemical_formula_sum "Si O2"
_cell_formula_units_Z 64
_cell_length_a 29.499288
_cell_length_b 15.561011
_cell_length_c 9.343040
_cell_angle_alpha 90.000000
_cell_angle_beta 130.885380
_cell_angle_gamma 90.000000
_cell_volume 3242.433898
_symmetry_space_group_name_H-M "C 2/M"
_symmetry_group_IT_number 12
_symmetry_cell_setting 'monoclinic'
loop_
_space_group_symop_operation_xyz
x,y,z
-x,y,-z
-x,-y,-z
x,-y,z
1/2+x,1/2+y,z
1/2-x,1/2+y,-z
1/2-x,1/2-y,-z
1/2+x,1/2-y,z
loop_
_atom_site_type_symbol
_atom_site_label
_atom_site_fract_x
_atom_site_fract_y
_atom_site_fract_z
Si Si1 0.346306 0.796371 0.777373
Si Si2 0.285589 0.304677 0.896434
Si Si3 0.651258 0.363704 0.408965
Si Si4 0.836068 0.229084 0.285388
Si Si5 0.023718 0.905232 0.201862
Si Si6 0.746498 0.091080 0.570136
Si Si7 0.972801 0.260149 0.599832
Si Si8 0.534376 0.100390 0.922703
O O1 0.310146 0.773420 0.847380
O O2 0.370329 0.713007 0.743061
O O3 0.300810 0.836362 0.567541
O O4 0.398680 0.862656 0.923645
O O5 0.218793 0.296158 0.825349
O O6 0.281301 0.388646 0.789204
O O7 0.332988 0.318168 0.123877
O O8 0.678334 0.334304 0.615668
O O9 0.594229 0.420582 0.328610
O O10 0.702899 0.419841 0.445552
O O11 0.901047 0.272596 0.442436
O O12 0.009252 0.829330 0.284471
O O13 0.997406 0.000000 0.193484
O O14 0.000000 0.874659 0.000000
O O15 0.712941 0.000000 0.515640
O O16 0.000000 0.254380 0.500000
O O17 0.998971 0.343931 0.732117
O O18 0.537515 0.000000 0.881689
O O19 0.500000 0.109749 0.000000
#
# Coordination Sequence:
#
# PCOD8084324 Si02
#       8
#     8   8   8   8   8   8   8   8
#     4  11  19  37  60  87 116 156 199 247 298 354
#     4  10  20  36  59  84 108 154 196 242 293 358
#     4  10  18  35  58  84 114 152 193 241 299 360
#     4  10  19  36  61  80 111 146 201 240 291 355
#     4  10  21  37  60  88 116 151 197 248 301 362
#     4  11  21  34  54  86 120 151 190 245 301 352
#     4  11  23  40  60  87 118 165 196 247 302 360
#     4  11  24  40  62  92 123 161 208 252 296 356
#
# _framework density 19.738258999999999
#
# number of rings (size 3 to 8) (size 9 to 14) (size 15 to 20)
#    0.000    1.500    2.500    4.875    0.000    1.500 
#    0.000    3.125    0.000    0.000    0.000    0.000 
#    0.000    0.000    0.000    0.000    0.000    0.000 
#
# Total GULP energy -396553.741637 kJ/mol
# GULP energy per Si atom -12392.304426 kJ/mol
# Density = 1.969333 g / cm^3
# Si number density = 19.738259 Si / 1000 Ang^3
#
#
#
# Elastic Constant Matrix: (Units=GPa)
#
#
# Indices 1 2 3 4 5 6 
#
# 1 84.7907 37.6935 35.4264 0.0000 -12.1175 0.0000
# 2 37.6935 119.6456 47.4907 0.0000 -8.7989 0.0000
# 3 35.4264 47.4907 130.6318 0.0000 -17.5788 0.0000
# 4 0.0000 0.0000 0.0000 1.9102 0.0000 3.8869
# 5 -12.1175 -8.7989 -17.5788 0.0000 32.6208 0.0000
# 6 0.0000 0.0000 0.0000 3.8869 0.0000 17.7014
#
#
#
# Elastic Compliance Matrix: (Units=1/GPa)
#
#
# Indices 1 2 3 4 5 6 
#
# 1 0.014781 -0.003505 -0.002289 0.000000 0.003312 0.000000
# 2 -0.003505 0.010617 -0.002910 0.000000 -0.000006 0.000000
# 3 -0.002289 -0.002910 0.009826 0.000000 0.003660 0.000000
# 4 0.000000 0.000000 0.000000 0.946381 0.000000 -0.207810
# 5 0.003312 -0.000006 0.003660 0.000000 0.033856 0.000000
# 6 0.000000 0.000000 0.000000 -0.207810 0.000000 0.102124
#
#
# Mechanical properties :
#
#
# Convention : Reuss Voigt Hill
#
# Bulk Modulus (GPa) = 56.12539 64.03216 60.07878
# Shear Modulus (GPa) = 4.38238 24.74365 14.56302
#
# Velocity S-wave (km/s) = 1.49167 3.54445 2.71921
# Velocity P-wave (km/s) = 5.60922 7.01868 6.35316
#
# Compressibility (1/GPa) = 0.01781725
#
# Stress axis : x y z
#
# Youngs Moduli (GPa) = 67.65282 94.19054 101.76781
#
# Poissons Ratio (x) = 0.33011 0.23292
# Poissons Ratio (y) = 0.23710 0.29615
# Poissons Ratio (z) = 0.15484 0.27410
#
# Static dielectric constant tensor:
#      x y z
#    x 3.853980 0.000000 0.081010 
#    y 0.000000 3.405470 0.000000 
#    z 0.081010 0.000000 3.879620 
# 
# 
# High freq. dielectric constant tensor:
#      x y z
#    x 1.772040 0.000000 0.001430 
#    y 0.000000 1.750790 0.000000 
#    z 0.001430 0.000000 1.779870 
# 
# From -- ./inp_files/112029.got.cif
#   From: 2010.06.25/outbox.cif.g09.slc.cpg/sg12_57_cif.got.tgz:112029.got - 2010.06.28 00:19:55.
