data_PCOD8084809
_publ_section_title
;
Structure prediction by ZEFSAII (Michael W. Deem and Ramdas Pophale) SiO2 
 PCOD8084809
Probable space group: C 2/M
;
_chemical_formula_sum "Si O2"
_cell_formula_units_Z 56
_cell_length_a 28.865731
_cell_length_b 8.990622
_cell_length_c 13.666186
_cell_angle_alpha 90.000000
_cell_angle_beta 103.791175
_cell_angle_gamma 90.000000
_cell_volume 3444.413918
_symmetry_space_group_name_H-M "C 2/M"
_symmetry_group_IT_number 12
_symmetry_cell_setting 'monoclinic'
loop_
_space_group_symop_operation_xyz
x,y,z
-x,y,-z
-x,-y,-z
x,-y,z
1/2+x,1/2+y,z
1/2-x,1/2+y,-z
1/2-x,1/2-y,-z
1/2+x,1/2-y,z
loop_
_atom_site_type_symbol
_atom_site_label
_atom_site_fract_x
_atom_site_fract_y
_atom_site_fract_z
Si Si1 0.050763 0.671735 0.412969
Si Si2 0.514059 0.673901 0.110717
Si Si3 0.896831 0.170997 0.726940
Si Si4 0.800776 0.827024 0.409164
Si Si5 0.963849 0.823584 0.280753
Si Si6 0.109943 0.327810 0.635428
Si Si7 0.793844 0.830094 0.631216
O O1 0.037131 0.500000 0.390518
O O2 0.090166 0.720093 0.354447
O O3 0.072815 0.699434 0.529793
O O4 0.003212 0.769341 0.378710
O O5 0.504968 0.500000 0.097614
O O6 0.569868 0.707792 0.162565
O O7 0.480497 0.733606 0.181656
O O8 0.500000 0.750503 0.000000
O O9 0.840804 0.194353 0.722482
O O10 0.906057 0.000000 0.698059
O O11 0.839065 0.741838 0.363135
O O12 0.808019 0.788373 0.526987
O O13 0.748015 0.774567 0.349763
O O14 0.806322 0.000000 0.390431
O O15 0.912675 0.751664 0.280524
O O16 0.959829 0.000000 0.283748
O O17 0.117825 0.500000 0.662265
O O18 0.775922 0.000000 0.626366
#
# Coordination Sequence:
#
# PCOD8084809 Si02
#       7
#     8   8   8   8   8   8   8
#     4  10  19  29  42  62  90 122 154 186 220 260
#     4   8  15  29  49  72  93 113 144 186 228 270
#     4   9  16  28  47  68  91 121 153 186 223 266
#     4  10  19  29  44  63  89 123 158 191 220 259
#     4  10  20  31  46  65  88 119 153 186 223 270
#     4  11  21  31  43  62  91 124 155 187 224 263
#     4   9  17  29  43  63  91 121 155 189 222 262
#
# _framework density 16.258209000000001
#
# number of rings (size 3 to 8) (size 9 to 14) (size 15 to 20)
#    0.000    2.429    1.429    3.000    0.000    4.571 
#    0.000    0.000    0.000   10.714    0.000    1.000 
#    0.000    0.000    0.000    0.000    0.000    0.000 
#
# Total GULP energy -347110.955542 kJ/mol
# GULP energy per Si atom -12396.819841 kJ/mol
# Density = 1.622120 g / cm^3
# Si number density = 16.258209 Si / 1000 Ang^3
#
#
#
# Elastic Constant Matrix: (Units=GPa)
#
#
# Indices 1 2 3 4 5 6 
#
# 1 130.9871 48.1472 49.2878 0.0000 -1.4266 0.0000
# 2 48.1472 58.3105 28.8323 0.0000 1.1897 0.0000
# 3 49.2878 28.8323 70.8835 0.0000 3.0938 0.0000
# 4 0.0000 0.0000 0.0000 8.8687 0.0000 -1.0512
# 5 -1.4266 1.1897 3.0938 0.0000 13.6123 0.0000
# 6 0.0000 0.0000 0.0000 -1.0512 0.0000 32.1439
#
#
#
# Elastic Compliance Matrix: (Units=1/GPa)
#
#
# Indices 1 2 3 4 5 6 
#
# 1 0.012684 -0.007646 -0.005855 0.000000 0.003328 0.000000
# 2 -0.007646 0.026077 -0.005207 0.000000 -0.001897 0.000000
# 3 -0.005855 -0.005207 0.020507 0.000000 -0.004819 0.000000
# 4 0.000000 0.000000 0.000000 0.113195 0.000000 0.003702
# 5 0.003328 -0.001897 -0.004819 0.000000 0.075073 0.000000
# 6 0.000000 0.000000 0.000000 0.003702 0.000000 0.031231
#
#
# Mechanical properties :
#
#
# Convention : Reuss Voigt Hill
#
# Bulk Modulus (GPa) = 45.76425 56.96841 51.36633
# Shear Modulus (GPa) = 15.45751 19.85258 17.65505
#
# Velocity S-wave (km/s) = 3.08677 3.49819 3.29890
# Velocity P-wave (km/s) = 6.39638 7.17163 6.79507
#
# Compressibility (1/GPa) = 0.02185112
#
# Stress axis : x y z
#
# Youngs Moduli (GPa) = 78.83804 38.34845 48.76335
#
# Poissons Ratio (x) = 0.29322 0.28550
# Poissons Ratio (y) = 0.60282 0.25393
# Poissons Ratio (z) = 0.46159 0.19969
#
# Static dielectric constant tensor:
#      x y z
#    x 3.157100 0.000000 0.025350 
#    y 0.000000 3.039030 0.000000 
#    z 0.025350 0.000000 2.950330 
# 
# 
# High freq. dielectric constant tensor:
#      x y z
#    x 1.630020 0.000000 0.002190 
#    y 0.000000 1.623740 0.000000 
#    z 0.002190 0.000000 1.575240 
# 
# From -- ./inp_files/243043.got.cif
#   From: 2010.06.25/outbox.cif.g09.slc.cpg/sg12_122_cif.got.tgz:243043.got - 2010.06.28 00:19:55.
