data_PCOD8084168
_publ_section_title
;
Structure prediction by ZEFSAII (Michael W. Deem and Ramdas Pophale) SiO2 
 PCOD8084168
Probable space group: C 2/M
;
_chemical_formula_sum "Si O2"
_cell_formula_units_Z 56
_cell_length_a 16.683695
_cell_length_b 16.575330
_cell_length_c 11.410115
_cell_angle_alpha 90.000000
_cell_angle_beta 50.493888
_cell_angle_gamma 90.000000
_cell_volume 2434.514179
_symmetry_space_group_name_H-M "C 2/M"
_symmetry_group_IT_number 12
_symmetry_cell_setting 'monoclinic'
loop_
_space_group_symop_operation_xyz
x,y,z
-x,y,-z
-x,-y,-z
x,-y,z
1/2+x,1/2+y,z
1/2-x,1/2+y,-z
1/2-x,1/2-y,-z
1/2+x,1/2-y,z
loop_
_atom_site_type_symbol
_atom_site_label
_atom_site_fract_x
_atom_site_fract_y
_atom_site_fract_z
Si Si1 0.848937 0.649455 0.208853
Si Si2 0.276953 0.193061 0.604905
Si Si3 0.198300 0.405956 0.192386
Si Si4 0.900587 0.175160 0.383315
Si Si5 0.361314 0.412143 0.641349
Si Si6 0.401667 0.404278 0.861299
Si Si7 0.551746 0.904439 0.116936
O O1 0.801411 0.738104 0.273798
O O2 0.755513 0.585781 0.298608
O O3 0.931066 0.622500 0.233054
O O4 0.899159 0.646690 0.033732
O O5 0.322466 0.140559 0.667684
O O6 0.204714 0.141114 0.582420
O O7 0.374297 0.231486 0.441705
O O8 0.189724 0.500000 0.227433
O O9 0.109147 0.380074 0.183741
O O10 0.312859 0.384322 0.037848
O O11 0.930607 0.133467 0.479603
O O12 0.998030 0.153855 0.207463
O O13 0.409388 0.500000 0.602973
O O14 0.359185 0.375724 0.774055
O O15 0.430213 0.500000 0.839903
O O16 0.563726 0.000000 0.081336
#
# Coordination Sequence:
#
# PCOD8084168 Si02
#       7
#     8   8   8   8   8   8   8
#     4  10  19  34  57  89 123 162 207 261 314 376
#     4  10  24  43  58  87 128 169 220 259 322 386
#     4  10  22  41  66  97 133 166 213 272 327 391
#     4  10  22  40  58  82 127 169 215 257 307 393
#     4  10  18  34  59  88 120 157 207 263 316 378
#     4  10  20  36  62  99 128 158 207 266 329 385
#     4  10  19  35  60  92 125 164 208 259 321 381
#
# _framework density 23.002535000000002
#
# number of rings (size 3 to 8) (size 9 to 14) (size 15 to 20)
#    0.000    2.000    1.429    2.571    0.000    5.714 
#    7.714    1.429    0.000    0.000    0.000   19.000 
#    0.000    0.000    0.000    0.000    0.000    0.000 
#
# Total GULP energy -346889.508770 kJ/mol
# GULP energy per Si atom -12388.911028 kJ/mol
# Density = 2.295018 g / cm^3
# Si number density = 23.002535 Si / 1000 Ang^3
#
#
#
# Elastic Constant Matrix: (Units=GPa)
#
#
# Indices 1 2 3 4 5 6 
#
# 1 122.4882 34.4408 33.2099 0.0000 5.3292 0.0000
# 2 34.4408 53.3130 19.4316 0.0000 4.0345 0.0000
# 3 33.2099 19.4316 54.4311 0.0000 -2.5257 0.0000
# 4 0.0000 0.0000 0.0000 24.0101 0.0000 11.8113
# 5 5.3292 4.0345 -2.5257 0.0000 48.2964 0.0000
# 6 0.0000 0.0000 0.0000 11.8113 0.0000 28.5033
#
#
#
# Elastic Compliance Matrix: (Units=1/GPa)
#
#
# Indices 1 2 3 4 5 6 
#
# 1 0.011012 -0.005253 -0.004891 0.000000 -0.001032 0.000000
# 2 -0.005253 0.024306 -0.005553 0.000000 -0.001741 0.000000
# 3 -0.004891 -0.005553 0.023442 0.000000 0.002230 0.000000
# 4 0.000000 0.000000 0.000000 0.052313 0.000000 -0.021678
# 5 -0.001032 -0.001741 0.002230 0.000000 0.021081 0.000000
# 6 0.000000 0.000000 0.000000 -0.021678 0.000000 0.044066
#
#
# Mechanical properties :
#
#
# Convention : Reuss Voigt Hill
#
# Bulk Modulus (GPa) = 36.54207 44.93300 40.73753
# Shear Modulus (GPa) = 23.06926 29.70529 26.38728
#
# Velocity S-wave (km/s) = 3.17030 3.59749 3.39063
# Velocity P-wave (km/s) = 5.41495 6.06896 5.75126
#
# Compressibility (1/GPa) = 0.02736572
#
# Stress axis : x y z
#
# Youngs Moduli (GPa) = 90.80840 41.14131 42.65831
#
# Poissons Ratio (x) = 0.21612 0.20866
# Poissons Ratio (y) = 0.47702 0.23688
# Poissons Ratio (z) = 0.44418 0.22846
#
# Static dielectric constant tensor:
#      x y z
#    x 4.519910 0.000000 -0.083570 
#    y 0.000000 3.849000 0.000000 
#    z -0.083570 0.000000 4.135490 
# 
# 
# High freq. dielectric constant tensor:
#      x y z
#    x 1.923630 0.000000 -0.003890 
#    y 0.000000 1.879350 0.000000 
#    z -0.003890 0.000000 1.906030 
# 
# From -- ./inp_files/146017.got.cif
#   From: 2010.06.25/outbox.cif.g09.slc.cpg/sg12_74_cif.got.tgz:146017.got - 2010.06.28 00:19:55.
