data_PCOD8084802
_publ_section_title
;
Structure prediction by ZEFSAII (Michael W. Deem and Ramdas Pophale) SiO2 
 PCOD8084802
Probable space group: C 2/M
;
_chemical_formula_sum "Si O2"
_cell_formula_units_Z 64
_cell_length_a 27.345512
_cell_length_b 9.316513
_cell_length_c 20.609545
_cell_angle_alpha 90.000000
_cell_angle_beta 52.591902
_cell_angle_gamma 90.000000
_cell_volume 4170.692289
_symmetry_space_group_name_H-M "C 2/M"
_symmetry_group_IT_number 12
_symmetry_cell_setting 'monoclinic'
loop_
_space_group_symop_operation_xyz
x,y,z
-x,y,-z
-x,-y,-z
x,-y,z
1/2+x,1/2+y,z
1/2-x,1/2+y,-z
1/2-x,1/2-y,-z
1/2+x,1/2-y,z
loop_
_atom_site_type_symbol
_atom_site_label
_atom_site_fract_x
_atom_site_fract_y
_atom_site_fract_z
Si Si1 0.374519 0.838442 0.980708
Si Si2 0.300758 0.166466 0.919165
Si Si3 0.160550 0.158611 0.593786
Si Si4 0.889389 0.170851 0.234753
Si Si5 0.263947 0.329745 0.271508
Si Si6 0.990318 0.170368 0.934696
Si Si7 0.793821 0.342495 0.549839
Si Si8 0.246284 0.168788 0.154762
O O1 0.362739 0.824342 0.912568
O O2 0.427093 0.728604 0.957578
O O3 0.395660 0.000000 0.980333
O O4 0.313345 0.800468 0.070582
O O5 0.305759 0.248572 0.846226
O O6 0.281811 0.000000 0.924083
O O7 0.250000 0.250000 0.000000
O O8 0.118947 0.229767 0.684698
O O9 0.157536 0.245862 0.528913
O O10 0.229591 0.151338 0.564255
O O11 0.136231 0.000000 0.596857
O O12 0.833251 0.219297 0.233861
O O13 0.952967 0.229430 0.153976
O O14 0.887745 0.000000 0.240032
O O15 0.261430 0.500000 0.258405
O O16 0.218057 0.287897 0.367432
O O17 0.241973 0.235772 0.229182
O O18 0.987265 0.000000 0.934676
O O19 0.000000 0.225151 0.000000
O O20 0.823345 0.500000 0.528693
O O21 0.231218 0.000000 0.168588
#
# Coordination Sequence:
#
# PCOD8084802 Si02
#       8
#     8   8   8   8   8   8   8   8
#     4   9  19  32  43  58  81 107 135 170 208 240
#     4   9  17  30  46  62  80 103 133 168 207 249
#     4   8  13  23  38  52  73 105 135 167 203 236
#     4   8  15  27  40  57  80 108 145 178 202 234
#     4   9  16  27  42  58  82 113 138 166 204 242
#     4  10  19  29  43  61  80 108 146 178 200 231
#     4   8  14  23  36  56  78 101 132 166 200 240
#     4  10  19  29  42  62  85 107 135 169 204 247
#
# _framework density 15.345174
#
# number of rings (size 3 to 8) (size 9 to 14) (size 15 to 20)
#    0.000    3.125    0.000    3.750    0.000    4.750 
#    0.000    3.125    0.000    0.000    0.000    0.000 
#    0.000    1.000    0.000   11.250    0.000    5.500 
#
# Total GULP energy -396534.893444 kJ/mol
# GULP energy per Si atom -12391.715420 kJ/mol
# Density = 1.531025 g / cm^3
# Si number density = 15.345174 Si / 1000 Ang^3
#
#
#
# Elastic Constant Matrix: (Units=GPa)
#
#
# Indices 1 2 3 4 5 6 
#
# 1 68.0020 36.9009 41.0582 -0.0008 19.1352 0.0018
# 2 36.9009 67.2057 41.9991 -0.0022 15.6812 0.0055
# 3 41.0582 41.9991 102.2192 -0.0019 21.9091 0.0021
# 4 -0.0008 -0.0022 -0.0019 22.8808 -0.0004 5.2673
# 5 19.1352 15.6812 21.9091 -0.0004 21.9656 -0.0002
# 6 0.0018 0.0055 0.0021 5.2673 -0.0002 23.2701
#
#
#
# Elastic Compliance Matrix: (Units=1/GPa)
#
#
# Indices 1 2 3 4 5 6 
#
# 1 0.025064 -0.008485 -0.004070 -0.000001 -0.011718 0.000000
# 2 -0.008485 0.023984 -0.005547 0.000003 -0.004199 -0.000005
# 3 -0.004070 -0.005547 0.015375 0.000000 -0.007830 0.000000
# 4 -0.000001 0.000003 0.000000 0.046107 -0.000001 -0.010437
# 5 -0.011718 -0.004199 -0.007830 -0.000001 0.066541 0.000003
# 6 0.000000 -0.000005 0.000000 -0.010437 0.000003 0.045336
#
#
# Mechanical properties :
#
#
# Convention : Reuss Voigt Hill
#
# Bulk Modulus (GPa) = 35.43411 53.03814 44.23613
# Shear Modulus (GPa) = 18.65553 21.45455 20.05504
#
# Velocity S-wave (km/s) = 3.49051 3.74321 3.61907
# Velocity P-wave (km/s) = 6.27586 7.30210 6.80834
#
# Compressibility (1/GPa) = 0.02822140
#
# Stress axis : x y z
#
# Youngs Moduli (GPa) = 39.89752 41.69403 65.04134
#
# Poissons Ratio (x) = 0.35375 0.26471
# Poissons Ratio (y) = 0.33851 0.36076
# Poissons Ratio (z) = 0.16238 0.23126
#
# Static dielectric constant tensor:
#      x y z
#    x 2.863850 -0.000010 0.287650 
#    y -0.000010 2.992560 0.000000 
#    z 0.287650 0.000000 3.100340 
# 
# 
# High freq. dielectric constant tensor:
#      x y z
#    x 1.552100 0.000000 0.028420 
#    y 0.000000 1.583510 0.000000 
#    z 0.028420 0.000000 1.576790 
# 
# From -- ./inp_files/326801.got.cif
#   From: 2010.06.25/outbox.cif.g09.slc.cpg/sg12_164_cif.got.tgz:326801.got - 2010.06.28 00:19:55.
