data_PCOD8084718
_publ_section_title
;
Structure prediction by ZEFSAII (Michael W. Deem and Ramdas Pophale) SiO2 
 PCOD8084718
Probable space group: C 2/M
;
_chemical_formula_sum "Si O2"
_cell_formula_units_Z 56
_cell_length_a 27.469911
_cell_length_b 9.119784
_cell_length_c 15.816374
_cell_angle_alpha 90.000000
_cell_angle_beta 114.763523
_cell_angle_gamma 90.000000
_cell_volume 3597.955473
_symmetry_space_group_name_H-M "C 2/M"
_symmetry_group_IT_number 12
_symmetry_cell_setting 'monoclinic'
loop_
_space_group_symop_operation_xyz
x,y,z
-x,y,-z
-x,-y,-z
x,-y,z
1/2+x,1/2+y,z
1/2-x,1/2+y,-z
1/2-x,1/2-y,-z
1/2+x,1/2-y,z
loop_
_atom_site_type_symbol
_atom_site_label
_atom_site_fract_x
_atom_site_fract_y
_atom_site_fract_z
Si Si1 0.564524 0.827510 0.463197
Si Si2 0.142049 0.827989 0.819124
Si Si3 0.749561 0.833796 0.201862
Si Si4 0.266741 0.329099 0.639105
Si Si5 0.555457 0.173166 0.646398
Si Si6 0.831227 0.671959 0.552000
Si Si7 0.301779 0.169105 0.004566
O O1 0.506919 0.788931 0.381455
O O2 0.570102 0.768920 0.563156
O O3 0.611764 0.763948 0.438573
O O4 0.571321 0.000000 0.474932
O O5 0.193826 0.791047 0.799645
O O6 0.089273 0.764084 0.737858
O O7 0.135474 0.000000 0.829068
O O8 0.147527 0.749833 0.915236
O O9 0.737461 0.724197 0.268444
O O10 0.700416 0.818847 0.099054
O O11 0.752579 0.000000 0.238418
O O12 0.278487 0.500000 0.647856
O O13 0.211732 0.289895 0.551608
O O14 0.316367 0.251288 0.628454
O O15 0.566554 0.000000 0.664466
O O16 0.833697 0.500000 0.572384
O O17 0.300754 0.000000 0.032344
O O18 0.250000 0.250000 0.000000
#
# Coordination Sequence:
#
# PCOD8084718 Si02
#       7
#     8   8   8   8   8   8   8
#     4   8  15  28  46  65  85 115 151 182 213 253
#     4  10  19  29  42  64  92 119 146 175 214 260
#     4   9  18  30  43  61  87 116 143 174 211 254
#     4  10  19  28  43  66  86 111 147 180 214 254
#     4   9  16  28  46  66  87 113 149 184 213 252
#     4   9  17  30  44  60  87 118 146 177 212 251
#     4   9  17  29  44  63  87 115 145 176 214 257
#
# _framework density 15.564394
#
# number of rings (size 3 to 8) (size 9 to 14) (size 15 to 20)
#    0.000    2.857    0.000    3.857    0.000    5.143 
#    0.000    2.857    0.000    0.000    0.000    1.000 
#    0.000    8.000    0.000    0.000    0.000    0.000 
#
# Total GULP energy -347081.024322 kJ/mol
# GULP energy per Si atom -12395.750869 kJ/mol
# Density = 1.552897 g / cm^3
# Si number density = 15.564394 Si / 1000 Ang^3
#
#
#
# Elastic Constant Matrix: (Units=GPa)
#
#
# Indices 1 2 3 4 5 6 
#
# 1 92.7860 34.8068 37.7552 0.0000 2.1667 0.0000
# 2 34.8068 71.4572 47.8536 0.0000 1.8365 0.0000
# 3 37.7552 47.8536 95.8072 0.0000 9.2800 0.0000
# 4 0.0000 0.0000 0.0000 28.1225 0.0000 0.0517
# 5 2.1667 1.8365 9.2800 0.0000 20.9132 0.0000
# 6 0.0000 0.0000 0.0000 0.0517 0.0000 18.6719
#
#
#
# Elastic Compliance Matrix: (Units=1/GPa)
#
#
# Indices 1 2 3 4 5 6 
#
# 1 0.013785 -0.004601 -0.003171 0.000000 0.000383 0.000000
# 2 -0.004601 0.022738 -0.009819 0.000000 0.002837 0.000000
# 3 -0.003171 -0.009819 0.017216 0.000000 -0.006449 0.000000
# 4 0.000000 0.000000 0.000000 0.035559 0.000000 -0.000098
# 5 0.000383 0.002837 -0.006449 0.000000 0.050389 0.000000
# 6 0.000000 0.000000 0.000000 -0.000098 0.000000 0.053557
#
#
# Mechanical properties :
#
#
# Convention : Reuss Voigt Hill
#
# Bulk Modulus (GPa) = 53.88730 55.65352 54.77041
# Shear Modulus (GPa) = 21.31179 22.85052 22.08115
#
# Velocity S-wave (km/s) = 3.70437 3.83577 3.77065
# Velocity P-wave (km/s) = 7.27969 7.44662 7.36362
#
# Compressibility (1/GPa) = 0.01855725
#
# Stress axis : x y z
#
# Youngs Moduli (GPa) = 72.54342 43.97925 58.08404
#
# Poissons Ratio (x) = 0.20233 0.18421
# Poissons Ratio (y) = 0.33374 0.57032
# Poissons Ratio (z) = 0.23007 0.43183
#
# Static dielectric constant tensor:
#      x y z
#    x 2.985090 0.000000 0.007950 
#    y 0.000000 2.936220 0.000000 
#    z 0.007950 0.000000 2.995000 
# 
# 
# High freq. dielectric constant tensor:
#      x y z
#    x 1.567400 0.000000 0.003500 
#    y 0.000000 1.594880 0.000000 
#    z 0.003500 0.000000 1.593480 
# 
# From -- ./inp_files/243033.got.cif
#   From: 2010.06.25/outbox.cif.g09.slc.cpg/sg12_122_cif.got.tgz:243033.got - 2010.06.28 00:19:55.
