data_PCOD8084839
_publ_section_title
;
Structure prediction by ZEFSAII (Michael W. Deem and Ramdas Pophale) SiO2 
 PCOD8084839
Probable space group: C 2/M
;
_chemical_formula_sum "Si O2"
_cell_formula_units_Z 64
_cell_length_a 25.739910
_cell_length_b 13.626162
_cell_length_c 11.395815
_cell_angle_alpha 90.000000
_cell_angle_beta 104.938919
_cell_angle_gamma 90.000000
_cell_volume 3861.833385
_symmetry_space_group_name_H-M "C 2/M"
_symmetry_group_IT_number 12
_symmetry_cell_setting 'monoclinic'
loop_
_space_group_symop_operation_xyz
x,y,z
-x,y,-z
-x,-y,-z
x,-y,z
1/2+x,1/2+y,z
1/2-x,1/2+y,-z
1/2-x,1/2-y,-z
1/2+x,1/2-y,z
loop_
_atom_site_type_symbol
_atom_site_label
_atom_site_fract_x
_atom_site_fract_y
_atom_site_fract_z
Si Si1 0.231215 0.890302 0.429883
Si Si2 0.825550 0.695924 0.626446
Si Si3 0.427549 0.113358 0.563664
Si Si4 0.136684 0.705637 0.876130
Si Si5 0.701321 0.612609 0.939218
Si Si6 0.309943 0.885547 0.869470
Si Si7 0.951762 0.385991 0.313613
Si Si8 0.229018 0.388849 0.807804
O O1 0.185134 0.808966 0.417204
O O2 0.279738 0.874934 0.548318
O O3 0.254516 0.877229 0.314891
O O4 0.207454 0.000000 0.434906
O O5 0.883729 0.675254 0.607702
O O6 0.824514 0.679791 0.765228
O O7 0.484714 0.132548 0.658572
O O8 0.430345 0.144918 0.429498
O O9 0.411461 0.000000 0.563193
O O10 0.147894 0.822538 0.888096
O O11 0.075732 0.681940 0.802156
O O12 0.173616 0.667630 0.791332
O O13 0.150790 0.649798 0.004211
O O14 0.682455 0.500000 0.931927
O O15 0.747220 0.629661 0.867188
O O16 0.725044 0.651111 0.077492
O O17 0.321497 0.000000 0.850833
O O18 0.938388 0.500000 0.282424
O O19 0.218424 0.500000 0.840611
#
# Coordination Sequence:
#
# PCOD8084839 Si02
#       8
#     8   8   8   8   8   8   8   8
#     4  10  20  31  46  69  92 118 156 190 212 255
#     4  11  20  31  47  66  94 127 148 173 226 278
#     4   9  18  33  51  68  89 115 145 186 229 266
#     4  11  17  27  47  67  90 120 153 187 223 261
#     4   9  18  29  42  63  93 125 153 184 219 259
#     4  10  19  29  42  67 100 125 145 175 225 282
#     4   9  18  32  50  71  87 107 149 195 227 258
#     4   9  16  28  46  67  89 115 151 189 222 257
#
# _framework density 16.572437999999998
#
# number of rings (size 3 to 8) (size 9 to 14) (size 15 to 20)
#    0.000    2.250    0.000    7.500    0.000    3.000 
#    0.000    0.625    0.000    3.000    0.000    1.750 
#    0.000    5.000    0.000    0.000    0.000    0.000 
#
# Total GULP energy -396748.633656 kJ/mol
# GULP energy per Si atom -12398.394802 kJ/mol
# Density = 1.653472 g / cm^3
# Si number density = 16.572438 Si / 1000 Ang^3
#
#
#
# Elastic Constant Matrix: (Units=GPa)
#
#
# Indices 1 2 3 4 5 6 
#
# 1 62.6986 42.2134 43.7398 0.0000 7.6268 0.0000
# 2 42.2134 78.2502 31.9740 0.0000 7.3131 0.0000
# 3 43.7398 31.9740 77.9333 0.0000 7.8438 0.0000
# 4 0.0000 0.0000 0.0000 18.5477 0.0000 1.4579
# 5 7.6268 7.3131 7.8438 0.0000 22.4093 0.0000
# 6 0.0000 0.0000 0.0000 1.4579 0.0000 23.2411
#
#
#
# Elastic Compliance Matrix: (Units=1/GPa)
#
#
# Indices 1 2 3 4 5 6 
#
# 1 0.034515 -0.012688 -0.013890 0.000000 -0.002745 0.000000
# 2 -0.012688 0.020203 -0.000973 0.000000 -0.001934 0.000000
# 3 -0.013890 -0.000973 0.021268 0.000000 -0.002399 0.000000
# 4 0.000000 0.000000 0.000000 0.054182 0.000000 -0.003399
# 5 -0.002745 -0.001934 -0.002399 0.000000 0.047030 0.000000
# 6 0.000000 0.000000 0.000000 -0.003399 0.000000 0.043241
#
#
# Mechanical properties :
#
#
# Convention : Reuss Voigt Hill
#
# Bulk Modulus (GPa) = 47.88255 50.52628 49.20441
# Shear Modulus (GPa) = 17.69904 19.56992 18.63448
#
# Velocity S-wave (km/s) = 3.27154 3.44011 3.35688
# Velocity P-wave (km/s) = 6.57467 6.80687 6.69178
#
# Compressibility (1/GPa) = 0.02088444
#
# Stress axis : x y z
#
# Youngs Moduli (GPa) = 28.97249 49.49878 47.01936
#
# Poissons Ratio (x) = 0.62803 0.65310
# Poissons Ratio (y) = 0.36760 0.04574
# Poissons Ratio (z) = 0.40243 0.04816
#
# Static dielectric constant tensor:
#      x y z
#    x 2.813520 0.000000 -0.001010 
#    y 0.000000 3.259430 0.000000 
#    z -0.001010 0.000000 3.152880 
# 
# 
# High freq. dielectric constant tensor:
#      x y z
#    x 1.598860 0.000000 -0.003840 
#    y 0.000000 1.636570 0.000000 
#    z -0.003840 0.000000 1.645540 
# 
# From -- ./inp_files/183032.got.cif
#   From: 2010.06.25/outbox.cif.g09.slc.cpg/sg12_92_cif.got.tgz:183032.got - 2010.06.28 00:19:55.
