data_PCOD8084171
_publ_section_title
;
Structure prediction by ZEFSAII (Michael W. Deem and Ramdas Pophale) SiO2 
 PCOD8084171
Probable space group: C 2/M
;
_chemical_formula_sum "Si O2"
_cell_formula_units_Z 64
_cell_length_a 22.316418
_cell_length_b 18.513564
_cell_length_c 17.871485
_cell_angle_alpha 90.000000
_cell_angle_beta 155.227985
_cell_angle_gamma 90.000000
_cell_volume 3093.842100
_symmetry_space_group_name_H-M "C 2/M"
_symmetry_group_IT_number 12
_symmetry_cell_setting 'monoclinic'
loop_
_space_group_symop_operation_xyz
x,y,z
-x,y,-z
-x,-y,-z
x,-y,z
1/2+x,1/2+y,z
1/2-x,1/2+y,-z
1/2-x,1/2-y,-z
1/2+x,1/2-y,z
loop_
_atom_site_type_symbol
_atom_site_label
_atom_site_fract_x
_atom_site_fract_y
_atom_site_fract_z
Si Si1 0.878570 0.415468 0.802923
Si Si2 0.902617 0.165333 0.531209
Si Si3 0.396236 0.419864 0.050944
Si Si4 0.644167 0.179398 0.505448
Si Si5 0.318835 0.585208 0.128828
Si Si6 0.517779 0.853274 0.815768
Si Si7 0.902882 0.198555 0.699235
Si Si8 0.663270 0.580870 0.176176
O O1 0.844102 0.500000 0.769146
O O2 0.735381 0.371659 0.663683
O O3 0.926375 0.397328 0.772693
O O4 0.000000 0.392461 0.000000
O O5 0.923149 0.249907 0.529817
O O6 0.879125 0.161474 0.592874
O O7 0.045732 0.120124 0.674616
O O8 0.462045 0.500000 0.136332
O O9 0.290743 0.418955 0.859608
O O10 0.318208 0.396393 0.039180
O O11 0.522047 0.365357 0.169030
O O12 0.535545 0.132668 0.330750
O O13 0.752157 0.216595 0.567206
O O14 0.721318 0.130425 0.652727
O O15 0.316910 0.500000 0.141795
O O16 0.180171 0.621444 0.007627
O O17 0.507200 0.767581 0.818330
O O18 0.674448 0.500000 0.222155
O O19 0.500000 0.608465 0.000000
#
# Coordination Sequence:
#
# PCOD8084171 Si02
#       8
#     8   8   8   8   8   8   8   8
#     4  11  23  38  59  87 114 145 191 251 308 351
#     4  10  20  38  59  85 119 153 192 244 298 351
#     4   9  19  35  55  85 123 159 195 232 284 347
#     4  11  20  34  59  91 118 156 196 246 296 341
#     4  10  22  40  64  88 116 160 199 238 295 361
#     4  11  22  40  60  87 117 148 199 249 295 350
#     4  10  18  34  59  89 119 149 191 248 297 336
#     4  10  20  33  54  89 127 161 196 239 288 344
#
# _framework density 20.686252
#
# number of rings (size 3 to 8) (size 9 to 14) (size 15 to 20)
#    0.000    1.750    3.750    1.500    0.000    7.500 
#    0.000    1.250    0.000    7.500    0.000    0.000 
#    0.000    0.000    0.000    0.000    0.000    0.000 
#
# Total GULP energy -396640.729963 kJ/mol
# GULP energy per Si atom -12395.022811 kJ/mol
# Density = 2.063917 g / cm^3
# Si number density = 20.686252 Si / 1000 Ang^3
#
#
#
# Elastic Constant Matrix: (Units=GPa)
#
#
# Indices 1 2 3 4 5 6 
#
# 1 23.6428 10.4355 19.8481 0.0012 6.4724 0.0002
# 2 10.4355 95.6142 59.7140 0.0005 -1.2451 -0.0001
# 3 19.8481 59.7140 132.6163 0.0025 5.2455 0.0009
# 4 0.0012 0.0005 0.0025 43.2573 0.0016 -4.3048
# 5 6.4724 -1.2451 5.2455 0.0016 32.9961 0.0004
# 6 0.0002 -0.0001 0.0009 -4.3048 0.0004 10.9909
#
#
#
# Elastic Compliance Matrix: (Units=1/GPa)
#
#
# Indices 1 2 3 4 5 6 
#
# 1 0.050969 -0.001584 -0.006558 -0.000001 -0.009015 0.000000
# 2 -0.001584 0.014684 -0.006450 0.000000 0.001890 0.000001
# 3 -0.006558 -0.006450 0.011457 -0.000001 -0.000778 -0.000001
# 4 -0.000001 0.000000 -0.000001 0.024055 -0.000001 0.009422
# 5 -0.009015 0.001890 -0.000778 -0.000001 0.032270 -0.000001
# 6 0.000000 0.000001 -0.000001 0.009422 -0.000001 0.094675
#
#
# Mechanical properties :
#
#
# Convention : Reuss Voigt Hill
#
# Bulk Modulus (GPa) = 20.86560 47.98539 34.42550
# Shear Modulus (GPa) = 18.29691 28.24057 23.26874
#
# Velocity S-wave (km/s) = 2.97727 3.69885 3.35750
# Velocity P-wave (km/s) = 4.68268 6.44120 5.63101
#
# Compressibility (1/GPa) = 0.04792578
#
# Stress axis : x y z
#
# Youngs Moduli (GPa) = 19.61969 68.10043 87.28291
#
# Poissons Ratio (x) = 0.10789 0.57243
# Poissons Ratio (y) = 0.03108 0.56294
# Poissons Ratio (z) = 0.12867 0.43922
#
# Static dielectric constant tensor:
#      x y z
#    x 3.497420 0.000000 -0.092890 
#    y 0.000000 3.854600 0.000000 
#    z -0.092890 0.000000 3.764440 
# 
# 
# High freq. dielectric constant tensor:
#      x y z
#    x 1.781490 0.000000 -0.010710 
#    y 0.000000 1.820560 0.000000 
#    z -0.010710 0.000000 1.801140 
# 
# From -- ./inp_files/328644.got.cif
#   From: 2010.06.25/outbox.cif.g09.slc.cpg/sg12_165_cif.got.tgz:328644.got - 2010.06.28 00:19:55.
