data_PCOD8084123
_publ_section_title
;
Structure prediction by ZEFSAII (Michael W. Deem and Ramdas Pophale) SiO2 
 PCOD8084123
Probable space group: C 2/M
;
_chemical_formula_sum "Si O2"
_cell_formula_units_Z 40
_cell_length_a 8.797135
_cell_length_b 16.875447
_cell_length_c 18.323048
_cell_angle_alpha 90.000000
_cell_angle_beta 50.516137
_cell_angle_gamma 90.000000
_cell_volume 2099.428641
_symmetry_space_group_name_H-M "C 2/M"
_symmetry_group_IT_number 12
_symmetry_cell_setting 'monoclinic'
loop_
_space_group_symop_operation_xyz
x,y,z
-x,y,-z
-x,-y,-z
x,-y,z
1/2+x,1/2+y,z
1/2-x,1/2+y,-z
1/2-x,1/2-y,-z
1/2+x,1/2-y,z
loop_
_atom_site_type_symbol
_atom_site_label
_atom_site_fract_x
_atom_site_fract_y
_atom_site_fract_z
Si Si1 0.602068 0.412214 0.332309
Si Si2 0.033130 0.215904 0.066534
Si Si3 0.335159 0.791382 0.360683
Si Si4 0.858288 0.811241 0.812469
Si Si5 0.179146 0.637738 0.484517
O O1 0.691189 0.500000 0.318529
O O2 0.707012 0.343589 0.345080
O O3 0.622785 0.391050 0.240529
O O4 0.374392 0.415060 0.425729
O O5 0.031240 0.168332 0.143890
O O6 0.870665 0.286226 0.112767
O O7 0.250000 0.250000 0.000000
O O8 0.000000 0.166153 0.000000
O O9 0.530871 0.762606 0.259789
O O10 0.208286 0.717782 0.428222
O O11 0.392875 0.845332 0.411532
O O12 0.000000 0.591056 0.500000
#
# Coordination Sequence:
#
# PCOD8084123 Si02
#       5
#     8   8   8   8   8
#     4  11  23  36  53  80 117 152 181 221 273 325
#     4   9  18  32  58  91 108 129 177 236 277 319
#     4  10  19  33  55  80 107 149 189 227 264 320
#     4  10  18  34  58  86 110 141 183 227 266 329
#     4  10  20  33  54  78 107 144 196 233 264 305
#
# _framework density 19.052803999999998
#
# number of rings (size 3 to 8) (size 9 to 14) (size 15 to 20)
#    0.000    2.000    2.000    4.200    2.800    2.000 
#    0.000    0.000    0.000    6.000    0.000    0.000 
#    0.000    0.000    0.000    0.000    0.000    0.000 
#
# Total GULP energy -247773.405066 kJ/mol
# GULP energy per Si atom -12388.670253 kJ/mol
# Density = 1.900944 g / cm^3
# Si number density = 19.052804 Si / 1000 Ang^3
#
#
#
# Elastic Constant Matrix: (Units=GPa)
#
#
# Indices 1 2 3 4 5 6 
#
# 1 112.9270 16.3674 46.3494 0.0002 9.9853 -0.0007
# 2 16.3674 67.1061 15.2207 0.0001 5.8041 -0.0003
# 3 46.3494 15.2207 103.6002 0.0000 13.2259 -0.0001
# 4 0.0002 0.0001 0.0000 3.4097 -0.0001 -4.6929
# 5 9.9853 5.8041 13.2259 -0.0001 52.4356 0.0005
# 6 -0.0007 -0.0003 -0.0001 -4.6929 0.0005 8.7310
#
#
#
# Elastic Compliance Matrix: (Units=1/GPa)
#
#
# Indices 1 2 3 4 5 6 
#
# 1 0.011045 -0.001582 -0.004611 0.000002 -0.000765 0.000002
# 2 -0.001582 0.015712 -0.001464 0.000001 -0.001069 0.000001
# 3 -0.004611 -0.001464 0.012190 0.000000 -0.002035 0.000000
# 4 0.000002 0.000001 0.000000 1.127152 -0.000003 0.605849
# 5 -0.000765 -0.001069 -0.002035 -0.000003 0.019848 -0.000003
# 6 0.000002 0.000001 0.000000 0.605849 -0.000003 0.440181
#
#
# Mechanical properties :
#
#
# Convention : Reuss Voigt Hill
#
# Bulk Modulus (GPa) = 42.31432 48.83425 45.57429
# Shear Modulus (GPa) = 3.03155 26.62829 14.82992
#
# Velocity S-wave (km/s) = 1.26277 3.74251 2.79294
# Velocity P-wave (km/s) = 4.93795 6.66047 5.86281
#
# Compressibility (1/GPa) = 0.02363266
#
# Stress axis : x y z
#
# Youngs Moduli (GPa) = 90.54015 63.64511 82.03191
#
# Poissons Ratio (x) = 0.10067 0.37827
# Poissons Ratio (y) = 0.14322 0.12012
# Poissons Ratio (z) = 0.41750 0.09319
#
# Static dielectric constant tensor:
#      x y z
#    x 3.991950 0.000000 0.461670 
#    y 0.000000 2.980990 0.000000 
#    z 0.461670 0.000000 4.104570 
# 
# 
# High freq. dielectric constant tensor:
#      x y z
#    x 1.765190 0.000000 0.011280 
#    y 0.000000 1.670500 0.000000 
#    z 0.011280 0.000000 1.756540 
# 
# From -- ./inp_files/195005.got.cif
#   From: 2010.06.25/outbox.cif.g09.slc.cpg/sg12_98_cif.got.tgz:195005.got - 2010.06.28 00:19:55.
