data_PCOD8084188
_publ_section_title
;
Structure prediction by ZEFSAII (Michael W. Deem and Ramdas Pophale) SiO2 
 PCOD8084188
Probable space group: C 2/M
;
_chemical_formula_sum "Si O2"
_cell_formula_units_Z 48
_cell_length_a 13.854268
_cell_length_b 13.881931
_cell_length_c 15.077430
_cell_angle_alpha 90.000000
_cell_angle_beta 139.057691
_cell_angle_gamma 90.000000
_cell_volume 1900.203645
_symmetry_space_group_name_H-M "C 2/M"
_symmetry_group_IT_number 12
_symmetry_cell_setting 'monoclinic'
loop_
_space_group_symop_operation_xyz
x,y,z
-x,y,-z
-x,-y,-z
x,-y,z
1/2+x,1/2+y,z
1/2-x,1/2+y,-z
1/2-x,1/2-y,-z
1/2+x,1/2-y,z
loop_
_atom_site_type_symbol
_atom_site_label
_atom_site_fract_x
_atom_site_fract_y
_atom_site_fract_z
Si Si1 0.229317 0.105900 0.658026
Si Si2 0.506542 0.109479 0.729475
Si Si3 0.878867 0.113329 0.804834
Si Si4 0.162033 0.393632 0.076084
Si Si5 0.314810 0.686557 0.953477
Si Si6 0.163900 0.285072 0.524204
O O1 0.390110 0.131611 0.727526
O O2 0.231146 0.105091 0.765010
O O3 0.118701 0.190482 0.549904
O O4 0.177016 0.000000 0.587400
O O5 0.664838 0.135194 0.879731
O O6 0.480126 0.163415 0.616347
O O7 0.500112 0.000000 0.696837
O O8 0.837427 0.170754 0.864445
O O9 0.765660 0.140525 0.648977
O O10 0.871631 0.000000 0.818099
O O11 0.046701 0.143596 0.895183
O O12 0.170991 0.500000 0.034431
O O13 0.205607 0.302566 0.043764
O O14 0.000000 0.375486 0.000000
O O15 0.250000 0.250000 0.500000
#
# Coordination Sequence:
#
# PCOD8084188 Si02
#       6
#     8   8   8   8   8   8
#     4   9  18  36  58  80 110 155 201 243 294 355
#     4  10  21  36  58  89 121 153 198 249 303 358
#     4  11  21  36  59  85 122 162 200 238 297 365
#     4  10  18  34  60  83 109 154 204 244 288 354
#     4  11  20  37  60  92 123 153 196 252 308 353
#     4  10  20  37  57  82 116 159 200 242 294 356
#
# _framework density 25.260449999999999
#
# number of rings (size 3 to 8) (size 9 to 14) (size 15 to 20)
#    0.000    1.833    3.333    2.500    0.000    1.333 
#    0.000   10.000    0.000    8.000    0.000    0.000 
#    0.000    0.000    0.000    0.000    0.000    0.000 
#
# Total GULP energy -297479.067509 kJ/mol
# GULP energy per Si atom -12394.961146 kJ/mol
# Density = 2.520296 g / cm^3
# Si number density = 25.260450 Si / 1000 Ang^3
#
#
#
# Elastic Constant Matrix: (Units=GPa)
#
#
# Indices 1 2 3 4 5 6 
#
# 1 14.2668 -8.5121 14.0526 0.0000 11.5447 0.0000
# 2 -8.5121 152.5613 19.7709 0.0000 -2.7246 0.0000
# 3 14.0526 19.7709 97.9662 0.0000 -7.0210 0.0000
# 4 0.0000 0.0000 0.0000 35.2591 0.0000 -3.7867
# 5 11.5447 -2.7246 -7.0210 0.0000 29.7331 0.0000
# 6 0.0000 0.0000 0.0000 -3.7867 0.0000 22.2857
#
#
#
# Elastic Compliance Matrix: (Units=1/GPa)
#
#
# Indices 1 2 3 4 5 6 
#
# 1 0.164538 0.011951 -0.031039 0.000000 -0.070121 0.000000
# 2 0.011951 0.007601 -0.003592 0.000000 -0.004792 0.000000
# 3 -0.031039 -0.003592 0.016504 0.000000 0.015620 0.000000
# 4 0.000000 0.000000 0.000000 0.028889 0.000000 0.004909
# 5 -0.070121 -0.004792 0.015620 0.000000 0.064108 0.000000
# 6 0.000000 0.000000 0.000000 0.004909 0.000000 0.045706
#
#
# Mechanical properties :
#
#
# Convention : Reuss Voigt Hill
#
# Bulk Modulus (GPa) = 6.97919 35.04633 21.01276
# Shear Modulus (GPa) = 11.89151 33.42111 22.65631
#
# Velocity S-wave (km/s) = 2.17205 3.64134 2.99809
# Velocity P-wave (km/s) = 3.00986 5.61989 4.50791
#
# Compressibility (1/GPa) = 0.14328307
#
# Stress axis : x y z
#
# Youngs Moduli (GPa) = 6.07762 131.55461 60.59039
#
# Poissons Ratio (x) = -1.57215 1.88067
# Poissons Ratio (y) = -0.07263 0.21762
# Poissons Ratio (z) = 0.18864 0.47251
#
# Static dielectric constant tensor:
#      x y z
#    x 4.197460 0.000000 -0.306320 
#    y 0.000000 5.278500 0.000000 
#    z -0.306320 0.000000 5.120160 
# 
# 
# High freq. dielectric constant tensor:
#      x y z
#    x 1.988570 0.000000 -0.014520 
#    y 0.000000 2.029060 0.000000 
#    z -0.014520 0.000000 2.007550 
# 
# From -- ./inp_files/278239.got.cif
#   From: 2010.06.25/outbox.cif.g09.slc.cpg/sg12_140_cif.got.tgz:278239.got - 2010.06.28 00:19:55.
