data_PCOD8084192
_publ_section_title
;
Structure prediction by ZEFSAII (Michael W. Deem and Ramdas Pophale) SiO2 
 PCOD8084192
Probable space group: C 2/M
;
_chemical_formula_sum "Si O2"
_cell_formula_units_Z 52
_cell_length_a 18.982983
_cell_length_b 19.715575
_cell_length_c 15.404061
_cell_angle_alpha 90.000000
_cell_angle_beta 29.452354
_cell_angle_gamma 90.000000
_cell_volume 2834.712435
_symmetry_space_group_name_H-M "C 2/M"
_symmetry_group_IT_number 12
_symmetry_cell_setting 'monoclinic'
loop_
_space_group_symop_operation_xyz
x,y,z
-x,y,-z
-x,-y,-z
x,-y,z
1/2+x,1/2+y,z
1/2-x,1/2+y,-z
1/2-x,1/2-y,-z
1/2+x,1/2-y,z
loop_
_atom_site_type_symbol
_atom_site_label
_atom_site_fract_x
_atom_site_fract_y
_atom_site_fract_z
Si Si1 0.604266 0.923055 0.809132
Si Si2 0.706512 0.703113 0.414909
Si Si3 0.889847 0.610103 0.688517
Si Si4 0.500000 0.238662 0.500000
Si Si5 0.154613 0.173166 0.661572
Si Si6 0.576832 0.076577 0.644082
Si Si7 0.562205 0.575597 0.027559
O O1 0.732033 0.869766 0.676848
O O2 0.528278 0.913669 0.796621
O O3 0.663953 0.000000 0.754347
O O4 0.500000 0.905949 0.000000
O O5 0.587348 0.714545 0.470985
O O6 0.824585 0.764120 0.292916
O O7 0.633399 0.701773 0.587819
O O8 0.000000 0.576345 0.500000
O O9 0.891570 0.691445 0.672424
O O10 0.939095 0.592458 0.733112
O O11 0.732479 0.582234 0.842358
O O12 0.293942 0.125713 0.521344
O O13 0.009979 0.131530 0.833843
O O14 0.630581 0.000000 0.570881
O O15 0.523764 0.500000 0.101998
O O16 0.500000 0.588290 0.000000
#
# Coordination Sequence:
#
# PCOD8084192 Si02
#       7
#     8   8   8   4   8   8   8
#     4   9  20  38  60  85 108 141 193 241 285 342
#     4  10  20  37  62  79 112 151 190 232 295 336
#     4  10  21  36  56  81 121 151 190 228 279 341
#     4  10  20  38  56  84 112 148 190 238 270 344
#     4  10  20  37  57  84 113 150 192 235 279 343
#     4  10  18  34  60  84 113 153 189 229 282 337
#     4  11  22  35  54  85 121 156 192 234 281 334
#
# _framework density 18.344013
#
# number of rings (size 3 to 8) (size 9 to 14) (size 15 to 20)
#    0.462    1.538    1.538    2.769    0.000    4.923 
#    2.769    1.154    0.000    0.000    0.000    0.000 
#    0.000    0.000    0.000    0.000    0.000    0.000 
#
# Total GULP energy -322304.338833 kJ/mol
# GULP energy per Si atom -12396.320724 kJ/mol
# Density = 1.830226 g / cm^3
# Si number density = 18.344013 Si / 1000 Ang^3
#
#
#
# Elastic Constant Matrix: (Units=GPa)
#
#
# Indices 1 2 3 4 5 6 
#
# 1 137.7140 51.3510 41.4609 0.0005 -6.9588 0.0010
# 2 51.3510 103.7333 32.7085 0.0002 1.7066 0.0016
# 3 41.4609 32.7085 81.2945 -0.0005 -1.6720 0.0010
# 4 0.0005 0.0002 -0.0005 26.1797 0.0003 -0.4148
# 5 -6.9588 1.7066 -1.6720 0.0003 22.0248 -0.0017
# 6 0.0010 0.0016 0.0010 -0.4148 -0.0017 23.2481
#
#
#
# Elastic Compliance Matrix: (Units=1/GPa)
#
#
# Indices 1 2 3 4 5 6 
#
# 1 0.009896 -0.003871 -0.003424 0.000000 0.003167 0.000000
# 2 -0.003871 0.012587 -0.003140 0.000000 -0.002437 -0.000001
# 3 -0.003424 -0.003140 0.015317 0.000000 0.000324 0.000000
# 4 0.000000 0.000000 0.000000 0.038208 -0.000001 0.000682
# 5 0.003167 -0.002437 0.000324 -0.000001 0.046617 0.000003
# 6 0.000000 -0.000001 0.000000 0.000682 0.000003 0.043027
#
#
# Mechanical properties :
#
#
# Convention : Reuss Voigt Hill
#
# Bulk Modulus (GPa) = 59.07009 63.75364 61.41186
# Shear Modulus (GPa) = 26.01919 27.43859 26.72889
#
# Velocity S-wave (km/s) = 3.77025 3.87173 3.82133
# Velocity P-wave (km/s) = 7.15711 7.40385 7.28153
#
# Compressibility (1/GPa) = 0.01692904
#
# Stress axis : x y z
#
# Youngs Moduli (GPa) = 101.05249 79.44972 65.28517
#
# Poissons Ratio (x) = 0.30756 0.22356
# Poissons Ratio (y) = 0.39118 0.20499
# Poissons Ratio (z) = 0.34604 0.24947
#
# Static dielectric constant tensor:
#      x y z
#    x 3.405280 -0.000010 0.158660 
#    y -0.000010 3.607180 0.000010 
#    z 0.158660 0.000010 3.101400 
# 
# 
# High freq. dielectric constant tensor:
#      x y z
#    x 1.714900 0.000000 0.008890 
#    y 0.000000 1.727970 0.000000 
#    z 0.008890 0.000000 1.677310 
# 
# From -- ./inp_files/227383.got.cif
#   From: 2010.06.25/outbox.cif.g09.slc.cpg/sg12_114_cif.got.tgz:227383.got - 2010.06.28 00:19:55.
