data_PCOD8084270
_publ_section_title
;
Structure prediction by ZEFSAII (Michael W. Deem and Ramdas Pophale) SiO2 
 PCOD8084270
Probable space group: C 2/M
;
_chemical_formula_sum "Si O2"
_cell_formula_units_Z 64
_cell_length_a 27.498315
_cell_length_b 17.891845
_cell_length_c 22.089866
_cell_angle_alpha 90.000000
_cell_angle_beta 160.581047
_cell_angle_gamma 90.000000
_cell_volume 3613.356700
_symmetry_space_group_name_H-M "C 2/M"
_symmetry_group_IT_number 12
_symmetry_cell_setting 'monoclinic'
loop_
_space_group_symop_operation_xyz
x,y,z
-x,y,-z
-x,-y,-z
x,-y,z
1/2+x,1/2+y,z
1/2-x,1/2+y,-z
1/2-x,1/2-y,-z
1/2+x,1/2-y,z
loop_
_atom_site_type_symbol
_atom_site_label
_atom_site_fract_x
_atom_site_fract_y
_atom_site_fract_z
Si Si1 0.691092 0.415812 0.902201
Si Si2 0.836747 0.912924 0.791183
Si Si3 0.136692 0.704164 0.618936
Si Si4 0.312158 0.270131 0.933028
Si Si5 0.431500 0.581685 0.108977
Si Si6 0.025120 0.323883 0.788336
Si Si7 0.045588 0.772309 0.695615
Si Si8 0.743716 0.584245 0.440355
O O1 0.679641 0.500000 0.861990
O O2 0.651264 0.415786 0.925314
O O3 0.578139 0.361255 0.734614
O O4 0.856465 0.386484 0.090049
O O5 0.714649 0.869750 0.686215
O O6 0.809214 0.894166 0.688841
O O7 0.816860 0.000000 0.782244
O O8 0.000000 0.885820 0.000000
O O9 0.246602 0.752849 0.790669
O O10 0.000000 0.678499 0.500000
O O11 0.089912 0.757144 0.508307
O O12 0.188767 0.270582 0.840124
O O13 0.368823 0.354832 0.991518
O O14 0.438708 0.213648 0.103946
O O15 0.407412 0.500000 0.049482
O O16 0.605352 0.593659 0.322655
O O17 0.015574 0.258106 0.727467
O O18 0.868273 0.361348 0.610840
O O19 0.805156 0.500000 0.513599
#
# Coordination Sequence:
#
# PCOD8084270 Si02
#       8
#     8   8   8   8   8   8   8   8
#     4  10  19  33  56  77 100 134 169 206 258 306
#     4  10  20  35  50  69 104 146 173 197 245 303
#     4  10  21  34  52  73 101 135 170 212 250 293
#     4  10  19  33  52  76 101 133 166 211 259 293
#     4  10  19  32  49  75 105 134 168 204 247 300
#     4  11  18  34  54  75 103 131 168 212 255 300
#     4  10  18  35  53  76 104 130 167 217 250 294
#     4  10  21  33  49  74 105 137 170 209 249 295
#
# _framework density 17.712062
#
# number of rings (size 3 to 8) (size 9 to 14) (size 15 to 20)
#    0.000    1.875    3.750    1.875    0.000    2.250 
#    0.000    1.875    0.000   10.125    0.000    0.000 
#    0.000    3.500    0.000    0.000    0.000    0.000 
#
# Total GULP energy -396705.021204 kJ/mol
# GULP energy per Si atom -12397.031913 kJ/mol
# Density = 1.767175 g / cm^3
# Si number density = 17.712062 Si / 1000 Ang^3
#
#
#
# Elastic Constant Matrix: (Units=GPa)
#
#
# Indices 1 2 3 4 5 6 
#
# 1 25.6387 23.9878 18.4674 0.0046 -2.7945 0.0105
# 2 23.9878 114.1189 60.8122 0.0044 -3.0829 0.0077
# 3 18.4674 60.8122 108.6144 0.0031 -16.6203 0.0107
# 4 0.0046 0.0044 0.0031 32.4592 0.0029 6.0135
# 5 -2.7945 -3.0829 -16.6203 0.0029 24.7199 0.0052
# 6 0.0105 0.0077 0.0107 6.0135 0.0052 14.2481
#
#
#
# Elastic Compliance Matrix: (Units=1/GPa)
#
#
# Indices 1 2 3 4 5 6 
#
# 1 0.049693 -0.008653 -0.003243 0.000000 0.002358 -0.000030
# 2 -0.008653 0.014274 -0.007132 -0.000001 -0.003993 0.000006
# 3 -0.003243 -0.007132 0.015114 0.000001 0.008906 -0.000009
# 4 0.000000 -0.000001 0.000001 0.033421 -0.000001 -0.014106
# 5 0.002358 -0.003993 0.008906 -0.000001 0.046209 -0.000023
# 6 -0.000030 0.000006 -0.000009 -0.014106 -0.000023 0.076138
#
#
# Mechanical properties :
#
#
# Convention : Reuss Voigt Hill
#
# Bulk Modulus (GPa) = 24.37581 50.54520 37.46051
# Shear Modulus (GPa) = 17.44701 23.95908 20.70304
#
# Velocity S-wave (km/s) = 3.14193 3.68190 3.42258
# Velocity P-wave (km/s) = 5.19177 6.83186 6.06748
#
# Compressibility (1/GPa) = 0.04102428
#
# Stress axis : x y z
#
# Youngs Moduli (GPa) = 20.12355 70.05622 66.16325
#
# Poissons Ratio (x) = 0.60622 0.21460
# Poissons Ratio (y) = 0.17414 0.47186
# Poissons Ratio (z) = 0.06527 0.49962
#
# Static dielectric constant tensor:
#      x y z
#    x 3.185720 -0.000010 -0.009530 
#    y -0.000010 3.377980 -0.000010 
#    z -0.009530 -0.000010 3.402820 
# 
# 
# High freq. dielectric constant tensor:
#      x y z
#    x 1.671050 0.000000 0.006050 
#    y 0.000000 1.674120 0.000000 
#    z 0.006050 0.000000 1.684470 
# 
# From -- ./inp_files/87969.got.cif
#   From: 2010.06.25/outbox.cif.g09.slc.cpg/sg12_44_cif.got.tgz:87969.got - 2010.06.28 00:19:55.
