data_PCOD8084365
_publ_section_title
;
Structure prediction by ZEFSAII (Michael W. Deem and Ramdas Pophale) SiO2 
 PCOD8084365
Probable space group: C 2/M
;
_chemical_formula_sum "Si O2"
_cell_formula_units_Z 52
_cell_length_a 22.687911
_cell_length_b 14.610343
_cell_length_c 11.328219
_cell_angle_alpha 90.000000
_cell_angle_beta 142.046003
_cell_angle_gamma 90.000000
_cell_volume 2309.467504
_symmetry_space_group_name_H-M "C 2/M"
_symmetry_group_IT_number 12
_symmetry_cell_setting 'monoclinic'
loop_
_space_group_symop_operation_xyz
x,y,z
-x,y,-z
-x,-y,-z
x,-y,z
1/2+x,1/2+y,z
1/2-x,1/2+y,-z
1/2-x,1/2-y,-z
1/2+x,1/2-y,z
loop_
_atom_site_type_symbol
_atom_site_label
_atom_site_fract_x
_atom_site_fract_y
_atom_site_fract_z
Si Si1 0.791542 0.098695 0.372896
Si Si2 0.102730 0.397506 0.723678
Si Si3 0.524021 0.222450 0.787277
Si Si4 0.500000 0.275633 0.000000
Si Si5 0.181830 0.895683 0.322147
Si Si6 0.812532 0.292959 0.347257
Si Si7 0.992102 0.900472 0.352024
O O1 0.763467 0.112873 0.466075
O O2 0.761959 0.191650 0.255729
O O3 0.905111 0.087818 0.544144
O O4 0.747013 0.000000 0.257467
O O5 0.143745 0.500000 0.800163
O O6 0.177011 0.336496 0.765813
O O7 0.000000 0.398022 0.500000
O O8 0.090458 0.355666 0.835107
O O9 0.531716 0.211463 0.940604
O O10 0.415052 0.216069 0.571476
O O11 0.565174 0.322579 0.811449
O O12 0.414712 0.338535 0.820462
O O13 0.249308 0.859443 0.325905
O O14 0.155660 0.000000 0.251553
O O15 0.000000 0.866739 0.500000
O O16 0.939002 0.000000 0.262750
#
# Coordination Sequence:
#
# PCOD8084365 Si02
#       7
#     8   8   8   4   8   8   8
#     4   9  17  29  48  79 113 142 176 226 278 322
#     4   9  18  34  58  85 107 137 188 247 289 326
#     4  10  20  34  56  81 114 148 187 233 287 335
#     4  12  23  36  53  80 122 158 187 226 285 344
#     4  11  22  35  55  84 116 154 192 231 278 333
#     4  10  18  35  60  82 110 143 194 241 279 330
#     4   9  15  26  47  76 107 141 182 229 280 327
#
# _framework density 22.516012
#
# number of rings (size 3 to 8) (size 9 to 14) (size 15 to 20)
#    0.000    2.154    3.077    3.462    0.000    1.231 
#    0.000    1.154    0.000    0.923    0.000    0.000 
#    0.000    0.000    0.000    0.000    0.000    0.000 
#
# Total GULP energy -322220.406143 kJ/mol
# GULP energy per Si atom -12393.092544 kJ/mol
# Density = 2.246476 g / cm^3
# Si number density = 22.516012 Si / 1000 Ang^3
#
#
#
# Elastic Constant Matrix: (Units=GPa)
#
#
# Indices 1 2 3 4 5 6 
#
# 1 147.9376 76.0814 19.6088 0.0000 -39.5215 0.0000
# 2 76.0814 159.3823 17.8141 0.0000 -33.8847 0.0000
# 3 19.6088 17.8141 17.3226 0.0000 -18.6951 0.0000
# 4 0.0000 0.0000 0.0000 9.0534 0.0000 -9.1312
# 5 -39.5215 -33.8847 -18.6951 0.0000 34.2823 0.0000
# 6 0.0000 0.0000 0.0000 -9.1312 0.0000 44.0962
#
#
#
# Elastic Compliance Matrix: (Units=1/GPa)
#
#
# Indices 1 2 3 4 5 6 
#
# 1 0.010982 -0.003215 0.002695 0.000000 0.010952 0.000000
# 2 -0.003215 0.008889 -0.000048 0.000000 0.005053 0.000000
# 3 0.002695 -0.000048 0.141029 0.000000 0.079966 0.000000
# 4 0.000000 0.000000 0.000000 0.139615 0.000000 0.028911
# 5 0.010952 0.005053 0.079966 0.000000 0.090396 0.000000
# 6 0.000000 0.000000 0.000000 0.028911 0.000000 0.028664
#
#
# Mechanical properties :
#
#
# Convention : Reuss Voigt Hill
#
# Bulk Modulus (GPa) = 6.25933 61.29455 33.77694
# Shear Modulus (GPa) = 10.54928 31.56226 21.05577
#
# Velocity S-wave (km/s) = 2.16689 3.74808 3.06133
# Velocity P-wave (km/s) = 3.00774 6.78326 5.24686
#
# Compressibility (1/GPa) = 0.15976162
#
# Stress axis : x y z
#
# Youngs Moduli (GPa) = 91.06212 112.50487 7.09074
#
# Poissons Ratio (x) = 0.36169 -0.01911
# Poissons Ratio (y) = 0.29276 0.00034
# Poissons Ratio (z) = -0.24537 0.00544
#
# Static dielectric constant tensor:
#      x y z
#    x 4.231980 0.000000 -0.184860 
#    y 0.000000 4.732590 0.000000 
#    z -0.184860 0.000000 3.341140 
# 
# 
# High freq. dielectric constant tensor:
#      x y z
#    x 1.901950 0.000000 -0.018220 
#    y 0.000000 1.903200 0.000000 
#    z -0.018220 0.000000 1.819590 
# 
# From -- ./inp_files/167364.got.cif
#   From: 2010.06.25/outbox.cif.g09.slc.cpg/sg12_84_cif.got.tgz:167364.got - 2010.06.28 00:19:55.
