data_PCOD8084446
_publ_section_title
;
Structure prediction by ZEFSAII (Michael W. Deem and Ramdas Pophale) SiO2 
 PCOD8084446
Probable space group: C 2/M
;
_chemical_formula_sum "Si O2"
_cell_formula_units_Z 64
_cell_length_a 12.894972
_cell_length_b 23.595738
_cell_length_c 11.500375
_cell_angle_alpha 90.000000
_cell_angle_beta 78.094798
_cell_angle_gamma 90.000000
_cell_volume 3423.911079
_symmetry_space_group_name_H-M "C 2/M"
_symmetry_group_IT_number 12
_symmetry_cell_setting 'monoclinic'
loop_
_space_group_symop_operation_xyz
x,y,z
-x,y,-z
-x,-y,-z
x,-y,z
1/2+x,1/2+y,z
1/2-x,1/2+y,-z
1/2-x,1/2-y,-z
1/2+x,1/2-y,z
loop_
_atom_site_type_symbol
_atom_site_label
_atom_site_fract_x
_atom_site_fract_y
_atom_site_fract_z
Si Si1 0.482795 0.065899 0.760629
Si Si2 0.894434 0.392268 0.467840
Si Si3 0.645869 0.669138 0.774608
Si Si4 0.295826 0.311912 0.986477
Si Si5 0.428641 0.835111 0.916146
Si Si6 0.177993 0.722552 0.418791
Si Si7 0.260226 0.936097 0.683072
Si Si8 0.065497 0.226319 0.242438
O O1 0.586442 0.091701 0.670647
O O2 0.479992 0.104104 0.875908
O O3 0.369422 0.077342 0.725538
O O4 0.500326 0.000000 0.785371
O O5 0.889779 0.325201 0.498002
O O6 0.788705 0.423040 0.541128
O O7 0.000000 0.419410 0.500000
O O8 0.753283 0.697086 0.702482
O O9 0.660816 0.601904 0.747628
O O10 0.549515 0.697328 0.727155
O O11 0.631593 0.677941 0.916342
O O12 0.363363 0.317081 0.852110
O O13 0.250000 0.250000 0.000000
O O14 0.190970 0.350790 0.014106
O O15 0.434541 0.790050 0.809349
O O16 0.500000 0.806984 0.000000
O O17 0.250000 0.750000 0.500000
O O18 0.103950 0.768506 0.368291
O O19 0.221990 0.000000 0.708715
#
# Coordination Sequence:
#
# PCOD8084446 Si02
#       8
#     8   8   8   8   8   8   8   8
#     4  10  19  33  54  77 111 150 186 229 283 339
#     4   9  18  32  51  79 108 143 185 223 274 337
#     4  11  20  36  55  82 109 146 187 231 281 334
#     4  10  18  36  53  77 106 145 191 226 271 328
#     4  11  21  33  55  81 111 150 186 231 283 334
#     4  11  24  34  52  82 119 148 178 230 283 342
#     4   9  17  33  55  80 109 142 187 237 274 324
#     4  11  22  36  56  79 111 149 190 229 278 340
#
# _framework density 18.692074000000002
#
# number of rings (size 3 to 8) (size 9 to 14) (size 15 to 20)
#    0.000    1.750    3.750    3.750    3.500    1.750 
#    0.000    0.000    0.000    2.250    0.000    7.875 
#    0.000    0.000    0.000    0.000    0.000    0.000 
#
# Total GULP energy -396497.453486 kJ/mol
# GULP energy per Si atom -12390.545421 kJ/mol
# Density = 1.864953 g / cm^3
# Si number density = 18.692074 Si / 1000 Ang^3
#
#
#
# Elastic Constant Matrix: (Units=GPa)
#
#
# Indices 1 2 3 4 5 6 
#
# 1 77.9840 38.9974 28.5960 0.0000 8.8622 0.0000
# 2 38.9974 103.4277 48.3576 0.0000 -6.4053 0.0000
# 3 28.5960 48.3576 73.7050 0.0000 5.3570 0.0000
# 4 0.0000 0.0000 0.0000 20.7860 0.0000 -4.6801
# 5 8.8622 -6.4053 5.3570 0.0000 32.6857 0.0000
# 6 0.0000 0.0000 0.0000 -4.6801 0.0000 19.6594
#
#
#
# Elastic Compliance Matrix: (Units=1/GPa)
#
#
# Indices 1 2 3 4 5 6 
#
# 1 0.017180 -0.005585 -0.002614 0.000000 -0.005324 0.000000
# 2 -0.005585 0.016382 -0.009032 0.000000 0.006205 0.000000
# 3 -0.002614 -0.009032 0.020833 0.000000 -0.004476 0.000000
# 4 0.000000 0.000000 0.000000 0.050834 0.000000 0.012102
# 5 -0.005324 0.006205 -0.004476 0.000000 0.033987 0.000000
# 6 0.000000 0.000000 0.000000 0.012102 0.000000 0.053747
#
#
# Mechanical properties :
#
#
# Convention : Reuss Voigt Hill
#
# Bulk Modulus (GPa) = 50.17067 54.11318 52.14193
# Shear Modulus (GPa) = 21.36121 23.90393 22.63257
#
# Velocity S-wave (km/s) = 3.38419 3.57995 3.48345
# Velocity P-wave (km/s) = 6.49378 6.78975 6.64341
#
# Compressibility (1/GPa) = 0.01993196
#
# Stress axis : x y z
#
# Youngs Moduli (GPa) = 58.20836 61.04399 48.00099
#
# Poissons Ratio (x) = 0.34094 0.12547
# Poissons Ratio (y) = 0.32510 0.43354
# Poissons Ratio (z) = 0.15216 0.55135
#
# Static dielectric constant tensor:
#      x y z
#    x 3.286730 0.000000 -0.399040 
#    y 0.000000 3.325270 0.000000 
#    z -0.399040 0.000000 3.761370 
# 
# 
# High freq. dielectric constant tensor:
#      x y z
#    x 1.701380 0.000000 -0.014070 
#    y 0.000000 1.699480 0.000000 
#    z -0.014070 0.000000 1.724430 
# 
# From -- ./inp_files/136647.got.cif
#   From: 2010.06.25/outbox.cif.g09.slc.cpg/sg12_69_cif.got.tgz:136647.got - 2010.06.28 00:19:55.
