data_PCOD8084290
_publ_section_title
;
Structure prediction by ZEFSAII (Michael W. Deem and Ramdas Pophale) SiO2 
 PCOD8084290
Probable space group: C 2/M
;
_chemical_formula_sum "Si O2"
_cell_formula_units_Z 56
_cell_length_a 10.010834
_cell_length_b 27.808369
_cell_length_c 12.498844
_cell_angle_alpha 90.000000
_cell_angle_beta 111.233160
_cell_angle_gamma 90.000000
_cell_volume 3243.282818
_symmetry_space_group_name_H-M "C 2/M"
_symmetry_group_IT_number 12
_symmetry_cell_setting 'monoclinic'
loop_
_space_group_symop_operation_xyz
x,y,z
-x,y,-z
-x,-y,-z
x,-y,z
1/2+x,1/2+y,z
1/2-x,1/2+y,-z
1/2-x,1/2-y,-z
1/2+x,1/2-y,z
loop_
_atom_site_type_symbol
_atom_site_label
_atom_site_fract_x
_atom_site_fract_y
_atom_site_fract_z
Si Si1 0.153754 0.703921 0.590857
Si Si2 0.674524 0.883407 0.732264
Si Si3 0.343356 0.104488 0.682917
Si Si4 0.167854 0.054119 0.054167
Si Si5 0.340786 0.311234 0.441308
Si Si6 0.668896 0.052976 0.534447
Si Si7 0.354958 0.054988 0.906581
O O1 0.192120 0.673274 0.708822
O O2 0.277220 0.695591 0.540526
O O3 0.146342 0.760255 0.617606
O O4 0.000000 0.685435 0.500000
O O5 0.512661 0.891836 0.720195
O O6 0.772599 0.902718 0.856090
O O7 0.727289 0.911812 0.642331
O O8 0.263060 0.155541 0.658890
O O9 0.283803 0.072543 0.567731
O O10 0.306485 0.081462 0.785440
O O11 0.210330 0.000000 0.108393
O O12 0.225824 0.060842 0.951644
O O13 0.000000 0.060085 0.000000
O O14 0.500000 0.333515 0.500000
O O15 0.500000 0.050191 0.500000
O O16 0.736639 0.000000 0.568134
O O17 0.385926 0.000000 0.884141
O O18 0.500000 0.077225 0.000000
#
# Coordination Sequence:
#
# PCOD8084290 Si02
#       7
#     8   8   8   8   8   8   8
#     4  10  18  35  55  81 110 143 181 221 269 332
#     4  11  18  32  58  80 105 142 185 227 267 325
#     4  11  19  33  55  81 110 142 182 226 269 326
#     4  10  22  38  56  81 111 147 187 227 270 320
#     4  10  21  33  53  81 115 142 176 224 276 329
#     4   9  17  27  46  80 109 133 168 219 272 317
#     4  10  20  35  56  81 107 143 189 226 262 318
#
# _framework density 17.266456999999999
#
# number of rings (size 3 to 8) (size 9 to 14) (size 15 to 20)
#    0.000    1.857    4.286    1.286    0.000    2.286 
#    0.000    0.000    0.000    2.571    0.000    0.000 
#    0.000    0.000    0.000    0.000    0.000    0.000 
#
# Total GULP energy -347136.741771 kJ/mol
# GULP energy per Si atom -12397.740778 kJ/mol
# Density = 1.722716 g / cm^3
# Si number density = 17.266457 Si / 1000 Ang^3
#
#
#
# Elastic Constant Matrix: (Units=GPa)
#
#
# Indices 1 2 3 4 5 6 
#
# 1 92.6016 24.2049 33.3784 0.0000 -0.5673 0.0000
# 2 24.2049 99.5311 52.0188 0.0000 -2.2247 0.0000
# 3 33.3784 52.0188 94.8737 0.0000 -10.0803 0.0000
# 4 0.0000 0.0000 0.0000 -6.0796 0.0000 -11.7910
# 5 -0.5673 -2.2247 -10.0803 0.0000 20.4532 0.0000
# 6 0.0000 0.0000 0.0000 -11.7910 0.0000 14.8755
#
#
#
# Elastic Compliance Matrix: (Units=1/GPa)
#
#
# Indices 1 2 3 4 5 6 
#
# 1 0.012502 -0.000958 -0.004060 0.000000 -0.001758 0.000000
# 2 -0.000958 0.014268 -0.007729 0.000000 -0.002284 0.000000
# 3 -0.004060 -0.007729 0.016995 0.000000 0.007423 0.000000
# 4 0.000000 0.000000 0.000000 -0.064827 0.000000 -0.051385
# 5 -0.001758 -0.002284 0.007423 0.000000 0.052253 0.000000
# 6 0.000000 0.000000 0.000000 -0.051385 0.000000 0.026495
#
#
# Mechanical properties :
#
#
# Convention : Reuss Voigt Hill
#
# Bulk Modulus (GPa) = 54.72886 56.24562 55.48724
# Shear Modulus (GPa) = 56.00916 17.67678 36.84297
#
# Velocity S-wave (km/s) = 5.70163 3.20310 4.62431
# Velocity P-wave (km/s) = 8.66661 6.80629 7.79217
#
# Compressibility (1/GPa) = 0.01827189
#
# Stress axis : x y z
#
# Youngs Moduli (GPa) = 79.98723 70.08474 58.83996
#
# Poissons Ratio (x) = 0.06712 0.23890
# Poissons Ratio (y) = 0.07660 0.45478
# Poissons Ratio (z) = 0.32477 0.54169
#
# Static dielectric constant tensor:
#      x y z
#    x 3.180600 0.000000 -0.109690 
#    y 0.000000 3.401580 0.000000 
#    z -0.109690 0.000000 3.129200 
# 
# 
# High freq. dielectric constant tensor:
#      x y z
#    x 1.665710 0.000000 -0.011540 
#    y 0.000000 1.664250 0.000000 
#    z -0.011540 0.000000 1.639090 
# 
# From -- ./inp_files/124329.got.cif
#   From: 2010.06.25/outbox.cif.g09.slc.cpg/sg12_63_cif.got.tgz:124329.got - 2010.06.28 00:19:55.
