data_PCOD8084172
_publ_section_title
;
Structure prediction by ZEFSAII (Michael W. Deem and Ramdas Pophale) SiO2 
 PCOD8084172
Probable space group: C 2/M
;
_chemical_formula_sum "Si O2"
_cell_formula_units_Z 56
_cell_length_a 23.029083
_cell_length_b 18.428969
_cell_length_c 17.922291
_cell_angle_alpha 90.000000
_cell_angle_beta 157.845687
_cell_angle_gamma 90.000000
_cell_volume 2868.339092
_symmetry_space_group_name_H-M "C 2/M"
_symmetry_group_IT_number 12
_symmetry_cell_setting 'monoclinic'
loop_
_space_group_symop_operation_xyz
x,y,z
-x,y,-z
-x,-y,-z
x,-y,z
1/2+x,1/2+y,z
1/2-x,1/2+y,-z
1/2-x,1/2-y,-z
1/2+x,1/2-y,z
loop_
_atom_site_type_symbol
_atom_site_label
_atom_site_fract_x
_atom_site_fract_y
_atom_site_fract_z
Si Si1 0.612286 0.916322 0.564037
Si Si2 0.364980 0.311370 0.897626
Si Si3 0.413686 0.311986 0.124647
Si Si4 0.334372 0.673494 0.341184
Si Si5 0.958594 0.918998 0.615026
Si Si6 0.785933 0.579969 0.926669
Si Si7 0.576174 0.833761 0.781071
O O1 0.500000 0.907879 0.500000
O O2 0.554261 0.866449 0.426969
O O3 0.622536 0.000000 0.550630
O O4 0.782216 0.889424 0.790235
O O5 0.441501 0.302434 0.070135
O O6 0.500000 0.302165 0.000000
O O7 0.233659 0.252252 0.724456
O O8 0.510435 0.381332 0.268347
O O9 0.474603 0.243480 0.245100
O O10 0.231626 0.322801 0.919059
O O11 0.500000 0.683606 0.500000
O O12 0.341192 0.628383 0.426143
O O13 0.214727 0.631769 0.145548
O O14 0.115854 0.923632 0.756981
O O15 0.892203 0.000000 0.549475
O O16 0.840882 0.500000 0.967936
O O17 0.903122 0.610195 0.126943
#
# Coordination Sequence:
#
# PCOD8084172 Si02
#       7
#     8   8   8   8   8   8   8
#     4  11  23  39  62  89 117 152 198 245 286 336
#     4  12  25  41  59  82 119 158 195 234 289 356
#     4  10  20  34  57  88 118 154 189 237 294 335
#     4  10  19  35  60  88 115 147 194 238 284 344
#     4   9  18  31  54  88 119 146 184 240 294 340
#     4   9  16  28  54  90 123 146 177 239 300 343
#     4  10  18  34  59  91 119 141 194 246 288 338
#
# _framework density 19.523492999999998
#
# number of rings (size 3 to 8) (size 9 to 14) (size 15 to 20)
#    0.000    1.857    2.857    2.143    2.000    3.143 
#    0.000    2.857    0.000    1.714    0.000    0.000 
#    0.000    0.000    0.000    0.000    0.000    0.000 
#
# Total GULP energy -347227.112648 kJ/mol
# GULP energy per Si atom -12400.968309 kJ/mol
# Density = 1.947906 g / cm^3
# Si number density = 19.523493 Si / 1000 Ang^3
#
#
#
# Elastic Constant Matrix: (Units=GPa)
#
#
# Indices 1 2 3 4 5 6 
#
# 1 93.9512 45.5656 43.3330 0.0000 -20.3180 0.0000
# 2 45.5656 129.3978 45.8992 0.0000 -13.1504 0.0002
# 3 43.3330 45.8992 62.5220 0.0001 -23.2412 0.0003
# 4 0.0000 0.0000 0.0001 22.8163 0.0001 -13.4382
# 5 -20.3180 -13.1504 -23.2412 0.0001 29.1052 0.0002
# 6 0.0000 0.0002 0.0003 -13.4382 0.0002 13.9471
#
#
#
# Elastic Compliance Matrix: (Units=1/GPa)
#
#
# Indices 1 2 3 4 5 6 
#
# 1 0.016442 -0.002521 -0.008109 0.000000 0.003864 0.000000
# 2 -0.002521 0.010918 -0.007236 0.000000 -0.002605 0.000000
# 3 -0.008109 -0.007236 0.033573 -0.000002 0.017879 -0.000002
# 4 0.000000 0.000000 -0.000002 0.101333 -0.000002 0.097636
# 5 0.003864 -0.002605 0.017879 -0.000002 0.050155 -0.000003
# 6 0.000000 0.000000 -0.000002 0.097636 -0.000003 0.165773
#
#
# Mechanical properties :
#
#
# Convention : Reuss Voigt Hill
#
# Bulk Modulus (GPa) = 39.68138 61.71852 50.69995
# Shear Modulus (GPa) = 11.83919 23.24528 17.54224
#
# Velocity S-wave (km/s) = 2.46521 3.45430 3.00078
# Velocity P-wave (km/s) = 5.33592 6.89860 6.16695
#
# Compressibility (1/GPa) = 0.02520073
#
# Stress axis : x y z
#
# Youngs Moduli (GPa) = 60.81980 91.59281 29.78603
#
# Poissons Ratio (x) = 0.23089 0.24152
# Poissons Ratio (y) = 0.15332 0.21554
# Poissons Ratio (z) = 0.49317 0.66281
#
# Static dielectric constant tensor:
#      x y z
#    x 3.228500 0.000000 -0.379240 
#    y 0.000000 3.895200 0.000000 
#    z -0.379240 0.000000 3.357250 
# 
# 
# High freq. dielectric constant tensor:
#      x y z
#    x 1.723750 0.000000 -0.044110 
#    y 0.000000 1.778340 0.000000 
#    z -0.044110 0.000000 1.741740 
# 
# From -- ./inp_files/290864.got.cif
#   From: 2010.06.25/outbox.cif.g09.slc.cpg/sg12_146_cif.got.tgz:290864.got - 2010.06.28 00:19:55.
