data_PCOD8084424
_publ_section_title
;
Structure prediction by ZEFSAII (Michael W. Deem and Ramdas Pophale) SiO2 
 PCOD8084424
Probable space group: C 2/M
;
_chemical_formula_sum "Si O2"
_cell_formula_units_Z 64
_cell_length_a 26.662171
_cell_length_b 17.730890
_cell_length_c 20.733768
_cell_angle_alpha 90.000000
_cell_angle_beta 19.393340
_cell_angle_gamma 90.000000
_cell_volume 3254.690630
_symmetry_space_group_name_H-M "C 2/M"
_symmetry_group_IT_number 12
_symmetry_cell_setting 'monoclinic'
loop_
_space_group_symop_operation_xyz
x,y,z
-x,y,-z
-x,-y,-z
x,-y,z
1/2+x,1/2+y,z
1/2-x,1/2+y,-z
1/2-x,1/2-y,-z
1/2+x,1/2-y,z
loop_
_atom_site_type_symbol
_atom_site_label
_atom_site_fract_x
_atom_site_fract_y
_atom_site_fract_z
Si Si1 0.086236 0.781951 0.454202
Si Si2 0.131583 0.087730 0.247435
Si Si3 0.236370 0.585393 0.478373
Si Si4 0.542757 0.083251 0.088185
Si Si5 0.758413 0.837725 0.008459
Si Si6 0.438517 0.809168 0.384739
Si Si7 0.993978 0.190695 0.203256
Si Si8 0.435977 0.776706 0.009709
O O1 0.080499 0.740500 0.529012
O O2 0.258187 0.788771 0.225873
O O3 0.000000 0.738205 0.500000
O O4 0.004758 0.863934 0.556810
O O5 0.088890 0.000000 0.305611
O O6 0.293350 0.106909 0.083026
O O7 0.143966 0.111436 0.158040
O O8 0.284648 0.500000 0.402575
O O9 0.202735 0.634192 0.454261
O O10 0.369246 0.624916 0.357520
O O11 0.079697 0.586755 0.706953
O O12 0.548380 0.000000 0.050952
O O13 0.494212 0.141101 0.091081
O O14 0.584227 0.863170 0.220413
O O15 0.750000 0.750000 0.000000
O O16 0.843911 0.844529 0.973204
O O17 0.448954 0.756458 0.308214
O O18 0.010095 0.219786 0.110989
O O19 0.500000 0.747423 0.000000
#
# Coordination Sequence:
#
# PCOD8084424 Si02
#       8
#     8   8   8   8   8   8   8   8
#     4  12  24  39  62  97 126 167 212 252 308 381
#     4  11  21  37  61  96 134 169 205 252 314 380
#     4  11  23  39  65  94 123 162 214 265 324 373
#     4  10  21  38  58  88 131 172 203 245 307 381
#     4  10  18  35  63  87 118 164 211 262 306 347
#     4  11  21  39  68  90 121 165 214 265 309 365
#     4  11  22  40  63  90 124 163 213 269 306 363
#     4  12  25  39  60  87 127 167 210 252 312 370
#
# _framework density 19.663927999999999
#
# number of rings (size 3 to 8) (size 9 to 14) (size 15 to 20)
#    0.000    1.000    6.250    2.625    1.750    1.500 
#    0.000    0.000    0.000    3.750    0.000    0.000 
#    0.000    0.000    0.000    0.000    0.000    0.000 
#
# Total GULP energy -396587.626513 kJ/mol
# GULP energy per Si atom -12393.363329 kJ/mol
# Density = 1.961917 g / cm^3
# Si number density = 19.663928 Si / 1000 Ang^3
#
#
#
# Elastic Constant Matrix: (Units=GPa)
#
#
# Indices 1 2 3 4 5 6 
#
# 1 134.2516 52.1827 24.6602 0.0016 -3.5660 0.0040
# 2 52.1827 88.4603 40.7960 0.0116 -8.4803 0.0016
# 3 24.6602 40.7960 76.1425 0.0146 -10.8511 0.0024
# 4 0.0016 0.0116 0.0146 12.9921 -0.0057 -0.5667
# 5 -3.5660 -8.4803 -10.8511 -0.0057 40.9397 -0.0037
# 6 0.0040 0.0016 0.0024 -0.5667 -0.0037 22.8474
#
#
#
# Elastic Compliance Matrix: (Units=1/GPa)
#
#
# Indices 1 2 3 4 5 6 
#
# 1 0.009671 -0.005673 -0.000145 0.000004 -0.000371 -0.000001
# 2 -0.005673 0.018384 -0.007836 -0.000006 0.001237 0.000001
# 3 -0.000145 -0.007836 0.017819 -0.000012 0.003087 -0.000001
# 4 0.000004 -0.000006 -0.000012 0.077053 0.000007 0.001911
# 5 -0.000371 0.001237 0.003087 0.000007 0.025468 0.000004
# 6 -0.000001 0.000001 -0.000001 0.001911 0.000004 0.043816
#
#
# Mechanical properties :
#
#
# Convention : Reuss Voigt Hill
#
# Bulk Modulus (GPa) = 53.86831 59.34802 56.60816
# Shear Modulus (GPa) = 22.15258 27.43689 24.79473
#
# Velocity S-wave (km/s) = 3.36007 3.73941 3.55480
# Velocity P-wave (km/s) = 6.51977 6.99221 6.76011
#
# Compressibility (1/GPa) = 0.01856379
#
# Stress axis : x y z
#
# Youngs Moduli (GPa) = 103.40501 54.39640 56.12104
#
# Poissons Ratio (x) = 0.30861 0.00815
# Poissons Ratio (y) = 0.58665 0.43976
# Poissons Ratio (z) = 0.01502 0.42625
#
# Static dielectric constant tensor:
#      x y z
#    x 3.766110 -0.000020 -0.235670 
#    y -0.000020 3.541190 0.000010 
#    z -0.235670 0.000010 3.887790 
# 
# 
# High freq. dielectric constant tensor:
#      x y z
#    x 1.767630 0.000000 -0.016300 
#    y 0.000000 1.742660 0.000000 
#    z -0.016300 0.000000 1.767290 
# 
# From -- ./inp_files/328599.got.cif
#   From: 2010.06.25/outbox.cif.g09.slc.cpg/sg12_165_cif.got.tgz:328599.got - 2010.06.28 00:19:55.
