data_PCOD8084284
_publ_section_title
;
Structure prediction by ZEFSAII (Michael W. Deem and Ramdas Pophale) SiO2 
 PCOD8084284
Probable space group: C 2/M
;
_chemical_formula_sum "Si O2"
_cell_formula_units_Z 32
_cell_length_a 19.015456
_cell_length_b 14.461127
_cell_length_c 18.789644
_cell_angle_alpha 90.000000
_cell_angle_beta 20.622682
_cell_angle_gamma 90.000000
_cell_volume 1819.834155
_symmetry_space_group_name_H-M "C 2/M"
_symmetry_group_IT_number 12
_symmetry_cell_setting 'monoclinic'
loop_
_space_group_symop_operation_xyz
x,y,z
-x,y,-z
-x,-y,-z
x,-y,z
1/2+x,1/2+y,z
1/2-x,1/2+y,-z
1/2-x,1/2-y,-z
1/2+x,1/2-y,z
loop_
_atom_site_type_symbol
_atom_site_label
_atom_site_fract_x
_atom_site_fract_y
_atom_site_fract_z
Si Si1 0.833852 0.500000 0.397841
Si Si2 0.043240 0.302221 0.691440
Si Si3 0.725804 0.000000 0.703622
Si Si4 0.500000 0.152668 0.000000
Si Si5 0.075749 0.000000 0.274842
Si Si6 0.722488 0.804470 0.921246
O O1 0.921620 0.410913 0.354805
O O2 0.898522 0.500000 0.253169
O O3 0.590579 0.500000 0.630669
O O4 0.250000 0.250000 0.500000
O O5 0.915066 0.261808 0.747009
O O6 0.931908 0.282048 0.870390
O O7 0.963166 0.000000 0.458965
O O8 0.667688 0.909268 0.802497
O O9 0.385718 0.216994 0.051276
O O10 0.215151 0.088504 0.135449
#
# Coordination Sequence:
#
# PCOD8084284 Si02
#       6
#     4   8   4   4   4   8
#     4  10  18  36  57  79 114 142 184 231 276 324
#     4  11  21  39  53  81 111 150 190 230 274 329
#     4   9  18  32  54  81 126 145 175 215 289 346
#     4  11  20  34  50  89 118 152 182 221 278 351
#     4  10  18  35  54  88 115 157 167 225 282 344
#     4  11  22  33  58  79 119 148 184 223 278 339
#
# _framework density 17.584019999999999
#
# number of rings (size 3 to 8) (size 9 to 14) (size 15 to 20)
#    0.750    0.750    5.000    2.250    0.000    2.000 
#    0.000    0.000    0.000    0.750    0.000    1.750 
#    0.000    0.000    0.000    0.000    0.000    0.000 
#
# Total GULP energy -198364.568816 kJ/mol
# GULP energy per Si atom -12397.785551 kJ/mol
# Density = 1.754400 g / cm^3
# Si number density = 17.584020 Si / 1000 Ang^3
#
#
#
# Elastic Constant Matrix: (Units=GPa)
#
#
# Indices 1 2 3 4 5 6 
#
# 1 120.8873 47.1872 35.8609 -0.0197 -24.9112 0.0001
# 2 47.1872 96.8912 29.2096 -0.0500 -11.5754 -0.0197
# 3 35.8609 29.2096 103.3506 -0.0740 -7.2192 -0.0156
# 4 -0.0197 -0.0500 -0.0740 20.9055 -0.0107 -6.0282
# 5 -24.9112 -11.5754 -7.2192 -0.0107 27.9190 0.0067
# 6 0.0001 -0.0197 -0.0156 -6.0282 0.0067 23.5713
#
#
#
# Elastic Compliance Matrix: (Units=1/GPa)
#
#
# Indices 1 2 3 4 5 6 
#
# 1 0.012485 -0.004281 -0.002513 -0.000006 0.008715 -0.000009
# 2 -0.004281 0.013189 -0.002166 0.000025 0.001088 0.000016
# 3 -0.002513 -0.002166 0.011142 0.000036 -0.000259 0.000015
# 4 -0.000006 0.000025 0.000036 0.051643 0.000031 0.013207
# 5 0.008715 0.001088 -0.000259 0.000031 0.043978 -0.000004
# 6 -0.000009 0.000016 0.000015 0.013207 -0.000004 0.045802
#
#
# Mechanical properties :
#
#
# Convention : Reuss Voigt Hill
#
# Bulk Modulus (GPa) = 52.92573 60.62716 56.77645
# Shear Modulus (GPa) = 24.69649 28.40391 26.55020
#
# Velocity S-wave (km/s) = 3.75171 4.02347 3.88997
# Velocity P-wave (km/s) = 6.99509 7.49252 7.24807
#
# Compressibility (1/GPa) = 0.01889440
#
# Stress axis : x y z
#
# Youngs Moduli (GPa) = 80.09754 75.82125 89.75122
#
# Poissons Ratio (x) = 0.32462 0.22557
# Poissons Ratio (y) = 0.34293 0.19439
# Poissons Ratio (z) = 0.20130 0.16422
#
# Static dielectric constant tensor:
#      x y z
#    x 3.344200 -0.000050 -0.165470 
#    y -0.000050 3.234660 0.000140 
#    z -0.165470 0.000140 3.372290 
# 
# 
# High freq. dielectric constant tensor:
#      x y z
#    x 1.658870 0.000000 -0.016880 
#    y 0.000000 1.653030 0.000010 
#    z -0.016880 0.000010 1.697560 
# 
# From -- ./inp_files/321772.got.cif
#   From: 2010.06.25/outbox.cif.g09.slc.cpg/sg12_161_cif.got.tgz:321772.got - 2010.06.28 00:19:55.
