data_PCOD8084222
_publ_section_title
;
Structure prediction by ZEFSAII (Michael W. Deem and Ramdas Pophale) SiO2 
 PCOD8084222
Probable space group: C 2/M
;
_chemical_formula_sum "Si O2"
_cell_formula_units_Z 64
_cell_length_a 32.318082
_cell_length_b 8.946632
_cell_length_c 20.496940
_cell_angle_alpha 90.000000
_cell_angle_beta 143.564099
_cell_angle_gamma 90.000000
_cell_volume 3519.852024
_symmetry_space_group_name_H-M "C 2/M"
_symmetry_group_IT_number 12
_symmetry_cell_setting 'monoclinic'
loop_
_space_group_symop_operation_xyz
x,y,z
-x,y,-z
-x,-y,-z
x,-y,z
1/2+x,1/2+y,z
1/2-x,1/2+y,-z
1/2-x,1/2-y,-z
1/2+x,1/2-y,z
loop_
_atom_site_type_symbol
_atom_site_label
_atom_site_fract_x
_atom_site_fract_y
_atom_site_fract_z
Si Si1 0.168339 0.675238 0.574097
Si Si2 0.667714 0.324924 0.071705
Si Si3 0.466134 0.823086 0.146879
Si Si4 0.464499 0.323697 0.641081
Si Si5 0.673866 0.671772 0.231017
Si Si6 0.044312 0.676591 0.116887
Si Si7 0.178639 0.676191 0.732637
Si Si8 0.038909 0.671668 0.617392
O O1 0.150008 0.500000 0.547631
O O2 0.114627 0.764060 0.460502
O O3 0.246513 0.705886 0.647813
O O4 0.160833 0.739859 0.638174
O O5 0.654936 0.500000 0.042403
O O6 0.660822 0.286396 0.139242
O O7 0.744949 0.272954 0.146031
O O8 0.613611 0.227639 0.962149
O O9 0.496656 0.747073 0.248953
O O10 0.510246 0.766336 0.140662
O O11 0.468941 0.000000 0.158423
O O12 0.464096 0.500000 0.647876
O O13 0.505117 0.279083 0.627204
O O14 0.656107 0.500000 0.220500
O O15 0.623671 0.767764 0.213484
O O16 0.044342 0.500000 0.114446
O O17 0.000000 0.742369 0.000000
O O18 0.181174 0.500000 0.725275
O O19 0.119543 0.721778 0.709691
O O20 0.034006 0.500000 0.635174
O O21 0.000000 0.690823 0.500000
#
# Coordination Sequence:
#
# PCOD8084222 Si02
#       8
#     8   8   8   8   8   8   8   8
#     4   9  17  35  57  81 111 146 185 219 267 333
#     4   9  17  32  54  83 114 141 176 225 274 319
#     4  11  23  39  57  77 108 152 190 222 271 336
#     4  12  25  38  54  81 115 147 183 232 279 322
#     4   9  18  31  56  87 113 141 178 226 274 325
#     4  10  20  35  55  82 113 142 183 232 274 323
#     4   8  15  30  56  85 110 140 179 222 268 321
#     4  10  18  34  61  85 109 146 187 223 266 330
#
# _framework density 18.182583000000001
#
# number of rings (size 3 to 8) (size 9 to 14) (size 15 to 20)
#    0.000    2.250    2.500    3.000    0.000    2.000 
#    0.000    3.750    0.000    0.000    0.000    0.000 
#    0.000    0.000    0.000    0.000    0.000    0.000 
#
# Total GULP energy -396774.501973 kJ/mol
# GULP energy per Si atom -12399.203187 kJ/mol
# Density = 1.814120 g / cm^3
# Si number density = 18.182583 Si / 1000 Ang^3
#
#
#
# Elastic Constant Matrix: (Units=GPa)
#
#
# Indices 1 2 3 4 5 6 
#
# 1 82.6367 27.8748 50.2927 0.0000 18.8888 0.0000
# 2 27.8748 59.1394 43.3404 0.0000 4.1282 0.0000
# 3 50.2927 43.3404 123.4095 0.0000 18.3213 0.0000
# 4 0.0000 0.0000 0.0000 28.2414 0.0000 5.7542
# 5 18.8888 4.1282 18.3213 0.0000 27.5580 0.0000
# 6 0.0000 0.0000 0.0000 5.7542 0.0000 22.9868
#
#
#
# Elastic Compliance Matrix: (Units=1/GPa)
#
#
# Indices 1 2 3 4 5 6 
#
# 1 0.018525 -0.004778 -0.004541 0.000000 -0.008963 0.000000
# 2 -0.004778 0.024113 -0.007180 0.000000 0.004436 0.000000
# 3 -0.004541 -0.007180 0.013151 0.000000 -0.004556 0.000000
# 4 0.000000 0.000000 0.000000 0.037312 0.000000 -0.009340
# 5 -0.008963 0.004436 -0.004556 0.000000 0.044795 0.000000
# 6 0.000000 0.000000 0.000000 -0.009340 0.000000 0.045841
#
#
# Mechanical properties :
#
#
# Convention : Reuss Voigt Hill
#
# Bulk Modulus (GPa) = 43.87443 56.46682 50.17062
# Shear Modulus (GPa) = 22.28829 25.33575 23.81202
#
# Velocity S-wave (km/s) = 3.50495 3.73689 3.62277
# Velocity P-wave (km/s) = 6.36882 7.05280 6.71952
#
# Compressibility (1/GPa) = 0.02279232
#
# Stress axis : x y z
#
# Youngs Moduli (GPa) = 53.98051 41.47067 76.03757
#
# Poissons Ratio (x) = 0.19816 0.34527
# Poissons Ratio (y) = 0.25793 0.54593
# Poissons Ratio (z) = 0.24511 0.29775
#
# Static dielectric constant tensor:
#      x y z
#    x 3.548270 0.000000 0.281250 
#    y 0.000000 3.117530 0.000000 
#    z 0.281250 0.000000 3.388210 
# 
# 
# High freq. dielectric constant tensor:
#      x y z
#    x 1.700280 0.000000 0.023220 
#    y 0.000000 1.684400 0.000000 
#    z 0.023220 0.000000 1.700990 
# 
# From -- ./inp_files/295744.got.cif
#   From: 2010.06.25/outbox.cif.g09.slc.cpg/sg12_148_cif.got.tgz:295744.got - 2010.06.28 00:19:55.
