data_PCOD8084304
_publ_section_title
;
Structure prediction by ZEFSAII (Michael W. Deem and Ramdas Pophale) SiO2 
 PCOD8084304
Probable space group: C 2/M
;
_chemical_formula_sum "Si O2"
_cell_formula_units_Z 48
_cell_length_a 22.327883
_cell_length_b 12.097829
_cell_length_c 21.783474
_cell_angle_alpha 90.000000
_cell_angle_beta 26.401451
_cell_angle_gamma 90.000000
_cell_volume 2616.423897
_symmetry_space_group_name_H-M "C 2/M"
_symmetry_group_IT_number 12
_symmetry_cell_setting 'monoclinic'
loop_
_space_group_symop_operation_xyz
x,y,z
-x,y,-z
-x,-y,-z
x,-y,z
1/2+x,1/2+y,z
1/2-x,1/2+y,-z
1/2-x,1/2-y,-z
1/2+x,1/2-y,z
loop_
_atom_site_type_symbol
_atom_site_label
_atom_site_fract_x
_atom_site_fract_y
_atom_site_fract_z
Si Si1 0.452585 0.500000 0.687750
Si Si2 0.078065 0.238520 0.334517
Si Si3 0.719591 0.500000 0.385153
Si Si4 0.006765 0.262093 0.922241
Si Si5 0.982741 0.500000 0.893090
Si Si6 0.728616 0.377483 0.917795
Si Si7 0.305577 0.731530 0.641720
Si Si8 0.764766 0.000000 0.970860
O O1 0.400868 0.609505 0.700497
O O2 0.616087 0.500000 0.537802
O O3 0.398402 0.500000 0.806711
O O4 0.137124 0.312993 0.225892
O O5 0.162559 0.265770 0.318008
O O6 0.921771 0.274470 0.488399
O O7 0.692169 0.599722 0.364127
O O8 0.870440 0.500000 0.274450
O O9 0.156008 0.227882 0.760736
O O10 0.969572 0.390943 0.947076
O O11 0.000000 0.234975 0.000000
O O12 0.904593 0.188038 0.978029
O O13 0.869760 0.500000 0.945317
O O14 0.726021 0.500000 0.889468
O O15 0.733260 0.390620 0.987719
#
# Coordination Sequence:
#
# PCOD8084304 Si02
#       8
#     4   8   4   8   4   8   8   4
#     4  10  19  32  61  85 109 149 179 235 283 337
#     4  10  18  35  56  84 116 143 185 224 287 339
#     4   8  17  33  52  88 124 133 168 226 302 356
#     4  11  20  36  59  88 116 142 178 236 297 338
#     4  10  21  35  60  89 115 140 179 238 293 338
#     4  10  24  41  53  76 113 158 200 232 260 321
#     4   9  18  31  55  88 115 143 171 226 295 349
#     4  10  24  40  54  80 108 163 201 226 264 316
#
# _framework density 18.345651
#
# number of rings (size 3 to 8) (size 9 to 14) (size 15 to 20)
#    0.500    1.667    1.667    1.750    0.000    5.000 
#    0.000    4.167    0.000    6.000    0.000    0.000 
#    0.000    0.000    0.000    0.000    0.000    0.000 
#
# Total GULP energy -297425.181702 kJ/mol
# GULP energy per Si atom -12392.715904 kJ/mol
# Density = 1.830390 g / cm^3
# Si number density = 18.345651 Si / 1000 Ang^3
#
#
#
# Elastic Constant Matrix: (Units=GPa)
#
#
# Indices 1 2 3 4 5 6 
#
# 1 74.4620 5.8557 43.4658 0.0004 0.2535 -0.0002
# 2 5.8557 63.7128 32.6078 0.0010 -3.6553 -0.0005
# 3 43.4658 32.6078 136.1651 0.0009 -2.1793 -0.0005
# 4 0.0004 0.0010 0.0009 16.4836 -0.0005 5.9244
# 5 0.2535 -3.6553 -2.1793 -0.0005 30.9889 0.0003
# 6 -0.0002 -0.0005 -0.0005 5.9244 0.0003 30.1992
#
#
#
# Elastic Compliance Matrix: (Units=1/GPa)
#
#
# Indices 1 2 3 4 5 6 
#
# 1 0.016611 0.001332 -0.005627 0.000000 -0.000375 0.000000
# 2 0.001332 0.018097 -0.004730 -0.000001 0.001791 0.000000
# 3 -0.005627 -0.004730 0.010276 0.000000 0.000211 0.000000
# 4 0.000000 -0.000001 0.000000 0.065268 0.000001 -0.012804
# 5 -0.000375 0.001791 0.000211 0.000001 0.032499 0.000000
# 6 0.000000 0.000000 0.000000 -0.012804 0.000000 0.035625
#
#
# Mechanical properties :
#
#
# Convention : Reuss Voigt Hill
#
# Bulk Modulus (GPa) = 37.12936 48.68873 42.90904
# Shear Modulus (GPa) = 24.34209 28.36173 26.35191
#
# Velocity S-wave (km/s) = 3.64656 3.93614 3.79411
# Velocity P-wave (km/s) = 6.16543 6.87422 6.52945
#
# Compressibility (1/GPa) = 0.02693287
#
# Stress axis : x y z
#
# Youngs Moduli (GPa) = 60.20067 55.25891 97.30940
#
# Poissons Ratio (x) = -0.07360 0.54760
# Poissons Ratio (y) = -0.08018 0.46029
# Poissons Ratio (z) = 0.33878 0.26138
#
# Static dielectric constant tensor:
#      x y z
#    x 3.051350 0.000000 -0.120100 
#    y 0.000000 3.241980 0.000000 
#    z -0.120100 0.000000 3.808650 
# 
# 
# High freq. dielectric constant tensor:
#      x y z
#    x 1.681800 0.000000 -0.008940 
#    y 0.000000 1.694770 0.000000 
#    z -0.008940 0.000000 1.732820 
# 
# From -- ./inp_files/321216.got.cif
#   From: 2010.06.25/outbox.cif.g09.slc.cpg/sg12_161_cif.got.tgz:321216.got - 2010.06.28 00:19:55.
