data_PCOD8084203
_publ_section_title
;
Structure prediction by ZEFSAII (Michael W. Deem and Ramdas Pophale) SiO2 
 PCOD8084203
Probable space group: C 2/M
;
_chemical_formula_sum "Si O2"
_cell_formula_units_Z 40
_cell_length_a 17.507446
_cell_length_b 9.729817
_cell_length_c 15.806957
_cell_angle_alpha 90.000000
_cell_angle_beta 48.965820
_cell_angle_gamma 90.000000
_cell_volume 2031.095069
_symmetry_space_group_name_H-M "C 2/M"
_symmetry_group_IT_number 12
_symmetry_cell_setting 'monoclinic'
loop_
_space_group_symop_operation_xyz
x,y,z
-x,y,-z
-x,-y,-z
x,-y,z
1/2+x,1/2+y,z
1/2-x,1/2+y,-z
1/2-x,1/2-y,-z
1/2+x,1/2-y,z
loop_
_atom_site_type_symbol
_atom_site_label
_atom_site_fract_x
_atom_site_fract_y
_atom_site_fract_z
Si Si1 0.338578 0.000000 0.061995
Si Si2 0.017189 0.500000 0.249371
Si Si3 0.696128 0.276678 0.451104
Si Si4 0.670191 0.000000 0.732835
Si Si5 0.868117 0.722639 0.917664
Si Si6 0.609054 0.500000 0.167787
Si Si7 0.033970 0.000000 0.571969
Si Si8 0.405674 0.000000 0.506420
O O1 0.227046 0.000000 0.103694
O O2 0.344340 0.000000 0.157010
O O3 0.393690 0.138144 0.985252
O O4 0.091006 0.632118 0.191252
O O5 0.940066 0.500000 0.226922
O O6 0.948957 0.500000 0.381148
O O7 0.750000 0.250000 0.500000
O O8 0.768846 0.362486 0.336435
O O9 0.596336 0.362556 0.544881
O O10 0.664633 0.133990 0.428665
O O11 0.923061 0.869971 0.867168
O O12 0.750000 0.750000 0.000000
O O13 0.558723 0.500000 0.296470
O O14 0.000000 0.000000 0.500000
O O15 0.500000 0.000000 0.500000
#
# Coordination Sequence:
#
# PCOD8084203 Si02
#       8
#     4   4   8   4   8   4   4   4
#     4   9  20  39  59  85 114 156 205 252 299 369
#     4  11  21  39  60  84 116 166 204 241 317 382
#     4  11  22  41  58  89 132 166 199 249 313 369
#     4  11  23  39  66  83 120 173 210 240 312 392
#     4   9  20  36  58  84 118 150 198 260 315 353
#     4  10  18  34  60  88 116 154 198 254 320 346
#     4  11  22  36  62  92 122 165 218 249 285 382
#     4  12  24  38  62  97 128 163 210 261 303 372
#
# _framework density 19.693811
#
# number of rings (size 3 to 8) (size 9 to 14) (size 15 to 20)
#    0.000    1.600    2.000    4.200    0.000    4.800 
#    0.000    1.000    0.000    1.200    0.000    0.000 
#    0.000    0.000    0.000    0.000    0.000    0.000 
#
# Total GULP energy -247878.825863 kJ/mol
# GULP energy per Si atom -12393.941293 kJ/mol
# Density = 1.964899 g / cm^3
# Si number density = 19.693811 Si / 1000 Ang^3
#
#
#
# Elastic Constant Matrix: (Units=GPa)
#
#
# Indices 1 2 3 4 5 6 
#
# 1 104.0882 49.7206 25.8232 0.0000 17.0555 0.0000
# 2 49.7206 188.3896 56.2985 0.0000 7.5173 0.0000
# 3 25.8232 56.2985 114.4329 0.0000 19.1606 0.0000
# 4 0.0000 0.0000 0.0000 32.7764 0.0000 -7.8235
# 5 17.0555 7.5173 19.1606 0.0000 40.0176 0.0000
# 6 0.0000 0.0000 0.0000 -7.8235 0.0000 26.6220
#
#
#
# Elastic Compliance Matrix: (Units=1/GPa)
#
#
# Indices 1 2 3 4 5 6 
#
# 1 0.011762 -0.002760 -0.000592 0.000000 -0.004211 0.000000
# 2 -0.002760 0.006874 -0.002979 0.000000 0.001311 0.000000
# 3 -0.000592 -0.002979 0.011091 0.000000 -0.004499 0.000000
# 4 0.000000 0.000000 0.000000 0.032811 0.000000 0.009642
# 5 -0.004211 0.001311 -0.004499 0.000000 0.028692 0.000000
# 6 0.000000 0.000000 0.000000 0.009642 0.000000 0.040397
#
#
# Mechanical properties :
#
#
# Convention : Reuss Voigt Hill
#
# Bulk Modulus (GPa) = 58.58962 74.51059 66.55010
# Shear Modulus (GPa) = 33.33863 38.22109 35.77986
#
# Velocity S-wave (km/s) = 4.11889 4.41019 4.26703
# Velocity P-wave (km/s) = 7.24121 7.99060 7.62512
#
# Compressibility (1/GPa) = 0.01706787
#
# Stress axis : x y z
#
# Youngs Moduli (GPa) = 85.01799 145.46873 90.16316
#
# Poissons Ratio (x) = 0.40142 0.05333
# Poissons Ratio (y) = 0.23461 0.26858
# Poissons Ratio (z) = 0.05029 0.43332
#
# Static dielectric constant tensor:
#      x y z
#    x 2.617120 0.000000 -0.792590 
#    y 0.000000 4.989060 0.000000 
#    z -0.792590 0.000000 3.196100 
# 
# 
# High freq. dielectric constant tensor:
#      x y z
#    x 1.741090 0.000000 -0.012300 
#    y 0.000000 1.787940 0.000000 
#    z -0.012300 0.000000 1.778110 
# 
# From -- ./inp_files/273996.got.cif
#   From: 2010.06.25/outbox.cif.g09.slc.cpg/sg12_137_cif.got.tgz:273996.got - 2010.06.28 00:19:55.
