data_PCOD8084283
_publ_section_title
;
Structure prediction by ZEFSAII (Michael W. Deem and Ramdas Pophale) SiO2 
 PCOD8084283
Probable space group: C 2/M
;
_chemical_formula_sum "Si O2"
_cell_formula_units_Z 44
_cell_length_a 14.544498
_cell_length_b 17.776680
_cell_length_c 8.442682
_cell_angle_alpha 90.000000
_cell_angle_beta 80.558718
_cell_angle_gamma 90.000000
_cell_volume 2153.311011
_symmetry_space_group_name_H-M "C 2/M"
_symmetry_group_IT_number 12
_symmetry_cell_setting 'monoclinic'
loop_
_space_group_symop_operation_xyz
x,y,z
-x,y,-z
-x,-y,-z
x,-y,z
1/2+x,1/2+y,z
1/2-x,1/2+y,-z
1/2-x,1/2-y,-z
1/2+x,1/2-y,z
loop_
_atom_site_type_symbol
_atom_site_label
_atom_site_fract_x
_atom_site_fract_y
_atom_site_fract_z
Si Si1 0.620702 0.210955 0.685776
Si Si2 0.823492 0.360753 0.893465
Si Si3 0.291390 0.914968 0.552356
Si Si4 0.000000 0.652495 0.000000
Si Si5 0.100841 0.857847 0.489025
Si Si6 0.698422 0.302717 0.174162
O O1 0.641038 0.137420 0.571140
O O2 0.589532 0.278337 0.581244
O O3 0.717741 0.231460 0.742460
O O4 0.540486 0.199514 0.838769
O O5 0.805683 0.400050 0.733652
O O6 0.849567 0.271368 0.884173
O O7 0.914347 0.397598 0.954032
O O8 0.732804 0.363631 0.033094
O O9 0.180937 0.906751 0.549583
O O10 0.321045 0.000000 0.506038
O O11 0.125977 0.847031 0.299247
O O12 0.000000 0.898389 0.500000
#
# Coordination Sequence:
#
# PCOD8084283 Si02
#       6
#     8   8   8   4   8   8
#     4  10  19  37  58  92 117 150 194 244 292 341
#     4  10  18  35  54  83 114 149 192 237 289 341
#     4  11  23  40  59  81 121 165 192 230 292 356
#     4  10  22  32  59  90 117 142 192 250 290 334
#     4  11  20  36  62  91 115 144 197 250 287 338
#     4   9  17  33  57  82 117 147 187 243 292 334
#
# _framework density 20.43365
#
# number of rings (size 3 to 8) (size 9 to 14) (size 15 to 20)
#    0.000    1.818    3.636    2.182    0.000    0.364 
#    0.000   10.909    0.000    1.091    0.000    0.000 
#    0.000    0.000    0.000    0.000    0.000    0.000 
#
# Total GULP energy -272583.497563 kJ/mol
# GULP energy per Si atom -12390.158980 kJ/mol
# Density = 2.038714 g / cm^3
# Si number density = 20.433650 Si / 1000 Ang^3
#
#
#
# Elastic Constant Matrix: (Units=GPa)
#
#
# Indices 1 2 3 4 5 6 
#
# 1 77.3033 4.1723 35.9595 0.0000 -7.5622 0.0000
# 2 4.1723 62.6537 26.6264 0.0000 1.1069 0.0000
# 3 35.9595 26.6264 149.0567 0.0000 -6.3120 0.0000
# 4 0.0000 0.0000 0.0000 2.0987 0.0000 -12.9871
# 5 -7.5622 1.1069 -6.3120 0.0000 31.8770 0.0000
# 6 0.0000 0.0000 0.0000 -12.9871 0.0000 -9.9336
#
#
#
# Elastic Compliance Matrix: (Units=1/GPa)
#
#
# Indices 1 2 3 4 5 6 
#
# 1 0.014833 0.000469 -0.003544 0.000000 0.002801 0.000000
# 2 0.000469 0.017334 -0.003258 0.000000 -0.001136 0.000000
# 3 -0.003544 -0.003258 0.008183 0.000000 0.000893 0.000000
# 4 0.000000 0.000000 0.000000 0.052416 0.000000 -0.068529
# 5 0.002801 -0.001136 0.000893 0.000000 0.032251 0.000000
# 6 0.000000 0.000000 0.000000 -0.068529 0.000000 -0.011074
#
#
# Mechanical properties :
#
#
# Convention : Reuss Voigt Hill
#
# Bulk Modulus (GPa) = 36.11980 46.94779 41.53380
# Shear Modulus (GPa) = 36.80879 19.62547 28.21713
#
# Velocity S-wave (km/s) = 4.24887 3.10247 3.72010
# Velocity P-wave (km/s) = 6.46418 5.98827 6.23077
#
# Compressibility (1/GPa) = 0.02768564
#
# Stress axis : x y z
#
# Youngs Moduli (GPa) = 67.41660 57.69011 122.19788
#
# Poissons Ratio (x) = -0.02704 0.43302
# Poissons Ratio (y) = -0.03160 0.39807
# Poissons Ratio (z) = 0.23889 0.18793
#
# Static dielectric constant tensor:
#      x y z
#    x 3.844120 0.000000 -0.012490 
#    y 0.000000 3.140380 0.000000 
#    z -0.012490 0.000000 4.018270 
# 
# 
# High freq. dielectric constant tensor:
#      x y z
#    x 1.805140 0.000000 0.002450 
#    y 0.000000 1.736060 0.000000 
#    z 0.002450 0.000000 1.824400 
# 
# From -- ./inp_files/60978.got.cif
#   From: 2010.06.25/outbox.cif.g09.slc.cpg/sg12_31_cif.got.tgz:60978.got - 2010.06.28 00:19:55.
