data_PCOD8084272
_publ_section_title
;
Structure prediction by ZEFSAII (Michael W. Deem and Ramdas Pophale) SiO2 
 PCOD8084272
Probable space group: C 2/M
;
_chemical_formula_sum "Si O2"
_cell_formula_units_Z 56
_cell_length_a 28.524690
_cell_length_b 13.493745
_cell_length_c 9.012536
_cell_angle_alpha 90.000000
_cell_angle_beta 58.948767
_cell_angle_gamma 90.000000
_cell_volume 2971.888186
_symmetry_space_group_name_H-M "C 2/M"
_symmetry_group_IT_number 12
_symmetry_cell_setting 'monoclinic'
loop_
_space_group_symop_operation_xyz
x,y,z
-x,y,-z
-x,-y,-z
x,-y,z
1/2+x,1/2+y,z
1/2-x,1/2+y,-z
1/2-x,1/2-y,-z
1/2+x,1/2-y,z
loop_
_atom_site_type_symbol
_atom_site_label
_atom_site_fract_x
_atom_site_fract_y
_atom_site_fract_z
Si Si1 0.832287 0.614409 0.186200
Si Si2 0.063958 0.114820 0.927754
Si Si3 0.874185 0.266305 0.369035
Si Si4 0.743436 0.887716 0.959342
Si Si5 0.981302 0.615206 0.197767
Si Si6 0.836370 0.256920 0.755874
Si Si7 0.579090 0.774438 0.139512
O O1 0.838083 0.500000 0.224648
O O2 0.828100 0.685874 0.336302
O O3 0.779385 0.630963 0.169633
O O4 0.886677 0.644954 0.009071
O O5 0.098813 0.166413 0.740018
O O6 0.081316 0.000000 0.909382
O O7 0.077674 0.168034 0.060558
O O8 0.000000 0.126571 0.000000
O O9 0.919281 0.351097 0.322008
O O10 0.844533 0.238764 0.569489
O O11 0.800116 0.830236 0.887087
O O12 0.757585 0.000000 0.967224
O O13 0.697797 0.856929 0.155475
O O14 0.986137 0.500000 0.227594
O O15 0.018743 0.678195 0.250629
O O16 0.000000 0.640457 0.000000
O O17 0.895346 0.258584 0.739740
#
# Coordination Sequence:
#
# PCOD8084272 Si02
#       7
#     8   8   8   8   8   8   8
#     4   9  17  32  58  81 105 141 182 226 273 325
#     4  10  19  35  55  75 105 149 192 222 253 304
#     4  11  20  34  53  87 116 139 179 227 275 318
#     4   9  20  41  59  75 103 146 188 226 278 331
#     4  11  19  32  56  84 113 147 181 215 263 329
#     4  10  23  36  57  82 112 144 176 231 279 327
#     4  10  18  35  53  79 111 149 186 214 263 325
#
# _framework density 18.843240000000002
#
# number of rings (size 3 to 8) (size 9 to 14) (size 15 to 20)
#    0.000    2.000    4.286    0.857    0.000    4.000 
#    0.000    0.714    0.000    1.714    0.000    0.000 
#    0.000    0.000    0.000    0.000    0.000    0.000 
#
# Total GULP energy -347207.971394 kJ/mol
# GULP energy per Si atom -12400.284693 kJ/mol
# Density = 1.880035 g / cm^3
# Si number density = 18.843240 Si / 1000 Ang^3
#
#
#
# Elastic Constant Matrix: (Units=GPa)
#
#
# Indices 1 2 3 4 5 6 
#
# 1 46.4622 23.3582 -4.8703 0.0000 -1.7124 0.0000
# 2 23.3582 113.2514 16.0633 0.0000 4.4522 0.0000
# 3 -4.8703 16.0633 60.8798 0.0000 6.3046 0.0000
# 4 0.0000 0.0000 0.0000 10.1959 0.0000 3.9300
# 5 -1.7124 4.4522 6.3046 0.0000 18.2981 0.0000
# 6 0.0000 0.0000 0.0000 3.9300 0.0000 24.1160
#
#
#
# Elastic Compliance Matrix: (Units=1/GPa)
#
#
# Indices 1 2 3 4 5 6 
#
# 1 0.024808 -0.005674 0.003213 0.000000 0.002595 0.000000
# 2 -0.005674 0.010508 -0.003014 0.000000 -0.002049 0.000000
# 3 0.003213 -0.003014 0.018014 0.000000 -0.005172 0.000000
# 4 0.000000 0.000000 0.000000 0.104652 0.000000 -0.017054
# 5 0.002595 -0.002049 -0.005172 0.000000 0.057174 0.000000
# 6 0.000000 0.000000 0.000000 -0.017054 0.000000 0.044245
#
#
# Mechanical properties :
#
#
# Convention : Reuss Voigt Hill
#
# Bulk Modulus (GPa) = 23.59672 32.18843 27.89258
# Shear Modulus (GPa) = 17.57591 22.92481 20.25036
#
# Velocity S-wave (km/s) = 3.05740 3.49177 3.28178
# Velocity P-wave (km/s) = 5.00134 5.77719 5.40321
#
# Compressibility (1/GPa) = 0.04237877
#
# Stress axis : x y z
#
# Youngs Moduli (GPa) = 40.30948 95.16210 55.51283
#
# Poissons Ratio (x) = 0.53999 -0.17837
# Poissons Ratio (y) = 0.22873 0.16734
# Poissons Ratio (z) = -0.12952 0.28686
#
# Static dielectric constant tensor:
#      x y z
#    x 3.601750 0.000000 0.099480 
#    y 0.000000 3.464910 0.000000 
#    z 0.099480 0.000000 3.118760 
# 
# 
# High freq. dielectric constant tensor:
#      x y z
#    x 1.738920 0.000000 0.002880 
#    y 0.000000 1.734230 0.000000 
#    z 0.002880 0.000000 1.696360 
# 
# From -- ./inp_files/111108.got.cif
#   From: 2010.06.25/outbox.cif.g09.slc.cpg/sg12_56_cif.got.tgz:111108.got - 2010.06.28 00:19:55.
