data_PCOD8084953
_publ_section_title
;
Structure prediction by ZEFSAII (Michael W. Deem and Ramdas Pophale) SiO2 
 PCOD8084953
Probable space group: C 2/M
;
_chemical_formula_sum "Si O2"
_cell_formula_units_Z 48
_cell_length_a 19.211488
_cell_length_b 9.098558
_cell_length_c 25.370774
_cell_angle_alpha 90.000000
_cell_angle_beta 36.947337
_cell_angle_gamma 90.000000
_cell_volume 2665.631295
_symmetry_space_group_name_H-M "C 2/M"
_symmetry_group_IT_number 12
_symmetry_cell_setting 'monoclinic'
loop_
_space_group_symop_operation_xyz
x,y,z
-x,y,-z
-x,-y,-z
x,-y,z
1/2+x,1/2+y,z
1/2-x,1/2+y,-z
1/2-x,1/2-y,-z
1/2+x,1/2-y,z
loop_
_atom_site_type_symbol
_atom_site_label
_atom_site_fract_x
_atom_site_fract_y
_atom_site_fract_z
Si Si1 0.427048 0.334069 0.898975
Si Si2 0.049806 0.673443 0.390327
Si Si3 0.612665 0.828397 0.237827
Si Si4 0.273089 0.834301 0.066269
Si Si5 0.679785 0.173823 0.415006
Si Si6 0.083959 0.671273 0.727505
O O1 0.464023 0.500000 0.890795
O O2 0.324167 0.333393 0.919436
O O3 0.537275 0.249653 0.808510
O O4 0.385538 0.252663 0.977230
O O5 0.041972 0.500000 0.391193
O O6 0.086349 0.737953 0.311582
O O7 0.144581 0.717672 0.376641
O O8 0.922210 0.728644 0.484315
O O9 0.724570 0.744529 0.147725
O O10 0.500705 0.798509 0.269987
O O11 0.643542 0.000000 0.220673
O O12 0.309931 0.000000 0.058099
O O13 0.793538 0.261198 0.362866
O O14 0.701766 0.000000 0.406586
O O15 0.096117 0.500000 0.732419
#
# Coordination Sequence:
#
# PCOD8084953 Si02
#       6
#     8   8   8   8   8   8
#     4   9  16  27  44  65  91 125 159 187 221 271
#     4   8  16  32  52  69  87 120 163 197 225 269
#     4   9  17  30  47  68  95 125 156 189 228 275
#     4   9  16  26  42  67  96 122 151 189 231 272
#     4   9  17  32  52  69  88 120 161 197 229 271
#     4  10  19  29  44  70 100 124 149 189 237 277
#
# _framework density 18.006993000000001
#
# number of rings (size 3 to 8) (size 9 to 14) (size 15 to 20)
#    0.000    3.000    0.000    2.500    0.000    5.333 
#    0.000    3.333    0.000    1.000    0.000    7.000 
#    0.000    0.000    0.000    0.000    0.000    0.000 
#
# Total GULP energy -297558.269849 kJ/mol
# GULP energy per Si atom -12398.261244 kJ/mol
# Density = 1.796601 g / cm^3
# Si number density = 18.006993 Si / 1000 Ang^3
#
#
#
# Elastic Constant Matrix: (Units=GPa)
#
#
# Indices 1 2 3 4 5 6 
#
# 1 37.1471 22.8869 33.2561 0.0000 22.1614 -0.0001
# 2 22.8869 85.8391 37.6978 0.0001 14.7599 -0.0002
# 3 33.2561 37.6978 96.7656 0.0000 39.4996 -0.0001
# 4 0.0000 0.0001 0.0000 32.7431 0.0000 -3.5774
# 5 22.1614 14.7599 39.4996 0.0000 27.4113 0.0000
# 6 -0.0001 -0.0002 -0.0001 -3.5774 0.0000 13.2583
#
#
#
# Elastic Compliance Matrix: (Units=1/GPa)
#
#
# Indices 1 2 3 4 5 6 
#
# 1 0.056616 -0.008286 0.001539 0.000000 -0.043528 0.000000
# 2 -0.008286 0.015274 -0.006023 0.000000 0.007154 0.000000
# 3 0.001539 -0.006023 0.027528 0.000000 -0.037669 0.000000
# 4 0.000000 0.000000 0.000000 0.031469 0.000000 0.008491
# 5 -0.043528 0.007154 -0.037669 0.000000 0.122102 -0.000001
# 6 0.000000 0.000000 0.000000 0.008491 -0.000001 0.077715
#
#
# Mechanical properties :
#
#
# Convention : Reuss Voigt Hill
#
# Bulk Modulus (GPa) = 13.53590 45.27037 29.40313
# Shear Modulus (GPa) = 13.12781 23.07660 18.10221
#
# Velocity S-wave (km/s) = 2.70300 3.58374 3.17407
# Velocity P-wave (km/s) = 4.15632 6.50533 5.45867
#
# Compressibility (1/GPa) = 0.07387763
#
# Stress axis : x y z
#
# Youngs Moduli (GPa) = 17.66285 65.47084 36.32635
#
# Poissons Ratio (x) = 0.54252 -0.05590
# Poissons Ratio (y) = 0.14636 0.21878
# Poissons Ratio (z) = -0.02718 0.39431
#
# Static dielectric constant tensor:
#      x y z
#    x 3.062360 0.000000 0.291350 
#    y 0.000000 3.241530 0.000000 
#    z 0.291350 0.000000 3.607760 
# 
# 
# High freq. dielectric constant tensor:
#      x y z
#    x 1.654050 0.000000 0.010710 
#    y 0.000000 1.686810 0.000000 
#    z 0.010710 0.000000 1.709610 
# 
# From -- ./inp_files/236325.got.cif
#   From: 2010.06.25/outbox.cif.g09.slc.cpg/sg12_119_cif.got.tgz:236325.got - 2010.06.28 00:19:55.
