data_PCOD8084804
_publ_section_title
;
Structure prediction by ZEFSAII (Michael W. Deem and Ramdas Pophale) SiO2 
 PCOD8084804
Probable space group: C 2/M
;
_chemical_formula_sum "Si O2"
_cell_formula_units_Z 64
_cell_length_a 31.584805
_cell_length_b 8.984606
_cell_length_c 30.289072
_cell_angle_alpha 90.000000
_cell_angle_beta 150.676720
_cell_angle_gamma 90.000000
_cell_volume 4209.455221
_symmetry_space_group_name_H-M "C 2/M"
_symmetry_group_IT_number 12
_symmetry_cell_setting 'monoclinic'
loop_
_space_group_symop_operation_xyz
x,y,z
-x,y,-z
-x,-y,-z
x,-y,z
1/2+x,1/2+y,z
1/2-x,1/2+y,-z
1/2-x,1/2-y,-z
1/2+x,1/2-y,z
loop_
_atom_site_type_symbol
_atom_site_label
_atom_site_fract_x
_atom_site_fract_y
_atom_site_fract_z
Si Si1 0.578406 0.326149 0.665739
Si Si2 0.124057 0.171754 0.368011
Si Si3 0.956168 0.330921 0.195398
Si Si4 0.601812 0.832070 0.599497
Si Si5 0.207934 0.672746 0.003300
Si Si6 0.698284 0.172646 0.517443
Si Si7 0.377843 0.673570 0.469578
Si Si8 0.841403 0.673753 0.176703
O O1 0.599023 0.500000 0.685960
O O2 0.624379 0.257757 0.664385
O O3 0.476421 0.294253 0.572565
O O4 0.616830 0.247031 0.742956
O O5 0.203158 0.201283 0.406973
O O6 0.133733 0.265963 0.421480
O O7 0.037160 0.221325 0.264228
O O8 0.118372 0.000000 0.376483
O O9 0.989989 0.500000 0.228342
O O10 0.895740 0.308648 0.096974
O O11 0.903141 0.292650 0.191424
O O12 0.500000 0.831536 0.500000
O O13 0.646586 0.751155 0.598834
O O14 0.637466 0.000000 0.635753
O O15 0.233846 0.500000 0.027496
O O16 0.250000 0.750000 0.000000
O O17 0.246598 0.752772 0.081955
O O18 0.684688 0.259273 0.550417
O O19 0.677135 0.000000 0.505213
O O20 0.359491 0.500000 0.447845
O O21 0.828403 0.500000 0.173085
#
# Coordination Sequence:
#
# PCOD8084804 Si02
#       8
#     8   8   8   8   8   8   8   8
#     4  10  19  29  42  62  87 113 143 177 209 247
#     4  10  20  31  44  62  83 110 144 180 215 249
#     4   9  18  30  44  61  83 112 143 175 212 253
#     4   9  17  29  44  61  83 111 140 172 210 250
#     4   9  17  29  43  60  82 109 140 173 210 250
#     4  10  20  32  44  60  84 112 143 179 215 250
#     4  10  19  30  45  63  83 111 145 177 211 250
#     4  10  19  29  42  62  86 113 144 175 210 251
#
# _framework density 15.203867000000001
#
# number of rings (size 3 to 8) (size 9 to 14) (size 15 to 20)
#    0.000    2.375    0.000    4.125    0.000    9.500 
#    0.000    0.000    0.000    0.000    0.000    0.000 
#    0.000    1.000    0.000   10.500    0.000    5.750 
#
# Total GULP energy -396786.792938 kJ/mol
# GULP energy per Si atom -12399.587279 kJ/mol
# Density = 1.516926 g / cm^3
# Si number density = 15.203867 Si / 1000 Ang^3
#
#
#
# Elastic Constant Matrix: (Units=GPa)
#
#
# Indices 1 2 3 4 5 6 
#
# 1 70.9391 47.7155 23.8829 0.0000 -8.5008 0.0000
# 2 47.7155 110.9456 50.1597 0.0000 -8.8923 -0.0002
# 3 23.8829 50.1597 73.2533 0.0000 -5.7193 0.0000
# 4 0.0000 0.0000 0.0000 27.6448 0.0000 -4.3569
# 5 -8.5008 -8.8923 -5.7193 0.0000 16.8717 0.0000
# 6 0.0000 -0.0002 0.0000 -4.3569 0.0000 27.9156
#
#
#
# Elastic Compliance Matrix: (Units=1/GPa)
#
#
# Indices 1 2 3 4 5 6 
#
# 1 0.020409 -0.007977 -0.000736 0.000000 0.005829 0.000000
# 2 -0.007977 0.016435 -0.008516 0.000000 0.001756 0.000000
# 3 -0.000736 -0.008516 0.019869 0.000000 0.001876 0.000000
# 4 0.000000 0.000000 0.000000 0.037085 0.000000 0.005788
# 5 0.005829 0.001756 0.001876 0.000000 0.063769 0.000000
# 6 0.000000 0.000000 0.000000 0.005788 0.000000 0.036726
#
#
# Mechanical properties :
#
#
# Convention : Reuss Voigt Hill
#
# Bulk Modulus (GPa) = 44.93632 55.40601 50.17116
# Shear Modulus (GPa) = 21.17118 23.37843 22.27480
#
# Velocity S-wave (km/s) = 3.73565 3.92556 3.83178
# Velocity P-wave (km/s) = 6.94455 7.55433 7.25585
#
# Compressibility (1/GPa) = 0.02225372
#
# Stress axis : x y z
#
# Youngs Moduli (GPa) = 48.99876 60.84510 50.32953
#
# Poissons Ratio (x) = 0.48538 0.03706
# Poissons Ratio (y) = 0.39087 0.42860
# Poissons Ratio (z) = 0.03608 0.51815
#
# Static dielectric constant tensor:
#      x y z
#    x 2.762420 0.000000 -0.127450 
#    y 0.000000 3.152790 0.000000 
#    z -0.127450 0.000000 2.954790 
# 
# 
# High freq. dielectric constant tensor:
#      x y z
#    x 1.553140 0.000000 -0.014640 
#    y 0.000000 1.605000 0.000000 
#    z -0.014640 0.000000 1.562420 
# 
# From -- ./inp_files/243882.got.cif
#   From: 2010.06.25/outbox.cif.g09.slc.cpg/sg12_122_cif.got.tgz:243882.got - 2010.06.28 00:19:55.
