data_PCOD8084882
_publ_section_title
;
Structure prediction by ZEFSAII (Michael W. Deem and Ramdas Pophale) SiO2 
 PCOD8084882
Probable space group: C 2/M
;
_chemical_formula_sum "Si O2"
_cell_formula_units_Z 56
_cell_length_a 28.051562
_cell_length_b 9.036617
_cell_length_c 18.459189
_cell_angle_alpha 90.000000
_cell_angle_beta 132.448948
_cell_angle_gamma 90.000000
_cell_volume 3452.714743
_symmetry_space_group_name_H-M "C 2/M"
_symmetry_group_IT_number 12
_symmetry_cell_setting 'monoclinic'
loop_
_space_group_symop_operation_xyz
x,y,z
-x,y,-z
-x,-y,-z
x,-y,z
1/2+x,1/2+y,z
1/2-x,1/2+y,-z
1/2-x,1/2-y,-z
1/2+x,1/2-y,z
loop_
_atom_site_type_symbol
_atom_site_label
_atom_site_fract_x
_atom_site_fract_y
_atom_site_fract_z
Si Si1 0.384768 0.329503 0.285101
Si Si2 0.246987 0.671780 0.073563
Si Si3 0.871005 0.176375 0.970933
Si Si4 0.995907 0.176166 0.818635
Si Si5 0.501864 0.824842 0.328841
Si Si6 0.931723 0.838813 0.891904
Si Si7 0.570487 0.837286 0.538510
O O1 0.405200 0.500000 0.303133
O O2 0.313472 0.302581 0.183233
O O3 0.433442 0.240018 0.284113
O O4 0.386499 0.275660 0.370652
O O5 0.232286 0.500000 0.046083
O O6 0.191841 0.742338 0.065821
O O7 0.250000 0.750000 0.000000
O O8 0.884730 0.238997 0.902832
O O9 0.860569 0.000000 0.959111
O O10 0.930644 0.216481 0.084689
O O11 0.977038 0.256011 0.725441
O O12 0.945610 0.239529 0.828527
O O13 0.988642 0.000000 0.803399
O O14 0.559633 0.784037 0.444465
O O15 0.493376 0.000000 0.313627
O O16 0.902036 0.000000 0.844830
O O17 0.000000 0.861348 0.000000
O O18 0.500000 0.848103 0.500000
O O19 0.603244 0.000000 0.574295
#
# Coordination Sequence:
#
# PCOD8084882 Si02
#       7
#     8   8   8   8   8   8   8
#     4  10  20  32  45  62  85 115 151 184 213 251
#     4  11  23  34  44  63  90 119 151 183 213 249
#     4   9  17  30  47  65  87 118 152 181 212 253
#     4   9  16  27  45  68  91 115 145 179 214 255
#     4  10  19  29  43  66  93 116 140 175 220 264
#     4   7  12  25  44  64  86 112 143 179 215 253
#     4   8  16  30  45  62  85 112 141 175 218 265
#
# _framework density 16.219121999999999
#
# number of rings (size 3 to 8) (size 9 to 14) (size 15 to 20)
#    0.000    2.857    0.000    4.714    0.000    9.429 
#    0.000    0.714    0.000    2.571    0.000    1.000 
#    0.000    0.000    0.000    0.000    0.000    0.000 
#
# Total GULP energy -346917.601888 kJ/mol
# GULP energy per Si atom -12389.914353 kJ/mol
# Density = 1.618221 g / cm^3
# Si number density = 16.219122 Si / 1000 Ang^3
#
#
#
# Elastic Constant Matrix: (Units=GPa)
#
#
# Indices 1 2 3 4 5 6 
#
# 1 100.0356 43.1684 54.4424 0.0000 -26.0399 0.0000
# 2 43.1684 69.4483 53.8279 0.0000 -9.2984 0.0000
# 3 54.4424 53.8279 113.5491 0.0000 -28.4048 0.0000
# 4 0.0000 0.0000 0.0000 24.7318 0.0000 0.3076
# 5 -26.0399 -9.2984 -28.4048 0.0000 26.9412 0.0000
# 6 0.0000 0.0000 0.0000 0.3076 0.0000 17.3817
#
#
#
# Elastic Compliance Matrix: (Units=1/GPa)
#
#
# Indices 1 2 3 4 5 6 
#
# 1 0.017577 -0.008152 -0.001381 0.000000 0.012719 0.000000
# 2 -0.008152 0.027007 -0.011590 0.000000 -0.010778 0.000000
# 3 -0.001381 -0.011590 0.018511 0.000000 0.014181 0.000000
# 4 0.000000 0.000000 0.000000 0.040443 0.000000 -0.000716
# 5 0.012719 -0.010778 0.014181 0.000000 0.060643 0.000000
# 6 0.000000 0.000000 0.000000 -0.000716 0.000000 0.057545
#
#
# Mechanical properties :
#
#
# Convention : Reuss Voigt Hill
#
# Bulk Modulus (GPa) = 47.96743 65.10117 56.53430
# Shear Modulus (GPa) = 18.45561 22.58387 20.51974
#
# Velocity S-wave (km/s) = 3.37692 3.73557 3.56076
# Velocity P-wave (km/s) = 6.69654 7.67018 7.19984
#
# Compressibility (1/GPa) = 0.02084748
#
# Stress axis : x y z
#
# Youngs Moduli (GPa) = 56.89295 37.02803 54.02282
#
# Poissons Ratio (x) = 0.30186 0.07462
# Poissons Ratio (y) = 0.46380 0.62612
# Poissons Ratio (z) = 0.07858 0.42915
#
# Static dielectric constant tensor:
#      x y z
#    x 3.066260 0.000000 -0.353380 
#    y 0.000000 3.003180 0.000000 
#    z -0.353380 0.000000 3.371400 
# 
# 
# High freq. dielectric constant tensor:
#      x y z
#    x 1.600120 0.000000 -0.026040 
#    y 0.000000 1.614550 0.000000 
#    z -0.026040 0.000000 1.618460 
# 
# From -- ./inp_files/244332.got.cif
#   From: 2010.06.25/outbox.cif.g09.slc.cpg/sg12_123_cif.got.tgz:244332.got - 2010.06.28 00:19:55.
