data_PCOD8084170
_publ_section_title
;
Structure prediction by ZEFSAII (Michael W. Deem and Ramdas Pophale) SiO2 
 PCOD8084170
Probable space group: C 2/M
;
_chemical_formula_sum "Si O2"
_cell_formula_units_Z 48
_cell_length_a 25.234976
_cell_length_b 17.086058
_cell_length_c 18.028663
_cell_angle_alpha 90.000000
_cell_angle_beta 19.370955
_cell_angle_gamma 90.000000
_cell_volume 2578.288005
_symmetry_space_group_name_H-M "C 2/M"
_symmetry_group_IT_number 12
_symmetry_cell_setting 'monoclinic'
loop_
_space_group_symop_operation_xyz
x,y,z
-x,y,-z
-x,-y,-z
x,-y,z
1/2+x,1/2+y,z
1/2-x,1/2+y,-z
1/2-x,1/2-y,-z
1/2+x,1/2-y,z
loop_
_atom_site_type_symbol
_atom_site_label
_atom_site_fract_x
_atom_site_fract_y
_atom_site_fract_z
Si Si1 0.901072 0.591000 0.205252
Si Si2 0.842724 0.734552 0.655462
Si Si3 0.745950 0.156361 0.000034
Si Si4 0.525231 0.916942 0.551224
Si Si5 0.088484 0.173807 0.578656
Si Si6 0.558674 0.200611 0.118284
O O1 0.917786 0.500000 0.205691
O O2 0.714538 0.611438 0.442762
O O3 0.960641 0.647174 0.191862
O O4 0.000000 0.608622 0.000000
O O5 0.839590 0.649528 0.618723
O O6 0.842735 0.797162 0.590340
O O7 0.000000 0.742752 0.500000
O O8 0.680518 0.741601 0.915669
O O9 0.926367 0.126220 0.772724
O O10 0.750000 0.250000 0.000000
O O11 0.643107 0.116292 0.198951
O O12 0.663233 0.139435 0.029784
O O13 0.500000 0.936006 0.500000
O O14 0.571383 0.000000 0.529949
O O15 0.057849 0.245231 0.677268
#
# Coordination Sequence:
#
# PCOD8084170 Si02
#       6
#     8   8   8   8   8   8
#     4  11  25  42  58  81 117 157 195 241 295 343
#     4  11  18  34  61  87 119 148 188 243 281 342
#     4  10  18  34  59  89 113 145 196 237 278 341
#     4  10  19  31  51  87 126 153 179 230 297 348
#     4  11  20  38  62  88 114 151 200 236 286 344
#     4  11  21  37  62  88 111 152 198 237 288 343
#
# _framework density 18.617006
#
# number of rings (size 3 to 8) (size 9 to 14) (size 15 to 20)
#    0.000    1.333    6.667    3.500    0.000    1.333 
#    0.000    0.833    0.000    3.000    0.000    2.333 
#    0.000    0.000    0.000    0.000    0.000    0.000 
#
# Total GULP energy -297351.852709 kJ/mol
# GULP energy per Si atom -12389.660530 kJ/mol
# Density = 1.857463 g / cm^3
# Si number density = 18.617006 Si / 1000 Ang^3
#
#
#
# Elastic Constant Matrix: (Units=GPa)
#
#
# Indices 1 2 3 4 5 6 
#
# 1 73.3319 23.0730 34.8463 0.0009 -6.3740 -0.0005
# 2 23.0730 75.6631 33.3702 0.0004 -2.7111 -0.0009
# 3 34.8463 33.3702 107.0600 0.0019 -0.5723 -0.0032
# 4 0.0009 0.0004 0.0019 47.2038 -0.0006 13.5395
# 5 -6.3740 -2.7111 -0.5723 -0.0006 34.6119 0.0014
# 6 -0.0005 -0.0009 -0.0032 13.5395 0.0014 20.8385
#
#
#
# Elastic Compliance Matrix: (Units=1/GPa)
#
#
# Indices 1 2 3 4 5 6 
#
# 1 0.017019 -0.003075 -0.004566 0.000000 0.002818 -0.000001
# 2 -0.003075 0.015922 -0.003959 0.000000 0.000615 0.000000
# 3 -0.004566 -0.003959 0.012055 -0.000001 -0.000952 0.000002
# 4 0.000000 0.000000 -0.000001 0.026037 0.000001 -0.016917
# 5 0.002818 0.000615 -0.000952 0.000001 0.029443 -0.000003
# 6 -0.000001 0.000000 0.000002 -0.016917 -0.000003 0.058980
#
#
# Mechanical properties :
#
#
# Convention : Reuss Voigt Hill
#
# Bulk Modulus (GPa) = 45.87741 48.73712 47.30727
# Shear Modulus (GPa) = 26.32668 31.51520 28.92094
#
# Velocity S-wave (km/s) = 3.76456 4.11885 3.94568
# Velocity P-wave (km/s) = 6.60243 6.98967 6.79881
#
# Compressibility (1/GPa) = 0.02179722
#
# Stress axis : x y z
#
# Youngs Moduli (GPa) = 58.75898 62.80544 82.94996
#
# Poissons Ratio (x) = 0.19313 0.37873
# Poissons Ratio (y) = 0.18069 0.32837
# Poissons Ratio (z) = 0.26828 0.24863
#
# Static dielectric constant tensor:
#      x y z
#    x 3.653330 0.000000 0.017020 
#    y 0.000000 3.504490 0.000000 
#    z 0.017020 0.000000 3.612840 
# 
# 
# High freq. dielectric constant tensor:
#      x y z
#    x 1.714770 0.000000 0.017420 
#    y 0.000000 1.705850 0.000000 
#    z 0.017420 0.000000 1.728860 
# 
# From -- ./inp_files/293764.got.cif
#   From: 2010.06.25/outbox.cif.g09.slc.cpg/sg12_147_cif.got.tgz:293764.got - 2010.06.28 00:19:55.
