data_PCOD8084363
_publ_section_title
;
Structure prediction by ZEFSAII (Michael W. Deem and Ramdas Pophale) SiO2 
 PCOD8084363
Probable space group: C 2/M
;
_chemical_formula_sum "Si O2"
_cell_formula_units_Z 56
_cell_length_a 16.752876
_cell_length_b 11.561302
_cell_length_c 19.043130
_cell_angle_alpha 90.000000
_cell_angle_beta 131.152339
_cell_angle_gamma 90.000000
_cell_volume 2777.204382
_symmetry_space_group_name_H-M "C 2/M"
_symmetry_group_IT_number 12
_symmetry_cell_setting 'monoclinic'
loop_
_space_group_symop_operation_xyz
x,y,z
-x,y,-z
-x,-y,-z
x,-y,z
1/2+x,1/2+y,z
1/2-x,1/2+y,-z
1/2-x,1/2-y,-z
1/2+x,1/2-y,z
loop_
_atom_site_type_symbol
_atom_site_label
_atom_site_fract_x
_atom_site_fract_y
_atom_site_fract_z
Si Si1 0.615443 0.712845 0.587414
Si Si2 0.836340 0.297963 0.884091
Si Si3 0.300405 0.365702 0.742985
Si Si4 0.606343 0.373567 0.733843
Si Si5 0.259727 0.867817 0.553270
Si Si6 0.955339 0.729183 0.738980
Si Si7 0.032843 0.371609 0.918605
O O1 0.500000 0.760674 0.500000
O O2 0.690102 0.821535 0.646984
O O3 0.608261 0.632151 0.651093
O O4 0.663256 0.636035 0.552220
O O5 0.818218 0.176982 0.833313
O O6 0.724342 0.358552 0.832417
O O7 0.911767 0.373776 0.876703
O O8 0.894636 0.283754 0.993274
O O9 0.293463 0.500000 0.742997
O O10 0.395947 0.329917 0.747234
O O11 0.565809 0.500000 0.732741
O O12 0.525240 0.280019 0.716937
O O13 0.250000 0.750000 0.500000
O O14 0.372059 0.861222 0.658136
O O15 0.254608 0.000000 0.515173
O O16 0.034402 0.664022 0.838116
O O17 0.080669 0.500000 0.953991
#
# Coordination Sequence:
#
# PCOD8084363 Si02
#       7
#     8   8   8   8   8   8   8
#     4  10  22  38  59  87 111 143 193 240 281 333
#     4   9  19  34  56  85 107 141 194 235 280 337
#     4   9  19  37  56  78 115 154 188 231 287 346
#     4  11  21  36  57  82 116 149 187 238 286 336
#     4  11  24  42  64  89 118 153 193 237 288 345
#     4  10  22  36  55  84 114 150 192 231 282 344
#     4  10  18  35  60  81 109 145 187 238 286 336
#
# _framework density 20.164162000000001
#
# number of rings (size 3 to 8) (size 9 to 14) (size 15 to 20)
#    0.000    2.000    0.000    4.714    0.000    6.000 
#    0.000   15.000    0.000    0.000    0.000    0.000 
#    0.000    0.000    0.000    0.000    0.000    0.000 
#
# Total GULP energy -347033.047673 kJ/mol
# GULP energy per Si atom -12394.037417 kJ/mol
# Density = 2.011827 g / cm^3
# Si number density = 20.164162 Si / 1000 Ang^3
#
#
#
# Elastic Constant Matrix: (Units=GPa)
#
#
# Indices 1 2 3 4 5 6 
#
# 1 95.0375 24.6646 32.0384 0.0000 2.3606 0.0000
# 2 24.6646 133.8284 37.2685 0.0000 -1.0441 0.0000
# 3 32.0384 37.2685 109.1240 0.0000 5.9014 0.0000
# 4 0.0000 0.0000 0.0000 16.9150 0.0000 -2.3920
# 5 2.3606 -1.0441 5.9014 0.0000 33.0128 0.0000
# 6 0.0000 0.0000 0.0000 -2.3920 0.0000 16.5507
#
#
#
# Elastic Compliance Matrix: (Units=1/GPa)
#
#
# Indices 1 2 3 4 5 6 
#
# 1 0.011898 -0.001357 -0.003010 0.000000 -0.000356 0.000000
# 2 -0.001357 0.008432 -0.002525 0.000000 0.000815 0.000000
# 3 -0.003010 -0.002525 0.011009 0.000000 -0.001833 0.000000
# 4 0.000000 0.000000 0.000000 0.060353 0.000000 0.008723
# 5 -0.000356 0.000815 -0.001833 0.000000 0.030670 0.000000
# 6 0.000000 0.000000 0.000000 0.008723 0.000000 0.061681
#
#
# Mechanical properties :
#
#
# Convention : Reuss Voigt Hill
#
# Bulk Modulus (GPa) = 56.96925 58.43697 57.70311
# Shear Modulus (GPa) = 24.54828 29.56360 27.05594
#
# Velocity S-wave (km/s) = 3.49294 3.83318 3.66701
# Velocity P-wave (km/s) = 6.67694 6.97385 6.82701
#
# Compressibility (1/GPa) = 0.01755333
#
# Stress axis : x y z
#
# Youngs Moduli (GPa) = 84.04701 118.59566 90.83213
#
# Poissons Ratio (x) = 0.16096 0.27345
# Poissons Ratio (y) = 0.11407 0.22938
# Poissons Ratio (z) = 0.25302 0.29949
#
# Static dielectric constant tensor:
#      x y z
#    x 3.626480 0.000000 0.059440 
#    y 0.000000 3.467150 0.000000 
#    z 0.059440 0.000000 3.868030 
# 
# 
# High freq. dielectric constant tensor:
#      x y z
#    x 1.777930 0.000000 0.005860 
#    y 0.000000 1.768100 0.000000 
#    z 0.005860 0.000000 1.796980 
# 
# From -- ./inp_files/277089.got.cif
#   From: 2010.06.25/outbox.cif.g09.slc.cpg/sg12_139_cif.got.tgz:277089.got - 2010.06.28 00:19:55.
