data_PCOD8084198
_publ_section_title
;
Structure prediction by ZEFSAII (Michael W. Deem and Ramdas Pophale) SiO2 
 PCOD8084198
Probable space group: C 2/M
;
_chemical_formula_sum "Si O2"
_cell_formula_units_Z 44
_cell_length_a 21.810988
_cell_length_b 9.231282
_cell_length_c 27.683687
_cell_angle_alpha 90.000000
_cell_angle_beta 23.087869
_cell_angle_gamma 90.000000
_cell_volume 2185.772930
_symmetry_space_group_name_H-M "C 2/M"
_symmetry_group_IT_number 12
_symmetry_cell_setting 'monoclinic'
loop_
_space_group_symop_operation_xyz
x,y,z
-x,y,-z
-x,-y,-z
x,-y,z
1/2+x,1/2+y,z
1/2-x,1/2+y,-z
1/2-x,1/2-y,-z
1/2+x,1/2-y,z
loop_
_atom_site_type_symbol
_atom_site_label
_atom_site_fract_x
_atom_site_fract_y
_atom_site_fract_z
Si Si1 0.629370 0.326904 0.710106
Si Si2 0.846442 0.158787 0.752372
Si Si3 0.048147 0.163497 0.069440
Si Si4 0.944215 0.167669 0.488225
Si Si5 0.394133 0.827268 0.809506
Si Si6 0.000000 0.261344 0.000000
O O1 0.632048 0.500000 0.703607
O O2 0.571568 0.268086 0.804810
O O3 0.800412 0.265914 0.575837
O O4 0.517411 0.259438 0.751267
O O5 0.912547 0.281611 0.740146
O O6 0.911915 0.196049 0.652077
O O7 0.907043 0.000000 0.724922
O O8 0.657943 0.145912 0.887323
O O9 0.065103 0.000000 0.073228
O O10 0.221665 0.229974 0.949966
O O11 0.987972 0.168175 0.057899
O O12 0.000000 0.220299 0.500000
O O13 0.891944 0.000000 0.526897
O O14 0.416664 0.000000 0.797677
#
# Coordination Sequence:
#
# PCOD8084198 Si02
#       6
#     8   8   8   8   8   4
#     4  11  22  37  58  84 114 148 188 232 277 326
#     4  10  21  37  58  85 115 145 184 232 278 329
#     4   9  19  34  55  85 117 148 184 229 278 330
#     4  10  22  40  59  82 114 150 186 225 274 333
#     4  10  21  38  59  83 112 148 188 230 281 334
#     4  10  18  34  60  86 113 146 183 226 281 334
#
# _framework density 20.130178000000001
#
# number of rings (size 3 to 8) (size 9 to 14) (size 15 to 20)
#    0.000    2.000    0.000    3.273    0.000    2.545 
#    0.000    9.091    0.000    0.000    0.000    0.000 
#    0.000    0.000    0.000    0.000    0.000    0.000 
#
# Total GULP energy -272687.079134 kJ/mol
# GULP energy per Si atom -12394.867233 kJ/mol
# Density = 2.008436 g / cm^3
# Si number density = 20.130178 Si / 1000 Ang^3
#
#
#
# Elastic Constant Matrix: (Units=GPa)
#
#
# Indices 1 2 3 4 5 6 
#
# 1 124.2181 36.7678 59.3476 -0.0015 -0.5155 0.0013
# 2 36.7678 78.9617 38.1757 -0.0073 -2.8899 0.0061
# 3 59.3476 38.1757 112.9726 -0.0052 8.7170 0.0068
# 4 -0.0015 -0.0073 -0.0052 25.6965 0.0025 -0.1709
# 5 -0.5155 -2.8899 8.7170 0.0025 35.5605 -0.0006
# 6 0.0013 0.0061 0.0068 -0.1709 -0.0006 27.9302
#
#
#
# Elastic Compliance Matrix: (Units=1/GPa)
#
#
# Indices 1 2 3 4 5 6 
#
# 1 0.011308 -0.002756 -0.005101 -0.000001 0.001190 0.000001
# 2 -0.002756 0.016036 -0.004147 0.000003 0.002280 -0.000002
# 3 -0.005101 -0.004147 0.013215 0.000002 -0.003650 -0.000002
# 4 -0.000001 0.000003 0.000002 0.038917 -0.000003 0.000238
# 5 0.001190 0.002280 -0.003650 -0.000003 0.029218 0.000001
# 6 0.000001 -0.000002 -0.000002 0.000238 0.000001 0.035805
#
#
# Mechanical properties :
#
#
# Convention : Reuss Voigt Hill
#
# Bulk Modulus (GPa) = 60.42040 64.97051 62.69545
# Shear Modulus (GPa) = 28.73163 29.96153 29.34658
#
# Velocity S-wave (km/s) = 3.78205 3.86215 3.82231
# Velocity P-wave (km/s) = 7.01084 7.22728 7.11988
#
# Compressibility (1/GPa) = 0.01655070
#
# Stress axis : x y z
#
# Youngs Moduli (GPa) = 88.43197 62.35967 75.67432
#
# Poissons Ratio (x) = 0.17185 0.38602
# Poissons Ratio (y) = 0.24369 0.31383
# Poissons Ratio (z) = 0.45110 0.25862
#
# Static dielectric constant tensor:
#      x y z
#    x 3.651340 0.000000 0.166490 
#    y 0.000000 3.479880 0.000010 
#    z 0.166490 0.000010 3.848550 
# 
# 
# High freq. dielectric constant tensor:
#      x y z
#    x 1.789580 0.000000 0.006300 
#    y 0.000000 1.773130 0.000000 
#    z 0.006300 0.000000 1.791770 
# 
# From -- ./inp_files/180474.got.cif
#   From: 2010.06.25/outbox.cif.g09.slc.cpg/sg12_91_cif.got.tgz:180474.got - 2010.06.28 00:19:55.
