data_PCOD8084529
_publ_section_title
;
Structure prediction by ZEFSAII (Michael W. Deem and Ramdas Pophale) SiO2 
 PCOD8084529
Probable space group: C 2/M
;
_chemical_formula_sum "Si O2"
_cell_formula_units_Z 56
_cell_length_a 19.075232
_cell_length_b 14.972486
_cell_length_c 9.164215
_cell_angle_alpha 90.000000
_cell_angle_beta 113.152836
_cell_angle_gamma 90.000000
_cell_volume 2406.531372
_symmetry_space_group_name_H-M "C 2/M"
_symmetry_group_IT_number 12
_symmetry_cell_setting 'monoclinic'
loop_
_space_group_symop_operation_xyz
x,y,z
-x,y,-z
-x,-y,-z
x,-y,z
1/2+x,1/2+y,z
1/2-x,1/2+y,-z
1/2-x,1/2-y,-z
1/2+x,1/2-y,z
loop_
_atom_site_type_symbol
_atom_site_label
_atom_site_fract_x
_atom_site_fract_y
_atom_site_fract_z
Si Si1 0.582885 0.402041 0.891454
Si Si2 0.950961 0.335311 0.763905
Si Si3 0.239398 0.855313 0.503953
Si Si4 0.175174 0.598144 0.149988
Si Si5 0.621675 0.900031 0.573051
Si Si6 0.619540 0.790073 0.860871
Si Si7 0.412527 0.638058 0.769122
O O1 0.612673 0.500000 0.861947
O O2 0.625870 0.317911 0.852065
O O3 0.493519 0.396082 0.775543
O O4 0.597437 0.397101 0.075680
O O5 0.906733 0.404024 0.832206
O O6 0.944886 0.365289 0.589608
O O7 0.906104 0.244388 0.760231
O O8 0.039672 0.320721 0.870792
O O9 0.250000 0.750000 0.500000
O O10 0.255181 0.882990 0.683354
O O11 0.299148 0.903763 0.447690
O O12 0.156432 0.893741 0.391009
O O13 0.185002 0.500000 0.088441
O O14 0.181618 0.670290 0.023855
O O15 0.629917 0.830860 0.711067
O O16 0.601803 0.000000 0.612946
#
# Coordination Sequence:
#
# PCOD8084529 Si02
#       7
#     8   8   8   8   8   8   8
#     4  10  21  37  64  97 120 152 212 266 315 375
#     4  10  19  36  62  89 123 164 210 250 307 363
#     4  11  20  39  64  87 123 168 210 252 308 369
#     4  11  22  35  57  93 127 163 211 255 302 372
#     4  11  24  38  59  95 130 169 212 247 304 386
#     4  11  22  39  59  89 131 167 199 259 319 364
#     4  10  18  36  65  93 120 151 205 264 318 356
#
# _framework density 23.270007
#
# number of rings (size 3 to 8) (size 9 to 14) (size 15 to 20)
#    0.000    1.429    4.286    3.857    0.000    5.714 
#    0.000    2.857    0.000   11.143    0.000    0.000 
#    0.000    0.000    0.000    0.000    0.000    0.000 
#
# Total GULP energy -347114.343092 kJ/mol
# GULP energy per Si atom -12396.940825 kJ/mol
# Density = 2.321704 g / cm^3
# Si number density = 23.270007 Si / 1000 Ang^3
#
#
#
# Elastic Constant Matrix: (Units=GPa)
#
#
# Indices 1 2 3 4 5 6 
#
# 1 20.0097 11.2031 22.1542 0.0000 18.5384 0.0000
# 2 11.2031 201.5161 59.5689 0.0000 -4.0078 0.0000
# 3 22.1542 59.5689 133.7454 0.0000 18.4819 0.0000
# 4 0.0000 0.0000 0.0000 25.9071 0.0000 -0.4054
# 5 18.5384 -4.0078 18.4819 0.0000 37.7336 0.0000
# 6 0.0000 0.0000 0.0000 -0.4054 0.0000 17.4870
#
#
#
# Elastic Compliance Matrix: (Units=1/GPa)
#
#
# Indices 1 2 3 4 5 6 
#
# 1 0.107917 -0.004248 -0.009219 0.000000 -0.048955 0.000000
# 2 -0.004248 0.006025 -0.002528 0.000000 0.003965 0.000000
# 3 -0.009219 -0.002528 0.010234 0.000000 -0.000752 0.000000
# 4 0.000000 0.000000 0.000000 0.038613 0.000000 0.000895
# 5 -0.048955 0.003965 -0.000752 0.000000 0.051342 0.000000
# 6 0.000000 0.000000 0.000000 0.000895 0.000000 0.057206
#
#
# Mechanical properties :
#
#
# Convention : Reuss Voigt Hill
#
# Bulk Modulus (GPa) = 10.84761 60.12485 35.48623
# Shear Modulus (GPa) = 14.96761 33.71519 24.34140
#
# Velocity S-wave (km/s) = 2.53892 3.81053 3.23777
# Velocity P-wave (km/s) = 3.64233 6.72712 5.40929
#
# Compressibility (1/GPa) = 0.09218617
#
# Stress axis : x y z
#
# Youngs Moduli (GPa) = 9.26639 165.98764 97.71793
#
# Poissons Ratio (x) = 0.70513 0.90085
# Poissons Ratio (y) = 0.03936 0.24698
# Poissons Ratio (z) = 0.08543 0.41953
#
# Static dielectric constant tensor:
#      x y z
#    x 3.810840 0.000000 0.330770 
#    y 0.000000 4.471070 0.000000 
#    z 0.330770 0.000000 4.216930 
# 
# 
# High freq. dielectric constant tensor:
#      x y z
#    x 1.882360 0.000000 0.019640 
#    y 0.000000 1.929670 0.000000 
#    z 0.019640 0.000000 1.921040 
# 
# From -- ./inp_files/96948.got.cif
#   From: 2010.06.25/outbox.cif.g09.slc.cpg/sg12_49_cif.got.tgz:96948.got - 2010.06.28 00:19:55.
