data_PCOD8084042
_publ_section_title
;
Structure prediction by ZEFSAII (Michael W. Deem and Ramdas Pophale) SiO2 
 PCOD8084042
Probable space group: C 2/M
;
_chemical_formula_sum "Si O2"
_cell_formula_units_Z 44
_cell_length_a 9.471165
_cell_length_b 19.860528
_cell_length_c 15.486610
_cell_angle_alpha 90.000000
_cell_angle_beta 123.788479
_cell_angle_gamma 90.000000
_cell_volume 2421.039692
_symmetry_space_group_name_H-M "C 2/M"
_symmetry_group_IT_number 12
_symmetry_cell_setting 'monoclinic'
loop_
_space_group_symop_operation_xyz
x,y,z
-x,y,-z
-x,-y,-z
x,-y,z
1/2+x,1/2+y,z
1/2-x,1/2+y,-z
1/2-x,1/2-y,-z
1/2+x,1/2-y,z
loop_
_atom_site_type_symbol
_atom_site_label
_atom_site_fract_x
_atom_site_fract_y
_atom_site_fract_z
Si Si1 0.096158 0.500000 0.788445
Si Si2 0.126586 0.113013 0.118476
Si Si3 0.440282 0.425021 0.569824
Si Si4 0.898079 0.880838 0.206004
Si Si5 0.615929 0.000000 0.456764
Si Si6 0.313020 0.240253 0.925731
Si Si7 0.133722 0.500000 0.122152
O O1 0.208230 0.567029 0.830526
O O2 0.996435 0.500000 0.665744
O O3 0.962470 0.500000 0.819934
O O4 0.181762 0.190154 0.124995
O O5 0.033781 0.102868 0.177946
O O6 0.000000 0.089942 0.000000
O O7 0.500000 0.391499 0.500000
O O8 0.525532 0.500000 0.607679
O O9 0.501977 0.379367 0.669604
O O10 0.235433 0.433161 0.500083
O O11 0.814363 0.807932 0.168166
O O12 0.748896 0.934554 0.152993
O O13 0.500000 0.000000 0.500000
O O14 0.500000 0.208101 0.000000
O O15 0.250000 0.250000 0.000000
O O16 0.000000 0.500000 0.000000
#
# Coordination Sequence:
#
# PCOD8084042 Si02
#       7
#     4   8   8   8   4   8   4
#     4  12  24  36  60  92 122 152 198 260 300 356
#     4  11  23  40  58  87 127 162 195 243 312 367
#     4   9  19  38  58  84 116 153 199 248 304 348
#     4  12  21  39  64  83 121 166 201 240 309 367
#     4  10  18  34  56  84 116 144 194 244 302 352
#     4  11  23  42  60  87 122 167 201 241 297 372
#     4  12  24  32  54  94 120 150 198 250 290 358
#
# _framework density 18.174011
#
# number of rings (size 3 to 8) (size 9 to 14) (size 15 to 20)
#    0.545    0.545    4.545    4.636    2.545    0.000 
#    0.000    0.000    0.000    5.455    0.000    0.000 
#    0.000    0.000    0.000    0.000    0.000    0.000 
#
# Total GULP energy -272801.512492 kJ/mol
# GULP energy per Si atom -12400.068750 kJ/mol
# Density = 1.813265 g / cm^3
# Si number density = 18.174011 Si / 1000 Ang^3
#
#
#
# Elastic Constant Matrix: (Units=GPa)
#
#
# Indices 1 2 3 4 5 6 
#
# 1 151.5211 43.4745 55.0997 0.0000 -24.7293 0.0000
# 2 43.4745 83.7807 50.1185 0.0000 3.7865 0.0000
# 3 55.0997 50.1185 156.1538 0.0000 -15.4042 0.0000
# 4 0.0000 0.0000 0.0000 55.1729 0.0000 5.5190
# 5 -24.7293 3.7865 -15.4042 0.0000 39.5552 0.0000
# 6 0.0000 0.0000 0.0000 5.5190 0.0000 28.5407
#
#
#
# Elastic Compliance Matrix: (Units=1/GPa)
#
#
# Indices 1 2 3 4 5 6 
#
# 1 0.009226 -0.004244 -0.001335 0.000000 0.005654 0.000000
# 2 -0.004244 0.017175 -0.004616 0.000000 -0.006095 0.000000
# 3 -0.001335 -0.004616 0.008650 0.000000 0.002976 0.000000
# 4 0.000000 0.000000 0.000000 0.018482 0.000000 -0.003574
# 5 0.005654 -0.006095 0.002976 0.000000 0.030558 0.000000
# 6 0.000000 0.000000 0.000000 -0.003574 0.000000 0.035729
#
#
# Mechanical properties :
#
#
# Convention : Reuss Voigt Hill
#
# Bulk Modulus (GPa) = 68.21338 76.53787 72.37563
# Shear Modulus (GPa) = 34.45930 40.83795 37.64863
#
# Velocity S-wave (km/s) = 4.35912 4.74545 4.55638
# Velocity P-wave (km/s) = 7.93416 8.49889 8.22137
#
# Compressibility (1/GPa) = 0.01465988
#
# Stress axis : x y z
#
# Youngs Moduli (GPa) = 108.39109 58.22385 115.60263
#
# Poissons Ratio (x) = 0.24710 0.15439
# Poissons Ratio (y) = 0.46001 0.53364
# Poissons Ratio (z) = 0.14476 0.26877
#
# Static dielectric constant tensor:
#      x y z
#    x 3.557320 0.000000 -0.139000 
#    y 0.000000 3.438990 0.000000 
#    z -0.139000 0.000000 3.409880 
# 
# 
# High freq. dielectric constant tensor:
#      x y z
#    x 1.728010 0.000000 -0.004910 
#    y 0.000000 1.679460 0.000000 
#    z -0.004910 0.000000 1.708370 
# 
# From -- ./inp_files/197296.got.cif
#   From: 2010.06.25/outbox.cif.g09.slc.cpg/sg12_99_cif.got.tgz:197296.got - 2010.06.28 00:19:55.
