data_PCOD8084162
_publ_section_title
;
Structure prediction by ZEFSAII (Michael W. Deem and Ramdas Pophale) SiO2 
 PCOD8084162
Probable space group: C 2/M
;
_chemical_formula_sum "Si O2"
_cell_formula_units_Z 60
_cell_length_a 8.425276
_cell_length_b 19.624868
_cell_length_c 18.699021
_cell_angle_alpha 90.000000
_cell_angle_beta 98.694522
_cell_angle_gamma 90.000000
_cell_volume 3056.258539
_symmetry_space_group_name_H-M "C 2/M"
_symmetry_group_IT_number 12
_symmetry_cell_setting 'monoclinic'
loop_
_space_group_symop_operation_xyz
x,y,z
-x,y,-z
-x,-y,-z
x,-y,z
1/2+x,1/2+y,z
1/2-x,1/2+y,-z
1/2-x,1/2-y,-z
1/2+x,1/2-y,z
loop_
_atom_site_type_symbol
_atom_site_label
_atom_site_fract_x
_atom_site_fract_y
_atom_site_fract_z
Si Si1 0.156571 0.687186 0.646067
Si Si2 0.101385 0.225666 0.445958
Si Si3 0.676683 0.922087 0.028074
Si Si4 0.168285 0.422173 0.766655
Si Si5 0.000000 0.854156 0.000000
Si Si6 0.675494 0.074566 0.193746
Si Si7 0.379393 0.688284 0.846440
Si Si8 0.334494 0.292127 0.230099
O O1 0.323956 0.679370 0.612564
O O2 0.133062 0.617861 0.689833
O O3 0.179938 0.751992 0.698011
O O4 0.000719 0.707914 0.588417
O O5 0.250000 0.250000 0.500000
O O6 0.000000 0.184030 0.500000
O O7 0.715178 0.913003 0.113755
O O8 0.663642 0.000000 0.003289
O O9 0.500000 0.887868 0.000000
O O10 0.830678 0.894081 0.995020
O O11 0.221098 0.500000 0.752940
O O12 0.299616 0.385239 0.825311
O O13 0.012725 0.421391 0.805680
O O14 0.978845 0.809657 0.926874
O O15 0.764385 0.133419 0.243250
O O16 0.740347 0.000000 0.221932
O O17 0.484832 0.701607 0.783410
O O18 0.255952 0.751227 0.839893
#
# Coordination Sequence:
#
# PCOD8084162 Si02
#       8
#     8   8   8   8   4   8   8   8
#     4  10  18  34  59  85 115 155 187 233 295 336
#     4   9  18  32  56  89 119 146 186 230 270 339
#     4  10  21  37  57  79 108 148 194 248 311 379
#     4  10  21  37  59  86 116 151 200 250 298 358
#     4  12  23  40  56  84 109 158 204 256 332 382
#     4  10  20  37  57  79 108 143 186 246 301 349
#     4  11  24  37  57  81 110 153 194 255 312 367
#     4  11  21  39  56  83 115 144 196 243 299 361
#
# _framework density 19.631845999999999
#
# number of rings (size 3 to 8) (size 9 to 14) (size 15 to 20)
#    0.000    1.733    1.333    5.000    0.000    3.200 
#    1.200    0.000    0.000    4.000    0.000    3.733 
#    0.000    0.000    0.000    0.000    0.000    0.000 
#
# Total GULP energy -371668.109958 kJ/mol
# GULP energy per Si atom -12388.936999 kJ/mol
# Density = 1.958716 g / cm^3
# Si number density = 19.631846 Si / 1000 Ang^3
#
#
#
# Elastic Constant Matrix: (Units=GPa)
#
#
# Indices 1 2 3 4 5 6 
#
# 1 110.4920 31.4549 28.2650 0.0000 -14.5044 0.0000
# 2 31.4549 118.2389 29.3002 0.0000 1.6196 0.0000
# 3 28.2650 29.3002 90.2521 0.0000 -4.8154 0.0000
# 4 0.0000 0.0000 0.0000 14.1974 0.0000 3.1727
# 5 -14.5044 1.6196 -4.8154 0.0000 38.9810 0.0000
# 6 0.0000 0.0000 0.0000 3.1727 0.0000 26.2274
#
#
#
# Elastic Compliance Matrix: (Units=1/GPa)
#
#
# Indices 1 2 3 4 5 6 
#
# 1 0.010840 -0.002333 -0.002433 0.000000 0.003830 0.000000
# 2 -0.002333 0.009722 -0.002510 0.000000 -0.001582 0.000000
# 3 -0.002433 -0.002510 0.012698 0.000000 0.000768 0.000000
# 4 0.000000 0.000000 0.000000 0.072392 0.000000 -0.008757
# 5 0.003830 -0.001582 0.000768 0.000000 0.027239 0.000000
# 6 0.000000 0.000000 0.000000 -0.008757 0.000000 0.039187
#
#
# Mechanical properties :
#
#
# Convention : Reuss Voigt Hill
#
# Bulk Modulus (GPa) = 53.45526 55.22481 54.34004
# Shear Modulus (GPa) = 25.92471 31.21202 28.56837
#
# Velocity S-wave (km/s) = 3.63787 3.99164 3.81885
# Velocity P-wave (km/s) = 6.70324 7.03104 6.86910
#
# Compressibility (1/GPa) = 0.01870723
#
# Stress axis : x y z
#
# Youngs Moduli (GPa) = 92.25289 102.86169 78.75379
#
# Poissons Ratio (x) = 0.24000 0.19161
# Poissons Ratio (y) = 0.21525 0.19766
# Poissons Ratio (z) = 0.22445 0.25817
#
# Static dielectric constant tensor:
#      x y z
#    x 3.817990 0.000000 0.150730 
#    y 0.000000 3.640800 0.000000 
#    z 0.150730 0.000000 3.279540 
# 
# 
# High freq. dielectric constant tensor:
#      x y z
#    x 1.788540 0.000000 -0.009530 
#    y 0.000000 1.734570 0.000000 
#    z -0.009530 0.000000 1.759940 
# 
# From -- ./inp_files/258162.got.cif
#   From: 2010.06.25/outbox.cif.g09.slc.cpg/sg12_130_cif.got.tgz:258162.got - 2010.06.28 00:19:55.
