data_PCOD8084966
_publ_section_title
;
Structure prediction by ZEFSAII (Michael W. Deem and Ramdas Pophale) SiO2 
 PCOD8084966
Probable space group: C 2/M
;
_chemical_formula_sum "Si O2"
_cell_formula_units_Z 64
_cell_length_a 24.238017
_cell_length_b 9.242660
_cell_length_c 18.480015
_cell_angle_alpha 90.000000
_cell_angle_beta 79.126930
_cell_angle_gamma 90.000000
_cell_volume 4065.639518
_symmetry_space_group_name_H-M "C 2/M"
_symmetry_group_IT_number 12
_symmetry_cell_setting 'monoclinic'
loop_
_space_group_symop_operation_xyz
x,y,z
-x,y,-z
-x,-y,-z
x,-y,z
1/2+x,1/2+y,z
1/2-x,1/2+y,-z
1/2-x,1/2-y,-z
1/2+x,1/2-y,z
loop_
_atom_site_type_symbol
_atom_site_label
_atom_site_fract_x
_atom_site_fract_y
_atom_site_fract_z
Si Si1 0.052466 0.169571 0.535770
Si Si2 0.009105 0.663789 0.160923
Si Si3 0.059293 0.836205 0.025556
Si Si4 0.958305 0.166386 0.296746
Si Si5 0.390755 0.836835 0.109473
Si Si6 0.725698 0.665672 0.606444
Si Si7 0.836640 0.332280 0.500742
Si Si8 0.156901 0.836078 0.756128
O O1 0.039612 0.217807 0.620933
O O2 0.106430 0.252208 0.491025
O O3 0.000000 0.214889 0.500000
O O4 0.065207 0.000000 0.528460
O O5 0.030586 0.500000 0.165581
O O6 0.054560 0.752338 0.102824
O O7 0.002636 0.737894 0.240776
O O8 0.950168 0.666741 0.134460
O O9 0.079382 0.000000 0.035040
O O10 0.105626 0.755252 0.965093
O O11 0.000000 0.835999 0.000000
O O12 0.895759 0.191493 0.283259
O O13 0.976646 0.000000 0.284106
O O14 0.344037 0.768138 0.174119
O O15 0.372830 0.000000 0.094767
O O16 0.709231 0.500000 0.590927
O O17 0.791651 0.693012 0.576337
O O18 0.687944 0.770231 0.567491
O O19 0.712343 0.696055 0.694301
O O20 0.849572 0.500000 0.485264
O O21 0.156133 0.000000 0.785591
#
# Coordination Sequence:
#
# PCOD8084966 Si02
#       8
#     8   8   8   8   8   8   8   8
#     4  10  20  34  49  62  82 114 147 180 220 265
#     4   9  16  24  35  51  72  98 128 168 209 240
#     4   9  15  23  34  48  68  99 136 165 194 237
#     4   9  16  27  41  56  74 101 138 174 206 249
#     4   9  16  23  32  50  76 101 130 166 203 240
#     4   9  17  30  45  62  85 113 141 174 215 261
#     4  10  19  29  45  66  86 107 138 180 222 259
#     4   9  15  25  40  55  76 106 138 170 203 245
#
# _framework density 15.741681
#
# number of rings (size 3 to 8) (size 9 to 14) (size 15 to 20)
#    0.000    2.750    1.250    1.500    0.000    6.250 
#    0.000    0.000    0.000    0.000    0.000    0.000 
#    0.000    0.000    0.000    1.125    0.000   13.625 
#
# Total GULP energy -396755.289159 kJ/mol
# GULP energy per Si atom -12398.602786 kJ/mol
# Density = 1.570585 g / cm^3
# Si number density = 15.741681 Si / 1000 Ang^3
#
#
#
# Elastic Constant Matrix: (Units=GPa)
#
#
# Indices 1 2 3 4 5 6 
#
# 1 54.2111 37.6657 37.3442 0.0000 -12.7233 0.0000
# 2 37.6657 110.0213 62.7641 0.0000 -20.7982 0.0000
# 3 37.3442 62.7641 110.9858 0.0000 -32.7060 0.0000
# 4 0.0000 0.0000 0.0000 25.5937 0.0000 -7.7495
# 5 -12.7233 -20.7982 -32.7060 0.0000 19.6779 0.0000
# 6 0.0000 0.0000 0.0000 -7.7495 0.0000 15.7286
#
#
#
# Elastic Compliance Matrix: (Units=1/GPa)
#
#
# Indices 1 2 3 4 5 6 
#
# 1 0.026437 -0.005771 -0.004689 0.000000 0.003202 0.000000
# 2 -0.005771 0.014773 -0.005705 0.000000 0.002400 0.000000
# 3 -0.004689 -0.005705 0.021842 0.000000 0.027240 0.000000
# 4 0.000000 0.000000 0.000000 0.045923 0.000000 0.022627
# 5 0.003202 0.002400 0.027240 0.000000 0.100701 0.000000
# 6 0.000000 0.000000 0.000000 0.022627 0.000000 0.074726
#
#
# Mechanical properties :
#
#
# Convention : Reuss Voigt Hill
#
# Bulk Modulus (GPa) = 32.54944 61.19625 46.87285
# Shear Modulus (GPa) = 15.29177 21.36298 18.32738
#
# Velocity S-wave (km/s) = 3.12014 3.68788 3.41582
# Velocity P-wave (km/s) = 5.80538 7.55603 6.73781
#
# Compressibility (1/GPa) = 0.03072249
#
# Stress axis : x y z
#
# Youngs Moduli (GPa) = 37.82552 67.68950 45.78409
#
# Poissons Ratio (x) = 0.39062 0.21466
# Poissons Ratio (y) = 0.21828 0.26122
# Poissons Ratio (z) = 0.17735 0.38620
#
# Static dielectric constant tensor:
#      x y z
#    x 2.521520 0.000000 -0.324570 
#    y 0.000000 3.137610 0.000000 
#    z -0.324570 0.000000 3.088770 
# 
# 
# High freq. dielectric constant tensor:
#      x y z
#    x 1.532430 0.000000 -0.036810 
#    y 0.000000 1.616270 0.000000 
#    z -0.036810 0.000000 1.605450 
# 
# From -- ./inp_files/287513.got.cif
#   From: 2010.06.25/outbox.cif.g09.slc.cpg/sg12_144_cif.got.tgz:287513.got - 2010.06.28 00:19:55.
