data_PCOD8084527
_publ_section_title
;
Structure prediction by ZEFSAII (Michael W. Deem and Ramdas Pophale) SiO2 
 PCOD8084527
Probable space group: C 2/M
;
_chemical_formula_sum "Si O2"
_cell_formula_units_Z 56
_cell_length_a 16.858153
_cell_length_b 18.696206
_cell_length_c 8.803912
_cell_angle_alpha 90.000000
_cell_angle_beta 96.416857
_cell_angle_gamma 90.000000
_cell_volume 2757.463612
_symmetry_space_group_name_H-M "C 2/M"
_symmetry_group_IT_number 12
_symmetry_cell_setting 'monoclinic'
loop_
_space_group_symop_operation_xyz
x,y,z
-x,y,-z
-x,-y,-z
x,-y,z
1/2+x,1/2+y,z
1/2-x,1/2+y,-z
1/2-x,1/2-y,-z
1/2+x,1/2-y,z
loop_
_atom_site_type_symbol
_atom_site_label
_atom_site_fract_x
_atom_site_fract_y
_atom_site_fract_z
Si Si1 0.107514 0.702759 0.161914
Si Si2 0.376970 0.662895 0.236332
Si Si3 0.667610 0.360564 0.105233
Si Si4 0.017333 0.919009 0.174759
Si Si5 0.185474 0.585172 0.697415
Si Si6 0.260886 0.171206 0.574406
Si Si7 0.928039 0.683069 0.179830
O O1 0.142416 0.780802 0.140726
O O2 0.170694 0.664711 0.283709
O O3 0.021037 0.702168 0.224024
O O4 0.095082 0.663145 0.998455
O O5 0.466049 0.629972 0.279770
O O6 0.322122 0.645341 0.368790
O O7 0.377897 0.748063 0.221057
O O8 0.342029 0.625709 0.076563
O O9 0.612832 0.409852 0.205732
O O10 0.757996 0.380729 0.161174
O O11 0.991021 0.000000 0.196505
O O12 0.000000 0.891173 0.000000
O O13 0.182746 0.500000 0.701483
O O14 0.216357 0.611843 0.542616
O O15 0.097596 0.616786 0.717993
O O16 0.250000 0.250000 0.500000
#
# Coordination Sequence:
#
# PCOD8084527 Si02
#       7
#     8   8   8   8   8   8   8
#     4  10  20  38  68  95 116 152 211 263 298 349
#     4  10  19  35  62  90 121 158 206 248 297 357
#     4  10  18  36  64  92 121 154 200 256 300 362
#     4   9  17  30  53  89 125 153 186 238 305 363
#     4  12  26  42  59  88 129 166 201 251 317 372
#     4  12  23  39  58  89 123 164 207 248 299 365
#     4  10  20  40  65  95 119 153 209 263 302 356
#
# _framework density 20.308517999999999
#
# number of rings (size 3 to 8) (size 9 to 14) (size 15 to 20)
#    0.000    1.571    4.286    1.286    0.000    4.000 
#    0.000    7.143    0.000    1.714    0.000    0.000 
#    0.000    0.000    0.000    0.000    0.000    0.000 
#
# Total GULP energy -347086.259918 kJ/mol
# GULP energy per Si atom -12395.937854 kJ/mol
# Density = 2.026229 g / cm^3
# Si number density = 20.308518 Si / 1000 Ang^3
#
#
#
# Elastic Constant Matrix: (Units=GPa)
#
#
# Indices 1 2 3 4 5 6 
#
# 1 70.0274 36.3813 22.8519 0.0000 -23.0723 0.0000
# 2 36.3813 103.5800 27.3345 0.0000 -23.5795 0.0000
# 3 22.8519 27.3345 58.1595 0.0000 -24.5935 0.0000
# 4 0.0000 0.0000 0.0000 21.7474 0.0000 -7.0609
# 5 -23.0723 -23.5795 -24.5935 0.0000 35.7765 0.0000
# 6 0.0000 0.0000 0.0000 -7.0609 0.0000 27.1901
#
#
#
# Elastic Compliance Matrix: (Units=1/GPa)
#
#
# Indices 1 2 3 4 5 6 
#
# 1 0.020166 -0.004574 -0.002184 0.000000 0.008489 0.000000
# 2 -0.004574 0.012797 -0.002676 0.000000 0.003645 0.000000
# 3 -0.002184 -0.002676 0.025332 0.000000 0.014242 0.000000
# 4 0.000000 0.000000 0.000000 0.050217 0.000000 0.013041
# 5 0.008489 0.003645 0.014242 0.000000 0.045618 0.000000
# 6 0.000000 0.000000 0.000000 0.013041 0.000000 0.040165
#
#
# Mechanical properties :
#
#
# Convention : Reuss Voigt Hill
#
# Bulk Modulus (GPa) = 25.36343 44.98914 35.17629
# Shear Modulus (GPa) = 22.09401 26.62274 24.35838
#
# Velocity S-wave (km/s) = 3.30194 3.62458 3.46702
# Velocity P-wave (km/s) = 5.20127 6.30220 5.77802
#
# Compressibility (1/GPa) = 0.03942684
#
# Stress axis : x y z
#
# Youngs Moduli (GPa) = 49.58770 78.14382 39.47540
#
# Poissons Ratio (x) = 0.35745 0.08622
# Poissons Ratio (y) = 0.22683 0.10563
# Poissons Ratio (z) = 0.10831 0.20910
#
# Static dielectric constant tensor:
#      x y z
#    x 3.943800 0.000000 -0.067690 
#    y 0.000000 3.351350 0.000000 
#    z -0.067690 0.000000 3.715090 
# 
# 
# High freq. dielectric constant tensor:
#      x y z
#    x 1.806180 0.000000 -0.014120 
#    y 0.000000 1.764690 0.000000 
#    z -0.014120 0.000000 1.776280 
# 
# From -- ./inp_files/64084.got.cif
#   From: 2010.06.25/outbox.cif.g09.slc.cpg/sg12_33_cif.got.tgz:64084.got - 2010.06.28 00:19:55.
