data_PCOD8084830
_publ_section_title
;
Structure prediction by ZEFSAII (Michael W. Deem and Ramdas Pophale) SiO2 
 PCOD8084830
Probable space group: C 2/M
;
_chemical_formula_sum "Si O2"
_cell_formula_units_Z 48
_cell_length_a 26.896188
_cell_length_b 9.039243
_cell_length_c 11.419644
_cell_angle_alpha 90.000000
_cell_angle_beta 89.122297
_cell_angle_gamma 90.000000
_cell_volume 2776.031562
_symmetry_space_group_name_H-M "C 2/M"
_symmetry_group_IT_number 12
_symmetry_cell_setting 'monoclinic'
loop_
_space_group_symop_operation_xyz
x,y,z
-x,y,-z
-x,-y,-z
x,-y,z
1/2+x,1/2+y,z
1/2-x,1/2+y,-z
1/2-x,1/2-y,-z
1/2+x,1/2-y,z
loop_
_atom_site_type_symbol
_atom_site_label
_atom_site_fract_x
_atom_site_fract_y
_atom_site_fract_z
Si Si1 0.630496 0.661920 0.810629
Si Si2 0.200528 0.836880 0.012308
Si Si3 0.057072 0.825708 0.013211
Si Si4 0.299438 0.827208 0.631171
Si Si5 0.802125 0.673265 0.361260
Si Si6 0.373535 0.173210 0.824726
O O1 0.613696 0.500000 0.762281
O O2 0.647814 0.767558 0.704121
O O3 0.679757 0.639087 0.884264
O O4 0.586753 0.730202 0.895570
O O5 0.166402 0.723114 0.080777
O O6 0.206046 0.000000 0.072343
O O7 0.250000 0.750000 0.000000
O O8 0.075631 0.754577 0.135995
O O9 0.066381 0.000000 0.024386
O O10 0.000000 0.782378 0.000000
O O11 0.250185 0.743411 0.680887
O O12 0.309629 0.785831 0.496757
O O13 0.349942 0.781455 0.699511
O O14 0.288560 0.000000 0.649191
O O15 0.798668 0.500000 0.338698
O O16 0.383856 0.000000 0.830574
#
# Coordination Sequence:
#
# PCOD8084830 Si02
#       6
#     8   8   8   8   8   8
#     4   9  18  31  46  66  93 122 151 189 237 282
#     4  10  19  29  42  64  95 126 155 190 233 280
#     4   9  19  36  55  73  94 120 152 196 248 293
#     4   9  19  33  46  66  99 133 161 193 231 268
#     4  10  19  30  47  70  96 129 166 196 224 269
#     4  10  19  31  48  69  94 123 156 194 236 284
#
# _framework density 17.290870000000002
#
# number of rings (size 3 to 8) (size 9 to 14) (size 15 to 20)
#    0.000    2.500    0.000    3.500    0.000    9.667 
#    0.000    0.000    0.000    1.000    0.000    7.000 
#    0.000    0.000    0.000    0.000    0.000    0.000 
#
# Total GULP energy -297320.099605 kJ/mol
# GULP energy per Si atom -12388.337484 kJ/mol
# Density = 1.725151 g / cm^3
# Si number density = 17.290870 Si / 1000 Ang^3
#
#
#
# Elastic Constant Matrix: (Units=GPa)
#
#
# Indices 1 2 3 4 5 6 
#
# 1 119.2111 42.5136 48.2171 0.0000 8.3438 0.0000
# 2 42.5136 54.3412 35.2294 0.0000 2.9286 0.0000
# 3 48.2171 35.2294 77.2258 0.0000 3.2357 0.0000
# 4 0.0000 0.0000 0.0000 25.8618 0.0000 -0.0232
# 5 8.3438 2.9286 3.2357 0.0000 26.7895 0.0000
# 6 0.0000 0.0000 0.0000 -0.0232 0.0000 24.4192
#
#
#
# Elastic Compliance Matrix: (Units=1/GPa)
#
#
# Indices 1 2 3 4 5 6 
#
# 1 0.012995 -0.006864 -0.004869 0.000000 -0.002709 0.000000
# 2 -0.006864 0.029810 -0.009313 0.000000 0.000004 0.000000
# 3 -0.004869 -0.009313 0.020234 0.000000 0.000091 0.000000
# 4 0.000000 0.000000 0.000000 0.038667 0.000000 0.000037
# 5 -0.002709 0.000004 0.000091 0.000000 0.038160 0.000000
# 6 0.000000 0.000000 0.000000 0.000037 0.000000 0.040951
#
#
# Mechanical properties :
#
#
# Convention : Reuss Voigt Hill
#
# Bulk Modulus (GPa) = 47.74140 55.85538 51.79839
# Shear Modulus (GPa) = 21.74919 23.73530 22.74224
#
# Velocity S-wave (km/s) = 3.55045 3.70903 3.63061
# Velocity P-wave (km/s) = 6.66921 7.12152 6.89907
#
# Compressibility (1/GPa) = 0.02094618
#
# Stress axis : x y z
#
# Youngs Moduli (GPa) = 76.95010 33.54561 49.42220
#
# Poissons Ratio (x) = 0.23027 0.24063
# Poissons Ratio (y) = 0.52822 0.46028
# Poissons Ratio (z) = 0.37467 0.31242
#
# Static dielectric constant tensor:
#      x y z
#    x 2.962410 0.000000 0.102510 
#    y 0.000000 3.365230 0.000000 
#    z 0.102510 0.000000 3.278880 
# 
# 
# High freq. dielectric constant tensor:
#      x y z
#    x 1.645220 0.000000 0.004030 
#    y 0.000000 1.673620 0.000000 
#    z 0.004030 0.000000 1.655130 
# 
# From -- ./inp_files/179261.got.cif
#   From: 2010.06.25/outbox.cif.g09.slc.cpg/sg12_90_cif.got.tgz:179261.got - 2010.06.28 00:19:55.
