data_PCOD8084498
_publ_section_title
;
Structure prediction by ZEFSAII (Michael W. Deem and Ramdas Pophale) SiO2 
 PCOD8084498
Probable space group: C 2/M
;
_chemical_formula_sum "Si O2"
_cell_formula_units_Z 48
_cell_length_a 18.663652
_cell_length_b 27.749692
_cell_length_c 5.186126
_cell_angle_alpha 90.000000
_cell_angle_beta 117.928626
_cell_angle_gamma 90.000000
_cell_volume 2373.121707
_symmetry_space_group_name_H-M "C 2/M"
_symmetry_group_IT_number 12
_symmetry_cell_setting 'monoclinic'
loop_
_space_group_symop_operation_xyz
x,y,z
-x,y,-z
-x,-y,-z
x,-y,z
1/2+x,1/2+y,z
1/2-x,1/2+y,-z
1/2-x,1/2-y,-z
1/2+x,1/2-y,z
loop_
_atom_site_type_symbol
_atom_site_label
_atom_site_fract_x
_atom_site_fract_y
_atom_site_fract_z
Si Si1 0.050893 0.648509 0.828792
Si Si2 0.184218 0.188073 0.731667
Si Si3 0.679666 0.443817 0.325485
Si Si4 0.905258 0.904508 0.313342
Si Si5 0.307460 0.870788 0.628351
Si Si6 0.840206 0.292809 0.299088
O O1 0.093249 0.699353 0.815872
O O2 0.000000 0.626507 0.500000
O O3 0.129012 0.614494 0.035832
O O4 0.000000 0.657358 0.000000
O O5 0.114109 0.152636 0.716927
O O6 0.231233 0.161631 0.583654
O O7 0.146505 0.238831 0.566986
O O8 0.246362 0.200720 0.064611
O O9 0.695260 0.500000 0.325710
O O10 0.642225 0.432219 0.541265
O O11 0.768292 0.418659 0.439669
O O12 0.619523 0.426282 0.002393
O O13 0.000000 0.913017 0.500000
O O14 0.359919 0.836609 0.527650
#
# Coordination Sequence:
#
# PCOD8084498 Si02
#       6
#     8   8   8   8   8   8
#     4  11  22  37  57  89 121 156 195 243 299 362
#     4   9  20  34  58  89 119 162 206 243 292 356
#     4  11  24  42  66  90 115 156 213 255 300 364
#     4  11  23  41  59  90 128 162 194 253 309 354
#     4  10  20  38  64  84 121 157 208 250 306 352
#     4  10  18  36  60  86 118 166 202 246 288 359
#
# _framework density 20.226521999999999
#
# number of rings (size 3 to 8) (size 9 to 14) (size 15 to 20)
#    0.000    1.667    3.333    1.500    0.000    2.667 
#    0.000    0.000    0.000    1.000    0.000    0.000 
#    0.000    0.000    0.000    0.000    0.000    0.000 
#
# Total GULP energy -297355.021229 kJ/mol
# GULP energy per Si atom -12389.792551 kJ/mol
# Density = 2.018049 g / cm^3
# Si number density = 20.226522 Si / 1000 Ang^3
#
#
#
# Elastic Constant Matrix: (Units=GPa)
#
#
# Indices 1 2 3 4 5 6 
#
# 1 75.2148 30.0993 29.2482 0.0000 1.0690 0.0000
# 2 30.0993 133.1510 38.5059 0.0000 15.8364 0.0000
# 3 29.2482 38.5059 120.4688 0.0000 20.3625 0.0000
# 4 0.0000 0.0000 0.0000 15.5991 0.0000 -7.2339
# 5 1.0690 15.8364 20.3625 0.0000 31.5659 0.0000
# 6 0.0000 0.0000 0.0000 -7.2339 0.0000 13.2196
#
#
#
# Elastic Compliance Matrix: (Units=1/GPa)
#
#
# Indices 1 2 3 4 5 6 
#
# 1 0.015759 -0.002949 -0.003416 0.000000 0.003149 0.000000
# 2 -0.002949 0.009045 -0.001599 0.000000 -0.003406 0.000000
# 3 -0.003416 -0.001599 0.010647 0.000000 -0.005950 0.000000
# 4 0.000000 0.000000 0.000000 0.085906 0.000000 0.047009
# 5 0.003149 -0.003406 -0.005950 0.000000 0.037120 0.000000
# 6 0.000000 0.000000 0.000000 0.047009 0.000000 0.101369
#
#
# Mechanical properties :
#
#
# Convention : Reuss Voigt Hill
#
# Bulk Modulus (GPa) = 51.22318 58.28237 54.75277
# Shear Modulus (GPa) = 17.71281 27.47567 22.59424
#
# Velocity S-wave (km/s) = 2.96247 3.68964 3.34587
# Velocity P-wave (km/s) = 6.08945 6.85775 6.48498
#
# Compressibility (1/GPa) = 0.01952241
#
# Stress axis : x y z
#
# Youngs Moduli (GPa) = 63.45611 110.56434 93.92221
#
# Poissons Ratio (x) = 0.32607 0.32081
# Poissons Ratio (y) = 0.18714 0.15020
# Poissons Ratio (z) = 0.21675 0.17681
#
# Static dielectric constant tensor:
#      x y z
#    x 3.726720 0.000000 0.074720 
#    y 0.000000 3.625260 0.000000 
#    z 0.074720 0.000000 3.920190 
# 
# 
# High freq. dielectric constant tensor:
#      x y z
#    x 1.791080 0.000000 0.000670 
#    y 0.000000 1.755510 0.000000 
#    z 0.000670 0.000000 1.799820 
# 
# From -- ./inp_files/17504.got.cif
#   From: 2010.06.25/outbox.cif.g09.slc.cpg/sg12_9_cif.got.tgz:17504.got - 2010.06.28 00:19:55.
