data_PCOD8084777
_publ_section_title
;
Structure prediction by ZEFSAII (Michael W. Deem and Ramdas Pophale) SiO2 
 PCOD8084777
Probable space group: C 2/M
;
_chemical_formula_sum "Si O2"
_cell_formula_units_Z 64
_cell_length_a 27.356693
_cell_length_b 8.912827
_cell_length_c 19.618953
_cell_angle_alpha 90.000000
_cell_angle_beta 59.020941
_cell_angle_gamma 90.000000
_cell_volume 4101.246103
_symmetry_space_group_name_H-M "C 2/M"
_symmetry_group_IT_number 12
_symmetry_cell_setting 'monoclinic'
loop_
_space_group_symop_operation_xyz
x,y,z
-x,y,-z
-x,-y,-z
x,-y,z
1/2+x,1/2+y,z
1/2-x,1/2+y,-z
1/2-x,1/2-y,-z
1/2+x,1/2-y,z
loop_
_atom_site_type_symbol
_atom_site_label
_atom_site_fract_x
_atom_site_fract_y
_atom_site_fract_z
Si Si1 0.914374 0.171435 0.092836
Si Si2 0.414958 0.327733 0.935468
Si Si3 0.205553 0.325390 0.982241
Si Si4 0.203243 0.673747 0.831100
Si Si5 0.742923 0.825133 0.662721
Si Si6 0.526181 0.823376 0.828843
Si Si7 0.367648 0.177513 0.336056
Si Si8 0.194307 0.822649 0.507760
O O1 0.849286 0.219562 0.146771
O O2 0.953410 0.277032 0.110670
O O3 0.921296 0.000000 0.112208
O O4 0.933184 0.189223 0.001103
O O5 0.406131 0.500000 0.921039
O O6 0.466142 0.256402 0.854488
O O7 0.356797 0.241625 0.961010
O O8 0.202623 0.500000 0.000825
O O9 0.227524 0.294749 0.889083
O O10 0.250000 0.250000 0.000000
O O11 0.183523 0.500000 0.839638
O O12 0.249601 0.714363 0.738558
O O13 0.683845 0.757722 0.674204
O O14 0.799307 0.780401 0.578014
O O15 0.734170 0.000000 0.660309
O O16 0.572532 0.770955 0.739585
O O17 0.516788 0.000000 0.834299
O O18 0.361225 0.249684 0.416609
O O19 0.365908 0.000000 0.344939
O O20 0.250000 0.750000 0.500000
O O21 0.193137 0.000000 0.520527
#
# Coordination Sequence:
#
# PCOD8084777 Si02
#       8
#     8   8   8   8   8   8   8   8
#     4  10  19  29  41  61  89 117 146 185 225 256
#     4  10  21  34  46  64  89 113 145 187 225 264
#     4  10  20  34  53  70  88 115 145 180 225 271
#     4   9  16  29  47  65  85 116 152 181 218 265
#     4   8  13  25  41  58  82 111 147 186 215 247
#     4  11  20  30  44  61  86 120 156 187 216 259
#     4   9  17  28  40  56  83 118 152 186 216 250
#     4   9  16  25  38  56  81 113 148 185 219 254
#
# _framework density 15.605012
#
# number of rings (size 3 to 8) (size 9 to 14) (size 15 to 20)
#    0.000    2.500    1.250    3.000    0.000    4.500 
#    0.000    0.625    0.000    0.000    0.000    0.000 
#    0.000    1.000    0.000   11.500    0.000    2.875 
#
# Total GULP energy -396502.397510 kJ/mol
# GULP energy per Si atom -12390.699922 kJ/mol
# Density = 1.556949 g / cm^3
# Si number density = 15.605012 Si / 1000 Ang^3
#
#
#
# Elastic Constant Matrix: (Units=GPa)
#
#
# Indices 1 2 3 4 5 6 
#
# 1 56.7454 31.5638 56.4701 0.0000 -1.6945 -0.0001
# 2 31.5638 65.1679 47.0317 -0.0001 -5.3899 -0.0004
# 3 56.4701 47.0317 135.6453 0.0000 -7.4401 0.0000
# 4 0.0000 -0.0001 0.0000 24.1621 0.0000 -2.5066
# 5 -1.6945 -5.3899 -7.4401 0.0000 13.1076 0.0000
# 6 -0.0001 -0.0004 0.0000 -2.5066 0.0000 21.6372
#
#
#
# Elastic Compliance Matrix: (Units=1/GPa)
#
#
# Indices 1 2 3 4 5 6 
#
# 1 0.033391 -0.008510 -0.011256 0.000000 -0.005572 0.000000
# 2 -0.008510 0.022899 -0.004067 0.000000 0.006007 0.000000
# 3 -0.011256 -0.004067 0.013724 0.000000 0.004662 0.000000
# 4 0.000000 0.000000 0.000000 0.041891 0.000000 0.004853
# 5 -0.005572 0.006007 0.004662 0.000000 0.080688 0.000000
# 6 0.000000 0.000000 0.000000 0.004853 0.000000 0.046779
#
#
# Mechanical properties :
#
#
# Convention : Reuss Voigt Hill
#
# Bulk Modulus (GPa) = 44.74802 58.63220 51.69011
# Shear Modulus (GPa) = 16.97861 19.94757 18.46309
#
# Velocity S-wave (km/s) = 3.30210 3.57918 3.44343
# Velocity P-wave (km/s) = 6.57846 7.39831 7.00040
#
# Compressibility (1/GPa) = 0.02234736
#
# Stress axis : x y z
#
# Youngs Moduli (GPa) = 29.94802 43.66968 72.86501
#
# Poissons Ratio (x) = 0.37165 0.82016
# Poissons Ratio (y) = 0.25487 0.29636
# Poissons Ratio (z) = 0.33709 0.17762
#
# Static dielectric constant tensor:
#      x y z
#    x 2.562130 0.000000 0.014710 
#    y 0.000000 3.019480 0.000000 
#    z 0.014710 0.000000 3.496950 
# 
# 
# High freq. dielectric constant tensor:
#      x y z
#    x 1.534650 0.000000 -0.005620 
#    y 0.000000 1.603400 0.000000 
#    z -0.005620 0.000000 1.610180 
# 
# From -- ./inp_files/323664.got.cif
#   From: 2010.06.25/outbox.cif.g09.slc.cpg/sg12_162_cif.got.tgz:323664.got - 2010.06.28 00:19:55.
