data_PCOD8084434
_publ_section_title
;
Structure prediction by ZEFSAII (Michael W. Deem and Ramdas Pophale) SiO2 
 PCOD8084434
Probable space group: C 2/M
;
_chemical_formula_sum "Si O2"
_cell_formula_units_Z 48
_cell_length_a 25.610144
_cell_length_b 20.748509
_cell_length_c 10.921432
_cell_angle_alpha 90.000000
_cell_angle_beta 160.922529
_cell_angle_gamma 90.000000
_cell_volume 1896.802410
_symmetry_space_group_name_H-M "C 2/M"
_symmetry_group_IT_number 12
_symmetry_cell_setting 'monoclinic'
loop_
_space_group_symop_operation_xyz
x,y,z
-x,y,-z
-x,-y,-z
x,-y,z
1/2+x,1/2+y,z
1/2-x,1/2+y,-z
1/2-x,1/2-y,-z
1/2+x,1/2-y,z
loop_
_atom_site_type_symbol
_atom_site_label
_atom_site_fract_x
_atom_site_fract_y
_atom_site_fract_z
Si Si1 0.289089 0.297869 0.977187
Si Si2 0.487692 0.745752 0.204992
Si Si3 0.093486 0.571585 0.826983
Si Si4 0.318376 0.925261 0.598759
Si Si5 0.785736 0.840986 0.419599
Si Si6 0.730283 0.929787 0.780016
O O1 0.299555 0.375101 0.027160
O O2 0.140023 0.292800 0.552735
O O3 0.250000 0.250000 0.000000
O O4 0.450202 0.279174 0.261193
O O5 0.539555 0.687994 0.227245
O O6 0.336946 0.783503 0.816625
O O7 0.166851 0.500000 0.963361
O O8 0.000000 0.597831 0.500000
O O9 0.962804 0.566727 0.644874
O O10 0.226817 0.622571 0.164644
O O11 0.206894 0.889257 0.450564
O O12 0.229211 0.914171 0.271501
O O13 0.319930 0.000000 0.639095
O O14 0.500000 0.898216 0.000000
O O15 0.799932 0.000000 0.973626
#
# Coordination Sequence:
#
# PCOD8084434 Si02
#       6
#     8   8   8   8   8   8
#     4  11  22  41  64  90 126 171 211 259 317 393
#     4  10  24  37  59  89 125 165 214 257 317 381
#     4  10  20  34  60  92 122 159 210 269 320 377
#     4  10  18  35  66  94 122 162 218 273 316 373
#     4  11  21  40  60  91 125 168 211 265 320 383
#     4  10  21  38  63  95 123 162 214 268 321 375
#
# _framework density 25.305745000000002
#
# number of rings (size 3 to 8) (size 9 to 14) (size 15 to 20)
#    0.000    1.667    3.333    1.000    4.667    0.000 
#    0.000   11.667    0.000    4.000    0.000    0.000 
#    0.000    0.000    0.000    0.000    0.000    0.000 
#
# Total GULP energy -297457.831513 kJ/mol
# GULP energy per Si atom -12394.076313 kJ/mol
# Density = 2.524815 g / cm^3
# Si number density = 25.305745 Si / 1000 Ang^3
#
#
#
# Elastic Constant Matrix: (Units=GPa)
#
#
# Indices 1 2 3 4 5 6 
#
# 1 144.9206 70.0643 17.5692 0.0000 10.0634 0.0000
# 2 70.0643 176.2056 27.8486 0.0000 0.7417 0.0000
# 3 17.5692 27.8486 41.3246 0.0000 15.4997 0.0000
# 4 0.0000 0.0000 0.0000 19.9508 0.0000 -6.2377
# 5 10.0634 0.7417 15.4997 0.0000 32.5849 0.0000
# 6 0.0000 0.0000 0.0000 -6.2377 0.0000 49.0088
#
#
#
# Elastic Compliance Matrix: (Units=1/GPa)
#
#
# Indices 1 2 3 4 5 6 
#
# 1 0.008771 -0.003390 -0.000557 0.000000 -0.002367 0.000000
# 2 -0.003390 0.007807 -0.005046 0.000000 0.003269 0.000000
# 3 -0.000557 -0.005046 0.033750 0.000000 -0.015767 0.000000
# 4 0.000000 0.000000 0.000000 0.052201 0.000000 0.006644
# 5 -0.002367 0.003269 -0.015767 0.000000 0.038845 0.000000
# 6 0.000000 0.000000 0.000000 0.006644 0.000000 0.021250
#
#
# Mechanical properties :
#
#
# Convention : Reuss Voigt Hill
#
# Bulk Modulus (GPa) = 30.91964 65.93499 48.42731
# Shear Modulus (GPa) = 26.12468 36.77347 31.44907
#
# Velocity S-wave (km/s) = 3.21652 3.81618 3.52911
# Velocity P-wave (km/s) = 5.10291 6.74756 5.98202
#
# Compressibility (1/GPa) = 0.03234190
#
# Stress axis : x y z
#
# Youngs Moduli (GPa) = 114.01261 128.09441 29.62980
#
# Poissons Ratio (x) = 0.43419 0.01651
# Poissons Ratio (y) = 0.38645 0.14952
# Poissons Ratio (z) = 0.06351 0.64638
#
# Static dielectric constant tensor:
#      x y z
#    x 4.483190 0.000000 0.213460 
#    y 0.000000 4.754520 0.000000 
#    z 0.213460 0.000000 4.087000 
# 
# 
# High freq. dielectric constant tensor:
#      x y z
#    x 2.010040 0.000000 0.007120 
#    y 0.000000 2.022500 0.000000 
#    z 0.007120 0.000000 1.959440 
# 
# From -- ./inp_files/184834.got.cif
#   From: 2010.06.25/outbox.cif.g09.slc.cpg/sg12_93_cif.got.tgz:184834.got - 2010.06.28 00:19:55.
