data_PCOD8084150
_publ_section_title
;
Structure prediction by ZEFSAII (Michael W. Deem and Ramdas Pophale) SiO2 
 PCOD8084150
Probable space group: C 2/M
;
_chemical_formula_sum "Si O2"
_cell_formula_units_Z 64
_cell_length_a 30.502068
_cell_length_b 9.216461
_cell_length_c 22.677947
_cell_angle_alpha 90.000000
_cell_angle_beta 148.353140
_cell_angle_gamma 90.000000
_cell_volume 3344.980921
_symmetry_space_group_name_H-M "C 2/M"
_symmetry_group_IT_number 12
_symmetry_cell_setting 'monoclinic'
loop_
_space_group_symop_operation_xyz
x,y,z
-x,y,-z
-x,-y,-z
x,-y,z
1/2+x,1/2+y,z
1/2-x,1/2+y,-z
1/2-x,1/2-y,-z
1/2+x,1/2-y,z
loop_
_atom_site_type_symbol
_atom_site_label
_atom_site_fract_x
_atom_site_fract_y
_atom_site_fract_z
Si Si1 0.028541 0.670909 0.662208
Si Si2 0.129598 0.833331 0.990676
Si Si3 0.497639 0.172527 0.236083
Si Si4 0.184790 0.672718 0.770180
Si Si5 0.285627 0.830992 0.701621
Si Si6 0.358302 0.170876 0.409753
Si Si7 0.911780 0.165634 0.924211
Si Si8 0.327348 0.830776 0.617321
O O1 0.037901 0.500000 0.678150
O O2 0.009668 0.732527 0.705626
O O3 0.114623 0.735739 0.734310
O O4 0.954295 0.711175 0.532384
O O5 0.224706 0.774711 0.104084
O O6 0.084542 0.816769 0.001683
O O7 0.128420 0.000000 0.968227
O O8 0.080726 0.736092 0.888460
O O9 0.585532 0.227815 0.309793
O O10 0.492642 0.000000 0.226463
O O11 0.181598 0.500000 0.764077
O O12 0.166154 0.729844 0.682901
O O13 0.196709 0.750676 0.603551
O O14 0.342519 0.770661 0.818980
O O15 0.328741 0.798376 0.688498
O O16 0.271279 0.000000 0.695205
O O17 0.342459 0.000000 0.397907
O O18 0.889948 0.000000 0.881538
O O19 0.000000 0.215416 0.000000
O O20 0.250000 0.750000 0.500000
O O21 0.316254 0.000000 0.591080
#
# Coordination Sequence:
#
# PCOD8084150 Si02
#       8
#     8   8   8   8   8   8   8   8
#     4   9  18  32  56  84 106 138 183 231 277 324
#     4  10  20  35  54  79 110 143 180 226 270 317
#     4  10  21  37  54  78 111 145 184 223 267 326
#     4   9  17  32  55  84 111 134 178 235 278 320
#     4  11  22  34  52  80 113 144 176 217 274 328
#     4  10  18  34  59  83 109 141 181 228 277 326
#     4  10  20  35  55  79 105 138 184 227 265 316
#     4  10  22  38  55  79 111 146 184 226 267 318
#
# _framework density 19.133144000000001
#
# number of rings (size 3 to 8) (size 9 to 14) (size 15 to 20)
#    0.000    2.125    1.250    2.250    0.000    5.250 
#    0.000    0.625    0.000    3.000    0.000    0.000 
#    0.000    0.000    0.000    0.000    0.000    0.000 
#
# Total GULP energy -396848.507235 kJ/mol
# GULP energy per Si atom -12401.515851 kJ/mol
# Density = 1.908960 g / cm^3
# Si number density = 19.133144 Si / 1000 Ang^3
#
#
#
# Elastic Constant Matrix: (Units=GPa)
#
#
# Indices 1 2 3 4 5 6 
#
# 1 131.7407 26.8347 62.9120 0.0000 19.3633 0.0000
# 2 26.8347 35.5841 32.3344 0.0000 0.0683 0.0000
# 3 62.9120 32.3344 138.7732 0.0000 9.2299 0.0000
# 4 0.0000 0.0000 0.0000 29.4262 0.0000 -2.2288
# 5 19.3633 0.0683 9.2299 0.0000 38.1564 0.0000
# 6 0.0000 0.0000 0.0000 -2.2288 0.0000 19.4431
#
#
#
# Elastic Compliance Matrix: (Units=1/GPa)
#
#
# Indices 1 2 3 4 5 6 
#
# 1 0.010987 -0.005120 -0.003474 0.000000 -0.004726 0.000000
# 2 -0.005120 0.038184 -0.006854 0.000000 0.004188 0.000000
# 3 -0.003474 -0.006854 0.010427 0.000000 -0.000747 0.000000
# 4 0.000000 0.000000 0.000000 0.034281 0.000000 0.003930
# 5 -0.004726 0.004188 -0.000747 0.000000 0.028780 0.000000
# 6 0.000000 0.000000 0.000000 0.003930 0.000000 0.051883
#
#
# Mechanical properties :
#
#
# Convention : Reuss Voigt Hill
#
# Bulk Modulus (GPa) = 34.84023 61.14003 47.99013
# Shear Modulus (GPa) = 23.25528 29.67294 26.46411
#
# Velocity S-wave (km/s) = 3.49011 3.94238 3.72311
# Velocity P-wave (km/s) = 5.87282 7.26275 6.60445
#
# Compressibility (1/GPa) = 0.02870245
#
# Stress axis : x y z
#
# Youngs Moduli (GPa) = 91.01627 26.18907 95.90036
#
# Poissons Ratio (x) = 0.13409 0.33312
# Poissons Ratio (y) = 0.46602 0.65733
# Poissons Ratio (z) = 0.31615 0.17951
#
# Static dielectric constant tensor:
#      x y z
#    x 3.861780 0.000000 0.173660 
#    y 0.000000 3.155270 0.000000 
#    z 0.173660 0.000000 3.565350 
# 
# 
# High freq. dielectric constant tensor:
#      x y z
#    x 1.756990 0.000000 0.007130 
#    y 0.000000 1.705330 0.000000 
#    z 0.007130 0.000000 1.752410 
# 
# From -- ./inp_files/353489.got.cif
#   From: 2010.06.25/outbox.cif.g09.slc.cpg/sg12_177_cif.got.tgz:353489.got - 2010.06.28 00:19:55.
