data_PCOD8084234
_publ_section_title
;
Structure prediction by ZEFSAII (Michael W. Deem and Ramdas Pophale) SiO2 
 PCOD8084234
Probable space group: C 2/M
;
_chemical_formula_sum "Si O2"
_cell_formula_units_Z 56
_cell_length_a 20.455150
_cell_length_b 17.804112
_cell_length_c 14.760678
_cell_angle_alpha 90.000000
_cell_angle_beta 151.679707
_cell_angle_gamma 90.000000
_cell_volume 2550.198566
_symmetry_space_group_name_H-M "C 2/M"
_symmetry_group_IT_number 12
_symmetry_cell_setting 'monoclinic'
loop_
_space_group_symop_operation_xyz
x,y,z
-x,y,-z
-x,-y,-z
x,-y,z
1/2+x,1/2+y,z
1/2-x,1/2+y,-z
1/2-x,1/2-y,-z
1/2+x,1/2-y,z
loop_
_atom_site_type_symbol
_atom_site_label
_atom_site_fract_x
_atom_site_fract_y
_atom_site_fract_z
Si Si1 0.603156 0.412788 0.339760
Si Si2 0.206738 0.916564 0.064904
Si Si3 0.704284 0.084402 0.265886
Si Si4 0.685948 0.280101 0.330781
Si Si5 0.041196 0.583745 0.747035
Si Si6 0.525143 0.154193 0.913159
Si Si7 0.375015 0.175395 0.407352
O O1 0.637387 0.500000 0.364299
O O2 0.671366 0.385785 0.518273
O O3 0.656343 0.367982 0.315500
O O4 0.442778 0.394857 0.154318
O O5 0.301452 0.915374 0.092136
O O6 0.255449 0.856043 0.197276
O O7 0.206049 0.000000 0.108013
O O8 0.569824 0.086090 0.166277
O O9 0.734035 0.000000 0.267623
O O10 0.675332 0.140477 0.144409
O O11 0.750000 0.250000 0.500000
O O12 0.544588 0.233163 0.140969
O O13 0.794114 0.270590 0.379356
O O14 0.000019 0.500000 0.729818
O O15 0.031280 0.646543 0.812921
O O16 0.944135 0.606327 0.545205
O O17 0.500000 0.214140 0.500000
#
# Coordination Sequence:
#
# PCOD8084234 Si02
#       7
#     8   8   8   8   8   8   8
#     4  10  22  42  63  89 130 171 213 266 321 383
#     4   9  20  37  60  93 129 169 213 259 320 388
#     4  10  20  36  60  87 120 166 221 267 314 371
#     4  12  23  41  63  93 130 163 214 269 328 386
#     4  10  18  34  61  92 129 170 211 264 321 383
#     4  11  21  35  59  90 124 159 215 276 318 372
#     4  10  21  38  62  91 128 169 211 261 322 391
#
# _framework density 21.959074999999999
#
# number of rings (size 3 to 8) (size 9 to 14) (size 15 to 20)
#    0.000    1.714    2.857    2.143    0.000    6.857 
#    0.000    2.857    6.286    3.429    0.000    0.000 
#    0.000    3.429    0.000    0.000    0.000    0.000 
#
# Total GULP energy -346925.081037 kJ/mol
# GULP energy per Si atom -12390.181466 kJ/mol
# Density = 2.190909 g / cm^3
# Si number density = 21.959075 Si / 1000 Ang^3
#
#
#
# Elastic Constant Matrix: (Units=GPa)
#
#
# Indices 1 2 3 4 5 6 
#
# 1 109.8450 42.4948 43.9624 0.0000 -4.0017 0.0000
# 2 42.4948 85.7124 34.5542 0.0000 -2.1280 0.0000
# 3 43.9624 34.5542 144.4352 0.0000 -5.6489 0.0000
# 4 0.0000 0.0000 0.0000 29.6831 0.0000 -3.8730
# 5 -4.0017 -2.1280 -5.6489 0.0000 28.8964 0.0000
# 6 0.0000 0.0000 0.0000 -3.8730 0.0000 29.5390
#
#
#
# Elastic Compliance Matrix: (Units=1/GPa)
#
#
# Indices 1 2 3 4 5 6 
#
# 1 0.012030 -0.004959 -0.002443 0.000000 0.000823 0.000000
# 2 -0.004959 0.014960 -0.002069 0.000000 0.000010 0.000000
# 3 -0.002443 -0.002069 0.008206 0.000000 0.001113 0.000000
# 4 0.000000 0.000000 0.000000 0.034276 0.000000 0.004494
# 5 0.000823 0.000010 0.001113 0.000000 0.034939 0.000000
# 6 0.000000 0.000000 0.000000 0.004494 0.000000 0.034443
#
#
# Mechanical properties :
#
#
# Convention : Reuss Voigt Hill
#
# Bulk Modulus (GPa) = 61.52624 64.66836 63.09730
# Shear Modulus (GPa) = 30.63486 32.22243 31.42864
#
# Velocity S-wave (km/s) = 3.73914 3.83480 3.78727
# Velocity P-wave (km/s) = 6.83528 7.00864 6.92250
#
# Compressibility (1/GPa) = 0.01625323
#
# Stress axis : x y z
#
# Youngs Moduli (GPa) = 83.12621 66.84535 121.86664
#
# Poissons Ratio (x) = 0.33148 0.29773
# Poissons Ratio (y) = 0.41221 0.25216
# Poissons Ratio (z) = 0.20308 0.13832
#
# Static dielectric constant tensor:
#      x y z
#    x 3.885600 0.000000 -0.089290 
#    y 0.000000 4.034890 0.000000 
#    z -0.089290 0.000000 4.232680 
# 
# 
# High freq. dielectric constant tensor:
#      x y z
#    x 1.839720 0.000000 -0.010030 
#    y 0.000000 1.850630 0.000000 
#    z -0.010030 0.000000 1.876340 
# 
# From -- ./inp_files/234716.got.cif
#   From: 2010.06.25/outbox.cif.g09.slc.cpg/sg12_118_cif.got.tgz:234716.got - 2010.06.28 00:19:55.
