data_PCOD8084713
_publ_section_title
;
Structure prediction by ZEFSAII (Michael W. Deem and Ramdas Pophale) SiO2 
 PCOD8084713
Probable space group: C 2/M
;
_chemical_formula_sum "Si O2"
_cell_formula_units_Z 56
_cell_length_a 29.167196
_cell_length_b 8.981934
_cell_length_c 17.564792
_cell_angle_alpha 90.000000
_cell_angle_beta 48.956918
_cell_angle_gamma 90.000000
_cell_volume 3470.590131
_symmetry_space_group_name_H-M "C 2/M"
_symmetry_group_IT_number 12
_symmetry_cell_setting 'monoclinic'
loop_
_space_group_symop_operation_xyz
x,y,z
-x,y,-z
-x,-y,-z
x,-y,z
1/2+x,1/2+y,z
1/2-x,1/2+y,-z
1/2-x,1/2-y,-z
1/2+x,1/2-y,z
loop_
_atom_site_type_symbol
_atom_site_label
_atom_site_fract_x
_atom_site_fract_y
_atom_site_fract_z
Si Si1 0.922571 0.827586 0.212726
Si Si2 0.593487 0.824771 0.921628
Si Si3 0.242537 0.670764 0.117791
Si Si4 0.845843 0.325666 0.913916
Si Si5 0.050679 0.827958 0.120775
Si Si6 0.282824 0.330197 0.232539
Si Si7 0.211565 0.170579 0.605466
O O1 0.939246 0.733951 0.119054
O O2 0.858502 0.771370 0.317809
O O3 0.977826 0.807045 0.212833
O O4 0.915832 0.000000 0.195901
O O5 0.664350 0.786775 0.840070
O O6 0.583614 0.000000 0.939783
O O7 0.565998 0.745026 0.024161
O O8 0.258489 0.500000 0.080462
O O9 0.180878 0.715821 0.140500
O O10 0.232953 0.692710 0.219481
O O11 0.299290 0.769536 0.029093
O O12 0.855017 0.500000 0.915011
O O13 0.911531 0.248656 0.852159
O O14 0.069003 0.000000 0.098503
O O15 0.308286 0.500000 0.201324
O O16 0.256973 0.301702 0.345796
O O17 0.250000 0.250000 0.500000
O O18 0.212354 0.000000 0.581702
#
# Coordination Sequence:
#
# PCOD8084713 Si02
#       7
#     8   8   8   8   8   8   8
#     4   9  20  35  48  62  86 123 159 183 218 283
#     4  11  20  28  42  67  94 119 152 194 229 258
#     4   9  17  30  46  63  89 127 160 187 225 270
#     4  10  19  28  42  67  94 120 157 199 228 255
#     4  11  20  31  45  61  88 129 162 183 219 270
#     4   9  17  31  49  66  90 126 159 182 218 280
#     4   9  18  33  51  71  91 112 145 189 233 278
#
# _framework density 16.135584000000001
#
# number of rings (size 3 to 8) (size 9 to 14) (size 15 to 20)
#    0.000    2.286    1.429    3.429    0.000    5.714 
#    0.000    0.000    0.000    0.000    0.000    1.000 
#    0.000    8.000    0.000    0.000    0.000    0.000 
#
# Total GULP energy -346992.749658 kJ/mol
# GULP energy per Si atom -12392.598202 kJ/mol
# Density = 1.609886 g / cm^3
# Si number density = 16.135584 Si / 1000 Ang^3
#
#
#
# Elastic Constant Matrix: (Units=GPa)
#
#
# Indices 1 2 3 4 5 6 
#
# 1 146.4355 41.9656 49.1284 0.0000 2.8259 -0.0001
# 2 41.9656 71.8998 23.1438 -0.0005 -0.6478 0.0003
# 3 49.1284 23.1438 63.1031 -0.0001 6.6618 0.0001
# 4 0.0000 -0.0005 -0.0001 20.4447 0.0000 0.6351
# 5 2.8259 -0.6478 6.6618 0.0000 16.4578 0.0000
# 6 -0.0001 0.0003 0.0001 0.6351 0.0000 25.5926
#
#
#
# Elastic Compliance Matrix: (Units=1/GPa)
#
#
# Indices 1 2 3 4 5 6 
#
# 1 0.010096 -0.003775 -0.006557 0.000000 0.000772 0.000000
# 2 -0.003775 0.017334 -0.003718 0.000000 0.002835 0.000000
# 3 -0.006557 -0.003718 0.023204 0.000000 -0.008413 0.000000
# 4 0.000000 0.000000 0.000000 0.048950 0.000000 -0.001215
# 5 0.000772 0.002835 -0.008413 0.000000 0.064146 0.000000
# 6 0.000000 0.000000 0.000000 -0.001215 0.000000 0.039104
#
#
# Mechanical properties :
#
#
# Convention : Reuss Voigt Hill
#
# Bulk Modulus (GPa) = 44.37765 56.65710 50.51738
# Shear Modulus (GPa) = 20.96930 23.64572 22.30751
#
# Velocity S-wave (km/s) = 3.60886 3.83226 3.72224
# Velocity P-wave (km/s) = 6.70283 7.40074 7.06041
#
# Compressibility (1/GPa) = 0.02253386
#
# Stress axis : x y z
#
# Youngs Moduli (GPa) = 99.05217 57.69069 43.09682
#
# Poissons Ratio (x) = 0.21778 0.28258
# Poissons Ratio (y) = 0.37392 0.16022
# Poissons Ratio (z) = 0.64948 0.21448
#
# Static dielectric constant tensor:
#      x y z
#    x 3.440460 0.000000 -0.003860 
#    y 0.000000 3.094270 0.000000 
#    z -0.003860 0.000000 2.712680 
# 
# 
# High freq. dielectric constant tensor:
#      x y z
#    x 1.631580 0.000000 0.001260 
#    y 0.000000 1.626650 0.000000 
#    z 0.001260 0.000000 1.562740 
# 
# From -- ./inp_files/287892.got.cif
#   From: 2010.06.25/outbox.cif.g09.slc.cpg/sg12_144_cif.got.tgz:287892.got - 2010.06.28 00:19:55.
