data_PCOD8084350
_publ_section_title
;
Structure prediction by ZEFSAII (Michael W. Deem and Ramdas Pophale) SiO2 
 PCOD8084350
Probable space group: C 2/M
;
_chemical_formula_sum "Si O2"
_cell_formula_units_Z 64
_cell_length_a 30.551807
_cell_length_b 8.722420
_cell_length_c 16.284472
_cell_angle_alpha 90.000000
_cell_angle_beta 132.475557
_cell_angle_gamma 90.000000
_cell_volume 3200.723535
_symmetry_space_group_name_H-M "C 2/M"
_symmetry_group_IT_number 12
_symmetry_cell_setting 'monoclinic'
loop_
_space_group_symop_operation_xyz
x,y,z
-x,y,-z
-x,-y,-z
x,-y,z
1/2+x,1/2+y,z
1/2-x,1/2+y,-z
1/2-x,1/2-y,-z
1/2+x,1/2-y,z
loop_
_atom_site_type_symbol
_atom_site_label
_atom_site_fract_x
_atom_site_fract_y
_atom_site_fract_z
Si Si1 0.338950 0.180379 0.779356
Si Si2 0.835600 0.321584 0.295606
Si Si3 0.992224 0.682502 0.240326
Si Si4 0.119668 0.318946 0.345347
Si Si5 0.455527 0.816988 0.373952
Si Si6 0.788839 0.679270 0.407256
Si Si7 0.611109 0.681590 0.993320
Si Si8 0.771470 0.818833 0.943474
O O1 0.373050 0.229897 0.739681
O O2 0.270519 0.226453 0.683969
O O3 0.342698 0.000000 0.799584
O O4 0.373242 0.266161 0.895170
O O5 0.839139 0.500000 0.280805
O O6 0.891663 0.247301 0.319587
O O7 0.835843 0.291388 0.393143
O O8 0.773830 0.256127 0.182631
O O9 0.990466 0.500000 0.236084
O O10 0.973183 0.745399 0.306078
O O11 0.949272 0.743727 0.114731
O O12 0.057881 0.746413 0.302735
O O13 0.119130 0.500000 0.355361
O O14 0.176865 0.258156 0.468860
O O15 0.500000 0.755857 0.500000
O O16 0.456079 0.000000 0.373277
O O17 0.771682 0.500000 0.390959
O O18 0.604812 0.500000 0.985314
O O19 0.663173 0.738575 0.998040
O O20 0.770604 0.000000 0.948147
O O21 0.750000 0.750000 0.000000
#
# Coordination Sequence:
#
# PCOD8084350 Si02
#       8
#     8   8   8   8   8   8   8   8
#     4  11  22  37  57  84 114 146 192 242 287 337
#     4   9  16  28  48  75 107 140 173 213 267 325
#     4  10  20  37  59  84 114 150 193 237 282 334
#     4   9  20  36  58  85 112 148 190 237 290 340
#     4   9  16  27  50  84 114 141 180 225 269 328
#     4  10  18  35  59  83 116 150 183 230 289 347
#     4  11  23  40  58  80 113 152 191 234 288 341
#     4  10  20  34  52  77 106 141 182 224 270 328
#
# _framework density 19.995477999999999
#
# number of rings (size 3 to 8) (size 9 to 14) (size 15 to 20)
#    0.000    2.125    1.250    2.625    0.000    5.500 
#    0.000    5.000    0.000    0.375    0.000    0.000 
#    0.000    0.000    0.000    0.000    0.000    0.000 
#
# Total GULP energy -396726.049828 kJ/mol
# GULP energy per Si atom -12397.689057 kJ/mol
# Density = 1.994997 g / cm^3
# Si number density = 19.995478 Si / 1000 Ang^3
#
#
#
# Elastic Constant Matrix: (Units=GPa)
#
#
# Indices 1 2 3 4 5 6 
#
# 1 113.9282 14.5599 42.4968 0.0000 -0.4268 0.0000
# 2 14.5599 19.0782 12.4212 0.0000 -1.0687 0.0000
# 3 42.4968 12.4212 134.6700 0.0000 0.2003 0.0000
# 4 0.0000 0.0000 0.0000 24.9111 0.0000 0.6526
# 5 -0.4268 -1.0687 0.2003 0.0000 36.4484 0.0000
# 6 0.0000 0.0000 0.0000 0.6526 0.0000 20.6519
#
#
#
# Elastic Compliance Matrix: (Units=1/GPa)
#
#
# Indices 1 2 3 4 5 6 
#
# 1 0.010615 -0.006301 -0.002769 0.000000 -0.000045 0.000000
# 2 -0.006301 0.059606 -0.003512 0.000000 0.001693 0.000000
# 3 -0.002769 -0.003512 0.008623 0.000000 -0.000183 0.000000
# 4 0.000000 0.000000 0.000000 0.040176 0.000000 -0.001270
# 5 -0.000045 0.001693 -0.000183 0.000000 0.027486 0.000000
# 6 0.000000 0.000000 0.000000 -0.001270 0.000000 0.048462
#
#
# Mechanical properties :
#
#
# Convention : Reuss Voigt Hill
#
# Bulk Modulus (GPa) = 18.62835 45.18134 31.90485
# Shear Modulus (GPa) = 21.00612 29.61552 25.31082
#
# Velocity S-wave (km/s) = 3.24473 3.85270 3.56171
# Velocity P-wave (km/s) = 4.83468 6.51428 5.73629
#
# Compressibility (1/GPa) = 0.05368161
#
# Stress axis : x y z
#
# Youngs Moduli (GPa) = 94.20382 16.77677 115.96380
#
# Poissons Ratio (x) = 0.10572 0.32105
# Poissons Ratio (y) = 0.59361 0.40724
# Poissons Ratio (z) = 0.26080 0.05892
#
# Static dielectric constant tensor:
#      x y z
#    x 3.869200 0.000000 0.006870 
#    y 0.000000 3.186790 0.000000 
#    z 0.006870 0.000000 3.892460 
# 
# 
# High freq. dielectric constant tensor:
#      x y z
#    x 1.793230 0.000000 -0.002600 
#    y 0.000000 1.731880 0.000000 
#    z -0.002600 0.000000 1.794350 
# 
# From -- ./inp_files/249964.got.cif
#   From: 2010.06.25/outbox.cif.g09.slc.cpg/sg12_125_cif.got.tgz:249964.got - 2010.06.28 00:19:55.
