data_PCOD8084577
_publ_section_title
;
Structure prediction by ZEFSAII (Michael W. Deem and Ramdas Pophale) SiO2 
 PCOD8084577
Probable space group: C 2/M
;
_chemical_formula_sum "Si O2"
_cell_formula_units_Z 64
_cell_length_a 18.944237
_cell_length_b 31.563989
_cell_length_c 9.211813
_cell_angle_alpha 90.000000
_cell_angle_beta 143.503851
_cell_angle_gamma 90.000000
_cell_volume 3276.138559
_symmetry_space_group_name_H-M "C 2/M"
_symmetry_group_IT_number 12
_symmetry_cell_setting 'monoclinic'
loop_
_space_group_symop_operation_xyz
x,y,z
-x,y,-z
-x,-y,-z
x,-y,z
1/2+x,1/2+y,z
1/2-x,1/2+y,-z
1/2-x,1/2-y,-z
1/2+x,1/2-y,z
loop_
_atom_site_type_symbol
_atom_site_label
_atom_site_fract_x
_atom_site_fract_y
_atom_site_fract_z
Si Si1 0.877596 0.902537 0.877724
Si Si2 0.296110 0.236784 0.922341
Si Si3 0.263546 0.450330 0.425764
Si Si4 0.028963 0.093814 0.379721
Si Si5 0.900289 0.384490 0.943939
Si Si6 0.499159 0.173144 0.671420
Si Si7 0.268297 0.314976 0.686872
Si Si8 0.673023 0.328013 0.533801
O O1 0.796846 0.932392 0.641897
O O2 0.805388 0.861073 0.802656
O O3 0.000000 0.890480 0.000000
O O4 0.915917 0.922478 0.096925
O O5 0.326268 0.278541 0.880709
O O6 0.188883 0.209537 0.675055
O O7 0.250000 0.250000 0.000000
O O8 0.415093 0.209848 0.129650
O O9 0.251258 0.500000 0.421539
O O10 0.363768 0.438255 0.474618
O O11 0.137174 0.433171 0.152122
O O12 0.058958 0.142805 0.383024
O O13 0.000000 0.091502 0.500000
O O14 0.781563 0.360002 0.711367
O O15 0.950466 0.372483 0.187006
O O16 0.000000 0.368436 0.000000
O O17 0.500000 0.170489 0.500000
O O18 0.373787 0.186117 0.532592
O O19 0.324330 0.306919 0.620684
#
# Coordination Sequence:
#
# PCOD8084577 Si02
#       8
#     8   8   8   8   8   8   8   8
#     4  10  20  39  61  91 118 159 209 251 313 370
#     4  11  25  38  56  87 123 161 207 258 306 360
#     4  10  21  39  63  94 129 155 202 258 306 384
#     4  10  22  38  63  91 125 164 206 252 317 371
#     4  10  18  37  64  87 117 158 205 248 306 371
#     4  11  23  40  61  86 123 166 206 255 311 366
#     4  12  21  41  61  84 121 158 210 261 304 369
#     4  10  21  40  58  87 117 160 210 257 302 365
#
# _framework density 19.535193
#
# number of rings (size 3 to 8) (size 9 to 14) (size 15 to 20)
#    0.000    1.500    6.250    0.375    1.750    4.750 
#    2.250    0.000    0.000    0.375    0.000    0.000 
#    0.000    0.000    0.000    0.000    0.000    0.000 
#
# Total GULP energy -396542.543718 kJ/mol
# GULP energy per Si atom -12391.954491 kJ/mol
# Density = 1.949073 g / cm^3
# Si number density = 19.535193 Si / 1000 Ang^3
#
#
#
# Elastic Constant Matrix: (Units=GPa)
#
#
# Indices 1 2 3 4 5 6 
#
# 1 80.2344 29.0487 45.5225 0.0000 -27.1924 0.0000
# 2 29.0487 122.9668 46.2278 0.0000 -15.5885 0.0000
# 3 45.5225 46.2278 103.6114 0.0000 -22.4460 0.0000
# 4 0.0000 0.0000 0.0000 9.5725 0.0000 -3.9838
# 5 -27.1924 -15.5885 -22.4460 0.0000 37.4100 0.0000
# 6 0.0000 0.0000 0.0000 -3.9838 0.0000 14.0656
#
#
#
# Elastic Compliance Matrix: (Units=1/GPa)
#
#
# Indices 1 2 3 4 5 6 
#
# 1 0.019733 -0.001123 -0.005934 0.000000 0.010315 0.000000
# 2 -0.001123 0.009927 -0.003697 0.000000 0.001102 0.000000
# 3 -0.005934 -0.003697 0.014528 0.000000 0.002863 0.000000
# 4 0.000000 0.000000 0.000000 0.118425 0.000000 0.033542
# 5 0.010315 0.001102 0.002863 0.000000 0.036406 0.000000
# 6 0.000000 0.000000 0.000000 0.033542 0.000000 0.080596
#
#
# Mechanical properties :
#
#
# Convention : Reuss Voigt Hill
#
# Bulk Modulus (GPa) = 44.09177 60.93451 52.51314
# Shear Modulus (GPa) = 16.19786 24.61052 20.40419
#
# Velocity S-wave (km/s) = 2.88264 3.55322 3.23535
# Velocity P-wave (km/s) = 5.80508 6.93496 6.39502
#
# Compressibility (1/GPa) = 0.02267997
#
# Stress axis : x y z
#
# Youngs Moduli (GPa) = 50.67727 100.73428 68.83083
#
# Poissons Ratio (x) = 0.11313 0.40845
# Poissons Ratio (y) = 0.05691 0.25446
# Poissons Ratio (z) = 0.30072 0.37241
#
# Static dielectric constant tensor:
#      x y z
#    x 3.532700 0.000000 -0.064050 
#    y 0.000000 3.196910 0.000000 
#    z -0.064050 0.000000 4.031260 
# 
# 
# High freq. dielectric constant tensor:
#      x y z
#    x 1.751470 0.000000 -0.005950 
#    y 0.000000 1.739840 0.000000 
#    z -0.005950 0.000000 1.773580 
# 
# From -- ./inp_files/80747.got.cif
#   From: 2010.06.25/outbox.cif.g09.slc.cpg/sg12_41_cif.got.tgz:80747.got - 2010.06.28 00:19:55.
