data_PCOD8085583
_publ_section_title
;
Structure prediction by ZEFSAII (Michael W. Deem and Ramdas Pophale) SiO2 
 PCOD8085583
Probable space group: C 2/M
;
_chemical_formula_sum "Si O2"
_cell_formula_units_Z 48
_cell_length_a 23.861156
_cell_length_b 8.767348
_cell_length_c 17.415329
_cell_angle_alpha 90.000000
_cell_angle_beta 46.182550
_cell_angle_gamma 90.000000
_cell_volume 2628.799575
_symmetry_space_group_name_H-M "C 2/M"
_symmetry_group_IT_number 12
_symmetry_cell_setting 'monoclinic'
loop_
_space_group_symop_operation_xyz
x,y,z
-x,y,-z
-x,-y,-z
x,-y,z
1/2+x,1/2+y,z
1/2-x,1/2+y,-z
1/2-x,1/2-y,-z
1/2+x,1/2-y,z
loop_
_atom_site_type_symbol
_atom_site_label
_atom_site_fract_x
_atom_site_fract_y
_atom_site_fract_z
Si Si1 0.440236 0.836421 0.120460
Si Si2 0.633223 0.680288 0.611438
Si Si3 0.282537 0.820140 0.196190
Si Si4 0.977829 0.824244 0.827759
Si Si5 0.805018 0.182179 0.011798
Si Si6 0.739098 0.821435 0.387302
O O1 0.365383 0.768893 0.149931
O O2 0.477616 0.705286 0.135851
O O3 0.422313 0.000000 0.180732
O O4 0.500000 0.881539 0.000000
O O5 0.643298 0.500000 0.588000
O O6 0.541569 0.728490 0.703445
O O7 0.666959 0.772510 0.508277
O O8 0.680030 0.725591 0.645799
O O9 0.271451 0.737052 0.125446
O O10 0.225629 0.761583 0.317885
O O11 0.272610 0.000000 0.192804
O O12 0.962024 0.000000 0.832502
O O13 0.891803 0.748946 0.910520
O O14 0.803906 0.000000 0.011084
O O15 0.750000 0.250000 0.000000
O O16 0.735978 0.000000 0.375595
#
# Coordination Sequence:
#
# PCOD8085583 Si02
#       6
#     8   8   8   8   8   8
#     4  10  19  30  47  77 111 141 173 213 264 320
#     4   9  18  32  49  75 112 147 179 214 258 316
#     4  11  21  34  54  79 111 146 179 218 267 320
#     4  10  20  34  54  78 107 143 179 218 264 319
#     4  11  24  40  58  79 105 140 183 228 274 320
#     4  10  19  31  50  78 112 147 181 215 259 315
#
# _framework density 18.259284999999998
#
# number of rings (size 3 to 8) (size 9 to 14) (size 15 to 20)
#    0.000    1.833    3.333    1.500    0.000    3.000 
#    0.000    0.000    0.000    1.000    0.000    7.000 
#    0.000    0.000    0.000    0.000    0.000    0.000 
#
# Total GULP energy -297320.609600 kJ/mol
# GULP energy per Si atom -12388.358733 kJ/mol
# Density = 1.821773 g / cm^3
# Si number density = 18.259285 Si / 1000 Ang^3
#
#
#
# Elastic Constant Matrix: (Units=GPa)
#
#
# Indices 1 2 3 4 5 6 
#
# 1 90.1767 28.6210 55.8257 -0.0008 14.0565 0.0004
# 2 28.6210 53.6134 43.0678 0.0035 4.4512 -0.0003
# 3 55.8257 43.0678 115.1624 0.0009 13.1957 -0.0007
# 4 -0.0008 0.0035 0.0009 29.7751 0.0001 6.0298
# 5 14.0565 4.4512 13.1957 0.0001 18.7948 -0.0001
# 6 0.0004 -0.0003 -0.0007 6.0298 -0.0001 25.4522
#
#
#
# Elastic Compliance Matrix: (Units=1/GPa)
#
#
# Indices 1 2 3 4 5 6 
#
# 1 0.017232 -0.003658 -0.006099 0.000001 -0.007740 -0.000001
# 2 -0.003658 0.027448 -0.008765 -0.000003 0.002389 0.000001
# 3 -0.006099 -0.008765 0.015396 0.000000 -0.004172 0.000000
# 4 0.000001 -0.000003 0.000000 0.035278 -0.000001 -0.008358
# 5 -0.007740 0.002389 -0.004172 -0.000001 0.061358 0.000000
# 6 -0.000001 0.000001 0.000000 -0.008358 0.000000 0.041269
#
#
# Mechanical properties :
#
#
# Convention : Reuss Voigt Hill
#
# Bulk Modulus (GPa) = 43.41741 57.10905 50.26323
# Shear Modulus (GPa) = 20.60144 23.56695 22.08419
#
# Velocity S-wave (km/s) = 3.36262 3.59650 3.48153
# Velocity P-wave (km/s) = 6.23748 6.97073 6.61427
#
# Compressibility (1/GPa) = 0.02303223
#
# Stress axis : x y z
#
# Youngs Moduli (GPa) = 58.03096 36.43314 64.95229
#
# Poissons Ratio (x) = 0.13325 0.39613
# Poissons Ratio (y) = 0.21225 0.56933
# Poissons Ratio (z) = 0.35392 0.31935
#
# Static dielectric constant tensor:
#      x y z
#    x 3.108980 0.000000 -0.150550 
#    y 0.000000 3.342840 0.000000 
#    z -0.150550 0.000000 3.677870 
# 
# 
# High freq. dielectric constant tensor:
#      x y z
#    x 1.661010 0.000000 -0.003380 
#    y 0.000000 1.711350 0.000000 
#    z -0.003380 0.000000 1.721260 
# 
# From -- ./inp_files/280797.got.cif
#   From: 2010.06.25/outbox.cif.g09.slc.cpg/sg12_141_cif.got.tgz:280797.got - 2010.06.28 00:19:55.
