data_PCOD8085081
_publ_section_title
;
Structure prediction by ZEFSAII (Michael W. Deem and Ramdas Pophale) SiO2 
 PCOD8085081
Probable space group: C 2/M
;
_chemical_formula_sum "Si O2"
_cell_formula_units_Z 56
_cell_length_a 24.675363
_cell_length_b 23.258981
_cell_length_c 14.722069
_cell_angle_alpha 90.000000
_cell_angle_beta 159.754604
_cell_angle_gamma 90.000000
_cell_volume 2923.825701
_symmetry_space_group_name_H-M "C 2/M"
_symmetry_group_IT_number 12
_symmetry_cell_setting 'monoclinic'
loop_
_space_group_symop_operation_xyz
x,y,z
-x,y,-z
-x,-y,-z
x,-y,z
1/2+x,1/2+y,z
1/2-x,1/2+y,-z
1/2-x,1/2-y,-z
1/2+x,1/2-y,z
loop_
_atom_site_type_symbol
_atom_site_label
_atom_site_fract_x
_atom_site_fract_y
_atom_site_fract_z
Si Si1 0.443012 0.184879 0.310746
Si Si2 0.410808 0.345348 0.783619
Si Si3 0.066150 0.434451 0.002994
Si Si4 0.909300 0.271323 0.941635
Si Si5 0.412976 0.320378 0.272169
Si Si6 0.845354 0.854926 0.482013
Si Si7 0.916853 0.343347 0.651487
O O1 0.500000 0.164615 0.500000
O O2 0.440743 0.253204 0.301076
O O3 0.564410 0.157666 0.428312
O O4 0.269015 0.161938 0.014128
O O5 0.377575 0.375365 0.636219
O O6 0.252321 0.320896 0.580471
O O7 0.500000 0.385731 0.000000
O O8 0.541620 0.294958 0.975542
O O9 0.093043 0.500000 0.016159
O O10 0.230367 0.400992 0.255905
O O11 0.000000 0.429603 0.000000
O O12 0.946564 0.406520 0.741689
O O13 0.727385 0.289378 0.638149
O O14 0.000000 0.302104 0.000000
O O15 0.954349 0.299211 0.108236
O O16 0.500000 0.340964 0.500000
O O17 0.490395 0.355150 0.311059
#
# Coordination Sequence:
#
# PCOD8085081 Si02
#       7
#     8   8   8   8   8   8   8
#     4  10  23  36  51  79 114 165 195 218 272 338
#     4  11  23  28  48  84 113 148 179 218 282 342
#     4  10  20  38  64  86 107 138 183 239 298 345
#     4  10  19  29  47  78 110 144 177 221 276 324
#     4  10  21  36  53  77 115 159 200 228 266 324
#     4  11  20  36  54  80 116 143 189 238 276 330
#     4  11  19  37  54  76 113 141 189 231 274 337
#
# _framework density 19.152988000000001
#
# number of rings (size 3 to 8) (size 9 to 14) (size 15 to 20)
#    0.000    1.571    2.857    3.857    8.000    1.143 
#    0.000    0.000    0.000    6.000    0.000    0.000 
#    0.000    0.000    0.000    0.000    0.000    0.000 
#
# Total GULP energy -346945.954848 kJ/mol
# GULP energy per Si atom -12390.926959 kJ/mol
# Density = 1.910940 g / cm^3
# Si number density = 19.152988 Si / 1000 Ang^3
#
#
#
# Elastic Constant Matrix: (Units=GPa)
#
#
# Indices 1 2 3 4 5 6 
#
# 1 128.4624 8.5934 33.6513 0.0000 -7.6176 0.0000
# 2 8.5934 51.3338 8.5926 0.0000 -0.4054 0.0000
# 3 33.6513 8.5926 82.2148 0.0000 -11.5007 0.0000
# 4 0.0000 0.0000 0.0000 9.6918 0.0000 0.0335
# 5 -7.6176 -0.4054 -11.5007 0.0000 38.7273 0.0000
# 6 0.0000 0.0000 0.0000 0.0335 0.0000 15.2294
#
#
#
# Elastic Compliance Matrix: (Units=1/GPa)
#
#
# Indices 1 2 3 4 5 6 
#
# 1 0.008777 -0.000895 -0.003400 0.000000 0.000707 0.000000
# 2 -0.000895 0.019925 -0.001786 0.000000 -0.000498 0.000000
# 3 -0.003400 -0.001786 0.014237 0.000000 0.003540 0.000000
# 4 0.000000 0.000000 0.000000 0.103181 0.000000 -0.000227
# 5 0.000707 -0.000498 0.003540 0.000000 0.027007 0.000000
# 6 0.000000 0.000000 0.000000 -0.000227 0.000000 0.065663
#
#
# Mechanical properties :
#
#
# Convention : Reuss Voigt Hill
#
# Bulk Modulus (GPa) = 32.49096 40.40951 36.45024
# Shear Modulus (GPa) = 19.14168 26.80793 22.97480
#
# Velocity S-wave (km/s) = 3.16477 3.74528 3.46720
# Velocity P-wave (km/s) = 5.50955 6.31244 5.92461
#
# Compressibility (1/GPa) = 0.03077779
#
# Stress axis : x y z
#
# Youngs Moduli (GPa) = 113.93661 50.18794 70.24038
#
# Poissons Ratio (x) = 0.04490 0.23882
# Poissons Ratio (y) = 0.10192 0.12544
# Poissons Ratio (z) = 0.38738 0.08963
#
# Static dielectric constant tensor:
#      x y z
#    x 3.678750 0.000000 -0.252360 
#    y 0.000000 2.994800 0.000000 
#    z -0.252360 0.000000 3.755230 
# 
# 
# High freq. dielectric constant tensor:
#      x y z
#    x 1.753580 0.000000 -0.008930 
#    y 0.000000 1.666340 0.000000 
#    z -0.008930 0.000000 1.758170 
# 
# From -- ./inp_files/242184.got.cif
#   From: 2010.06.25/outbox.cif.g09.slc.cpg/sg12_122_cif.got.tgz:242184.got - 2010.06.28 00:19:55.
