data_PCOD8085622
_publ_section_title
;
Structure prediction by ZEFSAII (Michael W. Deem and Ramdas Pophale) SiO2 
 PCOD8085622
Probable space group: C 2/M
;
_chemical_formula_sum "Si O2"
_cell_formula_units_Z 40
_cell_length_a 21.143896
_cell_length_b 10.231384
_cell_length_c 13.423569
_cell_angle_alpha 90.000000
_cell_angle_beta 51.654970
_cell_angle_gamma 90.000000
_cell_volume 2277.527025
_symmetry_space_group_name_H-M "C 2/M"
_symmetry_group_IT_number 12
_symmetry_cell_setting 'monoclinic'
loop_
_space_group_symop_operation_xyz
x,y,z
-x,y,-z
-x,-y,-z
x,-y,z
1/2+x,1/2+y,z
1/2-x,1/2+y,-z
1/2-x,1/2-y,-z
1/2+x,1/2-y,z
loop_
_atom_site_type_symbol
_atom_site_label
_atom_site_fract_x
_atom_site_fract_y
_atom_site_fract_z
Si Si1 0.449712 0.349940 0.146164
Si Si2 0.845821 0.759718 0.523645
Si Si3 0.083725 0.355979 0.360951
Si Si4 0.826875 0.643555 0.333489
Si Si5 0.013987 0.854256 0.296026
O O1 0.418941 0.500000 0.172734
O O2 0.372335 0.255929 0.227200
O O3 0.507111 0.327185 0.185049
O O4 0.500000 0.312500 0.000000
O O5 0.847367 0.684535 0.627683
O O6 0.841715 0.656886 0.437129
O O7 0.767894 0.851487 0.597591
O O8 0.926167 0.846719 0.433429
O O9 0.104264 0.500000 0.296960
O O10 0.000000 0.362035 0.500000
O O11 0.077126 0.250863 0.278205
O O12 0.858524 0.500000 0.271035
O O13 0.047834 0.000000 0.282988
#
# Coordination Sequence:
#
# PCOD8085622 Si02
#       5
#     8   8   8   8   8
#     4   9  19  35  51  67  91 124 158 192 236 284
#     4   9  18  29  45  69 101 128 149 179 231 286
#     4   9  17  28  43  65  95 127 153 180 221 274
#     4  10  19  30  48  73  97 122 156 196 231 270
#     4   9  17  29  47  69  92 121 155 189 225 270
#
# _framework density 17.562909000000001
#
# number of rings (size 3 to 8) (size 9 to 14) (size 15 to 20)
#    0.000    2.800    0.000    1.200    0.000   15.200 
#    0.000    0.000    0.000    1.200    0.000    0.000 
#    0.000    0.000    0.000    0.000    0.000    0.000 
#
# Total GULP energy -247941.211943 kJ/mol
# GULP energy per Si atom -12397.060597 kJ/mol
# Density = 1.752294 g / cm^3
# Si number density = 17.562909 Si / 1000 Ang^3
#
#
#
# Elastic Constant Matrix: (Units=GPa)
#
#
# Indices 1 2 3 4 5 6 
#
# 1 87.8720 49.7572 31.2415 0.0000 12.6664 0.0000
# 2 49.7572 138.1109 45.8118 0.0001 12.4329 0.0000
# 3 31.2415 45.8118 72.4733 0.0000 12.4929 0.0000
# 4 0.0000 0.0001 0.0000 15.6985 0.0000 0.1085
# 5 12.6664 12.4329 12.4929 0.0000 16.2022 0.0000
# 6 0.0000 0.0000 0.0000 0.1085 0.0000 14.2487
#
#
#
# Elastic Compliance Matrix: (Units=1/GPa)
#
#
# Indices 1 2 3 4 5 6 
#
# 1 0.015741 -0.004043 -0.003049 0.000000 -0.006853 0.000000
# 2 -0.004043 0.010324 -0.004570 0.000000 -0.001238 0.000000
# 3 -0.003049 -0.004570 0.019590 0.000000 -0.009215 0.000000
# 4 0.000000 0.000000 0.000000 0.063704 0.000000 -0.000485
# 5 -0.006853 -0.001238 -0.009215 0.000000 0.075133 0.000000
# 6 0.000000 0.000000 0.000000 -0.000485 0.000000 0.070186
#
#
# Mechanical properties :
#
#
# Convention : Reuss Voigt Hill
#
# Bulk Modulus (GPa) = 44.77908 61.34192 53.06050
# Shear Modulus (GPa) = 17.51652 20.67291 19.09472
#
# Velocity S-wave (km/s) = 3.16153 3.43458 3.30088
# Velocity P-wave (km/s) = 6.23528 7.12259 6.69365
#
# Compressibility (1/GPa) = 0.02233186
#
# Stress axis : x y z
#
# Youngs Moduli (GPa) = 63.52742 96.85734 51.04734
#
# Poissons Ratio (x) = 0.39158 0.15563
# Poissons Ratio (y) = 0.25684 0.23329
# Poissons Ratio (z) = 0.19368 0.44264
#
# Static dielectric constant tensor:
#      x y z
#    x 3.331600 0.000000 0.195780 
#    y 0.000000 3.410860 0.000000 
#    z 0.195780 0.000000 2.874590 
# 
# 
# High freq. dielectric constant tensor:
#      x y z
#    x 1.675350 0.000000 0.017910 
#    y 0.000000 1.689630 0.000000 
#    z 0.017910 0.000000 1.624810 
# 
# From -- ./inp_files/171863.got.cif
#   From: 2010.06.25/outbox.cif.g09.slc.cpg/sg12_86_cif.got.tgz:171863.got - 2010.06.28 00:19:55.
