data_PCOD8085916
_publ_section_title
;
Structure prediction by ZEFSAII (Michael W. Deem and Ramdas Pophale) SiO2 
 PCOD8085916
Probable space group: C 2/M
;
_chemical_formula_sum "Si O2"
_cell_formula_units_Z 56
_cell_length_a 19.320792
_cell_length_b 9.536288
_cell_length_c 31.460092
_cell_angle_alpha 90.000000
_cell_angle_beta 34.875451
_cell_angle_gamma 90.000000
_cell_volume 3314.394375
_symmetry_space_group_name_H-M "C 2/M"
_symmetry_group_IT_number 12
_symmetry_cell_setting 'monoclinic'
loop_
_space_group_symop_operation_xyz
x,y,z
-x,y,-z
-x,-y,-z
x,-y,z
1/2+x,1/2+y,z
1/2-x,1/2+y,-z
1/2-x,1/2-y,-z
1/2+x,1/2-y,z
loop_
_atom_site_type_symbol
_atom_site_label
_atom_site_fract_x
_atom_site_fract_y
_atom_site_fract_z
Si Si1 0.897717 0.337459 0.694856
Si Si2 0.698920 0.833883 0.393938
Si Si3 0.332003 0.160081 0.203027
Si Si4 0.880730 0.336784 0.084001
Si Si5 0.580005 0.837895 0.750675
Si Si6 0.977707 0.663838 0.448314
Si Si7 0.853951 0.662799 0.810919
O O1 0.866386 0.500000 0.704912
O O2 0.784012 0.256142 0.733422
O O3 0.920742 0.300259 0.732450
O O4 0.013686 0.297940 0.606474
O O5 0.823611 0.754513 0.323103
O O6 0.645410 0.782460 0.467041
O O7 0.600224 0.781914 0.409250
O O8 0.724783 0.000000 0.378964
O O9 0.400291 0.193183 0.124338
O O10 0.419714 0.190644 0.198771
O O11 0.287033 0.000000 0.225970
O O12 0.857500 0.500000 0.086481
O O13 0.766699 0.253197 0.122817
O O14 0.000000 0.282588 0.000000
O O15 0.446306 0.797027 0.801767
O O16 0.607600 0.000000 0.726304
O O17 0.976608 0.500000 0.457111
O O18 0.816838 0.500000 0.831025
#
# Coordination Sequence:
#
# PCOD8085916 Si02
#       7
#     8   8   8   8   8   8   8
#     4   9  15  28  48  66  85 116 159 196 221 257
#     4   9  16  27  44  65  89 119 156 195 229 261
#     4   9  17  29  47  68  91 119 148 182 224 268
#     4   9  18  34  54  73  91 114 148 187 223 262
#     4  10  19  31  44  66  98 125 148 180 228 276
#     4   8  14  25  43  66  88 113 154 201 232 255
#     4   9  19  32  48  69  95 124 149 179 223 273
#
# _framework density 16.895997000000001
#
# number of rings (size 3 to 8) (size 9 to 14) (size 15 to 20)
#    0.000    3.000    1.429    0.857    0.000    0.857 
#    0.000    3.571    0.000    0.000    0.000    0.000 
#    0.000    0.000    0.000    0.000    0.000    0.000 
#
# Total GULP energy -346966.144794 kJ/mol
# GULP energy per Si atom -12391.648028 kJ/mol
# Density = 1.685754 g / cm^3
# Si number density = 16.895997 Si / 1000 Ang^3
#
#
#
# Elastic Constant Matrix: (Units=GPa)
#
#
# Indices 1 2 3 4 5 6 
#
# 1 104.8731 35.6461 52.4214 -0.0001 -0.9460 0.0003
# 2 35.6461 42.9151 41.5714 -0.0001 -3.6980 0.0007
# 3 52.4214 41.5714 123.2725 0.0000 3.4503 -0.0003
# 4 -0.0001 -0.0001 0.0000 24.7337 0.0000 -3.3591
# 5 -0.9460 -3.6980 3.4503 0.0000 19.6591 -0.0002
# 6 0.0003 0.0007 -0.0003 -3.3591 -0.0002 20.0325
#
#
#
# Elastic Compliance Matrix: (Units=1/GPa)
#
#
# Indices 1 2 3 4 5 6 
#
# 1 0.014008 -0.008787 -0.002981 0.000000 -0.000456 0.000000
# 2 -0.008787 0.041629 -0.010561 0.000000 0.009261 -0.000001
# 3 -0.002981 -0.010561 0.013065 0.000000 -0.004423 0.000001
# 4 0.000000 0.000000 0.000000 0.041373 0.000000 0.006938
# 5 -0.000456 0.009261 -0.004423 0.000000 0.053364 0.000000
# 6 0.000000 -0.000001 0.000001 0.006938 0.000000 0.051082
#
#
# Mechanical properties :
#
#
# Convention : Reuss Voigt Hill
#
# Bulk Modulus (GPa) = 41.59049 58.92651 50.25850
# Shear Modulus (GPa) = 18.71304 22.31316 20.51310
#
# Velocity S-wave (km/s) = 3.33159 3.63797 3.48815
# Velocity P-wave (km/s) = 6.28238 7.25246 6.78478
#
# Compressibility (1/GPa) = 0.02404396
#
# Stress axis : x y z
#
# Youngs Moduli (GPa) = 71.38843 24.02171 76.53994
#
# Poissons Ratio (x) = 0.21108 0.22815
# Poissons Ratio (y) = 0.62729 0.80835
# Poissons Ratio (z) = 0.21280 0.25370
#
# Static dielectric constant tensor:
#      x y z
#    x 3.114770 0.000000 0.267610 
#    y 0.000000 3.031340 0.000000 
#    z 0.267610 0.000000 3.260800 
# 
# 
# High freq. dielectric constant tensor:
#      x y z
#    x 1.634680 0.000000 0.021330 
#    y 0.000000 1.637010 0.000000 
#    z 0.021330 0.000000 1.646460 
# 
# From -- ./inp_files/377682.got.cif
#   From: 2010.06.25/outbox.cif.g09.slc.cpg/sg12_189_cif.got.tgz:377682.got - 2010.06.28 00:19:55.
