data_PCOD8085514
_publ_section_title
;
Structure prediction by ZEFSAII (Michael W. Deem and Ramdas Pophale) SiO2 
 PCOD8085514
Probable space group: C 2/M
;
_chemical_formula_sum "Si O2"
_cell_formula_units_Z 64
_cell_length_a 23.057184
_cell_length_b 9.196482
_cell_length_c 17.887268
_cell_angle_alpha 90.000000
_cell_angle_beta 87.450281
_cell_angle_gamma 90.000000
_cell_volume 3789.150345
_symmetry_space_group_name_H-M "C 2/M"
_symmetry_group_IT_number 12
_symmetry_cell_setting 'monoclinic'
loop_
_space_group_symop_operation_xyz
x,y,z
-x,y,-z
-x,-y,-z
x,-y,z
1/2+x,1/2+y,z
1/2-x,1/2+y,-z
1/2-x,1/2-y,-z
1/2+x,1/2-y,z
loop_
_atom_site_type_symbol
_atom_site_label
_atom_site_fract_x
_atom_site_fract_y
_atom_site_fract_z
Si Si1 0.822028 0.839499 0.058573
Si Si2 0.697688 0.669817 0.225107
Si Si3 0.498705 0.172112 0.586379
Si Si4 0.316501 0.329370 0.223496
Si Si5 0.809334 0.833673 0.499182
Si Si6 0.184658 0.338280 0.078950
Si Si7 0.885398 0.830893 0.631696
Si Si8 0.392644 0.666119 0.358277
O O1 0.840940 0.785096 0.140080
O O2 0.752794 0.846139 0.061514
O O3 0.847450 0.000000 0.041063
O O4 0.845465 0.732223 0.992788
O O5 0.708362 0.500000 0.209863
O O6 0.758431 0.740847 0.246524
O O7 0.671185 0.741141 0.152058
O O8 0.650925 0.697815 0.291878
O O9 0.500000 0.224395 0.500000
O O10 0.444456 0.240622 0.632693
O O11 0.555797 0.225449 0.625619
O O12 0.495077 0.000000 0.592213
O O13 0.299808 0.500000 0.225942
O O14 0.367264 0.292379 0.278753
O O15 0.750000 0.750000 0.500000
O O16 0.849452 0.771196 0.562921
O O17 0.840563 0.812283 0.418888
O O18 0.794611 0.000000 0.517436
O O19 0.158947 0.500000 0.091808
O O20 0.900933 0.000000 0.620409
O O21 0.415455 0.500000 0.359048
#
# Coordination Sequence:
#
# PCOD8085514 Si02
#       8
#     8   8   8   8   8   8   8   8
#     4   8  14  25  41  64  96 129 163 198 232 282
#     4  10  19  30  47  72 102 133 164 201 245 291
#     4  11  23  37  54  75  94 121 165 215 255 286
#     4   9  18  31  48  73 102 133 165 198 243 294
#     4  10  20  32  49  72  98 129 161 194 237 289
#     4   9  16  26  42  65  95 131 167 198 236 287
#     4  10  21  36  52  71  96 130 167 201 245 296
#     4  10  20  35  54  72  96 131 165 200 246 295
#
# _framework density 16.890329000000001
#
# number of rings (size 3 to 8) (size 9 to 14) (size 15 to 20)
#    0.000    2.375    1.250    2.625    0.000    6.000 
#    0.000    0.000    0.000    0.000    0.000    0.875 
#    0.000    7.000    0.000    0.000    0.000    0.000 
#
# Total GULP energy -396806.859748 kJ/mol
# GULP energy per Si atom -12400.214367 kJ/mol
# Density = 1.685189 g / cm^3
# Si number density = 16.890329 Si / 1000 Ang^3
#
#
#
# Elastic Constant Matrix: (Units=GPa)
#
#
# Indices 1 2 3 4 5 6 
#
# 1 70.3206 41.6886 37.0943 0.0000 12.6316 0.0000
# 2 41.6886 85.5446 50.4988 0.0000 5.9954 0.0000
# 3 37.0943 50.4988 122.0142 0.0000 19.3282 0.0000
# 4 0.0000 0.0000 0.0000 25.7669 0.0000 1.5184
# 5 12.6316 5.9954 19.3282 0.0000 12.4266 0.0000
# 6 0.0000 0.0000 0.0000 1.5184 0.0000 27.0705
#
#
#
# Elastic Compliance Matrix: (Units=1/GPa)
#
#
# Indices 1 2 3 4 5 6 
#
# 1 0.023724 -0.010264 0.000094 0.000000 -0.019311 0.000000
# 2 -0.010264 0.020013 -0.007014 0.000000 0.011687 0.000000
# 3 0.000094 -0.007014 0.013998 0.000000 -0.018485 0.000000
# 4 0.000000 0.000000 0.000000 0.038938 0.000000 -0.002184
# 5 -0.019311 0.011687 -0.018485 0.000000 0.123215 0.000000
# 6 0.000000 0.000000 0.000000 -0.002184 0.000000 0.037063
#
#
# Mechanical properties :
#
#
# Convention : Reuss Voigt Hill
#
# Bulk Modulus (GPa) = 42.79226 59.60477 51.19852
# Shear Modulus (GPa) = 16.71637 22.95931 19.83784
#
# Velocity S-wave (km/s) = 3.14936 3.69089 3.43083
# Velocity P-wave (km/s) = 6.21410 7.31638 6.78765
#
# Compressibility (1/GPa) = 0.02336871
#
# Stress axis : x y z
#
# Youngs Moduli (GPa) = 42.15061 49.96710 71.43837
#
# Poissons Ratio (x) = 0.51286 -0.00675
# Poissons Ratio (y) = 0.43264 0.50106
# Poissons Ratio (z) = -0.00398 0.35046
#
# Static dielectric constant tensor:
#      x y z
#    x 2.792540 0.000000 0.132990 
#    y 0.000000 3.280710 0.000000 
#    z 0.132990 0.000000 3.476950 
# 
# 
# High freq. dielectric constant tensor:
#      x y z
#    x 1.607790 0.000000 0.006680 
#    y 0.000000 1.656510 0.000000 
#    z 0.006680 0.000000 1.662440 
# 
# From -- ./inp_files/287689.got.cif
#   From: 2010.06.25/outbox.cif.g09.slc.cpg/sg12_144_cif.got.tgz:287689.got - 2010.06.28 00:19:55.
