data_PCOD8085328
_publ_section_title
;
Structure prediction by ZEFSAII (Michael W. Deem and Ramdas Pophale) SiO2 
 PCOD8085328
Probable space group: C 2/M
;
_chemical_formula_sum "Si O2"
_cell_formula_units_Z 64
_cell_length_a 19.784380
_cell_length_b 9.042801
_cell_length_c 25.549695
_cell_angle_alpha 90.000000
_cell_angle_beta 125.939484
_cell_angle_gamma 90.000000
_cell_volume 3700.851686
_symmetry_space_group_name_H-M "C 2/M"
_symmetry_group_IT_number 12
_symmetry_cell_setting 'monoclinic'
loop_
_space_group_symop_operation_xyz
x,y,z
-x,y,-z
-x,-y,-z
x,-y,z
1/2+x,1/2+y,z
1/2-x,1/2+y,-z
1/2-x,1/2-y,-z
1/2+x,1/2-y,z
loop_
_atom_site_type_symbol
_atom_site_label
_atom_site_fract_x
_atom_site_fract_y
_atom_site_fract_z
Si Si1 0.044720 0.832959 0.313096
Si Si2 0.520238 0.674857 0.928251
Si Si3 0.866679 0.174395 0.925916
Si Si4 0.045319 0.829989 0.825708
Si Si5 0.163251 0.830654 0.454533
Si Si6 0.484458 0.827351 0.551937
Si Si7 0.804406 0.174762 0.179017
Si Si8 0.903775 0.669785 0.305304
O O1 0.136038 0.816740 0.380613
O O2 0.039860 0.810123 0.247806
O O3 0.987370 0.707750 0.311824
O O4 0.009827 0.000000 0.309471
O O5 0.511942 0.500000 0.920923
O O6 0.433396 0.732084 0.913368
O O7 0.533869 0.748578 0.876985
O O8 0.598198 0.715868 0.000655
O O9 0.782155 0.261699 0.879703
O O10 0.850384 0.000000 0.913477
O O11 0.124378 0.767646 0.829057
O O12 0.063761 0.000000 0.845841
O O13 0.250000 0.750000 0.500000
O O14 0.092742 0.763611 0.459955
O O15 0.175431 0.000000 0.476275
O O16 0.500000 0.774524 0.500000
O O17 0.571530 0.797344 0.622951
O O18 0.460595 0.000000 0.544108
O O19 0.826980 0.233453 0.247835
O O20 0.799092 0.000000 0.178929
O O21 0.879528 0.500000 0.285859
#
# Coordination Sequence:
#
# PCOD8085328 Si02
#       8
#     8   8   8   8   8   8   8   8
#     4   8  15  28  46  67  91 120 152 188 232 278
#     4   8  15  29  48  67  88 117 152 188 226 271
#     4   9  17  30  48  68  90 118 152 188 226 270
#     4   8  14  27  47  68  88 114 150 188 227 271
#     4  10  19  31  48  70  97 129 163 198 238 284
#     4   9  18  33  52  73  96 122 156 198 241 287
#     4  10  19  30  46  68  94 121 150 187 227 269
#     4   9  16  28  48  70  92 120 152 187 228 274
#
# _framework density 17.293316000000001
#
# number of rings (size 3 to 8) (size 9 to 14) (size 15 to 20)
#    0.000    3.125    0.000    2.625    0.000    1.750 
#    0.000    2.500    0.000   11.250    0.000    0.000 
#    0.000    0.000    0.000    0.000    0.000    0.000 
#
# Total GULP energy -396440.439906 kJ/mol
# GULP energy per Si atom -12388.763747 kJ/mol
# Density = 1.725396 g / cm^3
# Si number density = 17.293316 Si / 1000 Ang^3
#
#
#
# Elastic Constant Matrix: (Units=GPa)
#
#
# Indices 1 2 3 4 5 6 
#
# 1 77.1804 35.5282 79.5111 0.0000 -2.3862 0.0000
# 2 35.5282 61.1447 52.2798 0.0000 2.3519 0.0000
# 3 79.5111 52.2798 168.3709 0.0000 -4.8639 0.0000
# 4 0.0000 0.0000 0.0000 23.9720 0.0000 7.2539
# 5 -2.3862 2.3519 -4.8639 0.0000 30.3795 0.0000
# 6 0.0000 0.0000 0.0000 7.2539 0.0000 19.9236
#
#
#
# Elastic Compliance Matrix: (Units=1/GPa)
#
#
# Indices 1 2 3 4 5 6 
#
# 1 0.027041 -0.006606 -0.010692 0.000000 0.000924 0.000000
# 2 -0.006606 0.024127 -0.004462 0.000000 -0.003101 0.000000
# 3 -0.010692 -0.004462 0.012417 0.000000 0.001494 0.000000
# 4 0.000000 0.000000 0.000000 0.046880 0.000000 -0.017068
# 5 0.000924 -0.003101 0.001494 0.000000 0.033469 0.000000
# 6 0.000000 0.000000 0.000000 -0.017068 0.000000 0.056406
#
#
# Mechanical properties :
#
#
# Convention : Reuss Voigt Hill
#
# Bulk Modulus (GPa) = 49.83541 71.25934 60.54738
# Shear Modulus (GPa) = 19.95634 24.14682 22.05158
#
# Velocity S-wave (km/s) = 3.40073 3.74078 3.57480
# Velocity P-wave (km/s) = 6.65584 7.74297 7.21990
#
# Compressibility (1/GPa) = 0.02006605
#
# Stress axis : x y z
#
# Youngs Moduli (GPa) = 36.98113 41.44735 80.53574
#
# Poissons Ratio (x) = 0.27380 0.86108
# Poissons Ratio (y) = 0.24429 0.35932
# Poissons Ratio (z) = 0.39540 0.18492
#
# Static dielectric constant tensor:
#      x y z
#    x 3.101360 0.000000 -0.240870 
#    y 0.000000 3.038470 0.000000 
#    z -0.240870 0.000000 3.715620 
# 
# 
# High freq. dielectric constant tensor:
#      x y z
#    x 1.628470 0.000000 -0.003060 
#    y 0.000000 1.649300 0.000000 
#    z -0.003060 0.000000 1.689790 
# 
# From -- ./inp_files/365248.got.cif
#   From: 2010.06.25/outbox.cif.g09.slc.cpg/sg12_183_cif.got.tgz:365248.got - 2010.06.28 00:19:55.
