data_PCOD8085119
_publ_section_title
;
Structure prediction by ZEFSAII (Michael W. Deem and Ramdas Pophale) SiO2 
 PCOD8085119
Probable space group: C 2/M
;
_chemical_formula_sum "Si O2"
_cell_formula_units_Z 64
_cell_length_a 24.154846
_cell_length_b 9.211786
_cell_length_c 21.736884
_cell_angle_alpha 90.000000
_cell_angle_beta 46.697056
_cell_angle_gamma 90.000000
_cell_volume 3519.817661
_symmetry_space_group_name_H-M "C 2/M"
_symmetry_group_IT_number 12
_symmetry_cell_setting 'monoclinic'
loop_
_space_group_symop_operation_xyz
x,y,z
-x,y,-z
-x,-y,-z
x,-y,z
1/2+x,1/2+y,z
1/2-x,1/2+y,-z
1/2-x,1/2-y,-z
1/2+x,1/2-y,z
loop_
_atom_site_type_symbol
_atom_site_label
_atom_site_fract_x
_atom_site_fract_y
_atom_site_fract_z
Si Si1 0.008571 0.668584 0.293171
Si Si2 0.556779 0.331764 0.904118
Si Si3 0.071360 0.667856 0.770303
Si Si4 0.586131 0.654737 0.431231
Si Si5 0.268587 0.666944 0.217427
Si Si6 0.860187 0.170721 0.742111
Si Si7 0.276448 0.329573 0.351494
Si Si8 0.121854 0.669098 0.518725
O O1 0.021019 0.500000 0.300763
O O2 0.086248 0.755609 0.247375
O O3 0.992079 0.687771 0.233728
O O4 0.934936 0.735828 0.386583
O O5 0.542602 0.500000 0.899442
O O6 0.539354 0.241973 0.855934
O O7 0.642342 0.305501 0.862011
O O8 0.500000 0.275850 0.000000
O O9 0.088399 0.500000 0.770403
O O10 0.149133 0.740497 0.687033
O O11 0.500000 0.612350 0.500000
O O12 0.630205 0.500000 0.411198
O O13 0.602669 0.712274 0.350852
O O14 0.600334 0.782651 0.467375
O O15 0.246585 0.500000 0.223956
O O16 0.224395 0.760899 0.199172
O O17 0.248671 0.715094 0.303261
O O18 0.854641 0.000000 0.760266
O O19 0.297131 0.500000 0.334544
O O20 0.212456 0.292422 0.452409
O O21 0.111258 0.500000 0.531479
#
# Coordination Sequence:
#
# PCOD8085119 Si02
#       8
#     8   8   8   8   8   8   8   8
#     4  10  22  36  49  69 102 144 185 220 256 302
#     4   9  19  38  64  89 108 129 160 200 251 313
#     4  10  21  36  53  77 107 137 170 211 260 310
#     4  10  19  30  42  65  99 131 173 228 271 295
#     4   9  17  31  52  79 107 132 162 206 258 306
#     4  11  21  31  48  73 103 139 177 217 260 304
#     4   9  18  32  50  72  99 136 180 223 264 305
#     4  10  19  31  48  68  94 136 187 225 258 302
#
# _framework density 18.182759999999998
#
# number of rings (size 3 to 8) (size 9 to 14) (size 15 to 20)
#    0.000    2.250    2.500    1.500    0.000    5.000 
#    0.000    0.000    0.000    0.750    0.000    0.000 
#    0.000    0.000    0.000    0.000    0.000    0.000 
#
# Total GULP energy -396535.448481 kJ/mol
# GULP energy per Si atom -12391.732765 kJ/mol
# Density = 1.814138 g / cm^3
# Si number density = 18.182760 Si / 1000 Ang^3
#
#
#
# Elastic Constant Matrix: (Units=GPa)
#
#
# Indices 1 2 3 4 5 6 
#
# 1 98.0661 45.7509 35.3799 0.0001 -1.3382 -0.0001
# 2 45.7509 50.8388 29.0425 -0.0008 -3.6487 0.0008
# 3 35.3799 29.0425 77.6398 -0.0006 -7.0706 0.0002
# 4 0.0001 -0.0008 -0.0006 18.8403 0.0003 1.0250
# 5 -1.3382 -3.6487 -7.0706 0.0003 14.9337 -0.0001
# 6 -0.0001 0.0008 0.0002 1.0250 -0.0001 28.7138
#
#
#
# Elastic Compliance Matrix: (Units=1/GPa)
#
#
# Indices 1 2 3 4 5 6 
#
# 1 0.018187 -0.014880 -0.003035 -0.000001 -0.003443 0.000000
# 2 -0.014880 0.037235 -0.006731 0.000001 0.004577 -0.000001
# 3 -0.003035 -0.006731 0.017355 0.000000 0.006300 0.000000
# 4 -0.000001 0.000001 0.000000 0.053181 -0.000001 -0.001898
# 5 -0.003443 0.004577 0.006300 -0.000001 0.070756 0.000000
# 6 0.000000 -0.000001 0.000000 -0.001898 0.000000 0.034894
#
#
# Mechanical properties :
#
#
# Convention : Reuss Voigt Hill
#
# Bulk Modulus (GPa) = 42.58143 49.65458 46.11800
# Shear Modulus (GPa) = 17.31736 20.25565 18.78650
#
# Velocity S-wave (km/s) = 3.08945 3.34129 3.21784
# Velocity P-wave (km/s) = 6.01629 6.50027 6.26296
#
# Compressibility (1/GPa) = 0.02348442
#
# Stress axis : x y z
#
# Youngs Moduli (GPa) = 54.98308 26.85666 57.62190
#
# Poissons Ratio (x) = 0.39964 0.17489
# Poissons Ratio (y) = 0.81817 0.38783
# Poissons Ratio (z) = 0.16688 0.18076
#
# Static dielectric constant tensor:
#      x y z
#    x 3.229830 0.000000 -0.158780 
#    y 0.000000 3.343590 0.000000 
#    z -0.158780 0.000000 3.233490 
# 
# 
# High freq. dielectric constant tensor:
#      x y z
#    x 1.693390 0.000000 -0.012520 
#    y 0.000000 1.706310 0.000000 
#    z -0.012520 0.000000 1.675830 
# 
# From -- ./inp_files/324130.got.cif
#   From: 2010.06.25/outbox.cif.g09.slc.cpg/sg12_163_cif.got.tgz:324130.got - 2010.06.28 00:19:55.
