data_PCOD8085013
_publ_section_title
;
Structure prediction by ZEFSAII (Michael W. Deem and Ramdas Pophale) SiO2 
 PCOD8085013
Probable space group: C 2/M
;
_chemical_formula_sum "Si O2"
_cell_formula_units_Z 64
_cell_length_a 23.249232
_cell_length_b 8.914778
_cell_length_c 18.183540
_cell_angle_alpha 90.000000
_cell_angle_beta 93.964744
_cell_angle_gamma 90.000000
_cell_volume 3759.732741
_symmetry_space_group_name_H-M "C 2/M"
_symmetry_group_IT_number 12
_symmetry_cell_setting 'monoclinic'
loop_
_space_group_symop_operation_xyz
x,y,z
-x,y,-z
-x,-y,-z
x,-y,z
1/2+x,1/2+y,z
1/2-x,1/2+y,-z
1/2-x,1/2-y,-z
1/2+x,1/2-y,z
loop_
_atom_site_type_symbol
_atom_site_label
_atom_site_fract_x
_atom_site_fract_y
_atom_site_fract_z
Si Si1 0.200128 0.325944 0.414719
Si Si2 0.293378 0.173815 0.746309
Si Si3 0.679730 0.173881 0.565823
Si Si4 0.005807 0.823095 0.085031
Si Si5 0.888953 0.827383 0.152697
Si Si6 0.688323 0.674464 0.991736
Si Si7 0.622725 0.177787 0.117566
Si Si8 0.829649 0.678001 0.277727
O O1 0.219445 0.500000 0.425972
O O2 0.174709 0.302266 0.330468
O O3 0.253594 0.216047 0.426413
O O4 0.157028 0.283441 0.480521
O O5 0.337283 0.232381 0.811703
O O6 0.233731 0.262203 0.748331
O O7 0.278341 0.000000 0.757531
O O8 0.651335 0.240552 0.638387
O O9 0.672848 0.000000 0.576604
O O10 0.058547 0.736257 0.127462
O O11 0.948512 0.771732 0.122414
O O12 0.016600 0.000000 0.091643
O O13 0.000000 0.773558 0.000000
O O14 0.877426 0.734732 0.225350
O O15 0.893726 0.000000 0.175143
O O16 0.836734 0.801399 0.091617
O O17 0.693768 0.500000 0.011771
O O18 0.645068 0.750173 0.044654
O O19 0.750000 0.750000 0.000000
O O20 0.622916 0.000000 0.109921
O O21 0.827328 0.500000 0.273462
#
# Coordination Sequence:
#
# PCOD8085013 Si02
#       8
#     8   8   8   8   8   8   8   8
#     4   8  13  24  42  61  88 128 161 183 217 271
#     4   9  18  31  46  68 100 132 159 187 228 283
#     4   8  14  24  39  63  93 123 155 190 225 264
#     4  10  20  39  58  70  86 118 160 202 243 285
#     4  10  21  36  52  67  90 123 158 193 235 285
#     4  11  22  36  51  70  96 127 160 193 231 283
#     4  11  22  34  50  74  98 122 155 198 242 281
#     4  10  19  29  45  72 102 126 155 196 236 274
#
# _framework density 17.022487000000002
#
# number of rings (size 3 to 8) (size 9 to 14) (size 15 to 20)
#    0.000    2.375    1.250    1.875    0.000    6.250 
#    0.000    0.000    0.000    0.000    0.000    0.875 
#    0.000    7.000    0.000    0.000    0.000    0.000 
#
# Total GULP energy -396421.494259 kJ/mol
# GULP energy per Si atom -12388.171696 kJ/mol
# Density = 1.698374 g / cm^3
# Si number density = 17.022487 Si / 1000 Ang^3
#
#
#
# Elastic Constant Matrix: (Units=GPa)
#
#
# Indices 1 2 3 4 5 6 
#
# 1 69.4048 24.7792 32.6349 0.0000 -19.8377 0.0000
# 2 24.7792 31.1475 28.3198 0.0000 -8.7325 0.0000
# 3 32.6349 28.3198 131.7830 0.0000 -25.6383 0.0000
# 4 0.0000 0.0000 0.0000 20.5155 0.0000 -3.3286
# 5 -19.8377 -8.7325 -25.6383 0.0000 17.3861 0.0000
# 6 0.0000 0.0000 0.0000 -3.3286 0.0000 25.0835
#
#
#
# Elastic Compliance Matrix: (Units=1/GPa)
#
#
# Indices 1 2 3 4 5 6 
#
# 1 0.026141 -0.015388 0.001588 0.000000 0.024440 0.000000
# 2 -0.015388 0.050340 -0.007718 0.000000 -0.003656 0.000000
# 3 0.001588 -0.007718 0.011852 0.000000 0.015413 0.000000
# 4 0.000000 0.000000 0.000000 0.049816 0.000000 0.006611
# 5 0.024440 -0.003656 0.015413 0.000000 0.106297 0.000000
# 6 0.000000 0.000000 0.000000 0.006611 0.000000 0.040744
#
#
# Mechanical properties :
#
#
# Convention : Reuss Voigt Hill
#
# Bulk Modulus (GPa) = 22.07687 44.86703 33.47195
# Shear Modulus (GPa) = 14.56339 22.37042 18.46690
#
# Velocity S-wave (km/s) = 2.92813 3.62908 3.29728
# Velocity P-wave (km/s) = 4.94260 6.63137 5.84826
#
# Compressibility (1/GPa) = 0.04529628
#
# Stress axis : x y z
#
# Youngs Moduli (GPa) = 38.25391 19.86484 84.37220
#
# Poissons Ratio (x) = 0.30569 -0.13399
# Poissons Ratio (y) = 0.58866 0.65122
# Poissons Ratio (z) = -0.06075 0.15333
#
# Static dielectric constant tensor:
#      x y z
#    x 2.874950 0.000000 -0.041860 
#    y 0.000000 3.180680 0.000000 
#    z -0.041860 0.000000 3.833330 
# 
# 
# High freq. dielectric constant tensor:
#      x y z
#    x 1.607750 0.000000 -0.008300 
#    y 0.000000 1.657870 0.000000 
#    z -0.008300 0.000000 1.680200 
# 
# From -- ./inp_files/287598.got.cif
#   From: 2010.06.25/outbox.cif.g09.slc.cpg/sg12_144_cif.got.tgz:287598.got - 2010.06.28 00:19:55.
