data_PCOD8085749
_publ_section_title
;
Structure prediction by ZEFSAII (Michael W. Deem and Ramdas Pophale) SiO2 
 PCOD8085749
Probable space group: C 2/M
;
_chemical_formula_sum "Si O2"
_cell_formula_units_Z 48
_cell_length_a 23.513435
_cell_length_b 23.097122
_cell_length_c 4.941431
_cell_angle_alpha 90.000000
_cell_angle_beta 113.908642
_cell_angle_gamma 90.000000
_cell_volume 2453.378168
_symmetry_space_group_name_H-M "C 2/M"
_symmetry_group_IT_number 12
_symmetry_cell_setting 'monoclinic'
loop_
_space_group_symop_operation_xyz
x,y,z
-x,y,-z
-x,-y,-z
x,-y,z
1/2+x,1/2+y,z
1/2-x,1/2+y,-z
1/2-x,1/2-y,-z
1/2+x,1/2-y,z
loop_
_atom_site_type_symbol
_atom_site_label
_atom_site_fract_x
_atom_site_fract_y
_atom_site_fract_z
Si Si1 0.755138 0.435718 0.309251
Si Si2 0.957895 0.352475 0.179436
Si Si3 0.741506 0.292792 0.729730
Si Si4 0.825382 0.170756 0.917288
Si Si5 0.824810 0.395382 0.926324
Si Si6 0.457765 0.279307 0.177713
O O1 0.730332 0.500000 0.188559
O O2 0.696891 0.391783 0.236975
O O3 0.804039 0.411617 0.186683
O O4 0.794171 0.440679 0.661127
O O5 0.899092 0.394964 0.043649
O O6 0.935889 0.286462 0.198860
O O7 0.000000 0.376838 0.500000
O O8 0.000000 0.355536 0.000000
O O9 0.711757 0.280188 0.359500
O O10 0.750000 0.250000 0.000000
O O11 0.687839 0.330005 0.784567
O O12 0.802709 0.330832 0.803294
O O13 0.898144 0.180026 0.015641
O O14 0.500000 0.304226 0.500000
O O15 0.500000 0.281218 0.000000
#
# Coordination Sequence:
#
# PCOD8085749 Si02
#       6
#     8   8   8   8   8   8
#     4  10  21  37  57  77  99 132 174 226 273 303
#     4  10  20  33  51  75 106 141 170 200 245 309
#     4  10  19  30  49  77 107 133 164 212 262 314
#     4  10  20  33  51  76 104 137 174 211 258 310
#     4  10  20  34  54  77 101 134 173 213 261 312
#     4  10  20  33  51  76 109 145 173 201 245 310
#
# _framework density 19.564859999999999
#
# number of rings (size 3 to 8) (size 9 to 14) (size 15 to 20)
#    0.000    2.000    0.000    4.000    0.000    5.333 
#    0.000    0.000    0.000   11.000    0.000    0.000 
#    0.000    0.000    0.000    0.000    0.000    0.000 
#
# Total GULP energy -297386.331242 kJ/mol
# GULP energy per Si atom -12391.097135 kJ/mol
# Density = 1.952033 g / cm^3
# Si number density = 19.564860 Si / 1000 Ang^3
#
#
#
# Elastic Constant Matrix: (Units=GPa)
#
#
# Indices 1 2 3 4 5 6 
#
# 1 72.2019 15.2757 47.1737 0.0000 2.0257 0.0000
# 2 15.2757 71.5909 30.9072 0.0000 6.0908 0.0000
# 3 47.1737 30.9072 132.9962 0.0000 -3.3945 0.0000
# 4 0.0000 0.0000 0.0000 18.5993 0.0000 -1.4940
# 5 2.0257 6.0908 -3.3945 0.0000 42.1586 0.0000
# 6 0.0000 0.0000 0.0000 -1.4940 0.0000 15.1008
#
#
#
# Elastic Compliance Matrix: (Units=1/GPa)
#
#
# Indices 1 2 3 4 5 6 
#
# 1 0.018183 -0.001088 -0.006228 0.000000 -0.001218 0.000000
# 2 -0.001088 0.015867 -0.003366 0.000000 -0.002511 0.000000
# 3 -0.006228 -0.003366 0.010552 0.000000 0.001635 0.000000
# 4 0.000000 0.000000 0.000000 0.054196 0.000000 0.005362
# 5 -0.001218 -0.002511 0.001635 0.000000 0.024273 0.000000
# 6 0.000000 0.000000 0.000000 0.005362 0.000000 0.066752
#
#
# Mechanical properties :
#
#
# Convention : Reuss Voigt Hill
#
# Bulk Modulus (GPa) = 43.02939 51.50026 47.26483
# Shear Modulus (GPa) = 22.83806 27.40056 25.11931
#
# Velocity S-wave (km/s) = 3.42028 3.74638 3.58704
# Velocity P-wave (km/s) = 6.13504 6.71519 6.43166
#
# Compressibility (1/GPa) = 0.02323993
#
# Stress axis : x y z
#
# Youngs Moduli (GPa) = 54.99514 63.02397 94.76892
#
# Poissons Ratio (x) = 0.06854 0.59022
# Poissons Ratio (y) = 0.05981 0.31896
# Poissons Ratio (z) = 0.34251 0.21212
#
# Static dielectric constant tensor:
#      x y z
#    x 1.442900 0.000000 1.967290 
#    y 0.000000 3.080310 0.000000 
#    z 1.967290 0.000000 1.433130 
# 
# 
# High freq. dielectric constant tensor:
#      x y z
#    x 1.765080 0.000000 -0.024910 
#    y 0.000000 1.726740 0.000000 
#    z -0.024910 0.000000 1.776610 
# 
# From -- ./inp_files/21740.got.cif
#   From: 2010.06.25/outbox.cif.g09.slc.cpg/sg12_11_cif.got.tgz:21740.got - 2010.06.28 00:19:55.
