data_PCOD8085662
_publ_section_title
;
Structure prediction by ZEFSAII (Michael W. Deem and Ramdas Pophale) SiO2 
 PCOD8085662
Probable space group: C 2/M
;
_chemical_formula_sum "Si O2"
_cell_formula_units_Z 40
_cell_length_a 22.852833
_cell_length_b 12.591154
_cell_length_c 8.747264
_cell_angle_alpha 90.000000
_cell_angle_beta 112.504965
_cell_angle_gamma 90.000000
_cell_volume 2325.292395
_symmetry_space_group_name_H-M "C 2/M"
_symmetry_group_IT_number 12
_symmetry_cell_setting 'monoclinic'
loop_
_space_group_symop_operation_xyz
x,y,z
-x,y,-z
-x,-y,-z
x,-y,z
1/2+x,1/2+y,z
1/2-x,1/2+y,-z
1/2-x,1/2-y,-z
1/2+x,1/2-y,z
loop_
_atom_site_type_symbol
_atom_site_label
_atom_site_fract_x
_atom_site_fract_y
_atom_site_fract_z
Si Si1 0.333624 0.824738 0.764126
Si Si2 0.799292 0.881300 0.228026
Si Si3 0.431462 0.000000 0.502403
Si Si4 0.568538 0.000000 0.139480
Si Si5 0.700707 0.381300 0.129443
Si Si6 0.166376 0.324738 0.596877
O O1 0.272250 0.871696 0.785034
O O2 0.393727 0.894617 0.875153
O O3 0.344362 0.702908 0.828151
O O4 0.322380 0.830460 0.572381
O O5 0.844361 0.797092 0.360572
O O6 0.824551 0.000000 0.287154
O O7 0.800536 0.855647 0.050535
O O8 0.500000 0.000000 0.500000
O O9 0.393727 0.105383 0.412301
O O10 0.440012 0.000000 0.690011
O O11 0.500000 0.000000 0.000000
O O12 0.675448 0.500000 0.138051
O O13 0.772249 0.371697 0.259467
#
# Coordination Sequence:
#
# PCOD8085662 Si02
#       6
#     8   8   4   4   8   8
#     4  10  19  32  49  72 101 131 168 205 247 299
#     4  10  19  30  48  75 104 132 162 202 252 299
#     4  10  22  36  52  74 100 134 171 208 249 294
#     4  10  22  36  52  74 100 134 171 208 249 294
#     4  10  19  30  48  75 104 132 162 202 252 299
#     4  10  19  32  49  72 101 131 168 205 247 299
#
# _framework density 17.202137
#
# number of rings (size 3 to 8) (size 9 to 14) (size 15 to 20)
#    0.000    2.000    2.000    4.800    0.000    5.600 
#    0.000    0.000    0.000    1.200    0.000    0.000 
#    0.000    0.000    0.000    0.000    0.000    0.000 
#
# Total GULP energy -247952.011899 kJ/mol
# GULP energy per Si atom -12397.600595 kJ/mol
# Density = 1.716298 g / cm^3
# Si number density = 17.202137 Si / 1000 Ang^3
#
#
#
# Elastic Constant Matrix: (Units=GPa)
#
#
# Indices 1 2 3 4 5 6 
#
# 1 89.3447 58.6047 23.9015 0.0000 9.5415 0.0000
# 2 58.6047 156.6221 40.0855 0.0000 11.8207 0.0000
# 3 23.9015 40.0855 57.2737 0.0000 10.9302 0.0000
# 4 0.0000 0.0000 0.0000 29.5274 0.0000 -3.8918
# 5 9.5415 11.8207 10.9302 0.0000 24.3611 0.0000
# 6 0.0000 0.0000 0.0000 -3.8918 0.0000 23.4295
#
#
#
# Elastic Compliance Matrix: (Units=1/GPa)
#
#
# Indices 1 2 3 4 5 6 
#
# 1 0.015352 -0.004919 -0.002485 0.000000 -0.002511 0.000000
# 2 -0.004919 0.009402 -0.004401 0.000000 -0.000661 0.000000
# 3 -0.002485 -0.004401 0.022949 0.000000 -0.007188 0.000000
# 4 0.000000 0.000000 0.000000 0.034625 0.000000 0.005751
# 5 -0.002511 -0.000661 -0.007188 0.000000 0.045578 0.000000
# 6 0.000000 0.000000 0.000000 0.005751 0.000000 0.043637
#
#
# Mechanical properties :
#
#
# Convention : Reuss Voigt Hill
#
# Bulk Modulus (GPa) = 41.50608 60.93598 51.22103
# Shear Modulus (GPa) = 24.60829 27.50685 26.05757
#
# Velocity S-wave (km/s) = 3.78635 4.00313 3.89625
# Velocity P-wave (km/s) = 6.57997 7.54103 7.07684
#
# Compressibility (1/GPa) = 0.02409286
#
# Stress axis : x y z
#
# Youngs Moduli (GPa) = 65.13790 106.36390 43.57460
#
# Poissons Ratio (x) = 0.52320 0.10827
# Poissons Ratio (y) = 0.32041 0.19179
# Poissons Ratio (z) = 0.16185 0.46814
#
# Static dielectric constant tensor:
#      x y z
#    x 3.256940 0.000000 -0.022030 
#    y 0.000000 3.818800 0.000000 
#    z -0.022030 0.000000 3.291450 
# 
# 
# High freq. dielectric constant tensor:
#      x y z
#    x 1.624240 0.000000 -0.026500 
#    y 0.000000 1.685740 0.000000 
#    z -0.026500 0.000000 1.665750 
# 
# From -- ./inp_files/85324.got.cif
#   From: 2010.06.25/outbox.cif.g09.slc.cpg/sg12_43_cif.got.tgz:85324.got - 2010.06.28 00:19:55.
