data_PCOD8085157
_publ_section_title
;
Structure prediction by ZEFSAII (Michael W. Deem and Ramdas Pophale) SiO2 
 PCOD8085157
Probable space group: C 2/M
;
_chemical_formula_sum "Si O2"
_cell_formula_units_Z 56
_cell_length_a 29.071203
_cell_length_b 8.956528
_cell_length_c 13.582762
_cell_angle_alpha 90.000000
_cell_angle_beta 102.371650
_cell_angle_gamma 90.000000
_cell_volume 3454.513024
_symmetry_space_group_name_H-M "C 2/M"
_symmetry_group_IT_number 12
_symmetry_cell_setting 'monoclinic'
loop_
_space_group_symop_operation_xyz
x,y,z
-x,y,-z
-x,-y,-z
x,-y,z
1/2+x,1/2+y,z
1/2-x,1/2+y,-z
1/2-x,1/2-y,-z
1/2+x,1/2-y,z
loop_
_atom_site_type_symbol
_atom_site_label
_atom_site_fract_x
_atom_site_fract_y
_atom_site_fract_z
Si Si1 0.054790 0.833032 0.433125
Si Si2 0.516871 0.678932 0.112877
Si Si3 0.892584 0.169754 0.746668
Si Si4 0.800119 0.824749 0.409808
Si Si5 0.961449 0.827169 0.276779
Si Si6 0.107831 0.325167 0.623842
Si Si7 0.795259 0.823121 0.635568
O O1 0.086821 0.819485 0.352491
O O2 0.072238 0.712415 0.519012
O O3 0.000613 0.804217 0.379938
O O4 0.060636 0.000000 0.480851
O O5 0.518822 0.500000 0.116161
O O6 0.569634 0.743622 0.160292
O O7 0.480817 0.733146 0.180876
O O8 0.500000 0.741239 0.000000
O O9 0.839879 0.239164 0.720025
O O10 0.886374 0.000000 0.776214
O O11 0.842046 0.752676 0.367226
O O12 0.805349 0.781910 0.526607
O O13 0.750952 0.759876 0.346129
O O14 0.801130 0.000000 0.392915
O O15 0.915378 0.733112 0.285073
O O16 0.947618 0.000000 0.261275
O O17 0.115909 0.500000 0.633879
O O18 0.788550 0.000000 0.643754
#
# Coordination Sequence:
#
# PCOD8085157 Si02
#       7
#     8   8   8   8   8   8   8
#     4   9  16  29  44  60  85 122 157 180 213 262
#     4   8  14  26  47  74  95 112 144 186 221 261
#     4   8  13  24  43  65  91 120 146 178 220 264
#     4  10  19  30  44  60  86 121 156 188 219 260
#     4   9  18  30  46  64  88 120 151 182 221 268
#     4  12  22  29  40  61  90 121 155 189 221 257
#     4   9  16  28  44  63  88 118 152 185 220 261
#
# _framework density 16.210678999999999
#
# number of rings (size 3 to 8) (size 9 to 14) (size 15 to 20)
#    0.000    2.714    1.429    3.857    0.000    2.857 
#    0.000    0.000    0.000    0.429    0.000    1.000 
#    0.000    0.000    0.000    0.000    0.000    0.000 
#
# Total GULP energy -347009.575705 kJ/mol
# GULP energy per Si atom -12393.199132 kJ/mol
# Density = 1.617378 g / cm^3
# Si number density = 16.210679 Si / 1000 Ang^3
#
#
#
# Elastic Constant Matrix: (Units=GPa)
#
#
# Indices 1 2 3 4 5 6 
#
# 1 148.1657 48.2550 57.5214 0.0000 5.8812 0.0000
# 2 48.2550 49.5321 18.8311 0.0000 1.4365 0.0000
# 3 57.5214 18.8311 72.2362 0.0000 12.0611 0.0000
# 4 0.0000 0.0000 0.0000 6.8266 0.0000 0.4117
# 5 5.8812 1.4365 12.0611 0.0000 13.6910 0.0000
# 6 0.0000 0.0000 0.0000 0.4117 0.0000 25.0522
#
#
#
# Elastic Compliance Matrix: (Units=1/GPa)
#
#
# Indices 1 2 3 4 5 6 
#
# 1 0.012978 -0.009568 -0.008297 0.000000 0.002739 0.000000
# 2 -0.009568 0.029591 -0.000308 0.000000 0.001277 0.000000
# 3 -0.008297 -0.000308 0.023367 0.000000 -0.016989 0.000000
# 4 0.000000 0.000000 0.000000 0.146632 0.000000 -0.002410
# 5 0.002739 0.001277 -0.016989 0.000000 0.086697 0.000000
# 6 0.000000 0.000000 0.000000 -0.002410 0.000000 0.039956
#
#
# Mechanical properties :
#
#
# Convention : Reuss Voigt Hill
#
# Bulk Modulus (GPa) = 33.79610 57.68322 45.73966
# Shear Modulus (GPa) = 12.97251 18.80239 15.88745
#
# Velocity S-wave (km/s) = 2.83193 3.40939 3.13399
# Velocity P-wave (km/s) = 5.62018 7.15257 6.43217
#
# Compressibility (1/GPa) = 0.02958921
#
# Stress axis : x y z
#
# Youngs Moduli (GPa) = 77.05420 33.79457 42.79477
#
# Poissons Ratio (x) = 0.32336 0.35507
# Poissons Ratio (y) = 0.73728 0.01317
# Poissons Ratio (z) = 0.63933 0.01040
#
# Static dielectric constant tensor:
#      x y z
#    x 3.334230 0.000000 0.130320 
#    y 0.000000 2.767520 0.000000 
#    z 0.130320 0.000000 2.907540 
# 
# 
# High freq. dielectric constant tensor:
#      x y z
#    x 1.635680 0.000000 0.003420 
#    y 0.000000 1.592670 0.000000 
#    z 0.003420 0.000000 1.577770 
# 
# From -- ./inp_files/247882.got.cif
#   From: 2010.06.25/outbox.cif.g09.slc.cpg/sg12_124_cif.got.tgz:247882.got - 2010.06.28 00:19:55.
