data_PCOD8085392
_publ_section_title
;
Structure prediction by ZEFSAII (Michael W. Deem and Ramdas Pophale) SiO2 
 PCOD8085392
Probable space group: C 2/M
;
_chemical_formula_sum "Si O2"
_cell_formula_units_Z 64
_cell_length_a 31.546652
_cell_length_b 9.313458
_cell_length_c 14.318055
_cell_angle_alpha 90.000000
_cell_angle_beta 62.937808
_cell_angle_gamma 90.000000
_cell_volume 3746.179901
_symmetry_space_group_name_H-M "C 2/M"
_symmetry_group_IT_number 12
_symmetry_cell_setting 'monoclinic'
loop_
_space_group_symop_operation_xyz
x,y,z
-x,y,-z
-x,-y,-z
x,-y,z
1/2+x,1/2+y,z
1/2-x,1/2+y,-z
1/2-x,1/2-y,-z
1/2+x,1/2-y,z
loop_
_atom_site_type_symbol
_atom_site_label
_atom_site_fract_x
_atom_site_fract_y
_atom_site_fract_z
Si Si1 0.476146 0.664005 0.663804
Si Si2 0.436811 0.164180 0.210621
Si Si3 0.070477 0.668904 0.571242
Si Si4 0.194877 0.832006 0.148435
Si Si5 0.529985 0.334470 0.114472
Si Si6 0.614506 0.667510 0.369498
Si Si7 0.197335 0.334143 0.961781
Si Si8 0.609815 0.836173 0.929107
O O1 0.492547 0.500000 0.630092
O O2 0.519602 0.766346 0.592035
O O3 0.460735 0.688252 0.785537
O O4 0.431221 0.705187 0.646752
O O5 0.418458 0.208309 0.331819
O O6 0.481092 0.259371 0.132578
O O7 0.394222 0.186747 0.178781
O O8 0.454567 0.000000 0.194874
O O9 0.070004 0.500000 0.553552
O O10 0.111695 0.742010 0.467966
O O11 0.161477 0.781746 0.266945
O O12 0.249038 0.790697 0.120680
O O13 0.187886 0.000000 0.137205
O O14 0.179205 0.754128 0.069177
O O15 0.525804 0.500000 0.091037
O O16 0.574088 0.267684 0.017140
O O17 0.617103 0.500000 0.391756
O O18 0.195254 0.500000 0.992559
O O19 0.163532 0.299845 0.907338
O O20 0.596765 0.000000 0.968516
#
# Coordination Sequence:
#
# PCOD8085392 Si02
#       8
#     8   8   8   8   8   8   8   8
#     4   9  18  31  45  64  93 125 151 178 222 277
#     4   9  19  34  47  62  91 128 159 190 230 271
#     4  10  20  32  46  65  89 119 156 195 228 259
#     4   9  18  33  51  72  98 123 147 182 231 280
#     4  10  19  30  46  70  97 123 154 191 228 270
#     4  10  19  31  48  67  90 122 153 182 225 278
#     4   9  18  32  51  74  96 120 152 187 224 272
#     4  10  19  31  48  68  92 124 158 189 226 274
#
# _framework density 17.084070000000001
#
# number of rings (size 3 to 8) (size 9 to 14) (size 15 to 20)
#    0.000    2.500    0.000    2.250    0.000    7.000 
#    0.000    0.000    0.000    0.750    0.000    0.000 
#    0.000    0.000    0.000    0.000    0.000    0.375 
#
# Total GULP energy -396830.480645 kJ/mol
# GULP energy per Si atom -12400.952520 kJ/mol
# Density = 1.704519 g / cm^3
# Si number density = 17.084070 Si / 1000 Ang^3
#
#
#
# Elastic Constant Matrix: (Units=GPa)
#
#
# Indices 1 2 3 4 5 6 
#
# 1 101.3916 40.3609 58.1012 0.0000 6.4993 0.0000
# 2 40.3609 65.8424 50.1538 0.0000 -2.8172 0.0000
# 3 58.1012 50.1538 118.0837 0.0000 -10.1863 0.0000
# 4 0.0000 0.0000 0.0000 30.3066 0.0000 0.1960
# 5 6.4993 -2.8172 -10.1863 0.0000 17.1032 0.0000
# 6 0.0000 0.0000 0.0000 0.1960 0.0000 17.0096
#
#
#
# Elastic Compliance Matrix: (Units=1/GPa)
#
#
# Indices 1 2 3 4 5 6 
#
# 1 0.016715 -0.005501 -0.006867 0.000000 -0.011347 0.000000
# 2 -0.005501 0.024333 -0.007487 0.000000 0.001639 0.000000
# 3 -0.006867 -0.007487 0.015966 0.000000 0.010885 0.000000
# 4 0.000000 0.000000 0.000000 0.032999 0.000000 -0.000380
# 5 -0.011347 0.001639 0.010885 0.000000 0.069534 0.000000
# 6 0.000000 0.000000 0.000000 -0.000380 0.000000 0.058795
#
#
# Mechanical properties :
#
#
# Convention : Reuss Voigt Hill
#
# Bulk Modulus (GPa) = 57.78762 64.72773 61.25768
# Shear Modulus (GPa) = 18.95245 21.99732 20.47488
#
# Velocity S-wave (km/s) = 3.33432 3.59220 3.46566
# Velocity P-wave (km/s) = 6.98015 7.42800 7.20755
#
# Compressibility (1/GPa) = 0.01730474
#
# Stress axis : x y z
#
# Youngs Moduli (GPa) = 59.82737 41.09657 62.63291
#
# Poissons Ratio (x) = 0.22607 0.43008
# Poissons Ratio (y) = 0.32911 0.46892
# Poissons Ratio (z) = 0.41081 0.30768
#
# Static dielectric constant tensor:
#      x y z
#    x 3.230960 0.000000 0.094140 
#    y 0.000000 3.222790 0.000000 
#    z 0.094140 0.000000 3.251880 
# 
# 
# High freq. dielectric constant tensor:
#      x y z
#    x 1.643520 0.000000 0.010170 
#    y 0.000000 1.661500 0.000000 
#    z 0.010170 0.000000 1.654000 
# 
# From -- ./inp_files/249011.got.cif
#   From: 2010.06.25/outbox.cif.g09.slc.cpg/sg12_125_cif.got.tgz:249011.got - 2010.06.28 00:19:55.
