data_PCOD8085800
_publ_section_title
;
Structure prediction by ZEFSAII (Michael W. Deem and Ramdas Pophale) SiO2 
 PCOD8085800
Probable space group: C 2/M
;
_chemical_formula_sum "Si O2"
_cell_formula_units_Z 56
_cell_length_a 28.595886
_cell_length_b 13.696223
_cell_length_c 14.899156
_cell_angle_alpha 90.000000
_cell_angle_beta 30.008857
_cell_angle_gamma 90.000000
_cell_volume 2918.450339
_symmetry_space_group_name_H-M "C 2/M"
_symmetry_group_IT_number 12
_symmetry_cell_setting 'monoclinic'
loop_
_space_group_symop_operation_xyz
x,y,z
-x,y,-z
-x,-y,-z
x,-y,z
1/2+x,1/2+y,z
1/2-x,1/2+y,-z
1/2-x,1/2-y,-z
1/2+x,1/2-y,z
loop_
_atom_site_type_symbol
_atom_site_label
_atom_site_fract_x
_atom_site_fract_y
_atom_site_fract_z
Si Si1 0.906070 0.388761 0.109614
Si Si2 0.294700 0.788235 0.150637
Si Si3 0.335681 0.243033 0.483279
Si Si4 0.044266 0.611359 0.608951
Si Si5 0.721651 0.889704 0.188014
Si Si6 0.769065 0.888864 0.466855
Si Si7 0.839802 0.385484 0.900561
O O1 0.919715 0.500000 0.053434
O O2 0.885317 0.321850 0.056865
O O3 0.823005 0.383111 0.318994
O O4 0.000000 0.349020 0.000000
O O5 0.202327 0.799498 0.365543
O O6 0.299998 0.675659 0.108061
O O7 0.280981 0.855805 0.086016
O O8 0.428911 0.182284 0.351984
O O9 0.256302 0.163544 0.584696
O O10 0.350591 0.325132 0.380830
O O11 0.034955 0.500000 0.660482
O O12 0.121869 0.616693 0.402938
O O13 0.946739 0.651673 0.732258
O O14 0.707219 0.844950 0.112243
O O15 0.759954 0.000000 0.123562
O O16 0.802539 0.000000 0.394971
O O17 0.841372 0.500000 0.886912
#
# Coordination Sequence:
#
# PCOD8085800 Si02
#       7
#     8   8   8   8   8   8   8
#     4   9  18  30  47  75 106 127 151 199 255 295
#     4  10  19  31  47  72 102 131 164 196 242 293
#     4   9  18  30  45  70  98 131 164 197 238 292
#     4   9  17  29  49  75 101 125 155 199 248 293
#     4   9  18  33  50  71 101 135 166 196 235 290
#     4   9  17  30  48  67  93 129 168 200 236 285
#     4  10  19  30  50  78 102 125 158 204 256 294
#
# _framework density 19.188265999999999
#
# number of rings (size 3 to 8) (size 9 to 14) (size 15 to 20)
#    0.000    2.714    0.000    1.714    2.000    2.857 
#    0.000    0.000    0.000    1.286    0.000    0.000 
#    0.000   19.429    0.000    0.000    0.000    0.000 
#
# Total GULP energy -346998.524633 kJ/mol
# GULP energy per Si atom -12392.804451 kJ/mol
# Density = 1.914459 g / cm^3
# Si number density = 19.188266 Si / 1000 Ang^3
#
#
#
# Elastic Constant Matrix: (Units=GPa)
#
#
# Indices 1 2 3 4 5 6 
#
# 1 115.3703 51.2295 20.4436 0.0000 -5.2540 0.0000
# 2 51.2295 76.2309 11.9704 0.0000 -13.2814 0.0000
# 3 20.4436 11.9704 25.1851 0.0000 1.1579 0.0000
# 4 0.0000 0.0000 0.0000 16.3413 0.0000 -0.4609
# 5 -5.2540 -13.2814 1.1579 0.0000 22.4836 0.0000
# 6 0.0000 0.0000 0.0000 -0.4609 0.0000 40.5874
#
#
#
# Elastic Compliance Matrix: (Units=1/GPa)
#
#
# Indices 1 2 3 4 5 6 
#
# 1 0.013485 -0.008197 -0.006989 0.000000 -0.001331 0.000000
# 2 -0.008197 0.021108 -0.003873 0.000000 0.010753 0.000000
# 3 -0.006989 -0.003873 0.047513 0.000000 -0.006368 0.000000
# 4 0.000000 0.000000 0.000000 0.061214 0.000000 0.000695
# 5 -0.001331 0.010753 -0.006368 0.000000 0.050846 0.000000
# 6 0.000000 0.000000 0.000000 0.000695 0.000000 0.024646
#
#
# Mechanical properties :
#
#
# Convention : Reuss Voigt Hill
#
# Bulk Modulus (GPa) = 22.73365 42.67482 32.70423
# Shear Modulus (GPa) = 18.40975 24.75865 21.58420
#
# Velocity S-wave (km/s) = 3.10082 3.59597 3.35754
# Velocity P-wave (km/s) = 4.96926 6.28727 5.66671
#
# Compressibility (1/GPa) = 0.04398765
#
# Stress axis : x y z
#
# Youngs Moduli (GPa) = 74.15376 47.37469 21.04672
#
# Poissons Ratio (x) = 0.38833 0.14710
# Poissons Ratio (y) = 0.60784 0.08152
# Poissons Ratio (z) = 0.51829 0.18350
#
# Static dielectric constant tensor:
#      x y z
#    x 3.821640 0.000000 0.108330 
#    y 0.000000 3.715870 0.000000 
#    z 0.108330 0.000000 3.125510 
# 
# 
# High freq. dielectric constant tensor:
#      x y z
#    x 1.759270 0.000000 0.020990 
#    y 0.000000 1.739820 0.000000 
#    z 0.020990 0.000000 1.700860 
# 
# From -- ./inp_files/224401.got.cif
#   From: 2010.06.25/outbox.cif.g09.slc.cpg/sg12_113_cif.got.tgz:224401.got - 2010.06.28 00:19:55.
