data_PCOD8085562
_publ_section_title
;
Structure prediction by ZEFSAII (Michael W. Deem and Ramdas Pophale) SiO2 
 PCOD8085562
Probable space group: C 2/M
;
_chemical_formula_sum "Si O2"
_cell_formula_units_Z 60
_cell_length_a 17.128909
_cell_length_b 13.809312
_cell_length_c 17.388023
_cell_angle_alpha 90.000000
_cell_angle_beta 125.509141
_cell_angle_gamma 90.000000
_cell_volume 3348.023923
_symmetry_space_group_name_H-M "C 2/M"
_symmetry_group_IT_number 12
_symmetry_cell_setting 'monoclinic'
loop_
_space_group_symop_operation_xyz
x,y,z
-x,y,-z
-x,-y,-z
x,-y,z
1/2+x,1/2+y,z
1/2-x,1/2+y,-z
1/2-x,1/2-y,-z
1/2+x,1/2-y,z
loop_
_atom_site_type_symbol
_atom_site_label
_atom_site_fract_x
_atom_site_fract_y
_atom_site_fract_z
Si Si1 0.710973 0.731360 0.096611
Si Si2 0.485946 0.774771 0.581646
Si Si3 0.000000 0.213512 0.000000
Si Si4 0.021278 0.105637 0.165288
Si Si5 0.408412 0.386664 0.636906
Si Si6 0.677638 0.114891 0.713069
Si Si7 0.201387 0.892567 0.942902
Si Si8 0.196882 0.609826 0.546715
O O1 0.598548 0.767432 0.033355
O O2 0.746401 0.675638 0.192826
O O3 0.766840 0.831269 0.113711
O O4 0.734148 0.658138 0.040366
O O5 0.500000 0.756319 0.500000
O O6 0.476427 0.670482 0.616688
O O7 0.571688 0.839818 0.665416
O O8 0.385684 0.828036 0.540366
O O9 0.038885 0.153247 0.093880
O O10 0.073300 0.156761 0.266957
O O11 0.911313 0.098991 0.124194
O O12 0.068125 0.000000 0.183108
O O13 0.437405 0.500000 0.648630
O O14 0.295283 0.372016 0.556212
O O15 0.710691 0.133053 0.644787
O O16 0.676655 0.000000 0.733365
O O17 0.247591 0.000000 0.965510
O O18 0.162615 0.500000 0.519082
#
# Coordination Sequence:
#
# PCOD8085562 Si02
#       8
#     8   8   4   8   8   8   8   8
#     4  10  19  31  49  72  96 126 160 197 240 285
#     4  10  20  33  49  70  97 129 161 198 242 286
#     4  10  19  30  47  74 102 122 152 200 246 286
#     4   9  17  29  47  71  96 124 156 197 245 284
#     4  10  19  31  49  72  98 129 164 197 235 288
#     4  10  19  32  51  73  95 120 157 201 243 289
#     4   9  18  32  48  68  98 131 162 194 233 283
#     4   9  18  32  50  72  96 123 157 201 251 291
#
# _framework density 17.921019000000001
#
# number of rings (size 3 to 8) (size 9 to 14) (size 15 to 20)
#    0.000    2.400    0.000    3.000    0.000    4.533 
#    0.000    0.333    0.000    0.800    0.000    5.600 
#    0.000    0.000    0.000    0.000    0.000    0.000 
#
# Total GULP energy -371756.285571 kJ/mol
# GULP energy per Si atom -12391.876186 kJ/mol
# Density = 1.788023 g / cm^3
# Si number density = 17.921019 Si / 1000 Ang^3
#
#
#
# Elastic Constant Matrix: (Units=GPa)
#
#
# Indices 1 2 3 4 5 6 
#
# 1 55.2883 33.3608 8.7037 0.0000 1.7055 0.0000
# 2 33.3608 83.1088 17.1233 0.0000 1.8845 0.0000
# 3 8.7037 17.1233 63.0033 0.0000 5.8659 0.0000
# 4 0.0000 0.0000 0.0000 44.4855 0.0000 -236.8178
# 5 1.7055 1.8845 5.8659 0.0000 15.1611 0.0000
# 6 0.0000 0.0000 0.0000 -236.8178 0.0000 2436.1504
#
#
#
# Elastic Compliance Matrix: (Units=1/GPa)
#
#
# Indices 1 2 3 4 5 6 
#
# 1 0.023924 -0.009447 -0.000619 0.000000 -0.001278 0.000000
# 2 -0.009447 0.016477 -0.003197 0.000000 0.000251 0.000000
# 3 -0.000619 -0.003197 0.017410 0.000000 -0.006269 0.000000
# 4 0.000000 0.000000 0.000000 0.046588 0.000000 0.004529
# 5 -0.001278 0.000251 -0.006269 0.000000 0.068496 0.000000
# 6 0.000000 0.000000 0.000000 0.004529 0.000000 0.000851
#
#
# Mechanical properties :
#
#
# Convention : Reuss Voigt Hill
#
# Bulk Modulus (GPa) = 31.96184 35.53067 33.74626
# Shear Modulus (GPa) = 23.73036 508.64025 266.18531
#
# Velocity S-wave (km/s) = 3.64285 16.86533 12.20061
# Velocity P-wave (km/s) = 5.96384 19.97804 14.74261
#
# Compressibility (1/GPa) = 0.03128731
#
# Stress axis : x y z
#
# Youngs Moduli (GPa) = 41.79893 60.68894 57.43789
#
# Poissons Ratio (x) = 0.57333 0.03553
# Poissons Ratio (y) = 0.39487 0.18361
# Poissons Ratio (z) = 0.02585 0.19400
#
# Static dielectric constant tensor:
#      x y z
#    x 3.321170 0.000000 0.075780 
#    y 0.000000 3.285880 0.000000 
#    z 0.075780 0.000000 3.297390 
# 
# 
# High freq. dielectric constant tensor:
#      x y z
#    x 1.692860 0.000000 0.011940 
#    y 0.000000 1.673020 0.000000 
#    z 0.011940 0.000000 1.695230 
# 
# From -- ./inp_files/277621.got.cif
#   From: 2010.06.25/outbox.cif.g09.slc.cpg/sg12_139_cif.got.tgz:277621.got - 2010.06.28 00:19:55.
