data_PCOD8085049
_publ_section_title
;
Structure prediction by ZEFSAII (Michael W. Deem and Ramdas Pophale) SiO2 
 PCOD8085049
Probable space group: C 2/M
;
_chemical_formula_sum "Si O2"
_cell_formula_units_Z 64
_cell_length_a 20.115793
_cell_length_b 9.250617
_cell_length_c 21.571048
_cell_angle_alpha 90.000000
_cell_angle_beta 117.197035
_cell_angle_gamma 90.000000
_cell_volume 3570.226532
_symmetry_space_group_name_H-M "C 2/M"
_symmetry_group_IT_number 12
_symmetry_cell_setting 'monoclinic'
loop_
_space_group_symop_operation_xyz
x,y,z
-x,y,-z
-x,-y,-z
x,-y,z
1/2+x,1/2+y,z
1/2-x,1/2+y,-z
1/2-x,1/2-y,-z
1/2+x,1/2-y,z
loop_
_atom_site_type_symbol
_atom_site_label
_atom_site_fract_x
_atom_site_fract_y
_atom_site_fract_z
Si Si1 0.815692 0.168658 0.792654
Si Si2 0.290815 0.166801 0.570885
Si Si3 0.785808 0.833057 0.337531
Si Si4 0.037068 0.330977 0.342449
Si Si5 0.882744 0.338052 0.925656
Si Si6 0.540006 0.333059 0.580667
Si Si7 0.961794 0.337591 0.078943
Si Si8 0.468850 0.330607 0.787688
O O1 0.741518 0.241184 0.732923
O O2 0.826568 0.229774 0.866859
O O3 0.886913 0.205624 0.779790
O O4 0.801816 0.000000 0.792310
O O5 0.250000 0.250000 0.500000
O O6 0.261144 0.223938 0.623905
O O7 0.378006 0.197401 0.602365
O O8 0.270157 0.000000 0.554713
O O9 0.872138 0.807143 0.389148
O O10 0.768310 0.000000 0.315987
O O11 0.020202 0.500000 0.326458
O O12 0.018461 0.250045 0.271181
O O13 0.986596 0.267865 0.375267
O O14 0.849209 0.500000 0.909324
O O15 0.961177 0.335587 0.924727
O O16 0.895994 0.289934 0.003009
O O17 0.500000 0.285377 0.500000
O O18 0.521291 0.500000 0.587920
O O19 0.946404 0.500000 0.097201
O O20 0.966817 0.226476 0.138220
O O21 0.480212 0.500000 0.782574
#
# Coordination Sequence:
#
# PCOD8085049 Si02
#       8
#     8   8   8   8   8   8   8   8
#     4  10  19  29  46  74 105 137 173 219 262 300
#     4  10  21  35  54  78 101 131 169 210 259 312
#     4  10  20  36  55  75 102 138 174 210 259 318
#     4  11  22  36  55  78 105 137 173 217 263 312
#     4   8  14  25  42  65  98 139 175 209 254 309
#     4  10  22  40  60  78 102 136 173 217 266 318
#     4   8  14  25  42  66  98 137 176 212 254 303
#     4  10  19  30  47  73 105 140 175 215 262 307
#
# _framework density 17.926031999999999
#
# number of rings (size 3 to 8) (size 9 to 14) (size 15 to 20)
#    0.000    2.375    1.250    2.625    0.000    4.750 
#    0.000    2.500    0.000    0.000    0.000    0.875 
#    0.000    0.000    0.000    0.000    0.000    0.000 
#
# Total GULP energy -396778.893806 kJ/mol
# GULP energy per Si atom -12399.340431 kJ/mol
# Density = 1.788523 g / cm^3
# Si number density = 17.926032 Si / 1000 Ang^3
#
#
#
# Elastic Constant Matrix: (Units=GPa)
#
#
# Indices 1 2 3 4 5 6 
#
# 1 29.7247 25.2740 12.1705 0.0000 0.6365 0.0000
# 2 25.2740 91.8051 71.9305 0.0000 -1.8607 0.0000
# 3 12.1705 71.9305 143.4179 0.0000 4.0961 0.0000
# 4 0.0000 0.0000 0.0000 38.3841 0.0000 -2.4918
# 5 0.6365 -1.8607 4.0961 0.0000 20.1548 0.0000
# 6 0.0000 0.0000 0.0000 -2.4918 0.0000 21.1740
#
#
#
# Elastic Compliance Matrix: (Units=1/GPa)
#
#
# Indices 1 2 3 4 5 6 
#
# 1 0.045532 -0.015927 0.004232 0.000000 -0.003768 0.000000
# 2 -0.015927 0.023765 -0.010707 0.000000 0.004873 0.000000
# 3 0.004232 -0.010707 0.012086 0.000000 -0.003578 0.000000
# 4 0.000000 0.000000 0.000000 0.026253 0.000000 0.003090
# 5 -0.003768 0.004873 -0.003578 0.000000 0.050912 0.000000
# 6 0.000000 0.000000 0.000000 0.003090 0.000000 0.047591
#
#
# Mechanical properties :
#
#
# Convention : Reuss Voigt Hill
#
# Bulk Modulus (GPa) = 27.33813 53.74418 40.54115
# Shear Modulus (GPa) = 19.00150 26.31409 22.65779
#
# Velocity S-wave (km/s) = 3.25929 3.83551 3.55908
# Velocity P-wave (km/s) = 5.42656 7.04706 6.28922
#
# Compressibility (1/GPa) = 0.03657895
#
# Stress axis : x y z
#
# Youngs Moduli (GPa) = 21.96236 42.07837 82.74248
#
# Poissons Ratio (x) = 0.67019 -0.35017
# Poissons Ratio (y) = 0.34980 0.88591
# Poissons Ratio (z) = -0.09294 0.45053
#
# Static dielectric constant tensor:
#      x y z
#    x 3.033460 0.000000 -0.011450 
#    y 0.000000 3.339250 0.000000 
#    z -0.011450 0.000000 3.641670 
# 
# 
# High freq. dielectric constant tensor:
#      x y z
#    x 1.646300 0.000000 0.001890 
#    y 0.000000 1.695380 0.000000 
#    z 0.001890 0.000000 1.711430 
# 
# From -- ./inp_files/319859.got.cif
#   From: 2010.06.25/outbox.cif.g09.slc.cpg/sg12_160_cif.got.tgz:319859.got - 2010.06.28 00:19:55.
