data_PCOD8085435
_publ_section_title
;
Structure prediction by ZEFSAII (Michael W. Deem and Ramdas Pophale) SiO2 
 PCOD8085435
Probable space group: C 2/M
;
_chemical_formula_sum "Si O2"
_cell_formula_units_Z 56
_cell_length_a 26.413856
_cell_length_b 23.475967
_cell_length_c 17.442466
_cell_angle_alpha 90.000000
_cell_angle_beta 160.911744
_cell_angle_gamma 90.000000
_cell_volume 3537.065313
_symmetry_space_group_name_H-M "C 2/M"
_symmetry_group_IT_number 12
_symmetry_cell_setting 'monoclinic'
loop_
_space_group_symop_operation_xyz
x,y,z
-x,y,-z
-x,-y,-z
x,-y,z
1/2+x,1/2+y,z
1/2-x,1/2+y,-z
1/2-x,1/2-y,-z
1/2+x,1/2-y,z
loop_
_atom_site_type_symbol
_atom_site_label
_atom_site_fract_x
_atom_site_fract_y
_atom_site_fract_z
Si Si1 0.983399 0.669455 0.101088
Si Si2 0.383383 0.758034 0.266767
Si Si3 0.890571 0.062786 0.509676
Si Si4 0.248019 0.169455 0.630329
Si Si5 0.652362 0.062786 0.033258
Si Si6 0.045863 0.250000 0.795863
Si Si7 0.381198 0.376777 0.262395
O O1 0.976620 0.706291 0.167590
O O2 0.141486 0.682479 0.282972
O O3 0.834773 0.683822 0.834773
O O4 0.980804 0.602803 0.120941
O O5 0.500000 0.775675 0.500000
O O6 0.449319 0.782106 0.280303
O O7 0.361475 0.690360 0.222949
O O8 0.212649 0.782105 0.043632
O O9 0.799473 0.102804 0.439611
O O10 0.790394 0.055518 0.290394
O O11 0.052587 0.093545 0.719676
O O12 0.920795 0.000000 0.589085
O O13 0.094681 0.206292 0.403711
O O14 0.718407 0.093546 0.051318
O O15 0.584215 0.000000 0.915923
O O16 0.500000 0.387969 0.500000
#
# Coordination Sequence:
#
# PCOD8085435 Si02
#       7
#     8   8   8   8   8   8   8
#     4  10  20  32  45  64  94 128 159 190 220 259
#     4  10  19  30  47  68  92 120 150 189 234 275
#     4   9  16  26  42  63  89 122 153 180 218 270
#     4  10  20  32  45  64  94 128 159 190 220 259
#     4   9  16  26  42  63  89 122 153 180 218 270
#     4  11  19  30  48  66  89 123 160 186 230 273
#     4   9  14  25  41  60  87 116 146 180 221 265
#
# _framework density 15.832335
#
# number of rings (size 3 to 8) (size 9 to 14) (size 15 to 20)
#    0.000    2.286    2.857    1.714    0.000    2.286 
#    0.000    2.857    0.000    0.000    0.000    0.000 
#    0.000    5.714    0.000   14.000    0.000    1.143 
#
# Total GULP energy -346917.153878 kJ/mol
# GULP energy per Si atom -12389.898353 kJ/mol
# Density = 1.579630 g / cm^3
# Si number density = 15.832335 Si / 1000 Ang^3
#
#
#
# Elastic Constant Matrix: (Units=GPa)
#
#
# Indices 1 2 3 4 5 6 
#
# 1 107.7818 40.9772 44.8850 0.0000 6.4871 0.0000
# 2 40.9772 70.3032 30.9630 0.0000 8.8038 0.0000
# 3 44.8850 30.9630 87.0794 0.0000 11.7120 0.0000
# 4 0.0000 0.0000 0.0000 13.9716 0.0000 3.9750
# 5 6.4871 8.8038 11.7120 0.0000 23.1655 0.0000
# 6 0.0000 0.0000 0.0000 3.9750 0.0000 18.4934
#
#
#
# Elastic Compliance Matrix: (Units=1/GPa)
#
#
# Indices 1 2 3 4 5 6 
#
# 1 0.013517 -0.005778 -0.005042 0.000000 0.000960 0.000000
# 2 -0.005778 0.019624 -0.003448 0.000000 -0.004096 0.000000
# 3 -0.005042 -0.003448 0.016033 0.000000 -0.005383 0.000000
# 4 0.000000 0.000000 0.000000 0.076236 0.000000 -0.016386
# 5 0.000960 -0.004096 -0.005383 0.000000 0.047177 0.000000
# 6 0.000000 0.000000 0.000000 -0.016386 0.000000 0.057595
#
#
# Mechanical properties :
#
#
# Convention : Reuss Voigt Hill
#
# Bulk Modulus (GPa) = 48.45741 55.42387 51.94064
# Shear Modulus (GPa) = 18.82554 21.01537 19.92046
#
# Velocity S-wave (km/s) = 3.45201 3.64726 3.55098
# Velocity P-wave (km/s) = 6.82360 7.26770 7.04915
#
# Compressibility (1/GPa) = 0.02063668
#
# Stress axis : x y z
#
# Youngs Moduli (GPa) = 73.98340 50.95904 62.37252
#
# Poissons Ratio (x) = 0.29444 0.31446
# Poissons Ratio (y) = 0.42748 0.21508
# Poissons Ratio (z) = 0.37300 0.17573
#
# Static dielectric constant tensor:
#      x y z
#    x 3.110250 0.000000 0.203980 
#    y 0.000000 3.060680 0.000000 
#    z 0.203980 0.000000 2.878210 
# 
# 
# High freq. dielectric constant tensor:
#      x y z
#    x 1.608370 0.000000 0.029030 
#    y 0.000000 1.591980 0.000000 
#    z 0.029030 0.000000 1.575350 
# 
# From -- ./inp_files/184587.got.cif
#   From: 2010.06.25/outbox.cif.g09.slc.cpg/sg12_93_cif.got.tgz:184587.got - 2010.06.28 00:19:55.
