data_PCOD8085814
_publ_section_title
;
Structure prediction by ZEFSAII (Michael W. Deem and Ramdas Pophale) SiO2 
 PCOD8085814
Probable space group: C 2/M
;
_chemical_formula_sum "Si O2"
_cell_formula_units_Z 48
_cell_length_a 22.711565
_cell_length_b 9.463024
_cell_length_c 12.402419
_cell_angle_alpha 90.000000
_cell_angle_beta 111.310978
_cell_angle_gamma 90.000000
_cell_volume 2483.264366
_symmetry_space_group_name_H-M "C 2/M"
_symmetry_group_IT_number 12
_symmetry_cell_setting 'monoclinic'
loop_
_space_group_symop_operation_xyz
x,y,z
-x,y,-z
-x,-y,-z
x,-y,z
1/2+x,1/2+y,z
1/2-x,1/2+y,-z
1/2-x,1/2-y,-z
1/2+x,1/2-y,z
loop_
_atom_site_type_symbol
_atom_site_label
_atom_site_fract_x
_atom_site_fract_y
_atom_site_fract_z
Si Si1 0.572370 0.654043 0.078710
Si Si2 0.961063 0.336833 0.751896
Si Si3 0.084647 0.836967 0.852386
Si Si4 0.778295 0.163593 0.116907
Si Si5 0.340460 0.839157 0.546763
Si Si6 0.759942 0.835283 0.343120
O O1 0.598313 0.500000 0.135255
O O2 0.578599 0.771634 0.174767
O O3 0.500000 0.637094 0.000000
O O4 0.605806 0.702500 0.989495
O O5 0.975118 0.500000 0.787850
O O6 0.915272 0.321159 0.618117
O O7 0.026794 0.258344 0.771407
O O8 0.146282 0.809937 0.821289
O O9 0.062127 0.000000 0.832684
O O10 0.748504 0.212657 0.211538
O O11 0.764121 0.000000 0.083705
O O12 0.750000 0.250000 0.000000
O O13 0.301916 0.795343 0.629199
O O14 0.320957 0.743000 0.433292
O O15 0.323991 0.000000 0.506046
O O16 0.776055 0.000000 0.356371
#
# Coordination Sequence:
#
# PCOD8085814 Si02
#       6
#     8   8   8   8   8   8
#     4   8  15  28  45  67 101 138 170 208 251 303
#     4  10  19  30  50  79 106 135 173 220 269 310
#     4   9  19  35  50  72 107 142 176 213 256 316
#     4  10  22  38  57  80 108 142 179 218 263 318
#     4   9  19  35  55  80 108 135 173 224 270 312
#     4   9  19  37  57  78 105 138 178 221 262 312
#
# _framework density 19.329397
#
# number of rings (size 3 to 8) (size 9 to 14) (size 15 to 20)
#    0.000    2.833    0.000    1.500    2.333    5.667 
#    0.000    0.833    0.000    5.000    0.000    0.000 
#    0.000    0.000    0.000    0.000    0.000    0.000 
#
# Total GULP energy -297484.917807 kJ/mol
# GULP energy per Si atom -12395.204909 kJ/mol
# Density = 1.928540 g / cm^3
# Si number density = 19.329397 Si / 1000 Ang^3
#
#
#
# Elastic Constant Matrix: (Units=GPa)
#
#
# Indices 1 2 3 4 5 6 
#
# 1 51.1024 29.8826 32.9804 0.0000 1.1177 0.0000
# 2 29.8826 87.8654 56.7321 0.0000 8.8623 0.0000
# 3 32.9804 56.7321 110.2633 0.0000 1.6505 0.0000
# 4 0.0000 0.0000 0.0000 33.7400 0.0000 3.8248
# 5 1.1177 8.8623 1.6505 0.0000 27.1388 0.0000
# 6 0.0000 0.0000 0.0000 3.8248 0.0000 20.9687
#
#
#
# Elastic Compliance Matrix: (Units=1/GPa)
#
#
# Indices 1 2 3 4 5 6 
#
# 1 0.026078 -0.005895 -0.004784 0.000000 0.001142 0.000000
# 2 -0.005895 0.019092 -0.007977 0.000000 -0.005507 0.000000
# 3 -0.004784 -0.007977 0.014576 0.000000 0.001916 0.000000
# 4 0.000000 0.000000 0.000000 0.030264 0.000000 -0.005520
# 5 0.001142 -0.005507 0.001916 0.000000 0.038482 0.000000
# 6 0.000000 0.000000 0.000000 -0.005520 0.000000 0.048697
#
#
# Mechanical properties :
#
#
# Convention : Reuss Voigt Hill
#
# Bulk Modulus (GPa) = 44.57747 54.26904 49.42325
# Shear Modulus (GPa) = 22.52435 25.01189 23.76812
#
# Velocity S-wave (km/s) = 3.41734 3.60110 3.51042
# Velocity P-wave (km/s) = 6.21957 6.73999 6.48500
#
# Compressibility (1/GPa) = 0.02243286
#
# Stress axis : x y z
#
# Youngs Moduli (GPa) = 38.34580 52.37715 68.60598
#
# Poissons Ratio (x) = 0.30879 0.32821
# Poissons Ratio (y) = 0.22607 0.54730
# Poissons Ratio (z) = 0.18345 0.41784
#
# Static dielectric constant tensor:
#      x y z
#    x 3.646240 0.000000 -0.321120 
#    y 0.000000 3.522140 0.000000 
#    z -0.321120 0.000000 3.589340 
# 
# 
# High freq. dielectric constant tensor:
#      x y z
#    x 1.741700 0.000000 0.001150 
#    y 0.000000 1.750210 0.000000 
#    z 0.001150 0.000000 1.732900 
# 
# From -- ./inp_files/173070.got.cif
#   From: 2010.06.25/outbox.cif.g09.slc.cpg/sg12_87_cif.got.tgz:173070.got - 2010.06.28 00:19:55.
