data_PCOD8085549
_publ_section_title
;
Structure prediction by ZEFSAII (Michael W. Deem and Ramdas Pophale) SiO2 
 PCOD8085549
Probable space group: C 2/M
;
_chemical_formula_sum "Si O2"
_cell_formula_units_Z 64
_cell_length_a 29.258276
_cell_length_b 9.156586
_cell_length_c 15.387526
_cell_angle_alpha 90.000000
_cell_angle_beta 61.128994
_cell_angle_gamma 90.000000
_cell_volume 3610.030838
_symmetry_space_group_name_H-M "C 2/M"
_symmetry_group_IT_number 12
_symmetry_cell_setting 'monoclinic'
loop_
_space_group_symop_operation_xyz
x,y,z
-x,y,-z
-x,-y,-z
x,-y,z
1/2+x,1/2+y,z
1/2-x,1/2+y,-z
1/2-x,1/2-y,-z
1/2+x,1/2-y,z
loop_
_atom_site_type_symbol
_atom_site_label
_atom_site_fract_x
_atom_site_fract_y
_atom_site_fract_z
Si Si1 0.860636 0.330748 0.358197
Si Si2 0.907969 0.668719 0.567165
Si Si3 0.321635 0.331177 0.885178
Si Si4 0.468165 0.834525 0.334304
Si Si5 0.229939 0.170828 0.888150
Si Si6 0.293014 0.833242 0.260150
Si Si7 0.065731 0.170795 0.285426
Si Si8 0.318388 0.670165 0.558809
O O1 0.851195 0.500000 0.393026
O O2 0.922196 0.293925 0.308583
O O3 0.842157 0.298824 0.277273
O O4 0.827437 0.232951 0.454628
O O5 0.896510 0.500000 0.598171
O O6 0.946464 0.686704 0.451072
O O7 0.935656 0.742772 0.623226
O O8 0.853470 0.748926 0.598307
O O9 0.309994 0.500000 0.877201
O O10 0.286931 0.241548 0.848471
O O11 0.381983 0.292597 0.815892
O O12 0.307043 0.288102 0.996864
O O13 0.516694 0.726482 0.273556
O O14 0.487345 0.000000 0.302424
O O15 0.202126 0.231233 0.827949
O O16 0.237833 0.000000 0.870775
O O17 0.241261 0.800474 0.362497
O O18 0.293811 0.000000 0.227335
O O19 0.060213 0.000000 0.309216
O O20 0.332819 0.500000 0.546609
#
# Coordination Sequence:
#
# PCOD8085549 Si02
#       8
#     8   8   8   8   8   8   8   8
#     4   9  19  35  51  68  97 135 167 199 240 283
#     4  10  20  33  48  69 101 135 164 197 238 286
#     4   9  20  37  52  72 103 130 154 193 245 293
#     4   9  19  34  49  67  95 130 166 202 237 279
#     4  10  20  34  54  77  99 126 160 196 237 290
#     4  10  20  33  50  73 101 131 162 199 244 287
#     4  11  21  32  50  73  97 126 161 202 245 289
#     4  10  19  30  47  73 103 131 162 201 239 281
#
# _framework density 17.728380999999999
#
# number of rings (size 3 to 8) (size 9 to 14) (size 15 to 20)
#    0.000    2.250    0.000    3.750    0.000   10.000 
#    0.000    0.000    0.000    0.750    0.000    5.250 
#    0.000    0.000    0.000    0.000    0.000    0.000 
#
# Total GULP energy -396906.261572 kJ/mol
# GULP energy per Si atom -12403.320674 kJ/mol
# Density = 1.768803 g / cm^3
# Si number density = 17.728381 Si / 1000 Ang^3
#
#
#
# Elastic Constant Matrix: (Units=GPa)
#
#
# Indices 1 2 3 4 5 6 
#
# 1 137.6369 62.0838 55.8709 0.0000 2.2398 0.0000
# 2 62.0838 91.7299 42.8472 0.0000 -0.5283 0.0000
# 3 55.8709 42.8472 60.1347 0.0000 3.6046 0.0000
# 4 0.0000 0.0000 0.0000 26.3689 0.0000 0.9572
# 5 2.2398 -0.5283 3.6046 0.0000 24.3790 0.0000
# 6 0.0000 0.0000 0.0000 0.9572 0.0000 31.4483
#
#
#
# Elastic Compliance Matrix: (Units=1/GPa)
#
#
# Indices 1 2 3 4 5 6 
#
# 1 0.012883 -0.004689 -0.008628 0.000000 -0.000010 0.000000
# 2 -0.004689 0.018153 -0.008704 0.000000 0.002111 0.000000
# 3 -0.008628 -0.008704 0.031087 0.000000 -0.003992 0.000000
# 4 0.000000 0.000000 0.000000 0.037965 0.000000 -0.001156
# 5 -0.000010 0.002111 -0.003992 0.000000 0.041656 0.000000
# 6 0.000000 0.000000 0.000000 -0.001156 0.000000 0.031833
#
#
# Mechanical properties :
#
#
# Convention : Reuss Voigt Hill
#
# Bulk Modulus (GPa) = 55.30916 67.90060 61.60488
# Shear Modulus (GPa) = 22.35659 25.01921 23.68790
#
# Velocity S-wave (km/s) = 3.55500 3.76074 3.65931
# Velocity P-wave (km/s) = 6.93660 7.56579 7.25802
#
# Compressibility (1/GPa) = 0.01808019
#
# Stress axis : x y z
#
# Youngs Moduli (GPa) = 77.62027 55.08611 32.16816
#
# Poissons Ratio (x) = 0.25833 0.27754
# Poissons Ratio (y) = 0.36400 0.28000
# Poissons Ratio (z) = 0.66969 0.47948
#
# Static dielectric constant tensor:
#      x y z
#    x 3.437870 0.000000 0.022020 
#    y 0.000000 3.357400 0.000000 
#    z 0.022020 0.000000 3.070910 
# 
# 
# High freq. dielectric constant tensor:
#      x y z
#    x 1.689410 0.000000 0.000420 
#    y 0.000000 1.693780 0.000000 
#    z 0.000420 0.000000 1.657910 
# 
# From -- ./inp_files/249004.got.cif
#   From: 2010.06.25/outbox.cif.g09.slc.cpg/sg12_125_cif.got.tgz:249004.got - 2010.06.28 00:19:55.
