data_PCOD8085777
_publ_section_title
;
Structure prediction by ZEFSAII (Michael W. Deem and Ramdas Pophale) SiO2 
 PCOD8085777
Probable space group: C 2/M
;
_chemical_formula_sum "Si O2"
_cell_formula_units_Z 64
_cell_length_a 19.955422
_cell_length_b 13.167814
_cell_length_c 13.604612
_cell_angle_alpha 90.000000
_cell_angle_beta 74.920977
_cell_angle_gamma 90.000000
_cell_volume 3451.783894
_symmetry_space_group_name_H-M "C 2/M"
_symmetry_group_IT_number 12
_symmetry_cell_setting 'monoclinic'
loop_
_space_group_symop_operation_xyz
x,y,z
-x,y,-z
-x,-y,-z
x,-y,z
1/2+x,1/2+y,z
1/2-x,1/2+y,-z
1/2-x,1/2-y,-z
1/2+x,1/2-y,z
loop_
_atom_site_type_symbol
_atom_site_label
_atom_site_fract_x
_atom_site_fract_y
_atom_site_fract_z
Si Si1 0.305937 0.619921 0.907700
Si Si2 0.395331 0.383666 0.223868
Si Si3 0.353320 0.320497 0.452264
Si Si4 0.457094 0.618342 0.773715
Si Si5 0.332370 0.888268 0.694855
Si Si6 0.782123 0.798469 0.130548
Si Si7 0.704332 0.887859 0.509241
Si Si8 0.058030 0.766590 0.410428
O O1 0.293322 0.500000 0.895148
O O2 0.382561 0.655763 0.842873
O O3 0.244643 0.682148 0.874560
O O4 0.303917 0.647339 0.022398
O O5 0.380290 0.500000 0.195854
O O6 0.379185 0.377144 0.345894
O O7 0.477522 0.356592 0.178679
O O8 0.348458 0.305440 0.178481
O O9 0.348699 0.198322 0.432241
O O10 0.280631 0.364286 0.519473
O O11 0.400314 0.339133 0.530193
O O12 0.452912 0.500000 0.758757
O O13 0.475884 0.665690 0.661142
O O14 0.282342 0.860138 0.802573
O O15 0.288679 0.882691 0.611343
O O16 0.398163 0.816486 0.663658
O O17 0.361858 0.000000 0.703416
O O18 0.679245 0.000000 0.553701
O O19 0.000000 0.711558 0.500000
#
# Coordination Sequence:
#
# PCOD8085777 Si02
#       8
#     8   8   8   8   8   8   8   8
#     4  10  22  40  62  90 117 145 185 235 292 344
#     4  11  21  35  57  83 113 150 192 233 278 339
#     4  10  19  30  50  74 104 142 185 227 269 326
#     4  10  22  38  55  81 119 153 189 233 283 342
#     4  10  19  33  55  79 106 143 191 239 283 331
#     4  11  21  37  64  90 112 147 185 239 291 336
#     4   9  18  31  47  72 105 139 179 231 280 326
#     4  11  21  35  51  75 113 153 193 230 275 337
#
# _framework density 18.541136999999999
#
# number of rings (size 3 to 8) (size 9 to 14) (size 15 to 20)
#    0.000    1.750    3.750    1.500    0.000    2.000 
#    0.000    3.750    0.000    0.750    0.000    1.750 
#    0.000    0.000    0.000    0.000    0.000    0.000 
#
# Total GULP energy -396600.206285 kJ/mol
# GULP energy per Si atom -12393.756446 kJ/mol
# Density = 1.849894 g / cm^3
# Si number density = 18.541137 Si / 1000 Ang^3
#
#
#
# Elastic Constant Matrix: (Units=GPa)
#
#
# Indices 1 2 3 4 5 6 
#
# 1 114.2767 43.9215 39.6962 0.0000 2.5957 0.0000
# 2 43.9215 73.6987 27.9036 0.0000 3.6340 0.0000
# 3 39.6962 27.9036 80.7747 0.0000 -5.8331 0.0000
# 4 0.0000 0.0000 0.0000 24.6087 0.0000 0.5983
# 5 2.5957 3.6340 -5.8331 0.0000 28.5562 0.0000
# 6 0.0000 0.0000 0.0000 0.5983 0.0000 24.1305
#
#
#
# Elastic Compliance Matrix: (Units=1/GPa)
#
#
# Indices 1 2 3 4 5 6 
#
# 1 0.012463 -0.005766 -0.004224 0.000000 -0.001262 0.000000
# 2 -0.005766 0.018559 -0.003766 0.000000 -0.002607 0.000000
# 3 -0.004224 -0.003766 0.016056 0.000000 0.004143 0.000000
# 4 0.000000 0.000000 0.000000 0.040661 0.000000 -0.001008
# 5 -0.001262 -0.002607 0.004143 0.000000 0.036311 0.000000
# 6 0.000000 0.000000 0.000000 -0.001008 0.000000 0.041466
#
#
# Mechanical properties :
#
#
# Convention : Reuss Voigt Hill
#
# Bulk Modulus (GPa) = 51.10777 54.64365 52.87571
# Shear Modulus (GPa) = 25.05630 25.94097 25.49864
#
# Velocity S-wave (km/s) = 3.68011 3.74452 3.71245
# Velocity P-wave (km/s) = 6.75885 6.94484 6.85247
#
# Compressibility (1/GPa) = 0.01956650
#
# Stress axis : x y z
#
# Youngs Moduli (GPa) = 80.23945 53.88112 62.28131
#
# Poissons Ratio (x) = 0.31067 0.26308
# Poissons Ratio (y) = 0.46264 0.23455
# Poissons Ratio (z) = 0.33894 0.20292
#
# Static dielectric constant tensor:
#      x y z
#    x 3.652210 0.000000 -0.069490 
#    y 0.000000 3.448280 0.000000 
#    z -0.069490 0.000000 3.313350 
# 
# 
# High freq. dielectric constant tensor:
#      x y z
#    x 1.723480 0.000000 -0.004080 
#    y 0.000000 1.709700 0.000000 
#    z -0.004080 0.000000 1.706560 
# 
# From -- ./inp_files/167229.got.cif
#   From: 2010.06.25/outbox.cif.g09.slc.cpg/sg12_84_cif.got.tgz:167229.got - 2010.06.28 00:19:55.
