data_PCOD8085403
_publ_section_title
;
Structure prediction by ZEFSAII (Michael W. Deem and Ramdas Pophale) SiO2 
 PCOD8085403
Probable space group: C 2/M
;
_chemical_formula_sum "Si O2"
_cell_formula_units_Z 64
_cell_length_a 23.394872
_cell_length_b 9.031331
_cell_length_c 17.073553
_cell_angle_alpha 90.000000
_cell_angle_beta 95.417095
_cell_angle_gamma 90.000000
_cell_volume 3591.305642
_symmetry_space_group_name_H-M "C 2/M"
_symmetry_group_IT_number 12
_symmetry_cell_setting 'monoclinic'
loop_
_space_group_symop_operation_xyz
x,y,z
-x,y,-z
-x,-y,-z
x,-y,z
1/2+x,1/2+y,z
1/2-x,1/2+y,-z
1/2-x,1/2-y,-z
1/2+x,1/2-y,z
loop_
_atom_site_type_symbol
_atom_site_label
_atom_site_fract_x
_atom_site_fract_y
_atom_site_fract_z
Si Si1 0.440705 0.674549 0.957262
Si Si2 0.068871 0.175139 0.219214
Si Si3 0.454912 0.826440 0.241262
Si Si4 0.619197 0.670065 0.899745
Si Si5 0.854153 0.329494 0.335015
Si Si6 0.680444 0.167232 0.273761
Si Si7 0.230485 0.171158 0.575483
Si Si8 0.286160 0.667822 0.198750
O O1 0.445173 0.500000 0.948161
O O2 0.429208 0.739763 0.869454
O O3 0.500000 0.738497 0.000000
O O4 0.389724 0.720206 0.011137
O O5 0.127622 0.220770 0.269496
O O6 0.016110 0.247696 0.258797
O O7 0.062429 0.000000 0.221831
O O8 0.421735 0.762982 0.161979
O O9 0.419966 0.796302 0.317845
O O10 0.463424 0.000000 0.228707
O O11 0.598924 0.500000 0.888376
O O12 0.686882 0.687278 0.885075
O O13 0.845508 0.500000 0.355860
O O14 0.831926 0.233620 0.405753
O O15 0.816233 0.291225 0.254780
O O16 0.722391 0.202177 0.351582
O O17 0.717401 0.190202 0.197509
O O18 0.656743 0.000000 0.275611
O O19 0.250000 0.250000 0.500000
O O20 0.222916 0.000000 0.556340
O O21 0.300341 0.500000 0.231710
#
# Coordination Sequence:
#
# PCOD8085403 Si02
#       8
#     8   8   8   8   8   8   8   8
#     4   9  16  28  45  68  96 126 168 219 260 295
#     4  11  21  32  49  70  95 135 177 210 250 300
#     4  10  19  30  46  71 101 131 165 210 257 294
#     4   9  15  28  49  68  91 125 170 216 254 301
#     4   9  17  29  48  75 104 130 161 202 245 290
#     4   9  19  35  50  71 103 132 161 199 247 298
#     4  10  20  35  58  84 108 133 160 195 241 290
#     4   8  15  28  48  69  91 127 167 206 253 299
#
# _framework density 17.820816000000001
#
# number of rings (size 3 to 8) (size 9 to 14) (size 15 to 20)
#    0.000    2.625    1.250    2.250    0.000    4.000 
#    0.000    2.500    0.000    0.750    0.000    5.250 
#    0.000    0.000    0.000    0.000    0.000    0.000 
#
# Total GULP energy -396514.179510 kJ/mol
# GULP energy per Si atom -12391.068110 kJ/mol
# Density = 1.778026 g / cm^3
# Si number density = 17.820816 Si / 1000 Ang^3
#
#
#
# Elastic Constant Matrix: (Units=GPa)
#
#
# Indices 1 2 3 4 5 6 
#
# 1 116.9478 57.1641 47.9763 0.0000 -27.4352 0.0000
# 2 57.1641 86.0954 40.9492 0.0000 -18.3443 0.0000
# 3 47.9763 40.9492 75.5894 0.0000 -30.6739 0.0000
# 4 0.0000 0.0000 0.0000 20.0638 0.0000 -3.3043
# 5 -27.4352 -18.3443 -30.6739 0.0000 30.9109 0.0000
# 6 0.0000 0.0000 0.0000 -3.3043 0.0000 27.9141
#
#
#
# Elastic Compliance Matrix: (Units=1/GPa)
#
#
# Indices 1 2 3 4 5 6 
#
# 1 0.014591 -0.006964 -0.003198 0.000000 0.005644 0.000000
# 2 -0.006964 0.019010 -0.006376 0.000000 -0.001227 0.000000
# 3 -0.003198 -0.006376 0.026830 0.000000 0.020002 0.000000
# 4 0.000000 0.000000 0.000000 0.050832 0.000000 0.006017
# 5 0.005644 -0.001227 0.020002 0.000000 0.056481 0.000000
# 6 0.000000 0.000000 0.000000 0.006017 0.000000 0.036536
#
#
# Mechanical properties :
#
#
# Convention : Reuss Voigt Hill
#
# Bulk Modulus (GPa) = 36.55633 63.42354 49.98994
# Shear Modulus (GPa) = 20.28606 24.61397 22.45001
#
# Velocity S-wave (km/s) = 3.37758 3.72047 3.55317
# Velocity P-wave (km/s) = 5.98068 7.35681 6.70415
#
# Compressibility (1/GPa) = 0.02735504
#
# Stress axis : x y z
#
# Youngs Moduli (GPa) = 68.53632 52.60310 37.27212
#
# Poissons Ratio (x) = 0.36634 0.11918
# Poissons Ratio (y) = 0.47731 0.23765
# Poissons Ratio (z) = 0.21915 0.33540
#
# Static dielectric constant tensor:
#      x y z
#    x 3.436910 0.000000 -0.502210 
#    y 0.000000 3.232640 0.000000 
#    z -0.502210 0.000000 3.215040 
# 
# 
# High freq. dielectric constant tensor:
#      x y z
#    x 1.684030 0.000000 -0.041680 
#    y 0.000000 1.685930 0.000000 
#    z -0.041680 0.000000 1.657280 
# 
# From -- ./inp_files/291624.got.cif
#   From: 2010.06.25/outbox.cif.g09.slc.cpg/sg12_146_cif.got.tgz:291624.got - 2010.06.28 00:19:55.
