data_PCOD8085466
_publ_section_title
;
Structure prediction by ZEFSAII (Michael W. Deem and Ramdas Pophale) SiO2 
 PCOD8085466
Probable space group: C 2/M
;
_chemical_formula_sum "Si O2"
_cell_formula_units_Z 48
_cell_length_a 28.123605
_cell_length_b 9.184163
_cell_length_c 12.030664
_cell_angle_alpha 90.000000
_cell_angle_beta 110.275083
_cell_angle_gamma 90.000000
_cell_volume 2914.884829
_symmetry_space_group_name_H-M "C 2/M"
_symmetry_group_IT_number 12
_symmetry_cell_setting 'monoclinic'
loop_
_space_group_symop_operation_xyz
x,y,z
-x,y,-z
-x,-y,-z
x,-y,z
1/2+x,1/2+y,z
1/2-x,1/2+y,-z
1/2-x,1/2-y,-z
1/2+x,1/2-y,z
loop_
_atom_site_type_symbol
_atom_site_label
_atom_site_fract_x
_atom_site_fract_y
_atom_site_fract_z
Si Si1 0.982024 0.664630 0.611785
Si Si2 0.249563 0.168209 0.175802
Si Si3 0.574861 0.334073 0.743079
Si Si4 0.322744 0.333938 0.076223
Si Si5 0.889015 0.832070 0.472481
Si Si6 0.773126 0.172600 0.412875
O O1 0.975359 0.500000 0.645303
O O2 0.927948 0.743201 0.581775
O O3 0.000000 0.679377 0.500000
O O4 0.025116 0.736985 0.724186
O O5 0.295547 0.222758 0.136821
O O6 0.244711 0.264070 0.282154
O O7 0.259386 0.000000 0.214814
O O8 0.197012 0.187175 0.065299
O O9 0.556183 0.500000 0.728110
O O10 0.616781 0.303758 0.872531
O O11 0.602134 0.295165 0.649183
O O12 0.312089 0.500000 0.109045
O O13 0.832236 0.785777 0.456525
O O14 0.898792 0.000000 0.505889
O O15 0.750000 0.250000 0.500000
O O16 0.764582 0.000000 0.411164
#
# Coordination Sequence:
#
# PCOD8085466 Si02
#       6
#     8   8   8   8   8   8
#     4   9  17  26  39  64  94 119 150 191 232 277
#     4  10  19  30  47  70  96 126 160 197 239 280
#     4   9  15  27  45  65  92 126 157 184 226 281
#     4   9  17  30  47  69  97 129 160 192 232 284
#     4   9  17  30  46  62  88 125 158 190 229 279
#     4  11  22  36  51  69  94 126 166 202 237 280
#
# _framework density 16.467203000000001
#
# number of rings (size 3 to 8) (size 9 to 14) (size 15 to 20)
#    0.000    2.500    1.667    1.500    0.000    4.667 
#    0.000    0.000    0.000    0.000    0.000    1.167 
#    0.000    9.333    0.000    0.000    0.000    0.000 
#
# Total GULP energy -297571.872427 kJ/mol
# GULP energy per Si atom -12398.828018 kJ/mol
# Density = 1.642972 g / cm^3
# Si number density = 16.467203 Si / 1000 Ang^3
#
#
#
# Elastic Constant Matrix: (Units=GPa)
#
#
# Indices 1 2 3 4 5 6 
#
# 1 78.1673 52.5777 53.3717 0.0000 24.3473 0.0000
# 2 52.5777 99.4249 55.0361 0.0000 16.5668 0.0000
# 3 53.3717 55.0361 91.3385 0.0000 21.1289 0.0000
# 4 0.0000 0.0000 0.0000 25.3968 0.0000 4.2055
# 5 24.3473 16.5668 21.1289 0.0000 32.2289 0.0000
# 6 0.0000 0.0000 0.0000 4.2055 0.0000 25.9851
#
#
#
# Elastic Compliance Matrix: (Units=1/GPa)
#
#
# Indices 1 2 3 4 5 6 
#
# 1 0.027493 -0.007837 -0.008806 0.000000 -0.010968 0.000000
# 2 -0.007837 0.017449 -0.006164 0.000000 0.000992 0.000000
# 3 -0.008806 -0.006164 0.020671 0.000000 -0.003731 0.000000
# 4 0.000000 0.000000 0.000000 0.040459 0.000000 -0.006548
# 5 -0.010968 0.000992 -0.003731 0.000000 0.041250 0.000000
# 6 0.000000 0.000000 0.000000 -0.006548 0.000000 0.039543
#
#
# Mechanical properties :
#
#
# Convention : Reuss Voigt Hill
#
# Bulk Modulus (GPa) = 50.00054 65.65574 57.82814
# Shear Modulus (GPa) = 20.90776 23.91850 22.41313
#
# Velocity S-wave (km/s) = 3.56710 3.81529 3.69328
# Velocity P-wave (km/s) = 6.88442 7.70492 7.30620
#
# Compressibility (1/GPa) = 0.01999978
#
# Stress axis : x y z
#
# Youngs Moduli (GPa) = 36.37247 57.31021 48.37733
#
# Poissons Ratio (x) = 0.44914 0.42599
# Poissons Ratio (y) = 0.28505 0.29820
# Poissons Ratio (z) = 0.32028 0.35326
#
# Static dielectric constant tensor:
#      x y z
#    x 2.951340 0.000000 0.387590 
#    y 0.000000 3.205970 0.000000 
#    z 0.387590 0.000000 3.064270 
# 
# 
# High freq. dielectric constant tensor:
#      x y z
#    x 1.607270 0.000000 0.041270 
#    y 0.000000 1.644470 0.000000 
#    z 0.041270 0.000000 1.609470 
# 
# From -- ./inp_files/172398.got.cif
#   From: 2010.06.25/outbox.cif.g09.slc.cpg/sg12_87_cif.got.tgz:172398.got - 2010.06.28 00:19:55.
