data_PCOD8085803
_publ_section_title
;
Structure prediction by ZEFSAII (Michael W. Deem and Ramdas Pophale) SiO2 
 PCOD8085803
Probable space group: C 2/M
;
_chemical_formula_sum "Si O2"
_cell_formula_units_Z 56
_cell_length_a 21.723432
_cell_length_b 9.116269
_cell_length_c 14.132215
_cell_angle_alpha 90.000000
_cell_angle_beta 78.898825
_cell_angle_gamma 90.000000
_cell_volume 2746.329305
_symmetry_space_group_name_H-M "C 2/M"
_symmetry_group_IT_number 12
_symmetry_cell_setting 'monoclinic'
loop_
_space_group_symop_operation_xyz
x,y,z
-x,y,-z
-x,-y,-z
x,-y,z
1/2+x,1/2+y,z
1/2-x,1/2+y,-z
1/2-x,1/2-y,-z
1/2+x,1/2-y,z
loop_
_atom_site_type_symbol
_atom_site_label
_atom_site_fract_x
_atom_site_fract_y
_atom_site_fract_z
Si Si1 0.271599 0.672276 0.262718
Si Si2 0.350335 0.667353 0.631519
Si Si3 0.509708 0.670145 0.391281
Si Si4 0.809349 0.833403 0.447868
Si Si5 0.135780 0.329685 0.887466
Si Si6 0.557227 0.334453 0.055063
Si Si7 0.022653 0.670359 0.778221
O O1 0.269456 0.500000 0.240283
O O2 0.201152 0.725621 0.307627
O O3 0.320639 0.711125 0.334827
O O4 0.298521 0.758243 0.164388
O O5 0.327292 0.500000 0.653456
O O6 0.417462 0.693136 0.659614
O O7 0.362006 0.694076 0.513276
O O8 0.500000 0.730992 0.500000
O O9 0.489278 0.500000 0.391672
O O10 0.467449 0.760022 0.329052
O O11 0.750000 0.750000 0.500000
O O12 0.788375 0.000000 0.451121
O O13 0.145781 0.500000 0.906170
O O14 0.115209 0.250867 0.990444
O O15 0.084552 0.303591 0.821166
O O16 0.577795 0.500000 0.075055
O O17 0.500000 0.336352 0.000000
O O18 0.536616 0.250404 0.155809
O O19 0.006608 0.500000 0.773148
#
# Coordination Sequence:
#
# PCOD8085803 Si02
#       7
#     8   8   8   8   8   8   8
#     4  10  19  30  50  78 104 136 175 220 269 317
#     4   9  18  34  51  70 101 140 179 220 267 315
#     4  10  22  37  56  78 104 144 188 226 262 308
#     4   8  15  27  44  66  93 127 167 210 256 304
#     4  10  20  33  52  81 113 142 172 215 270 324
#     4   9  17  32  55  81 107 137 174 218 265 317
#     4  10  21  36  54  78 110 145 178 218 268 318
#
# _framework density 20.390854999999998
#
# number of rings (size 3 to 8) (size 9 to 14) (size 15 to 20)
#    0.000    2.571    0.000    1.714    2.000    4.857 
#    0.000    0.000    0.000    0.857    0.000    0.000 
#    0.000    0.000    0.000    0.000    0.000    0.000 
#
# Total GULP energy -346972.433994 kJ/mol
# GULP energy per Si atom -12391.872643 kJ/mol
# Density = 2.034444 g / cm^3
# Si number density = 20.390855 Si / 1000 Ang^3
#
#
#
# Elastic Constant Matrix: (Units=GPa)
#
#
# Indices 1 2 3 4 5 6 
#
# 1 25.1093 11.7145 -1.5741 0.0000 -2.8136 0.0000
# 2 11.7145 101.8017 42.7464 0.0000 -10.5725 0.0000
# 3 -1.5741 42.7464 87.3988 0.0000 -14.2565 0.0000
# 4 0.0000 0.0000 0.0000 34.3882 0.0000 -1.8848
# 5 -2.8136 -10.5725 -14.2565 0.0000 27.7285 0.0000
# 6 0.0000 0.0000 0.0000 -1.8848 0.0000 20.8538
#
#
#
# Elastic Compliance Matrix: (Units=1/GPa)
#
#
# Indices 1 2 3 4 5 6 
#
# 1 0.043661 -0.006545 0.004697 0.000000 0.004350 0.000000
# 2 -0.006545 0.013421 -0.006501 0.000000 0.001111 0.000000
# 3 0.004697 -0.006501 0.015696 0.000000 0.006068 0.000000
# 4 0.000000 0.000000 0.000000 0.029225 0.000000 0.002641
# 5 0.004350 0.001111 0.006068 0.000000 0.040049 0.000000
# 6 0.000000 0.000000 0.000000 0.002641 0.000000 0.048192
#
#
# Mechanical properties :
#
#
# Convention : Reuss Voigt Hill
#
# Bulk Modulus (GPa) = 17.83145 35.56481 26.69813
# Shear Modulus (GPa) = 22.15980 27.35564 24.75772
#
# Velocity S-wave (km/s) = 3.30017 3.66671 3.48826
# Velocity P-wave (km/s) = 4.82548 5.95027 5.41715
#
# Compressibility (1/GPa) = 0.05608070
#
# Stress axis : x y z
#
# Youngs Moduli (GPa) = 22.90366 74.50887 63.71152
#
# Poissons Ratio (x) = 0.48763 -0.29924
# Poissons Ratio (y) = 0.14990 0.41418
# Poissons Ratio (z) = -0.10758 0.48438
#
# Static dielectric constant tensor:
#      x y z
#    x 3.789920 0.000000 0.314230 
#    y 0.000000 3.678890 0.000000 
#    z 0.314230 0.000000 3.948540 
# 
# 
# High freq. dielectric constant tensor:
#      x y z
#    x 1.763380 0.000000 -0.009410 
#    y 0.000000 1.797350 0.000000 
#    z -0.009410 0.000000 1.795610 
# 
# From -- ./inp_files/237362.got.cif
#   From: 2010.06.25/outbox.cif.g09.slc.cpg/sg12_119_cif.got.tgz:237362.got - 2010.06.28 00:19:55.
