data_PCOD8085407
_publ_section_title
;
Structure prediction by ZEFSAII (Michael W. Deem and Ramdas Pophale) SiO2 
 PCOD8085407
Probable space group: C 2/M
;
_chemical_formula_sum "Si O2"
_cell_formula_units_Z 64
_cell_length_a 25.723526
_cell_length_b 9.699306
_cell_length_c 15.585254
_cell_angle_alpha 90.000000
_cell_angle_beta 116.141672
_cell_angle_gamma 90.000000
_cell_volume 3490.758723
_symmetry_space_group_name_H-M "C 2/M"
_symmetry_group_IT_number 12
_symmetry_cell_setting 'monoclinic'
loop_
_space_group_symop_operation_xyz
x,y,z
-x,y,-z
-x,-y,-z
x,-y,z
1/2+x,1/2+y,z
1/2-x,1/2+y,-z
1/2-x,1/2-y,-z
1/2+x,1/2-y,z
loop_
_atom_site_type_symbol
_atom_site_label
_atom_site_fract_x
_atom_site_fract_y
_atom_site_fract_z
Si Si1 0.337339 0.157328 0.401349
Si Si2 0.231895 0.843528 0.223372
Si Si3 0.803559 0.343998 0.558970
Si Si4 0.925126 0.336023 0.190943
Si Si5 0.491443 0.836872 0.898170
Si Si6 0.707685 0.842803 0.913571
Si Si7 0.950870 0.664771 0.399562
Si Si8 0.361017 0.838760 0.776295
O O1 0.274610 0.218373 0.328470
O O2 0.347437 0.167823 0.510555
O O3 0.390942 0.228257 0.392394
O O4 0.334929 0.000000 0.367342
O O5 0.268962 0.834636 0.164955
O O6 0.175086 0.746565 0.178860
O O7 0.211402 0.000000 0.227122
O O8 0.781157 0.500000 0.553983
O O9 0.750000 0.250000 0.500000
O O10 0.838264 0.294663 0.666770
O O11 0.925671 0.500000 0.191174
O O12 0.858474 0.285535 0.132812
O O13 0.954687 0.286136 0.302621
O O14 0.962629 0.276683 0.137972
O O15 0.427396 0.793530 0.823894
O O16 0.499355 0.000000 0.906318
O O17 0.500000 0.775351 0.000000
O O18 0.709476 0.000000 0.949293
O O19 0.750000 0.750000 0.000000
O O20 0.951749 0.500000 0.405145
O O21 0.000000 0.723659 0.500000
O O22 0.354004 0.000000 0.792081
#
# Coordination Sequence:
#
# PCOD8085407 Si02
#       8
#     8   8   8   8   8   8   8   8
#     4   9  16  28  44  65 100 136 162 197 252 306
#     4  10  19  34  53  74 103 138 171 207 258 312
#     4  10  19  30  46  71 103 134 164 202 246 297
#     4   9  17  31  48  71 102 131 166 210 256 308
#     4   9  19  33  48  68  99 136 168 208 261 305
#     4  10  21  35  55  80 104 133 169 211 260 310
#     4   9  16  25  43  69  97 130 164 202 254 306
#     4  10  21  33  50  78 105 133 176 216 249 298
#
# _framework density 18.334122000000001
#
# number of rings (size 3 to 8) (size 9 to 14) (size 15 to 20)
#    0.000    2.500    2.500    0.000    3.500    0.500 
#    0.000    0.000    0.000    1.125    0.000    0.000 
#    0.000    2.500    0.000    0.000    0.000    0.000 
#
# Total GULP energy -396568.661085 kJ/mol
# GULP energy per Si atom -12392.770659 kJ/mol
# Density = 1.829239 g / cm^3
# Si number density = 18.334122 Si / 1000 Ang^3
#
#
#
# Elastic Constant Matrix: (Units=GPa)
#
#
# Indices 1 2 3 4 5 6 
#
# 1 147.5930 33.1748 66.2363 0.0000 3.0178 0.0000
# 2 33.1748 29.8973 27.3213 0.0000 6.1495 0.0000
# 3 66.2363 27.3213 130.3671 0.0000 9.2627 0.0000
# 4 0.0000 0.0000 0.0000 18.7318 0.0000 1.7314
# 5 3.0178 6.1495 9.2627 0.0000 31.3813 0.0000
# 6 0.0000 0.0000 0.0000 1.7314 0.0000 19.6233
#
#
#
# Elastic Compliance Matrix: (Units=1/GPa)
#
#
# Indices 1 2 3 4 5 6 
#
# 1 0.010236 -0.008471 -0.003548 0.000000 0.001723 0.000000
# 2 -0.008471 0.049391 -0.005534 0.000000 -0.007231 0.000000
# 3 -0.003548 -0.005534 0.010757 0.000000 -0.001750 0.000000
# 4 0.000000 0.000000 0.000000 0.053824 0.000000 -0.004749
# 5 0.001723 -0.007231 -0.001750 0.000000 0.033634 0.000000
# 6 0.000000 0.000000 0.000000 -0.004749 0.000000 0.051379
#
#
# Mechanical properties :
#
#
# Convention : Reuss Voigt Hill
#
# Bulk Modulus (GPa) = 28.34432 62.36914 45.35673
# Shear Modulus (GPa) = 19.52469 26.02229 22.77349
#
# Velocity S-wave (km/s) = 3.26688 3.77150 3.52822
# Velocity P-wave (km/s) = 5.45192 7.28406 6.43354
#
# Compressibility (1/GPa) = 0.03528044
#
# Stress axis : x y z
#
# Youngs Moduli (GPa) = 97.69052 20.24656 92.95989
#
# Poissons Ratio (x) = 0.17150 0.32983
# Poissons Ratio (y) = 0.82750 0.51440
# Poissons Ratio (z) = 0.34661 0.11204
#
# Static dielectric constant tensor:
#      x y z
#    x 3.615450 0.000000 -0.093000 
#    y 0.000000 2.900240 0.000000 
#    z -0.093000 0.000000 3.729280 
# 
# 
# High freq. dielectric constant tensor:
#      x y z
#    x 1.720620 0.000000 -0.005020 
#    y 0.000000 1.640980 0.000000 
#    z -0.005020 0.000000 1.724180 
# 
# From -- ./inp_files/232522.got.cif
#   From: 2010.06.25/outbox.cif.g09.slc.cpg/sg12_117_cif.got.tgz:232522.got - 2010.06.28 00:19:55.
