data_PCOD8085462
_publ_section_title
;
Structure prediction by ZEFSAII (Michael W. Deem and Ramdas Pophale) SiO2 
 PCOD8085462
Probable space group: C 2/M
;
_chemical_formula_sum "Si O2"
_cell_formula_units_Z 64
_cell_length_a 23.160275
_cell_length_b 9.156192
_cell_length_c 21.235612
_cell_angle_alpha 90.000000
_cell_angle_beta 127.091235
_cell_angle_gamma 90.000000
_cell_volume 3592.113224
_symmetry_space_group_name_H-M "C 2/M"
_symmetry_group_IT_number 12
_symmetry_cell_setting 'monoclinic'
loop_
_space_group_symop_operation_xyz
x,y,z
-x,y,-z
-x,-y,-z
x,-y,z
1/2+x,1/2+y,z
1/2-x,1/2+y,-z
1/2-x,1/2-y,-z
1/2+x,1/2-y,z
loop_
_atom_site_type_symbol
_atom_site_label
_atom_site_fract_x
_atom_site_fract_y
_atom_site_fract_z
Si Si1 0.529398 0.164888 0.333853
Si Si2 0.367447 0.164547 0.176641
Si Si3 0.420508 0.169619 0.968896
Si Si4 0.829340 0.332442 0.786755
Si Si5 0.324281 0.332110 0.264128
Si Si6 0.424955 0.329051 0.753144
Si Si7 0.020185 0.829216 0.582948
Si Si8 0.416405 0.328863 0.092995
O O1 0.448391 0.168241 0.255388
O O2 0.579888 0.250530 0.317716
O O3 0.531909 0.244054 0.403021
O O4 0.558233 0.000000 0.360036
O O5 0.316187 0.237517 0.195328
O O6 0.363627 0.255116 0.109487
O O7 0.340827 0.000000 0.146522
O O8 0.365075 0.205445 0.876974
O O9 0.419995 0.000000 0.987929
O O10 0.500000 0.219392 0.000000
O O11 0.395635 0.264321 0.011870
O O12 0.846389 0.500000 0.779822
O O13 0.743826 0.302502 0.735527
O O14 0.859492 0.228377 0.752517
O O15 0.326982 0.500000 0.244166
O O16 0.395842 0.290000 0.350240
O O17 0.415989 0.500000 0.735900
O O18 0.500058 0.291579 0.837337
O O19 0.000000 0.776399 0.500000
O O20 0.005221 0.000000 0.582388
O O21 0.401490 0.500000 0.083959
#
# Coordination Sequence:
#
# PCOD8085462 Si02
#       8
#     8   8   8   8   8   8   8   8
#     4   9  17  29  48  74 101 127 159 199 238 280
#     4   9  17  30  49  70  94 125 161 201 244 287
#     4  10  19  31  47  67  94 126 163 205 245 285
#     4  10  20  33  49  69  96 131 164 198 241 287
#     4   9  18  33  51  72  99 128 160 194 234 288
#     4  10  19  30  47  71  98 128 163 203 243 283
#     4   9  17  31  53  79 104 128 154 190 237 285
#     4  10  19  30  47  70  95 123 161 208 250 286
#
# _framework density 17.81681
#
# number of rings (size 3 to 8) (size 9 to 14) (size 15 to 20)
#    0.000    2.500    1.250    1.500    0.000    5.500 
#    0.000    0.625    0.000    0.750    0.000    0.000 
#    0.000    0.000    0.000    0.000    0.000    0.000 
#
# Total GULP energy -396872.671797 kJ/mol
# GULP energy per Si atom -12402.270994 kJ/mol
# Density = 1.777626 g / cm^3
# Si number density = 17.816810 Si / 1000 Ang^3
#
#
#
# Elastic Constant Matrix: (Units=GPa)
#
#
# Indices 1 2 3 4 5 6 
#
# 1 101.8869 61.6566 47.6628 0.0000 -23.8734 0.0000
# 2 61.6566 101.8742 42.4397 0.0000 -23.8358 0.0000
# 3 47.6628 42.4397 72.3958 0.0000 -23.7247 0.0000
# 4 0.0000 0.0000 0.0000 20.7999 0.0000 -11.3339
# 5 -23.8734 -23.8358 -23.7247 0.0000 30.7009 0.0000
# 6 0.0000 0.0000 0.0000 -11.3339 0.0000 34.4232
#
#
#
# Elastic Compliance Matrix: (Units=1/GPa)
#
#
# Indices 1 2 3 4 5 6 
#
# 1 0.018169 -0.007533 -0.006471 0.000000 0.003279 0.000000
# 2 -0.007533 0.016879 -0.003429 0.000000 0.004597 0.000000
# 3 -0.006471 -0.003429 0.023518 0.000000 0.010480 0.000000
# 4 0.000000 0.000000 0.000000 0.058588 0.000000 0.019290
# 5 0.003279 0.004597 0.010480 0.000000 0.046790 0.000000
# 6 0.000000 0.000000 0.000000 0.019290 0.000000 0.035402
#
#
# Mechanical properties :
#
#
# Convention : Reuss Voigt Hill
#
# Bulk Modulus (GPa) = 42.19481 64.40835 53.30158
# Shear Modulus (GPa) = 20.65159 25.47798 23.06479
#
# Velocity S-wave (km/s) = 3.40826 3.78563 3.60189
# Velocity P-wave (km/s) = 6.26277 7.43887 6.87601
#
# Compressibility (1/GPa) = 0.02369960
#
# Stress axis : x y z
#
# Youngs Moduli (GPa) = 55.03844 59.24375 42.52138
#
# Poissons Ratio (x) = 0.44630 0.27516
# Poissons Ratio (y) = 0.41462 0.14579
# Poissons Ratio (z) = 0.35616 0.20313
#
# Static dielectric constant tensor:
#      x y z
#    x 3.258240 0.000000 -0.170890 
#    y 0.000000 3.344590 0.000000 
#    z -0.170890 0.000000 3.044440 
# 
# 
# High freq. dielectric constant tensor:
#      x y z
#    x 1.684880 0.000000 -0.022840 
#    y 0.000000 1.694530 0.000000 
#    z -0.022840 0.000000 1.655370 
# 
# From -- ./inp_files/319850.got.cif
#   From: 2010.06.25/outbox.cif.g09.slc.cpg/sg12_160_cif.got.tgz:319850.got - 2010.06.28 00:19:55.
