data_PCOD8085587
_publ_section_title
;
Structure prediction by ZEFSAII (Michael W. Deem and Ramdas Pophale) SiO2 
 PCOD8085587
Probable space group: C 2/M
;
_chemical_formula_sum "Si O2"
_cell_formula_units_Z 64
_cell_length_a 29.920066
_cell_length_b 8.911492
_cell_length_c 15.026973
_cell_angle_alpha 90.000000
_cell_angle_beta 101.873800
_cell_angle_gamma 90.000000
_cell_volume 3920.948114
_symmetry_space_group_name_H-M "C 2/M"
_symmetry_group_IT_number 12
_symmetry_cell_setting 'monoclinic'
loop_
_space_group_symop_operation_xyz
x,y,z
-x,y,-z
-x,-y,-z
x,-y,z
1/2+x,1/2+y,z
1/2-x,1/2+y,-z
1/2-x,1/2-y,-z
1/2+x,1/2-y,z
loop_
_atom_site_type_symbol
_atom_site_label
_atom_site_fract_x
_atom_site_fract_y
_atom_site_fract_z
Si Si1 0.551431 0.678520 0.432669
Si Si2 0.806935 0.322473 0.386008
Si Si3 0.216669 0.324392 0.103563
Si Si4 0.684036 0.675553 0.922981
Si Si5 0.640313 0.824865 0.417387
Si Si6 0.367802 0.174441 0.247845
Si Si7 0.958872 0.323665 0.382690
Si Si8 0.285866 0.825685 0.697051
O O1 0.547964 0.500000 0.437649
O O2 0.594102 0.728665 0.390039
O O3 0.505414 0.744650 0.369221
O O4 0.558004 0.749431 0.532730
O O5 0.804712 0.500000 0.383630
O O6 0.831000 0.267280 0.486116
O O7 0.835764 0.261556 0.313768
O O8 0.755962 0.260581 0.364316
O O9 0.209444 0.500000 0.087294
O O10 0.268706 0.276885 0.104799
O O11 0.205000 0.271228 0.198488
O O12 0.182452 0.241280 0.022061
O O13 0.677748 0.500000 0.926748
O O14 0.642656 0.741327 0.848220
O O15 0.668693 0.792426 0.339908
O O16 0.628029 0.000000 0.422240
O O17 0.420619 0.204290 0.292542
O O18 0.357853 0.000000 0.230049
O O19 0.966679 0.500000 0.402459
O O20 0.272743 0.000000 0.690655
#
# Coordination Sequence:
#
# PCOD8085587 Si02
#       8
#     8   8   8   8   8   8   8   8
#     4  11  21  32  48  73  99 125 163 207 246 279
#     4  10  19  31  46  68  99 132 167 199 234 284
#     4   9  18  32  46  67  95 125 162 202 242 284
#     4  10  19  30  48  70  95 126 159 200 245 287
#     4  10  20  35  50  67  96 135 172 200 238 290
#     4  10  19  31  49  72  97 130 161 193 238 290
#     4  10  19  34  53  70  96 130 163 196 244 297
#     4  10  20  33  50  70  95 130 170 208 241 279
#
# _framework density 16.322582000000001
#
# number of rings (size 3 to 8) (size 9 to 14) (size 15 to 20)
#    0.000    2.000    2.500    3.000    0.000    3.000 
#    0.000    0.000    0.000    0.000    0.000    0.875 
#    0.000    7.000    0.000    0.000    0.000    0.000 
#
# Total GULP energy -396875.457676 kJ/mol
# GULP energy per Si atom -12402.358052 kJ/mol
# Density = 1.628543 g / cm^3
# Si number density = 16.322582 Si / 1000 Ang^3
#
#
#
# Elastic Constant Matrix: (Units=GPa)
#
#
# Indices 1 2 3 4 5 6 
#
# 1 97.6893 43.1378 50.3932 0.0000 4.5995 0.0000
# 2 43.1378 68.8028 37.2873 0.0000 7.6075 0.0000
# 3 50.3932 37.2873 104.5303 0.0000 7.5032 0.0000
# 4 0.0000 0.0000 0.0000 21.3837 0.0000 4.4498
# 5 4.5995 7.6075 7.5032 0.0000 22.4574 0.0000
# 6 0.0000 0.0000 0.0000 4.4498 0.0000 25.4616
#
#
#
# Elastic Compliance Matrix: (Units=1/GPa)
#
#
# Indices 1 2 3 4 5 6 
#
# 1 0.016151 -0.007406 -0.005212 0.000000 0.000942 0.000000
# 2 -0.007406 0.021781 -0.003871 0.000000 -0.004568 0.000000
# 3 -0.005212 -0.003871 0.013616 0.000000 -0.002170 0.000000
# 4 0.000000 0.000000 0.000000 0.048530 0.000000 -0.008481
# 5 0.000942 -0.004568 -0.002170 0.000000 0.046608 0.000000
# 6 0.000000 0.000000 0.000000 -0.008481 0.000000 0.040757
#
#
# Mechanical properties :
#
#
# Convention : Reuss Voigt Hill
#
# Bulk Modulus (GPa) = 53.85242 59.18436 56.51839
# Shear Modulus (GPa) = 22.06419 23.20746 22.63583
#
# Velocity S-wave (km/s) = 3.68062 3.77477 3.72799
# Velocity P-wave (km/s) = 7.15030 7.43884 7.29600
#
# Compressibility (1/GPa) = 0.01856927
#
# Stress axis : x y z
#
# Youngs Moduli (GPa) = 61.91478 45.91215 73.44256
#
# Poissons Ratio (x) = 0.34002 0.38280
# Poissons Ratio (y) = 0.45854 0.28431
# Poissons Ratio (z) = 0.32271 0.17774
#
# Static dielectric constant tensor:
#      x y z
#    x 3.011730 0.000000 0.048150 
#    y 0.000000 3.029500 0.000000 
#    z 0.048150 0.000000 3.058840 
# 
# 
# High freq. dielectric constant tensor:
#      x y z
#    x 1.610830 0.000000 0.010330 
#    y 0.000000 1.630540 0.000000 
#    z 0.010330 0.000000 1.614150 
# 
# From -- ./inp_files/244066.got.cif
#   From: 2010.06.25/outbox.cif.g09.slc.cpg/sg12_123_cif.got.tgz:244066.got - 2010.06.28 00:19:55.
