data_PCOD8085132
_publ_section_title
;
Structure prediction by ZEFSAII (Michael W. Deem and Ramdas Pophale) SiO2 
 PCOD8085132
Probable space group: C 2/M
;
_chemical_formula_sum "Si O2"
_cell_formula_units_Z 52
_cell_length_a 25.842453
_cell_length_b 7.685559
_cell_length_c 32.407532
_cell_angle_alpha 90.000000
_cell_angle_beta 150.177916
_cell_angle_gamma 90.000000
_cell_volume 3200.965140
_symmetry_space_group_name_H-M "C 2/M"
_symmetry_group_IT_number 12
_symmetry_cell_setting 'monoclinic'
loop_
_space_group_symop_operation_xyz
x,y,z
-x,y,-z
-x,-y,-z
x,-y,z
1/2+x,1/2+y,z
1/2-x,1/2+y,-z
1/2-x,1/2-y,-z
1/2+x,1/2-y,z
loop_
_atom_site_type_symbol
_atom_site_label
_atom_site_fract_x
_atom_site_fract_y
_atom_site_fract_z
Si Si1 0.731767 0.800438 0.655702
Si Si2 0.947051 0.500000 0.896612
Si Si3 0.849955 0.302990 0.311780
Si Si4 0.744367 0.500000 0.805032
Si Si5 0.960833 0.197069 0.516482
Si Si6 0.316260 0.000000 0.942884
Si Si7 0.054243 0.801640 0.167540
Si Si8 0.179632 0.799735 0.989568
O O1 0.699533 0.734854 0.679265
O O2 0.665573 0.711549 0.572667
O O3 0.855688 0.763936 0.735885
O O4 0.703772 0.000000 0.632739
O O5 0.866713 0.500000 0.878556
O O6 0.925671 0.675057 0.856486
O O7 0.066446 0.500000 0.993757
O O8 0.815364 0.500000 0.276911
O O9 0.977013 0.298187 0.404292
O O10 0.812296 0.174228 0.249923
O O11 0.737505 0.500000 0.849978
O O12 0.000000 0.275072 0.500000
O O13 0.995553 0.000000 0.545968
O O14 0.294373 0.826509 0.954430
O O15 0.940139 0.771101 0.107844
O O16 0.066418 0.000000 0.159664
O O17 0.198559 0.000000 0.016131
O O18 0.250000 0.750000 0.000000
#
# Coordination Sequence:
#
# PCOD8085132 Si02
#       8
#     8   4   8   4   8   4   8   8
#     4   9  16  26  40  62  93 129 165 199 231 275
#     4  10  19  32  49  64  98 135 162 197 231 276
#     4  10  19  30  43  61  91 135 169 198 236 268
#     4  12  21  32  48  68  99 132 172 202 223 279
#     4   9  16  24  39  61  87 124 170 202 232 269
#     4  10  23  36  50  77  96 124 164 196 245 294
#     4   9  18  29  46  72  97 127 162 192 240 289
#     4  10  19  36  57  75  96 122 150 198 254 300
#
# _framework density 16.245100999999998
#
# number of rings (size 3 to 8) (size 9 to 14) (size 15 to 20)
#    0.000    2.308    3.077    0.692    2.154    2.462 
#    0.000    0.000    0.000    4.615    0.000    0.000 
#    0.000    1.231    0.615    0.000    0.000    0.000 
#
# Total GULP energy -322145.488692 kJ/mol
# GULP energy per Si atom -12390.211104 kJ/mol
# Density = 1.620813 g / cm^3
# Si number density = 16.245101 Si / 1000 Ang^3
#
#
#
# Elastic Constant Matrix: (Units=GPa)
#
#
# Indices 1 2 3 4 5 6 
#
# 1 55.4509 30.4695 48.5056 0.0001 2.8454 -0.0007
# 2 30.4695 97.7322 48.7285 0.0020 -2.8140 -0.0034
# 3 48.5056 48.7285 114.5501 -0.0001 0.8195 -0.0003
# 4 0.0001 0.0020 -0.0001 24.5090 0.0000 2.7248
# 5 2.8454 -2.8140 0.8195 0.0000 14.5335 -0.0002
# 6 -0.0007 -0.0034 -0.0003 2.7248 -0.0002 12.6478
#
#
#
# Elastic Compliance Matrix: (Units=1/GPa)
#
#
# Indices 1 2 3 4 5 6 
#
# 1 0.030239 -0.004113 -0.011011 0.000000 -0.006096 0.000000
# 2 -0.004113 0.013663 -0.004097 -0.000001 0.003682 0.000004
# 3 -0.011011 -0.004097 0.015132 0.000001 0.000509 -0.000001
# 4 0.000000 -0.000001 0.000001 0.041803 -0.000001 -0.009006
# 5 -0.006096 0.003682 0.000509 -0.000001 0.070684 0.000002
# 6 0.000000 0.000004 -0.000001 -0.009006 0.000002 0.081005
#
#
# Mechanical properties :
#
#
# Convention : Reuss Voigt Hill
#
# Bulk Modulus (GPa) = 48.56391 58.12671 53.34531
# Shear Modulus (GPa) = 16.78805 19.67337 18.23071
#
# Velocity S-wave (km/s) = 3.21818 3.48377 3.35360
# Velocity P-wave (km/s) = 6.61576 7.21394 6.92132
#
# Compressibility (1/GPa) = 0.02059142
#
# Stress axis : x y z
#
# Youngs Moduli (GPa) = 33.07010 73.19066 66.08675
#
# Poissons Ratio (x) = 0.30101 0.72770
# Poissons Ratio (y) = 0.13601 0.27075
# Poissons Ratio (z) = 0.36415 0.29985
#
# Static dielectric constant tensor:
#      x y z
#    x 2.579940 0.000000 0.330920 
#    y 0.000000 3.222440 0.000000 
#    z 0.330920 0.000000 3.312730 
# 
# 
# High freq. dielectric constant tensor:
#      x y z
#    x 1.546950 0.000000 0.030270 
#    y 0.000000 1.644750 0.000000 
#    z 0.030270 0.000000 1.633200 
# 
# From -- ./inp_files/383503.got.cif
#   From: 2010.06.25/outbox.cif.g09.slc.cpg/sg12_192_cif.got.tgz:383503.got - 2010.06.28 00:19:55.
