data_PCOD8085621
_publ_section_title
;
Structure prediction by ZEFSAII (Michael W. Deem and Ramdas Pophale) SiO2 
 PCOD8085621
Probable space group: C 2/M
;
_chemical_formula_sum "Si O2"
_cell_formula_units_Z 64
_cell_length_a 22.289560
_cell_length_b 9.736295
_cell_length_c 20.862168
_cell_angle_alpha 90.000000
_cell_angle_beta 122.927350
_cell_angle_gamma 90.000000
_cell_volume 3800.171340
_symmetry_space_group_name_H-M "C 2/M"
_symmetry_group_IT_number 12
_symmetry_cell_setting 'monoclinic'
loop_
_space_group_symop_operation_xyz
x,y,z
-x,y,-z
-x,-y,-z
x,-y,z
1/2+x,1/2+y,z
1/2-x,1/2+y,-z
1/2-x,1/2-y,-z
1/2+x,1/2-y,z
loop_
_atom_site_type_symbol
_atom_site_label
_atom_site_fract_x
_atom_site_fract_y
_atom_site_fract_z
Si Si1 0.109822 0.341013 0.418839
Si Si2 0.825863 0.338109 0.277621
Si Si3 0.196956 0.347804 0.207241
Si Si4 0.462775 0.839461 0.274217
Si Si5 0.961489 0.657796 0.911732
Si Si6 0.016838 0.155651 0.194492
Si Si7 0.168789 0.230957 0.324241
Si Si8 0.674866 0.151969 0.582945
O O1 0.121685 0.500000 0.436476
O O2 0.156535 0.304017 0.384542
O O3 0.139462 0.267774 0.501490
O O4 0.026745 0.304378 0.360659
O O5 0.809240 0.500000 0.270400
O O6 0.753911 0.261647 0.213328
O O7 0.888898 0.303209 0.265604
O O8 0.845854 0.280311 0.360475
O O9 0.226006 0.500000 0.209287
O O10 0.123080 0.320190 0.127059
O O11 0.182410 0.339755 0.275246
O O12 0.469010 0.741771 0.216576
O O13 0.466927 0.000000 0.256015
O O14 0.976704 0.500000 0.898998
O O15 0.991233 0.764016 0.876783
O O16 0.000000 0.693735 0.000000
O O17 0.099028 0.142965 0.265247
O O18 0.987249 0.000000 0.170629
O O19 0.239242 0.139379 0.373419
O O20 0.642431 0.000000 0.565888
#
# Coordination Sequence:
#
# PCOD8085621 Si02
#       8
#     8   8   8   8   8   8   8   8
#     4   9  16  25  40  61  84 114 156 200 236 275
#     4   9  18  31  46  64  89 122 159 198 238 273
#     4   9  17  29  48  71  93 119 152 185 218 266
#     4   9  18  32  47  63  87 123 163 199 234 273
#     4   9  18  33  53  77 104 128 145 169 215 273
#     4  10  19  30  48  73  97 122 153 190 227 267
#     4   9  16  27  41  61  92 123 150 183 234 288
#     4   9  16  25  39  61  86 114 152 198 240 277
#
# _framework density 16.841345
#
# number of rings (size 3 to 8) (size 9 to 14) (size 15 to 20)
#    0.000    2.875    0.000    1.500    0.000    7.250 
#    0.000    2.500    0.000    7.500    0.000    7.000 
#    0.000    0.000    0.000    0.000    0.000    0.000 
#
# Total GULP energy -396544.632193 kJ/mol
# GULP energy per Si atom -12392.019756 kJ/mol
# Density = 1.680301 g / cm^3
# Si number density = 16.841345 Si / 1000 Ang^3
#
#
#
# Elastic Constant Matrix: (Units=GPa)
#
#
# Indices 1 2 3 4 5 6 
#
# 1 115.6413 56.6007 48.8250 0.0000 -4.3030 0.0000
# 2 56.6007 72.7195 50.7939 0.0000 0.4923 0.0000
# 3 48.8250 50.7939 107.0728 0.0000 -11.3313 0.0000
# 4 0.0000 0.0000 0.0000 16.3332 0.0000 1.7947
# 5 -4.3030 0.4923 -11.3313 0.0000 10.0868 0.0000
# 6 0.0000 0.0000 0.0000 1.7947 0.0000 24.8036
#
#
#
# Elastic Compliance Matrix: (Units=1/GPa)
#
#
# Indices 1 2 3 4 5 6 
#
# 1 0.014461 -0.010621 -0.000962 0.000000 0.005607 0.000000
# 2 -0.010621 0.030148 -0.011456 0.000000 -0.018871 0.000000
# 3 -0.000962 -0.011456 0.017283 0.000000 0.019564 0.000000
# 4 0.000000 0.000000 0.000000 0.061716 0.000000 -0.004466
# 5 0.005607 -0.018871 0.019564 0.000000 0.124429 0.000000
# 6 0.000000 0.000000 0.000000 -0.004466 0.000000 0.040640
#
#
# Mechanical properties :
#
#
# Convention : Reuss Voigt Hill
#
# Bulk Modulus (GPa) = 63.23701 67.54140 65.38920
# Shear Modulus (GPa) = 14.70474 19.52567 17.11520
#
# Velocity S-wave (km/s) = 2.95809 3.40867 3.19134
# Velocity P-wave (km/s) = 7.02120 7.46215 7.24503
#
# Compressibility (1/GPa) = 0.01581352
#
# Stress axis : x y z
#
# Youngs Moduli (GPa) = 69.15167 33.16972 57.86049
#
# Poissons Ratio (x) = 0.35231 0.05567
# Poissons Ratio (y) = 0.73449 0.66282
# Poissons Ratio (z) = 0.06654 0.37998
#
# Static dielectric constant tensor:
#      x y z
#    x 3.067300 0.000000 -0.032760 
#    y 0.000000 2.978400 0.000000 
#    z -0.032760 0.000000 3.167110 
# 
# 
# High freq. dielectric constant tensor:
#      x y z
#    x 1.638440 0.000000 -0.002270 
#    y 0.000000 1.631320 0.000000 
#    z -0.002270 0.000000 1.638360 
# 
# From -- ./inp_files/348609.got.cif
#   From: 2010.06.25/outbox.cif.g09.slc.cpg/sg12_175_cif.got.tgz:348609.got - 2010.06.28 00:19:55.
