data_PCOD8085890
_publ_section_title
;
Structure prediction by ZEFSAII (Michael W. Deem and Ramdas Pophale) SiO2 
 PCOD8085890
Probable space group: C 2/M
;
_chemical_formula_sum "Si O2"
_cell_formula_units_Z 64
_cell_length_a 19.801283
_cell_length_b 9.328776
_cell_length_c 24.360676
_cell_angle_alpha 90.000000
_cell_angle_beta 125.722417
_cell_angle_gamma 90.000000
_cell_volume 3653.304599
_symmetry_space_group_name_H-M "C 2/M"
_symmetry_group_IT_number 12
_symmetry_cell_setting 'monoclinic'
loop_
_space_group_symop_operation_xyz
x,y,z
-x,y,-z
-x,-y,-z
x,-y,z
1/2+x,1/2+y,z
1/2-x,1/2+y,-z
1/2-x,1/2-y,-z
1/2+x,1/2-y,z
loop_
_atom_site_type_symbol
_atom_site_label
_atom_site_fract_x
_atom_site_fract_y
_atom_site_fract_z
Si Si1 0.242342 0.834925 0.165211
Si Si2 0.387179 0.662772 0.808647
Si Si3 0.138206 0.835086 0.701266
Si Si4 0.209828 0.832314 0.431041
Si Si5 0.474438 0.664706 0.685229
Si Si6 0.023213 0.669410 0.816909
Si Si7 0.730175 0.835254 0.658655
Si Si8 0.289335 0.834510 0.068237
O O1 0.152762 0.806501 0.150510
O O2 0.312233 0.736408 0.225294
O O3 0.236040 0.801078 0.097753
O O4 0.269817 0.000000 0.188139
O O5 0.419902 0.500000 0.820258
O O6 0.463425 0.770480 0.836254
O O7 0.318446 0.692257 0.729515
O O8 0.158718 0.760199 0.652968
O O9 0.040333 0.818849 0.667078
O O10 0.165263 0.000000 0.710337
O O11 0.250000 0.750000 0.500000
O O12 0.114223 0.783780 0.379657
O O13 0.260956 0.791697 0.400503
O O14 0.215342 0.000000 0.445668
O O15 0.469227 0.500000 0.703395
O O16 0.500344 0.762027 0.748204
O O17 0.012625 0.500000 0.807119
O O18 0.116235 0.714160 0.877044
O O19 0.703770 0.000000 0.653021
O O20 0.285270 0.000000 0.050629
O O21 0.250000 0.750000 0.000000
#
# Coordination Sequence:
#
# PCOD8085890 Si02
#       8
#     8   8   8   8   8   8   8   8
#     4   9  18  35  54  75 108 144 176 215 265 318
#     4   9  17  32  55  78 104 140 176 217 266 316
#     4  10  19  30  53  84 107 133 176 225 266 310
#     4  10  21  38  56  77 107 145 183 220 266 320
#     4  10  20  36  55  78 109 142 178 219 267 321
#     4  11  21  33  54  83 110 135 176 229 268 308
#     4   9  18  34  54  75 108 146 175 214 268 320
#     4  10  22  38  55  78 108 144 181 219 267 320
#
# _framework density 17.518387000000001
#
# number of rings (size 3 to 8) (size 9 to 14) (size 15 to 20)
#    0.000    2.250    2.500    1.500    0.000    5.000 
#    0.000    1.250    0.000    7.500    0.000    0.000 
#    0.000    0.000    0.000    0.000    0.000    0.000 
#
# Total GULP energy -396831.387913 kJ/mol
# GULP energy per Si atom -12400.980872 kJ/mol
# Density = 1.747851 g / cm^3
# Si number density = 17.518387 Si / 1000 Ang^3
#
#
#
# Elastic Constant Matrix: (Units=GPa)
#
#
# Indices 1 2 3 4 5 6 
#
# 1 139.2564 66.8894 74.3894 0.0000 -9.8827 0.0000
# 2 66.8894 85.3198 60.8484 0.0000 -1.4575 0.0000
# 3 74.3894 60.8484 121.0293 0.0000 -9.9709 0.0000
# 4 0.0000 0.0000 0.0000 31.6822 0.0000 -2.6546
# 5 -9.8827 -1.4575 -9.9709 0.0000 26.0007 0.0000
# 6 0.0000 0.0000 0.0000 -2.6546 0.0000 32.8832
#
#
#
# Elastic Compliance Matrix: (Units=1/GPa)
#
#
# Indices 1 2 3 4 5 6 
#
# 1 0.013097 -0.007250 -0.004159 0.000000 0.002976 0.000000
# 2 -0.007250 0.022455 -0.007183 0.000000 -0.004252 0.000000
# 3 -0.004159 -0.007183 0.014733 0.000000 0.003666 0.000000
# 4 0.000000 0.000000 0.000000 0.031778 0.000000 0.002565
# 5 0.002976 -0.004252 0.003666 0.000000 0.040759 0.000000
# 6 0.000000 0.000000 0.000000 0.002565 0.000000 0.030618
#
#
# Mechanical properties :
#
#
# Convention : Reuss Voigt Hill
#
# Bulk Modulus (GPa) = 76.34697 83.31779 79.83238
# Shear Modulus (GPa) = 25.64200 27.67844 26.66022
#
# Velocity S-wave (km/s) = 3.83001 3.97919 3.90531
# Velocity P-wave (km/s) = 7.95200 8.29309 8.12434
#
# Compressibility (1/GPa) = 0.01309810
#
# Stress axis : x y z
#
# Youngs Moduli (GPa) = 76.35492 44.53294 67.87703
#
# Poissons Ratio (x) = 0.32288 0.28232
# Poissons Ratio (y) = 0.55361 0.48759
# Poissons Ratio (z) = 0.31759 0.31990
#
# Static dielectric constant tensor:
#      x y z
#    x 3.625630 0.000000 -0.023670 
#    y 0.000000 3.266090 0.000000 
#    z -0.023670 0.000000 2.990780 
# 
# 
# High freq. dielectric constant tensor:
#      x y z
#    x 1.695270 0.000000 -0.007560 
#    y 0.000000 1.678330 0.000000 
#    z -0.007560 0.000000 1.644590 
# 
# From -- ./inp_files/365218.got.cif
#   From: 2010.06.25/outbox.cif.g09.slc.cpg/sg12_183_cif.got.tgz:365218.got - 2010.06.28 00:19:55.
