data_PCOD8085039
_publ_section_title
;
Structure prediction by ZEFSAII (Michael W. Deem and Ramdas Pophale) SiO2 
 PCOD8085039
Probable space group: C 2/M
;
_chemical_formula_sum "Si O2"
_cell_formula_units_Z 64
_cell_length_a 29.653663
_cell_length_b 9.471643
_cell_length_c 25.788919
_cell_angle_alpha 90.000000
_cell_angle_beta 30.519312
_cell_angle_gamma 90.000000
_cell_volume 3678.358830
_symmetry_space_group_name_H-M "C 2/M"
_symmetry_group_IT_number 12
_symmetry_cell_setting 'monoclinic'
loop_
_space_group_symop_operation_xyz
x,y,z
-x,y,-z
-x,-y,-z
x,-y,z
1/2+x,1/2+y,z
1/2-x,1/2+y,-z
1/2-x,1/2-y,-z
1/2+x,1/2-y,z
loop_
_atom_site_type_symbol
_atom_site_label
_atom_site_fract_x
_atom_site_fract_y
_atom_site_fract_z
Si Si1 0.977329 0.837495 0.263911
Si Si2 0.427157 0.832637 0.214009
Si Si3 0.246672 0.331537 0.780963
Si Si4 0.071304 0.167983 0.574009
Si Si5 0.243332 0.832134 0.345473
Si Si6 0.882540 0.831921 0.730307
Si Si7 0.674557 0.338070 0.101616
Si Si8 0.551730 0.832237 0.998721
O O1 0.083090 0.818963 0.161203
O O2 0.938014 0.740567 0.258237
O O3 0.933693 0.784712 0.361089
O O4 0.952307 0.000000 0.277839
O O5 0.333322 0.782549 0.283719
O O6 0.430209 0.000000 0.219031
O O7 0.504444 0.780781 0.098301
O O8 0.247451 0.500000 0.779771
O O9 0.259201 0.272391 0.710538
O O10 0.327024 0.271540 0.736642
O O11 0.153090 0.277621 0.897166
O O12 0.159439 0.230917 0.460027
O O13 0.984445 0.223225 0.628503
O O14 0.071765 0.000000 0.571739
O O15 0.238848 0.000000 0.348491
O O16 0.836047 0.781372 0.829330
O O17 0.883159 0.000000 0.728780
O O18 0.704708 0.500000 0.072032
O O19 0.750000 0.250000 0.000000
O O20 0.548103 0.000000 0.999653
O O21 0.500000 0.770578 0.000000
#
# Coordination Sequence:
#
# PCOD8085039 Si02
#       8
#     8   8   8   8   8   8   8   8
#     4   9  19  34  47  63  94 130 155 182 229 277
#     4  10  19  29  46  72  94 118 157 194 223 265
#     4   9  15  23  38  63  92 118 147 184 229 279
#     4   8  15  29  44  58  87 125 152 185 231 273
#     4   9  16  26  42  66  91 115 151 195 231 266
#     4   8  15  26  40  61  88 119 151 180 224 283
#     4   9  18  31  46  66  92 121 154 188 224 269
#     4   9  15  25  39  60  93 122 142 182 239 275
#
# _framework density 17.399065
#
# number of rings (size 3 to 8) (size 9 to 14) (size 15 to 20)
#    0.000    3.125    1.250    1.500    1.750    1.500 
#    0.000    2.500    0.000    0.375    0.000    0.875 
#    0.000    0.000    0.000    6.625    0.000    6.750 
#
# Total GULP energy -396641.996198 kJ/mol
# GULP energy per Si atom -12395.062381 kJ/mol
# Density = 1.735946 g / cm^3
# Si number density = 17.399065 Si / 1000 Ang^3
#
#
#
# Elastic Constant Matrix: (Units=GPa)
#
#
# Indices 1 2 3 4 5 6 
#
# 1 160.7972 25.0858 80.1288 -0.0019 1.0738 0.0007
# 2 25.0858 17.6060 22.6254 -0.0091 -0.4418 0.0028
# 3 80.1288 22.6254 168.0666 -0.0048 2.9202 0.0017
# 4 -0.0019 -0.0091 -0.0048 12.8004 0.0007 2.1163
# 5 1.0738 -0.4418 2.9202 0.0007 17.0030 0.0011
# 6 0.0007 0.0028 0.0017 2.1163 0.0011 18.9532
#
#
#
# Elastic Compliance Matrix: (Units=1/GPa)
#
#
# Indices 1 2 3 4 5 6 
#
# 1 0.009213 -0.009064 -0.003168 -0.000007 -0.000273 0.000002
# 2 -0.009064 0.077792 -0.006215 0.000054 0.003661 -0.000017
# 3 -0.003168 -0.006215 0.008321 -0.000002 -0.001391 0.000001
# 4 -0.000007 0.000054 -0.000002 0.079592 0.000000 -0.008887
# 5 -0.000273 0.003661 -0.001391 0.000000 0.059164 -0.000004
# 6 0.000002 -0.000017 0.000001 -0.008887 -0.000004 0.053754
#
#
# Mechanical properties :
#
#
# Convention : Reuss Voigt Hill
#
# Bulk Modulus (GPa) = 17.11337 66.90552 42.00944
# Shear Modulus (GPa) = 14.52616 24.32664 19.42640
#
# Velocity S-wave (km/s) = 2.89257 3.74325 3.34506
# Velocity P-wave (km/s) = 4.58400 7.56436 6.25430
#
# Compressibility (1/GPa) = 0.05843385
#
# Stress axis : x y z
#
# Youngs Moduli (GPa) = 108.53743 12.85484 120.17635
#
# Poissons Ratio (x) = 0.11651 0.38069
# Poissons Ratio (y) = 0.98375 0.74687
# Poissons Ratio (z) = 0.34382 0.07989
#
# Static dielectric constant tensor:
#      x y z
#    x 3.421470 -0.000010 -0.060150 
#    y -0.000010 2.545820 0.000020 
#    z -0.060150 0.000020 3.542990 
# 
# 
# High freq. dielectric constant tensor:
#      x y z
#    x 1.682620 0.000000 -0.001320 
#    y 0.000000 1.593700 0.000000 
#    z -0.001320 0.000000 1.683960 
# 
# From -- ./inp_files/351767.got.cif
#   From: 2010.06.25/outbox.cif.g09.slc.cpg/sg12_176_cif.got.tgz:351767.got - 2010.06.28 00:19:55.
