data_PCOD8085315
_publ_section_title
;
Structure prediction by ZEFSAII (Michael W. Deem and Ramdas Pophale) SiO2 
 PCOD8085315
Probable space group: C 2/M
;
_chemical_formula_sum "Si O2"
_cell_formula_units_Z 40
_cell_length_a 27.463547
_cell_length_b 9.195214
_cell_length_c 19.317254
_cell_angle_alpha 90.000000
_cell_angle_beta 27.949942
_cell_angle_gamma 90.000000
_cell_volume 2286.434616
_symmetry_space_group_name_H-M "C 2/M"
_symmetry_group_IT_number 12
_symmetry_cell_setting 'monoclinic'
loop_
_space_group_symop_operation_xyz
x,y,z
-x,y,-z
-x,-y,-z
x,-y,z
1/2+x,1/2+y,z
1/2-x,1/2+y,-z
1/2-x,1/2-y,-z
1/2+x,1/2-y,z
loop_
_atom_site_type_symbol
_atom_site_label
_atom_site_fract_x
_atom_site_fract_y
_atom_site_fract_z
Si Si1 0.268670 0.670155 0.047354
Si Si2 0.287243 0.326885 0.243921
Si Si3 0.440678 0.672451 0.935318
Si Si4 0.885725 0.328313 0.639448
Si Si5 0.824639 0.826546 0.351990
O O1 0.272272 0.500000 0.028138
O O2 0.173420 0.712612 0.216280
O O3 0.250000 0.750000 0.000000
O O4 0.375955 0.722337 0.948881
O O5 0.290416 0.500000 0.238564
O O6 0.179608 0.269793 0.344687
O O7 0.293620 0.271120 0.314383
O O8 0.384649 0.268518 0.075695
O O9 0.440674 0.500000 0.939885
O O10 0.558137 0.729469 0.781558
O O11 0.895847 0.500000 0.619004
O O12 0.000000 0.255878 0.500000
O O13 0.750000 0.750000 0.500000
O O14 0.814859 0.000000 0.371512
#
# Coordination Sequence:
#
# PCOD8085315 Si02
#       5
#     8   8   8   8   8
#     4   9  17  29  46  67  91 118 147 180 219 262
#     4   8  14  26  45  64  81 112 156 185 205 251
#     4   8  15  29  47  65  86 117 154 185 213 253
#     4   8  14  25  42  65  89 111 142 186 224 249
#     4  10  19  30  46  68  92 115 144 185 227 264
#
# _framework density 17.494485999999998
#
# number of rings (size 3 to 8) (size 9 to 14) (size 15 to 20)
#    0.000    3.400    0.000    3.000    0.000    4.000 
#    0.000    3.000    0.000    7.800    0.000    0.000 
#    0.000    0.000    0.000    0.000    0.000    0.000 
#
# Total GULP energy -247834.498924 kJ/mol
# GULP energy per Si atom -12391.724946 kJ/mol
# Density = 1.745467 g / cm^3
# Si number density = 17.494486 Si / 1000 Ang^3
#
#
#
# Elastic Constant Matrix: (Units=GPa)
#
#
# Indices 1 2 3 4 5 6 
#
# 1 183.3666 33.0012 115.9219 0.0000 2.5778 -0.0002
# 2 33.0012 14.4250 26.1075 -0.0065 3.8487 0.0018
# 3 115.9219 26.1075 158.2308 -0.0027 -14.4025 0.0007
# 4 0.0000 -0.0065 -0.0027 21.6551 0.0013 6.5830
# 5 2.5778 3.8487 -14.4025 0.0013 34.8265 0.0001
# 6 -0.0002 0.0018 0.0007 6.5830 0.0001 20.8439
#
#
#
# Elastic Compliance Matrix: (Units=1/GPa)
#
#
# Indices 1 2 3 4 5 6 
#
# 1 0.012706 -0.016215 -0.006812 -0.000007 -0.001966 0.000004
# 2 -0.016215 0.132287 -0.011606 0.000048 -0.018218 -0.000026
# 3 -0.006812 -0.011606 0.013912 -0.000003 0.007540 0.000001
# 4 -0.000007 0.000048 -0.000003 0.051083 -0.000008 -0.016133
# 5 -0.001966 -0.018218 0.007540 -0.000008 0.033991 0.000004
# 6 0.000004 -0.000026 0.000001 -0.016133 0.000004 0.053071
#
#
# Mechanical properties :
#
#
# Convention : Reuss Voigt Hill
#
# Bulk Modulus (GPa) = 11.15588 78.45374 44.80481
# Shear Modulus (GPa) = 12.62007 27.53123 20.07565
#
# Velocity S-wave (km/s) = 2.68875 3.97130 3.39121
# Velocity P-wave (km/s) = 4.00373 8.12222 6.40314
#
# Compressibility (1/GPa) = 0.08963885
#
# Stress axis : x y z
#
# Youngs Moduli (GPa) = 78.70310 7.55932 71.88205
#
# Poissons Ratio (x) = 0.12258 0.48966
# Poissons Ratio (y) = 1.27618 0.83424
# Poissons Ratio (z) = 0.53613 0.08773
#
# Static dielectric constant tensor:
#      x y z
#    x 4.283600 0.000010 -0.700510 
#    y 0.000010 2.600950 0.000000 
#    z -0.700510 0.000000 3.793690 
# 
# 
# High freq. dielectric constant tensor:
#      x y z
#    x 1.693170 0.000000 -0.007110 
#    y 0.000000 1.605630 0.000000 
#    z -0.007110 0.000000 1.680030 
# 
# From -- ./inp_files/153300.got.cif
#   From: 2010.06.25/outbox.cif.g09.slc.cpg/sg12_77_cif.got.tgz:153300.got - 2010.06.28 00:19:55.
