data_PCOD8085472
_publ_section_title
;
Structure prediction by ZEFSAII (Michael W. Deem and Ramdas Pophale) SiO2 
 PCOD8085472
Probable space group: C 2/M
;
_chemical_formula_sum "Si O2"
_cell_formula_units_Z 56
_cell_length_a 28.071879
_cell_length_b 8.978562
_cell_length_c 14.044194
_cell_angle_alpha 90.000000
_cell_angle_beta 59.777457
_cell_angle_gamma 90.000000
_cell_volume 3058.633529
_symmetry_space_group_name_H-M "C 2/M"
_symmetry_group_IT_number 12
_symmetry_cell_setting 'monoclinic'
loop_
_space_group_symop_operation_xyz
x,y,z
-x,y,-z
-x,-y,-z
x,-y,z
1/2+x,1/2+y,z
1/2-x,1/2+y,-z
1/2-x,1/2-y,-z
1/2+x,1/2-y,z
loop_
_atom_site_type_symbol
_atom_site_label
_atom_site_fract_x
_atom_site_fract_y
_atom_site_fract_z
Si Si1 0.533385 0.165347 0.370015
Si Si2 0.449213 0.326328 0.162980
Si Si3 0.674679 0.173978 0.008128
Si Si4 0.279262 0.826150 0.831668
Si Si5 0.870180 0.824116 0.631586
Si Si6 0.427024 0.323507 0.980489
Si Si7 0.435625 0.673726 0.382444
O O1 0.500000 0.151950 0.500000
O O2 0.587112 0.265689 0.332079
O O3 0.493750 0.242338 0.333662
O O4 0.551335 0.000000 0.316933
O O5 0.456868 0.500000 0.140503
O O6 0.416850 0.271134 0.101327
O O7 0.415543 0.290229 0.294498
O O8 0.511779 0.266131 0.107677
O O9 0.687807 0.209143 0.104674
O O10 0.677759 0.000000 0.983335
O O11 0.718608 0.256151 0.896337
O O12 0.614369 0.236419 0.046583
O O13 0.311487 0.751720 0.710800
O O14 0.273424 0.000000 0.817773
O O15 0.889868 0.775533 0.505408
O O16 0.864773 0.000000 0.646775
O O17 0.418348 0.500000 0.974533
O O18 0.448122 0.500000 0.384646
#
# Coordination Sequence:
#
# PCOD8085472 Si02
#       7
#     8   8   8   8   8   8   8
#     4   9  17  28  41  62  95 132 167 200 237 286
#     4   8  16  31  51  76 102 132 170 204 240 294
#     4  10  21  36  53  75 101 127 162 207 253 296
#     4  10  21  36  53  74 100 130 166 202 247 303
#     4  10  19  30  47  70  99 132 166 205 247 290
#     4   9  17  32  54  76 100 132 168 205 247 292
#     4   9  17  30  47  70  99 133 169 204 243 290
#
# _framework density 18.308828999999999
#
# number of rings (size 3 to 8) (size 9 to 14) (size 15 to 20)
#    0.000    2.714    0.000    2.571    2.000    4.000 
#    0.000    2.143    0.000    0.857    0.000    0.000 
#    0.000    0.000    0.000    0.000    0.000    0.000 
#
# Total GULP energy -347055.448988 kJ/mol
# GULP energy per Si atom -12394.837464 kJ/mol
# Density = 1.826716 g / cm^3
# Si number density = 18.308829 Si / 1000 Ang^3
#
#
#
# Elastic Constant Matrix: (Units=GPa)
#
#
# Indices 1 2 3 4 5 6 
#
# 1 47.6051 15.2526 8.1867 0.0000 -1.2240 0.0000
# 2 15.2526 66.5678 26.2365 0.0000 -2.5534 0.0000
# 3 8.1867 26.2365 84.9274 0.0000 -1.2771 0.0000
# 4 0.0000 0.0000 0.0000 23.0394 0.0000 -6.4600
# 5 -1.2240 -2.5534 -1.2771 0.0000 24.1308 0.0000
# 6 0.0000 0.0000 0.0000 -6.4600 0.0000 22.0263
#
#
#
# Elastic Compliance Matrix: (Units=1/GPa)
#
#
# Indices 1 2 3 4 5 6 
#
# 1 0.022712 -0.004921 -0.000660 0.000000 0.000596 0.000000
# 2 -0.004921 0.018228 -0.005136 0.000000 0.001407 0.000000
# 3 -0.000660 -0.005136 0.013427 0.000000 0.000134 0.000000
# 4 0.000000 0.000000 0.000000 0.047293 0.000000 0.013870
# 5 0.000596 0.001407 0.000134 0.000000 0.041627 0.000000
# 6 0.000000 0.000000 0.000000 0.013870 0.000000 0.049468
#
#
# Mechanical properties :
#
#
# Convention : Reuss Voigt Hill
#
# Bulk Modulus (GPa) = 30.36443 33.16133 31.76288
# Shear Modulus (GPa) = 22.20588 23.80094 23.00341
#
# Velocity S-wave (km/s) = 3.48638 3.60942 3.54843
# Velocity P-wave (km/s) = 5.72949 5.96004 5.84590
#
# Compressibility (1/GPa) = 0.03293327
#
# Stress axis : x y z
#
# Youngs Moduli (GPa) = 44.03029 54.86104 74.47707
#
# Poissons Ratio (x) = 0.26996 0.04917
# Poissons Ratio (y) = 0.21666 0.38248
# Poissons Ratio (z) = 0.02907 0.28174
#
# Static dielectric constant tensor:
#      x y z
#    x 3.184570 0.000000 0.077140 
#    y 0.000000 3.315850 0.000000 
#    z 0.077140 0.000000 3.491360 
# 
# 
# High freq. dielectric constant tensor:
#      x y z
#    x 1.675080 0.000000 0.001700 
#    y 0.000000 1.701690 0.000000 
#    z 0.001700 0.000000 1.713110 
# 
# From -- ./inp_files/243617.got.cif
#   From: 2010.06.25/outbox.cif.g09.slc.cpg/sg12_122_cif.got.tgz:243617.got - 2010.06.28 00:19:55.
