data_PCOD8085977
_publ_section_title
;
Structure prediction by ZEFSAII (Michael W. Deem and Ramdas Pophale) SiO2 
 PCOD8085977
Probable space group: C 2/M
;
_chemical_formula_sum "Si O2"
_cell_formula_units_Z 64
_cell_length_a 23.979126
_cell_length_b 8.979582
_cell_length_c 17.094758
_cell_angle_alpha 90.000000
_cell_angle_beta 94.186120
_cell_angle_gamma 90.000000
_cell_volume 3671.066606
_symmetry_space_group_name_H-M "C 2/M"
_symmetry_group_IT_number 12
_symmetry_cell_setting 'monoclinic'
loop_
_space_group_symop_operation_xyz
x,y,z
-x,y,-z
-x,-y,-z
x,-y,z
1/2+x,1/2+y,z
1/2-x,1/2+y,-z
1/2-x,1/2-y,-z
1/2+x,1/2-y,z
loop_
_atom_site_type_symbol
_atom_site_label
_atom_site_fract_x
_atom_site_fract_y
_atom_site_fract_z
Si Si1 0.453159 0.324373 0.166212
Si Si2 0.122985 0.323049 0.960547
Si Si3 0.657853 0.675525 0.119962
Si Si4 0.128490 0.674396 0.724844
Si Si5 0.950578 0.323999 0.602049
Si Si6 0.071613 0.172760 0.242446
Si Si7 0.217868 0.325646 0.852115
Si Si8 0.071958 0.325729 0.568070
O O1 0.446643 0.500000 0.153470
O O2 0.432609 0.241934 0.085598
O O3 0.417347 0.272367 0.236432
O O4 0.516934 0.276066 0.188650
O O5 0.118893 0.500000 0.961412
O O6 0.177410 0.267612 0.917106
O O7 0.126338 0.259779 0.047573
O O8 0.657503 0.500000 0.101732
O O9 0.625974 0.711146 0.196930
O O10 0.720427 0.744307 0.134773
O O11 0.115229 0.500000 0.739396
O O12 0.189966 0.714109 0.764867
O O13 0.123805 0.712349 0.631555
O O14 0.947247 0.500000 0.612144
O O15 0.921323 0.254103 0.674293
O O16 0.918289 0.267206 0.519507
O O17 0.014451 0.265363 0.600656
O O18 0.067012 0.000000 0.260946
O O19 0.225347 0.500000 0.860978
O O20 0.063051 0.500000 0.558776
#
# Coordination Sequence:
#
# PCOD8085977 Si02
#       8
#     8   8   8   8   8   8   8   8
#     4  10  19  31  46  68  96 126 154 184 232 282
#     4  10  20  34  52  74  92 112 153 203 241 276
#     4  10  20  35  50  66  92 127 159 190 231 279
#     4   9  15  28  50  74  96 118 151 198 237 272
#     4   9  16  28  47  70  96 127 156 188 231 275
#     4  10  21  33  46  66  97 131 160 186 222 279
#     4   8  16  30  51  73  91 116 154 196 237 273
#     4   8  14  25  46  74  98 120 151 191 235 276
#
# _framework density 17.433624999999999
#
# number of rings (size 3 to 8) (size 9 to 14) (size 15 to 20)
#    0.000    2.750    1.250    2.625    0.000    1.500 
#    0.000    6.875    0.000    0.750    0.000    0.000 
#    0.000    0.000    0.000    0.000    0.000    0.000 
#
# Total GULP energy -396593.965332 kJ/mol
# GULP energy per Si atom -12393.561417 kJ/mol
# Density = 1.739395 g / cm^3
# Si number density = 17.433625 Si / 1000 Ang^3
#
#
#
# Elastic Constant Matrix: (Units=GPa)
#
#
# Indices 1 2 3 4 5 6 
#
# 1 42.2097 17.2537 25.3465 0.0000 -2.3840 0.0000
# 2 17.2537 36.4568 34.0834 0.0000 -1.4068 0.0000
# 3 25.3465 34.0834 136.5171 0.0000 5.6716 0.0000
# 4 0.0000 0.0000 0.0000 25.6602 0.0000 -2.1118
# 5 -2.3840 -1.4068 5.6716 0.0000 20.1653 0.0000
# 6 0.0000 0.0000 0.0000 -2.1118 0.0000 15.6076
#
#
#
# Elastic Compliance Matrix: (Units=1/GPa)
#
#
# Indices 1 2 3 4 5 6 
#
# 1 0.030344 -0.011498 -0.002913 0.000000 0.003604 0.000000
# 2 -0.011498 0.040658 -0.008173 0.000000 0.003776 0.000000
# 3 -0.002913 -0.008173 0.010062 0.000000 -0.003745 0.000000
# 4 0.000000 0.000000 0.000000 0.039410 0.000000 0.005332
# 5 0.003604 0.003776 -0.003745 0.000000 0.051333 0.000000
# 6 0.000000 0.000000 0.000000 0.005332 0.000000 0.064793
#
#
# Mechanical properties :
#
#
# Convention : Reuss Voigt Hill
#
# Bulk Modulus (GPa) = 27.85845 40.95007 34.40426
# Shear Modulus (GPa) = 17.02228 21.51996 19.27112
#
# Velocity S-wave (km/s) = 3.12814 3.51721 3.32836
# Velocity P-wave (km/s) = 5.39086 6.32728 5.87775
#
# Compressibility (1/GPa) = 0.03589575
#
# Stress axis : x y z
#
# Youngs Moduli (GPa) = 32.95544 24.59543 99.38446
#
# Poissons Ratio (x) = 0.28281 0.28949
# Poissons Ratio (y) = 0.37893 0.81225
# Poissons Ratio (z) = 0.09599 0.20101
#
# Static dielectric constant tensor:
#      x y z
#    x 3.227480 0.000000 0.216320 
#    y 0.000000 2.986400 0.000000 
#    z 0.216320 0.000000 3.437960 
# 
# 
# High freq. dielectric constant tensor:
#      x y z
#    x 1.645560 0.000000 0.017020 
#    y 0.000000 1.649810 0.000000 
#    z 0.017020 0.000000 1.683970 
# 
# From -- ./inp_files/287771.got.cif
#   From: 2010.06.25/outbox.cif.g09.slc.cpg/sg12_144_cif.got.tgz:287771.got - 2010.06.28 00:19:55.
