data_PCOD8085387
_publ_section_title
;
Structure prediction by ZEFSAII (Michael W. Deem and Ramdas Pophale) SiO2 
 PCOD8085387
Probable space group: C 2/M
;
_chemical_formula_sum "Si O2"
_cell_formula_units_Z 28
_cell_length_a 5.178877
_cell_length_b 25.167771
_cell_length_c 10.346997
_cell_angle_alpha 90.000000
_cell_angle_beta 74.679726
_cell_angle_gamma 90.000000
_cell_volume 1300.710629
_symmetry_space_group_name_H-M "C 2/M"
_symmetry_group_IT_number 12
_symmetry_cell_setting 'monoclinic'
loop_
_space_group_symop_operation_xyz
x,y,z
-x,y,-z
-x,-y,-z
x,-y,z
1/2+x,1/2+y,z
1/2-x,1/2+y,-z
1/2-x,1/2-y,-z
1/2+x,1/2-y,z
loop_
_atom_site_type_symbol
_atom_site_label
_atom_site_fract_x
_atom_site_fract_y
_atom_site_fract_z
Si Si1 0.591529 0.561594 0.352346
Si Si2 0.000000 0.368786 0.000000
Si Si3 0.769695 0.227355 0.853265
Si Si4 0.192836 0.561656 0.189536
O O1 0.500000 0.588398 0.500000
O O2 0.513345 0.500000 0.367779
O O3 0.419996 0.585046 0.255150
O O4 0.905016 0.570678 0.293398
O O5 0.796495 0.405625 0.945717
O O6 0.177749 0.334067 0.874670
O O7 0.581861 0.261243 0.777345
O O8 0.750000 0.250000 0.000000
O O9 0.240310 0.500000 0.148382
#
# Coordination Sequence:
#
# PCOD8085387 Si02
#       4
#     8   4   8   8
#     4   9  18  33  48  61  84 123 168 200 214 240
#     4  10  19  30  46  70 104 122 139 180 238 286
#     4   8  16  29  44  62  88 117 152 184 211 266
#     4  10  20  30  45  69  96 126 151 179 226 278
#
# _framework density 21.526693000000002
#
# number of rings (size 3 to 8) (size 9 to 14) (size 15 to 20)
#    0.000    3.143    0.000    1.286    0.000   13.714 
#    0.000    4.286    0.000    0.000    0.000    0.000 
#    0.000  205.714    0.000    0.000    0.000    0.000 
#
# Total GULP energy -173445.750449 kJ/mol
# GULP energy per Si atom -12388.982175 kJ/mol
# Density = 2.147770 g / cm^3
# Si number density = 21.526693 Si / 1000 Ang^3
#
#
#
# Elastic Constant Matrix: (Units=GPa)
#
#
# Indices 1 2 3 4 5 6 
#
# 1 134.8027 18.4956 8.1055 0.0000 23.7388 0.0000
# 2 18.4956 75.1254 16.6772 0.0000 12.5585 0.0000
# 3 8.1055 16.6772 47.1695 0.0000 18.2056 0.0000
# 4 0.0000 0.0000 0.0000 1.4501 0.0000 0.0911
# 5 23.7388 12.5585 18.2056 0.0000 30.0047 0.0000
# 6 0.0000 0.0000 0.0000 0.0911 0.0000 4.8186
#
#
#
# Elastic Compliance Matrix: (Units=1/GPa)
#
#
# Indices 1 2 3 4 5 6 
#
# 1 0.008818 -0.001323 0.001869 0.000000 -0.007557 0.000000
# 2 -0.001323 0.014992 -0.003990 0.000000 -0.002808 0.000000
# 3 0.001869 -0.003990 0.029009 0.000000 -0.017411 0.000000
# 4 0.000000 0.000000 0.000000 0.690448 0.000000 -0.013048
# 5 -0.007557 -0.002808 -0.017411 0.000000 0.051046 0.000000
# 6 0.000000 0.000000 0.000000 -0.013048 0.000000 0.207775
#
#
# Mechanical properties :
#
#
# Convention : Reuss Voigt Hill
#
# Bulk Modulus (GPa) = 21.77075 38.18380 29.97728
# Shear Modulus (GPa) = 4.88145 21.50929 13.19537
#
# Velocity S-wave (km/s) = 1.50750 3.16443 2.47852
# Velocity P-wave (km/s) = 3.62841 5.57924 4.70602
#
# Compressibility (1/GPa) = 0.04593319
#
# Stress axis : x y z
#
# Youngs Moduli (GPa) = 113.40251 66.70354 34.47164
#
# Poissons Ratio (x) = 0.08822 -0.06443
# Poissons Ratio (y) = 0.14999 0.13752
# Poissons Ratio (z) = -0.21196 0.26611
#
# Static dielectric constant tensor:
#      x y z
#    x -10.699130 0.000000 0.667060 
#    y 0.000000 3.857040 0.000000 
#    z 0.667060 0.000000 3.418990 
# 
# 
# High freq. dielectric constant tensor:
#      x y z
#    x 1.875310 0.000000 0.019190 
#    y 0.000000 1.815470 0.000000 
#    z 0.019190 0.000000 1.780480 
# 
# From -- ./inp_files/33874.got.cif
#   From: 2010.06.25/outbox.cif.g09.slc.cpg/sg12_17_cif.got.tgz:33874.got - 2010.06.28 00:19:55.
