data_PCOD8085551
_publ_section_title
;
Structure prediction by ZEFSAII (Michael W. Deem and Ramdas Pophale) SiO2 
 PCOD8085551
Probable space group: C 2/M
;
_chemical_formula_sum "Si O2"
_cell_formula_units_Z 40
_cell_length_a 20.332719
_cell_length_b 9.276124
_cell_length_c 20.912187
_cell_angle_alpha 90.000000
_cell_angle_beta 144.492413
_cell_angle_gamma 90.000000
_cell_volume 2290.847118
_symmetry_space_group_name_H-M "C 2/M"
_symmetry_group_IT_number 12
_symmetry_cell_setting 'monoclinic'
loop_
_space_group_symop_operation_xyz
x,y,z
-x,y,-z
-x,-y,-z
x,-y,z
1/2+x,1/2+y,z
1/2-x,1/2+y,-z
1/2-x,1/2-y,-z
1/2+x,1/2-y,z
loop_
_atom_site_type_symbol
_atom_site_label
_atom_site_fract_x
_atom_site_fract_y
_atom_site_fract_z
Si Si1 0.487397 0.334532 0.564320
Si Si2 0.760640 0.832858 0.215699
Si Si3 0.941483 0.340505 0.022443
Si Si4 0.864777 0.834473 0.774890
Si Si5 0.216673 0.333556 0.536703
O O1 0.500000 0.296714 0.500000
O O2 0.447982 0.500000 0.541969
O O3 0.607526 0.306094 0.694148
O O4 0.398216 0.229218 0.525476
O O5 0.688489 0.791062 0.094688
O O6 0.722652 0.742350 0.246985
O O7 0.737858 0.000000 0.215140
O O8 0.944533 0.500000 0.055748
O O9 0.000000 0.341007 0.000000
O O10 0.008546 0.232537 0.122074
O O11 0.819805 0.815672 0.667689
O O12 0.872996 0.000000 0.802000
O O13 0.195403 0.500000 0.503413
O O14 0.250000 0.250000 0.500000
#
# Coordination Sequence:
#
# PCOD8085551 Si02
#       5
#     8   8   8   8   8
#     4  10  19  33  56  80 105 138 172 211 260 310
#     4   9  17  30  49  76 105 134 168 205 251 307
#     4   8  15  27  45  70 101 134 167 204 249 303
#     4  10  19  30  47  73 103 133 169 214 257 298
#     4  11  24  38  53  75 105 140 177 217 260 309
#
# _framework density 17.460789999999999
#
# number of rings (size 3 to 8) (size 9 to 14) (size 15 to 20)
#    0.000    2.400    2.000    2.400    0.000    7.200 
#    0.000    0.000    0.000    1.200    0.000    0.000 
#    0.000    0.000    0.000    0.000    0.000    0.000 
#
# Total GULP energy -247944.827400 kJ/mol
# GULP energy per Si atom -12397.241370 kJ/mol
# Density = 1.742105 g / cm^3
# Si number density = 17.460790 Si / 1000 Ang^3
#
#
#
# Elastic Constant Matrix: (Units=GPa)
#
#
# Indices 1 2 3 4 5 6 
#
# 1 69.0476 58.8120 45.6676 0.0000 0.7875 0.0000
# 2 58.8120 124.7914 70.6998 0.0000 -2.4016 0.0000
# 3 45.6676 70.6998 139.1917 0.0000 12.8443 0.0000
# 4 0.0000 0.0000 0.0000 30.7397 0.0000 -0.8732
# 5 0.7875 -2.4016 12.8443 0.0000 16.6741 0.0000
# 6 0.0000 0.0000 0.0000 -0.8732 0.0000 24.0282
#
#
#
# Elastic Compliance Matrix: (Units=1/GPa)
#
#
# Indices 1 2 3 4 5 6 
#
# 1 0.025131 -0.010096 -0.003093 0.000000 -0.000258 0.000000
# 2 -0.010096 0.015998 -0.005458 0.000000 0.006986 0.000000
# 3 -0.003093 -0.005458 0.011875 0.000000 -0.009787 0.000000
# 4 0.000000 0.000000 0.000000 0.032565 0.000000 0.001183
# 5 -0.000258 0.006986 -0.009787 0.000000 0.068531 0.000000
# 6 0.000000 0.000000 0.000000 0.001183 0.000000 0.041661
#
#
# Mechanical properties :
#
#
# Convention : Reuss Voigt Hill
#
# Bulk Modulus (GPa) = 63.65874 75.93216 69.79545
# Shear Modulus (GPa) = 20.98262 24.81184 22.89723
#
# Velocity S-wave (km/s) = 3.47031 3.77371 3.62519
# Velocity P-wave (km/s) = 7.25222 7.91009 7.58829
#
# Compressibility (1/GPa) = 0.01570876
#
# Stress axis : x y z
#
# Youngs Moduli (GPa) = 39.79104 62.50637 84.21275
#
# Poissons Ratio (x) = 0.63109 0.26049
# Poissons Ratio (y) = 0.40175 0.45964
# Poissons Ratio (z) = 0.12308 0.34117
#
# Static dielectric constant tensor:
#      x y z
#    x 3.205240 0.000000 0.323340 
#    y 0.000000 3.331250 0.000000 
#    z 0.323340 0.000000 3.980710 
# 
# 
# High freq. dielectric constant tensor:
#      x y z
#    x 1.617400 0.000000 0.009300 
#    y 0.000000 1.679560 0.000000 
#    z 0.009300 0.000000 1.698620 
# 
# From -- ./inp_files/162386.got.cif
#   From: 2010.06.25/outbox.cif.g09.slc.cpg/sg12_82_cif.got.tgz:162386.got - 2010.06.28 00:19:55.
