data_PCOD8085752
_publ_section_title
;
Structure prediction by ZEFSAII (Michael W. Deem and Ramdas Pophale) SiO2 
 PCOD8085752
Probable space group: C 2/M
;
_chemical_formula_sum "Si O2"
_cell_formula_units_Z 64
_cell_length_a 33.137900
_cell_length_b 9.299215
_cell_length_c 14.340015
_cell_angle_alpha 90.000000
_cell_angle_beta 48.407020
_cell_angle_gamma 90.000000
_cell_volume 3304.855430
_symmetry_space_group_name_H-M "C 2/M"
_symmetry_group_IT_number 12
_symmetry_cell_setting 'monoclinic'
loop_
_space_group_symop_operation_xyz
x,y,z
-x,y,-z
-x,-y,-z
x,-y,z
1/2+x,1/2+y,z
1/2-x,1/2+y,-z
1/2-x,1/2-y,-z
1/2+x,1/2-y,z
loop_
_atom_site_type_symbol
_atom_site_label
_atom_site_fract_x
_atom_site_fract_y
_atom_site_fract_z
Si Si1 0.943558 0.836402 0.630325
Si Si2 0.519219 0.664428 0.225434
Si Si3 0.168171 0.834397 0.579753
Si Si4 0.547758 0.167876 0.998078
Si Si5 0.583848 0.840439 0.612963
Si Si6 0.832178 0.666063 0.245207
Si Si7 0.147895 0.341043 0.326859
Si Si8 0.732068 0.662106 0.291786
O O1 0.941524 0.829066 0.745654
O O2 0.892259 0.744537 0.678063
O O3 0.000000 0.776722 0.500000
O O4 0.936110 0.000000 0.605997
O O5 0.505133 0.500000 0.221681
O O6 0.466880 0.748474 0.340928
O O7 0.544068 0.741605 0.098061
O O8 0.112819 0.745133 0.651268
O O9 0.193292 0.765632 0.634584
O O10 0.206993 0.814418 0.432637
O O11 0.153898 0.000000 0.619046
O O12 0.605787 0.207113 0.866981
O O13 0.543752 0.000000 0.029179
O O14 0.500000 0.212154 0.000000
O O15 0.622836 0.854800 0.466544
O O16 0.567225 0.000000 0.674881
O O17 0.825823 0.500000 0.285486
O O18 0.796040 0.693852 0.207189
O O19 0.157891 0.500000 0.269148
O O20 0.205631 0.262313 0.252651
O O21 0.721712 0.500000 0.273616
#
# Coordination Sequence:
#
# PCOD8085752 Si02
#       8
#     8   8   8   8   8   8   8   8
#     4  10  20  35  55  80 114 148 176 215 272 335
#     4  11  22  35  55  81 108 143 184 224 269 320
#     4  10  19  30  49  77 107 139 177 224 273 318
#     4  10  22  39  57  78 108 147 186 226 272 318
#     4  10  19  31  48  73 108 144 176 214 262 321
#     4  10  20  35  54  75 103 143 186 224 271 328
#     4  10  20  32  51  80 110 141 176 217 266 320
#     4   9  19  34  52  75 107 145 181 220 271 330
#
# _framework density 19.365445999999999
#
# number of rings (size 3 to 8) (size 9 to 14) (size 15 to 20)
#    0.000    2.000    1.250    2.625    0.000    5.000 
#    0.000    0.000    0.000    0.750    0.000    0.000 
#    0.000    0.000    0.000    0.000    0.000    0.000 
#
# Total GULP energy -396698.681942 kJ/mol
# GULP energy per Si atom -12396.833811 kJ/mol
# Density = 1.932137 g / cm^3
# Si number density = 19.365446 Si / 1000 Ang^3
#
#
#
# Elastic Constant Matrix: (Units=GPa)
#
#
# Indices 1 2 3 4 5 6 
#
# 1 130.5328 65.4063 23.5127 0.0000 -9.7636 0.0000
# 2 65.4063 120.0029 23.7702 0.0000 1.9872 0.0001
# 3 23.5127 23.7702 37.9525 0.0000 1.9659 0.0000
# 4 0.0000 0.0000 0.0000 21.0623 0.0000 5.7611
# 5 -9.7636 1.9872 1.9659 0.0000 27.9058 0.0000
# 6 0.0000 0.0001 0.0000 5.7611 0.0000 32.9493
#
#
#
# Elastic Compliance Matrix: (Units=1/GPa)
#
#
# Indices 1 2 3 4 5 6 
#
# 1 0.011507 -0.005582 -0.003876 0.000000 0.004697 0.000000
# 2 -0.005582 0.012223 -0.004066 0.000000 -0.002537 0.000000
# 3 -0.003876 -0.004066 0.031467 0.000000 -0.003284 0.000000
# 4 0.000000 0.000000 0.000000 0.049863 0.000000 -0.008718
# 5 0.004697 -0.002537 -0.003284 0.000000 0.037890 0.000000
# 6 0.000000 0.000000 0.000000 -0.008718 0.000000 0.031874
#
#
# Mechanical properties :
#
#
# Convention : Reuss Voigt Hill
#
# Bulk Modulus (GPa) = 35.52548 57.09630 46.31089
# Shear Modulus (GPa) = 23.66804 28.10341 25.88572
#
# Velocity S-wave (km/s) = 3.49976 3.81361 3.66005
# Velocity P-wave (km/s) = 5.89200 6.99565 6.46741
#
# Compressibility (1/GPa) = 0.02814881
#
# Stress axis : x y z
#
# Youngs Moduli (GPa) = 86.90042 81.81385 31.77954
#
# Poissons Ratio (x) = 0.45668 0.12319
# Poissons Ratio (y) = 0.48507 0.12921
# Poissons Ratio (z) = 0.33686 0.33264
#
# Static dielectric constant tensor:
#      x y z
#    x 3.660920 0.000000 -0.093510 
#    y 0.000000 3.747770 0.000000 
#    z -0.093510 0.000000 3.133870 
# 
# 
# High freq. dielectric constant tensor:
#      x y z
#    x 1.763190 0.000000 -0.002280 
#    y 0.000000 1.760720 0.000000 
#    z -0.002280 0.000000 1.708490 
# 
# From -- ./inp_files/249065.got.cif
#   From: 2010.06.25/outbox.cif.g09.slc.cpg/sg12_125_cif.got.tgz:249065.got - 2010.06.28 00:19:55.
