data_PCOD8085169
_publ_section_title
;
Structure prediction by ZEFSAII (Michael W. Deem and Ramdas Pophale) SiO2 
 PCOD8085169
Probable space group: C 2/M
;
_chemical_formula_sum "Si O2"
_cell_formula_units_Z 48
_cell_length_a 5.131984
_cell_length_b 25.340151
_cell_length_c 25.629121
_cell_angle_alpha 90.000000
_cell_angle_beta 119.840775
_cell_angle_gamma 90.000000
_cell_volume 2891.035393
_symmetry_space_group_name_H-M "C 2/M"
_symmetry_group_IT_number 12
_symmetry_cell_setting 'monoclinic'
loop_
_space_group_symop_operation_xyz
x,y,z
-x,y,-z
-x,-y,-z
x,-y,z
1/2+x,1/2+y,z
1/2-x,1/2+y,-z
1/2-x,1/2-y,-z
1/2+x,1/2-y,z
loop_
_atom_site_type_symbol
_atom_site_label
_atom_site_fract_x
_atom_site_fract_y
_atom_site_fract_z
Si Si1 0.837386 0.562989 0.535466
Si Si2 0.694571 0.061280 0.067946
Si Si3 0.656921 0.938169 0.669869
Si Si4 0.161345 0.393842 0.873542
Si Si5 0.311053 0.716087 0.931062
Si Si6 0.168804 0.437786 0.256293
O O1 0.500000 0.584929 0.500000
O O2 0.837048 0.500000 0.537555
O O3 0.000000 0.583948 0.500000
O O4 0.006493 0.586543 0.603062
O O5 0.589295 0.092206 0.108617
O O6 0.042191 0.070853 0.089770
O O7 0.638148 0.000000 0.072470
O O8 0.500000 0.082098 0.000000
O O9 0.449582 0.924732 0.698091
O O10 0.991390 0.916296 0.712570
O O11 0.687489 0.000000 0.663969
O O12 0.247764 0.332689 0.886734
O O13 0.026764 0.404344 0.803410
O O14 0.495368 0.759842 0.917736
O O15 0.500000 0.696232 0.000000
O O16 0.141797 0.500000 0.240286
#
# Coordination Sequence:
#
# PCOD8085169 Si02
#       6
#     8   8   8   8   8   8
#     4   9  15  23  37  56  78 110 155 198 226 248
#     4  11  22  34  49  71  97 122 151 191 235 280
#     4   9  17  28  40  58  87 120 155 193 224 254
#     4  12  22  35  53  71  93 124 159 191 237 291
#     4  10  21  37  55  73  91 113 149 199 249 293
#     4  10  19  30  44  63  90 123 155 185 220 272
#
# _framework density 16.603047
#
# number of rings (size 3 to 8) (size 9 to 14) (size 15 to 20)
#    0.000    1.833    0.000    6.000    0.000    8.000 
#    0.000    0.000    0.000    0.000    0.000    0.000 
#    0.000    0.000    0.000    0.000    0.000   58.333 
#
# Total GULP energy -297680.185652 kJ/mol
# GULP energy per Si atom -12403.341069 kJ/mol
# Density = 1.656526 g / cm^3
# Si number density = 16.603047 Si / 1000 Ang^3
#
#
#
# Elastic Constant Matrix: (Units=GPa)
#
#
# Indices 1 2 3 4 5 6 
#
# 1 85.1754 8.8549 22.4046 0.0000 9.3055 0.0000
# 2 8.8549 40.6912 30.1061 0.0000 -1.6652 0.0000
# 3 22.4046 30.1061 117.1139 0.0000 7.0381 0.0000
# 4 0.0000 0.0000 0.0000 5.1739 0.0000 0.2916
# 5 9.3055 -1.6652 7.0381 0.0000 28.0104 0.0000
# 6 0.0000 0.0000 0.0000 0.2916 0.0000 12.6567
#
#
#
# Elastic Compliance Matrix: (Units=1/GPa)
#
#
# Indices 1 2 3 4 5 6 
#
# 1 0.012808 -0.001614 -0.001801 0.000000 -0.003898 0.000000
# 2 -0.001614 0.030959 -0.007912 0.000000 0.004365 0.000000
# 3 -0.001801 -0.007912 0.011077 0.000000 -0.002655 0.000000
# 4 0.000000 0.000000 0.000000 0.193528 0.000000 -0.004459
# 5 -0.003898 0.004365 -0.002655 0.000000 0.037923 0.000000
# 6 0.000000 0.000000 0.000000 -0.004459 0.000000 0.079112
#
#
# Mechanical properties :
#
#
# Convention : Reuss Voigt Hill
#
# Bulk Modulus (GPa) = 31.06626 40.63463 35.85045
# Shear Modulus (GPa) = 12.53788 21.27587 16.90687
#
# Velocity S-wave (km/s) = 2.75099 3.58361 3.19454
# Velocity P-wave (km/s) = 5.37051 6.45371 5.93687
#
# Compressibility (1/GPa) = 0.03218926
#
# Stress axis : x y z
#
# Youngs Moduli (GPa) = 78.07662 32.30069 90.27936
#
# Poissons Ratio (x) = 0.05214 0.16259
# Poissons Ratio (y) = 0.12603 0.71429
# Poissons Ratio (z) = 0.14062 0.25556
#
# Static dielectric constant tensor:
#      x y z
#    x 3.303730 0.000000 0.052960 
#    y 0.000000 2.615360 0.000000 
#    z 0.052960 0.000000 3.233090 
# 
# 
# High freq. dielectric constant tensor:
#      x y z
#    x 1.664830 0.000000 0.001500 
#    y 0.000000 1.572350 0.000000 
#    z 0.001500 0.000000 1.642390 
# 
# From -- ./inp_files/253370.got.cif
#   From: 2010.06.25/outbox.cif.g09.slc.cpg/sg12_127_cif.got.tgz:253370.got - 2010.06.28 00:19:55.
