data_PCOD8085536
_publ_section_title
;
Structure prediction by ZEFSAII (Michael W. Deem and Ramdas Pophale) SiO2 
 PCOD8085536
Probable space group: C 2/M
;
_chemical_formula_sum "Si O2"
_cell_formula_units_Z 64
_cell_length_a 28.531093
_cell_length_b 8.716761
_cell_length_c 21.168230
_cell_angle_alpha 90.000000
_cell_angle_beta 47.114923
_cell_angle_gamma 90.000000
_cell_volume 3857.413900
_symmetry_space_group_name_H-M "C 2/M"
_symmetry_group_IT_number 12
_symmetry_cell_setting 'monoclinic'
loop_
_space_group_symop_operation_xyz
x,y,z
-x,y,-z
-x,-y,-z
x,-y,z
1/2+x,1/2+y,z
1/2-x,1/2+y,-z
1/2-x,1/2-y,-z
1/2+x,1/2-y,z
loop_
_atom_site_type_symbol
_atom_site_label
_atom_site_fract_x
_atom_site_fract_y
_atom_site_fract_z
Si Si1 0.303388 0.319387 0.995996
Si Si2 0.717542 0.182446 0.847884
Si Si3 0.902446 0.818001 0.098835
Si Si4 0.566930 0.823997 0.158536
Si Si5 0.858913 0.818024 0.686069
Si Si6 0.944179 0.830425 0.500157
Si Si7 0.034274 0.676344 0.328131
Si Si8 0.003876 0.679088 0.087536
O O1 0.292859 0.500000 0.012535
O O2 0.299685 0.240979 0.067189
O O3 0.250000 0.250000 0.000000
O O4 0.372345 0.286635 0.902644
O O5 0.669192 0.253658 0.841130
O O6 0.787659 0.242061 0.763976
O O7 0.712456 0.000000 0.851613
O O8 0.934696 0.746715 0.132104
O O9 0.901721 0.000000 0.104505
O O10 0.941666 0.767457 0.001169
O O11 0.530504 0.789687 0.257161
O O12 0.515611 0.790755 0.150607
O O13 0.591108 0.000000 0.133115
O O14 0.883082 0.760728 0.594382
O O15 0.904513 0.762567 0.700265
O O16 0.861936 0.000000 0.684192
O O17 0.000000 0.839521 0.500000
O O18 0.966633 0.727499 0.420732
O O19 0.928709 0.000000 0.487988
O O20 0.044570 0.500000 0.334124
O O21 0.007351 0.500000 0.067102
#
# Coordination Sequence:
#
# PCOD8085536 Si02
#       8
#     8   8   8   8   8   8   8   8
#     4  12  24  35  48  67  97 133 168 201 237 282
#     4  11  21  35  52  71  96 129 167 201 242 292
#     4  11  21  33  50  74  99 122 158 207 250 290
#     4  10  21  35  50  70  98 129 165 201 238 288
#     4   9  19  33  49  69  95 130 167 200 234 285
#     4   8  15  30  48  67  93 125 161 199 239 283
#     4  10  19  30  47  73 100 127 160 200 242 284
#     4  10  19  34  54  70  92 129 165 201 246 290
#
# _framework density 16.591426999999999
#
# number of rings (size 3 to 8) (size 9 to 14) (size 15 to 20)
#    0.000    1.875    1.250    5.625    0.000    6.750 
#    0.000    0.000    0.000    0.000    0.000    0.875 
#    0.000    0.000    0.000    0.000    0.000    0.000 
#
# Total GULP energy -396775.189497 kJ/mol
# GULP energy per Si atom -12399.224672 kJ/mol
# Density = 1.655366 g / cm^3
# Si number density = 16.591427 Si / 1000 Ang^3
#
#
#
# Elastic Constant Matrix: (Units=GPa)
#
#
# Indices 1 2 3 4 5 6 
#
# 1 99.8179 26.5124 39.5294 -0.0057 9.7213 0.0079
# 2 26.5124 58.8489 20.8872 0.0239 5.2429 -0.0015
# 3 39.5294 20.8872 93.3608 -0.0023 11.9021 -0.0061
# 4 -0.0057 0.0239 -0.0023 21.9962 0.0014 -0.6394
# 5 9.7213 5.2429 11.9021 0.0014 14.1249 0.0026
# 6 0.0079 -0.0015 -0.0061 -0.6394 0.0026 22.1658
#
#
#
# Elastic Compliance Matrix: (Units=1/GPa)
#
#
# Indices 1 2 3 4 5 6 
#
# 1 0.013134 -0.004091 -0.004131 0.000008 -0.004040 -0.000005
# 2 -0.004091 0.019914 -0.002397 -0.000023 -0.002556 0.000002
# 3 -0.004131 -0.002397 0.014027 0.000004 -0.008087 0.000006
# 4 0.000008 -0.000023 0.000004 0.045500 -0.000005 0.001312
# 5 -0.004040 -0.002556 -0.008087 -0.000005 0.081341 -0.000011
# 6 -0.000005 0.000002 0.000006 0.001312 -0.000011 0.045152
#
#
# Mechanical properties :
#
#
# Convention : Reuss Voigt Hill
#
# Bulk Modulus (GPa) = 38.70303 47.32063 43.01183
# Shear Modulus (GPa) = 20.08672 22.66396 21.37534
#
# Velocity S-wave (km/s) = 3.48324 3.69996 3.59323
# Velocity P-wave (km/s) = 6.28928 6.84368 6.57233
#
# Compressibility (1/GPa) = 0.02583777
#
# Stress axis : x y z
#
# Youngs Moduli (GPa) = 76.13730 50.21493 71.28878
#
# Poissons Ratio (x) = 0.20543 0.29447
# Poissons Ratio (y) = 0.31149 0.17090
# Poissons Ratio (z) = 0.31450 0.12038
#
# Static dielectric constant tensor:
#      x y z
#    x 3.151030 -0.000050 -0.082050 
#    y -0.000050 3.201080 0.000050 
#    z -0.082050 0.000050 3.363380 
# 
# 
# High freq. dielectric constant tensor:
#      x y z
#    x 1.620940 0.000000 0.001250 
#    y 0.000000 1.649030 0.000000 
#    z 0.001250 0.000000 1.627050 
# 
# From -- ./inp_files/326806.got.cif
#   From: 2010.06.25/outbox.cif.g09.slc.cpg/sg12_164_cif.got.tgz:326806.got - 2010.06.28 00:19:55.
