data_PCOD8085245
_publ_section_title
;
Structure prediction by ZEFSAII (Michael W. Deem and Ramdas Pophale) SiO2 
 PCOD8085245
Probable space group: C 2/M
;
_chemical_formula_sum "Si O2"
_cell_formula_units_Z 56
_cell_length_a 28.512441
_cell_length_b 9.017225
_cell_length_c 13.647475
_cell_angle_alpha 90.000000
_cell_angle_beta 76.850523
_cell_angle_gamma 90.000000
_cell_volume 3416.806712
_symmetry_space_group_name_H-M "C 2/M"
_symmetry_group_IT_number 12
_symmetry_cell_setting 'monoclinic'
loop_
_space_group_symop_operation_xyz
x,y,z
-x,y,-z
-x,-y,-z
x,-y,z
1/2+x,1/2+y,z
1/2-x,1/2+y,-z
1/2-x,1/2-y,-z
1/2+x,1/2-y,z
loop_
_atom_site_type_symbol
_atom_site_label
_atom_site_fract_x
_atom_site_fract_y
_atom_site_fract_z
Si Si1 0.446486 0.331814 0.925435
Si Si2 0.610606 0.665786 0.244804
Si Si3 0.013090 0.174929 0.384043
Si Si4 0.110093 0.670646 0.879384
Si Si5 0.303758 0.328111 0.080858
Si Si6 0.971042 0.328592 0.224335
Si Si7 0.305230 0.171288 0.873864
O O1 0.457140 0.500000 0.953851
O O2 0.408637 0.330414 0.855934
O O3 0.496061 0.256769 0.869308
O O4 0.425023 0.239077 0.023736
O O5 0.625969 0.500000 0.268327
O O6 0.568301 0.724500 0.336850
O O7 0.657834 0.769896 0.226795
O O8 0.000000 0.220503 0.500000
O O9 0.976103 0.258121 0.329720
O O10 0.007828 0.000000 0.366880
O O11 0.119081 0.500000 0.901272
O O12 0.161598 0.753606 0.854690
O O13 0.084324 0.687376 0.785625
O O14 0.317044 0.500000 0.066314
O O15 0.248753 0.303079 0.140681
O O16 0.313287 0.258455 0.970451
O O17 0.986897 0.500000 0.220607
O O18 0.315359 0.000000 0.890219
#
# Coordination Sequence:
#
# PCOD8085245 Si02
#       7
#     8   8   8   8   8   8   8
#     4  10  19  30  45  66  93 128 165 195 227 274
#     4   9  17  29  47  70  95 123 156 194 234 281
#     4   9  19  36  55  74  95 121 156 196 238 286
#     4  11  21  31  44  65  94 129 163 196 234 276
#     4  10  20  31  44  64  92 128 167 200 232 274
#     4  10  21  33  46  68  96 124 157 194 237 286
#     4  10  19  30  45  66  93 126 162 199 237 277
#
# _framework density 16.389572999999999
#
# number of rings (size 3 to 8) (size 9 to 14) (size 15 to 20)
#    0.000    2.143    1.429    3.429    0.000    8.286 
#    0.000    0.000    0.000    0.000    0.000    1.000 
#    0.000    0.000    0.000    0.000    0.000    0.000 
#
# Total GULP energy -347166.595948 kJ/mol
# GULP energy per Si atom -12398.806998 kJ/mol
# Density = 1.635227 g / cm^3
# Si number density = 16.389573 Si / 1000 Ang^3
#
#
#
# Elastic Constant Matrix: (Units=GPa)
#
#
# Indices 1 2 3 4 5 6 
#
# 1 115.5157 65.5048 51.5415 0.0000 -0.7842 0.0000
# 2 65.5048 112.2959 37.4051 0.0000 -1.7477 0.0000
# 3 51.5415 37.4051 71.3388 0.0000 -9.0754 0.0000
# 4 0.0000 0.0000 0.0000 19.1783 0.0000 -0.8791
# 5 -0.7842 -1.7477 -9.0754 0.0000 12.2844 0.0000
# 6 0.0000 0.0000 0.0000 -0.8791 0.0000 29.5867
#
#
#
# Elastic Compliance Matrix: (Units=1/GPa)
#
#
# Indices 1 2 3 4 5 6 
#
# 1 0.016543 -0.006648 -0.009329 0.000000 -0.006782 0.000000
# 2 -0.006648 0.013557 -0.002333 0.000000 -0.000219 0.000000
# 3 -0.009329 -0.002333 0.024131 0.000000 0.016900 0.000000
# 4 0.000000 0.000000 0.000000 0.052213 0.000000 0.001551
# 5 -0.006782 -0.000219 0.016900 0.000000 0.093425 0.000000
# 6 0.000000 0.000000 0.000000 0.001551 0.000000 0.033845
#
#
# Mechanical properties :
#
#
# Convention : Reuss Voigt Hill
#
# Bulk Modulus (GPa) = 56.78443 67.56147 62.17295
# Shear Modulus (GPa) = 18.10245 21.85648 19.97946
#
# Velocity S-wave (km/s) = 3.32702 3.65576 3.49526
# Velocity P-wave (km/s) = 7.03425 7.68968 7.36925
#
# Compressibility (1/GPa) = 0.01761046
#
# Stress axis : x y z
#
# Youngs Moduli (GPa) = 60.44734 73.76423 41.44029
#
# Poissons Ratio (x) = 0.49039 0.38661
# Poissons Ratio (y) = 0.40186 0.09667
# Poissons Ratio (z) = 0.56393 0.17208
#
# Static dielectric constant tensor:
#      x y z
#    x 3.287530 0.000000 -0.036540 
#    y 0.000000 3.243640 0.000000 
#    z -0.036540 0.000000 2.778670 
# 
# 
# High freq. dielectric constant tensor:
#      x y z
#    x 1.634310 0.000000 -0.003000 
#    y 0.000000 1.646570 0.000000 
#    z -0.003000 0.000000 1.578930 
# 
# From -- ./inp_files/247764.got.cif
#   From: 2010.06.25/outbox.cif.g09.slc.cpg/sg12_124_cif.got.tgz:247764.got - 2010.06.28 00:19:55.
