data_PCOD8085129
_publ_section_title
;
Structure prediction by ZEFSAII (Michael W. Deem and Ramdas Pophale) SiO2 
 PCOD8085129
Probable space group: C 2/M
;
_chemical_formula_sum "Si O2"
_cell_formula_units_Z 64
_cell_length_a 24.871588
_cell_length_b 9.065271
_cell_length_c 20.674835
_cell_angle_alpha 90.000000
_cell_angle_beta 121.821243
_cell_angle_gamma 90.000000
_cell_volume 3960.869891
_symmetry_space_group_name_H-M "C 2/M"
_symmetry_group_IT_number 12
_symmetry_cell_setting 'monoclinic'
loop_
_space_group_symop_operation_xyz
x,y,z
-x,y,-z
-x,-y,-z
x,-y,z
1/2+x,1/2+y,z
1/2-x,1/2+y,-z
1/2-x,1/2-y,-z
1/2+x,1/2-y,z
loop_
_atom_site_type_symbol
_atom_site_label
_atom_site_fract_x
_atom_site_fract_y
_atom_site_fract_z
Si Si1 0.977842 0.833229 0.839922
Si Si2 0.363035 0.334130 0.866657
Si Si3 0.642920 0.328634 0.598812
Si Si4 0.895553 0.326545 0.689305
Si Si5 0.785254 0.671408 0.717477
Si Si6 0.557701 0.166685 0.986798
Si Si7 0.578597 0.326911 0.423257
Si Si8 0.466369 0.166293 0.409934
O O1 0.921913 0.833090 0.855976
O O2 0.956662 0.742710 0.763384
O O3 0.995738 0.000000 0.831350
O O4 0.038897 0.754699 0.909984
O O5 0.344856 0.500000 0.875125
O O6 0.303271 0.259610 0.793678
O O7 0.381178 0.244116 0.942617
O O8 0.632352 0.500000 0.606957
O O9 0.715552 0.280918 0.651452
O O10 0.621294 0.290861 0.512564
O O11 0.602694 0.238596 0.626232
O O12 0.906462 0.500000 0.688653
O O13 0.832075 0.289475 0.688509
O O14 0.886774 0.251815 0.614272
O O15 0.789781 0.500000 0.737699
O O16 0.575796 0.000000 0.979393
O O17 0.500000 0.167712 0.000000
O O18 0.572908 0.500000 0.406593
O O19 0.508116 0.260836 0.386434
O O20 0.500000 0.168948 0.500000
O O21 0.459289 0.000000 0.379067
#
# Coordination Sequence:
#
# PCOD8085129 Si02
#       8
#     8   8   8   8   8   8   8   8
#     4   9  16  26  39  56  80 110 144 180 216 255
#     4   9  16  25  38  57  81 110 144 180 215 253
#     4   9  18  32  48  65  86 114 147 182 222 266
#     4  10  19  30  43  61  88 120 151 182 217 259
#     4   9  18  31  44  60  87 121 151 180 217 261
#     4   9  15  23  37  56  78 107 142 177 214 256
#     4  10  19  31  47  65  86 114 147 183 223 265
#     4   9  17  30  48  68  86 105 136 181 228 267
#
# _framework density 16.158066000000002
#
# number of rings (size 3 to 8) (size 9 to 14) (size 15 to 20)
#    0.000    2.750    0.000    2.250    0.000    8.000 
#    0.000    0.000    0.000    0.000    0.000    0.000 
#    0.000    1.000    0.000    3.750    0.000    6.250 
#
# Total GULP energy -396800.780590 kJ/mol
# GULP energy per Si atom -12400.024393 kJ/mol
# Density = 1.612129 g / cm^3
# Si number density = 16.158066 Si / 1000 Ang^3
#
#
#
# Elastic Constant Matrix: (Units=GPa)
#
#
# Indices 1 2 3 4 5 6 
#
# 1 56.2438 39.5301 42.5606 0.0000 14.7094 0.0000
# 2 39.5301 117.0007 57.6734 0.0000 14.5345 0.0000
# 3 42.5606 57.6734 99.0033 0.0000 20.4113 0.0000
# 4 0.0000 0.0000 0.0000 30.2892 0.0000 -2.3896
# 5 14.7094 14.5345 20.4113 0.0000 7.1322 0.0000
# 6 0.0000 0.0000 0.0000 -2.3896 0.0000 20.3613
#
#
#
# Elastic Compliance Matrix: (Units=1/GPa)
#
#
# Indices 1 2 3 4 5 6 
#
# 1 0.040294 -0.004660 0.001385 0.000000 -0.077569 0.000000
# 2 -0.004660 0.012883 -0.005050 0.000000 -0.002190 0.000000
# 3 0.001385 -0.005050 0.026622 0.000000 -0.068754 0.000000
# 4 0.000000 0.000000 0.000000 0.033324 0.000000 0.003911
# 5 -0.077569 -0.002190 -0.068754 0.000000 0.501417 0.000000
# 6 0.000000 0.000000 0.000000 0.003911 0.000000 0.049572
#
#
# Mechanical properties :
#
#
# Convention : Reuss Voigt Hill
#
# Bulk Modulus (GPa) = 15.83574 61.30846 38.57210
# Shear Modulus (GPa) = 7.12444 20.38877 13.75660
#
# Velocity S-wave (km/s) = 2.10209 3.55608 2.92100
# Velocity P-wave (km/s) = 3.96403 7.40853 5.94137
#
# Compressibility (1/GPa) = 0.06314830
#
# Stress axis : x y z
#
# Youngs Moduli (GPa) = 24.81783 77.62281 37.56340
#
# Poissons Ratio (x) = 0.36176 -0.05203
# Poissons Ratio (y) = 0.11566 0.18968
# Poissons Ratio (z) = -0.03438 0.39197
#
# Static dielectric constant tensor:
#      x y z
#    x 2.706050 0.000000 0.075900 
#    y 0.000000 3.245210 0.000000 
#    z 0.075900 0.000000 3.057560 
# 
# 
# High freq. dielectric constant tensor:
#      x y z
#    x 1.568000 0.000000 0.006860 
#    y 0.000000 1.638980 0.000000 
#    z 0.006860 0.000000 1.614160 
# 
# From -- ./inp_files/323608.got.cif
#   From: 2010.06.25/outbox.cif.g09.slc.cpg/sg12_162_cif.got.tgz:323608.got - 2010.06.28 00:19:55.
