data_PCOD8085932
_publ_section_title
;
Structure prediction by ZEFSAII (Michael W. Deem and Ramdas Pophale) SiO2 
 PCOD8085932
Probable space group: C 2/M
;
_chemical_formula_sum "Si O2"
_cell_formula_units_Z 44
_cell_length_a 5.205819
_cell_length_b 33.656104
_cell_length_c 14.405220
_cell_angle_alpha 90.000000
_cell_angle_beta 76.105403
_cell_angle_gamma 90.000000
_cell_volume 2450.052198
_symmetry_space_group_name_H-M "C 2/M"
_symmetry_group_IT_number 12
_symmetry_cell_setting 'monoclinic'
loop_
_space_group_symop_operation_xyz
x,y,z
-x,y,-z
-x,-y,-z
x,-y,z
1/2+x,1/2+y,z
1/2-x,1/2+y,-z
1/2-x,1/2-y,-z
1/2+x,1/2-y,z
loop_
_atom_site_type_symbol
_atom_site_label
_atom_site_fract_x
_atom_site_fract_y
_atom_site_fract_z
Si Si1 0.457153 0.640955 0.685154
Si Si2 0.389657 0.099373 0.754697
Si Si3 0.918325 0.543278 0.402571
Si Si4 0.577630 0.725004 0.389439
Si Si5 0.708286 0.045037 0.063228
Si Si6 0.500000 0.398146 0.500000
O O1 0.653499 0.630347 0.753045
O O2 0.414289 0.688015 0.681847
O O3 0.609320 0.628950 0.574673
O O4 0.171519 0.621219 0.726815
O O5 0.360898 0.063716 0.681112
O O6 0.351655 0.078754 0.856512
O O7 0.838713 0.500000 0.368319
O O8 0.682382 0.573910 0.422690
O O9 0.000000 0.537186 0.500000
O O10 0.500000 0.711305 0.500000
O O11 0.369881 0.756471 0.366675
O O12 0.682631 0.000000 0.105878
O O13 0.500000 0.051434 0.000000
O O14 0.000000 0.052313 0.000000
#
# Coordination Sequence:
#
# PCOD8085932 Si02
#       6
#     8   8   8   8   8   4
#     4  11  21  34  53  76 112 140 184 219 269 317
#     4  11  22  35  54  81 106 144 182 228 276 324
#     4  10  19  31  45  67 102 144 186 217 250 302
#     4  10  20  34  52  76 106 150 191 222 259 319
#     4  10  21  39  60  81 109 144 186 238 287 329
#     4  10  19  32  44  68 102 150 178 224 252 304
#
# _framework density 17.9588
#
# number of rings (size 3 to 8) (size 9 to 14) (size 15 to 20)
#    0.000    1.636    2.727    3.000    0.000    0.000 
#    0.000    1.818    0.000    0.000    0.000    0.000 
#    0.000   50.909    0.000    0.000    0.000    0.000 
#
# Total GULP energy -272570.463538 kJ/mol
# GULP energy per Si atom -12389.566524 kJ/mol
# Density = 1.791792 g / cm^3
# Si number density = 17.958800 Si / 1000 Ang^3
#
#
#
# Elastic Constant Matrix: (Units=GPa)
#
#
# Indices 1 2 3 4 5 6 
#
# 1 112.1889 36.5468 34.1002 0.0000 7.8696 0.0000
# 2 36.5468 108.7847 49.7260 0.0000 1.4755 0.0000
# 3 34.1002 49.7260 73.1358 0.0000 3.5552 0.0000
# 4 0.0000 0.0000 0.0000 27.0038 0.0000 4.2955
# 5 7.8696 1.4755 3.5552 0.0000 18.4377 0.0000
# 6 0.0000 0.0000 0.0000 4.2955 0.0000 20.2728
#
#
#
# Elastic Compliance Matrix: (Units=1/GPa)
#
#
# Indices 1 2 3 4 5 6 
#
# 1 0.010908 -0.001992 -0.003546 0.000000 -0.003812 0.000000
# 2 -0.001992 0.013710 -0.008460 0.000000 0.001384 0.000000
# 3 -0.003546 -0.008460 0.021171 0.000000 -0.001892 0.000000
# 4 0.000000 0.000000 0.000000 0.038324 0.000000 -0.008120
# 5 -0.003812 0.001384 -0.001892 0.000000 0.056118 0.000000
# 6 0.000000 0.000000 0.000000 -0.008120 0.000000 0.051048
#
#
# Mechanical properties :
#
#
# Convention : Reuss Voigt Hill
#
# Bulk Modulus (GPa) = 56.20491 59.42839 57.81665
# Shear Modulus (GPa) = 22.20200 24.72529 23.46365
#
# Velocity S-wave (km/s) = 3.51988 3.71452 3.61851
# Velocity P-wave (km/s) = 6.91982 7.18055 7.05139
#
# Compressibility (1/GPa) = 0.01779204
#
# Stress axis : x y z
#
# Youngs Moduli (GPa) = 91.67829 72.93914 47.23481
#
# Poissons Ratio (x) = 0.14528 0.16751
# Poissons Ratio (y) = 0.18260 0.39962
# Poissons Ratio (z) = 0.32511 0.61708
#
# Static dielectric constant tensor:
#      x y z
#    x 3.136200 0.000000 0.092880 
#    y 0.000000 3.479050 0.000000 
#    z 0.092880 0.000000 3.093840 
# 
# 
# High freq. dielectric constant tensor:
#      x y z
#    x 1.697500 0.000000 0.003580 
#    y 0.000000 1.698440 0.000000 
#    z 0.003580 0.000000 1.661160 
# 
# From -- ./inp_files/116090.got.cif
#   From: 2010.06.25/outbox.cif.g09.slc.cpg/sg12_59_cif.got.tgz:116090.got - 2010.06.28 00:19:55.
