data_PCOD8085400
_publ_section_title
;
Structure prediction by ZEFSAII (Michael W. Deem and Ramdas Pophale) SiO2 
 PCOD8085400
Probable space group: C 2/M
;
_chemical_formula_sum "Si O2"
_cell_formula_units_Z 64
_cell_length_a 25.557939
_cell_length_b 17.880363
_cell_length_c 14.924629
_cell_angle_alpha 90.000000
_cell_angle_beta 148.006900
_cell_angle_gamma 90.000000
_cell_volume 3613.530312
_symmetry_space_group_name_H-M "C 2/M"
_symmetry_group_IT_number 12
_symmetry_cell_setting 'monoclinic'
loop_
_space_group_symop_operation_xyz
x,y,z
-x,y,-z
-x,-y,-z
x,-y,z
1/2+x,1/2+y,z
1/2-x,1/2+y,-z
1/2-x,1/2-y,-z
1/2+x,1/2-y,z
loop_
_atom_site_type_symbol
_atom_site_label
_atom_site_fract_x
_atom_site_fract_y
_atom_site_fract_z
Si Si1 0.618697 0.416583 0.843423
Si Si2 0.251457 0.415775 0.130540
Si Si3 0.209803 0.731305 0.166194
Si Si4 0.193538 0.268509 0.507702
Si Si5 0.201134 0.628949 0.782466
Si Si6 0.027364 0.773446 0.791167
Si Si7 0.569874 0.128409 0.749715
Si Si8 0.641325 0.080980 0.507778
O O1 0.571771 0.500000 0.782404
O O2 0.650069 0.400173 0.785776
O O3 0.543727 0.355811 0.774092
O O4 0.717526 0.415593 0.044987
O O5 0.256061 0.500000 0.178026
O O6 0.239781 0.354778 0.191988
O O7 0.156524 0.409891 0.930263
O O8 0.236034 0.745304 0.307693
O O9 0.273880 0.783095 0.192649
O O10 0.094665 0.752181 0.976471
O O11 0.250000 0.250000 0.500000
O O12 0.088208 0.227129 0.352812
O O13 0.172096 0.357298 0.479897
O O14 0.096801 0.624711 0.683228
O O15 0.200959 0.591171 0.685718
O O16 0.054397 0.715088 0.752636
O O17 0.472793 0.082738 0.631211
O O18 0.665953 0.000000 0.501685
#
# Coordination Sequence:
#
# PCOD8085400 Si02
#       8
#     8   8   8   8   8   8   8   8
#     4   9  16  27  45  71 103 135 164 193 227 275
#     4   9  16  27  45  71 103 135 164 193 227 275
#     4   9  18  33  52  72  97 130 164 199 241 289
#     4  10  22  39  55  71  91 121 166 211 251 295
#     4   9  16  26  44  71 103 136 162 186 228 291
#     4   9  18  33  52  72  97 130 164 199 241 289
#     4   9  16  26  44  71 103 136 162 186 228 291
#     4  10  19  30  46  71 100 124 154 202 251 289
#
# _framework density 17.711213000000001
#
# number of rings (size 3 to 8) (size 9 to 14) (size 15 to 20)
#    0.000    2.750    0.000    1.875    0.000    5.500 
#    0.000    3.750    0.000    1.500    0.000   10.500 
#    0.000    0.000    0.000    0.000    0.000    0.000 
#
# Total GULP energy -396573.654998 kJ/mol
# GULP energy per Si atom -12392.926719 kJ/mol
# Density = 1.767090 g / cm^3
# Si number density = 17.711213 Si / 1000 Ang^3
#
#
#
# Elastic Constant Matrix: (Units=GPa)
#
#
# Indices 1 2 3 4 5 6 
#
# 1 77.4236 32.3598 14.9914 0.0000 8.2325 0.0000
# 2 32.3598 126.5862 13.1059 0.0000 8.6714 0.0000
# 3 14.9914 13.1059 50.3880 0.0000 6.6606 0.0000
# 4 0.0000 0.0000 0.0000 14.5447 0.0000 -0.5470
# 5 8.2325 8.6714 6.6606 0.0000 17.7648 0.0000
# 6 0.0000 0.0000 0.0000 -0.5470 0.0000 12.3116
#
#
#
# Elastic Compliance Matrix: (Units=1/GPa)
#
#
# Indices 1 2 3 4 5 6 
#
# 1 0.015366 -0.003306 -0.003139 0.000000 -0.004330 0.000000
# 2 -0.003306 0.009022 -0.001035 0.000000 -0.002484 0.000000
# 3 -0.003139 -0.001035 0.021874 0.000000 -0.006241 0.000000
# 4 0.000000 0.000000 0.000000 0.068868 0.000000 0.003060
# 5 -0.004330 -0.002484 -0.006241 0.000000 0.061850 0.000000
# 6 0.000000 0.000000 0.000000 0.003060 0.000000 0.081360
#
#
# Mechanical properties :
#
#
# Convention : Reuss Voigt Hill
#
# Bulk Modulus (GPa) = 31.94720 41.70135 36.82427
# Shear Modulus (GPa) = 17.62201 21.85361 19.73781
#
# Velocity S-wave (km/s) = 3.15773 3.51648 3.34192
# Velocity P-wave (km/s) = 5.60107 6.33118 5.97728
#
# Compressibility (1/GPa) = 0.03130165
#
# Stress axis : x y z
#
# Youngs Moduli (GPa) = 65.07789 110.83687 45.71600
#
# Poissons Ratio (x) = 0.36648 0.14352
# Poissons Ratio (y) = 0.21518 0.04730
# Poissons Ratio (z) = 0.20430 0.11467
#
# Static dielectric constant tensor:
#      x y z
#    x 2.887530 0.000000 0.024880 
#    y 0.000000 3.396390 0.000000 
#    z 0.024880 0.000000 3.331680 
# 
# 
# High freq. dielectric constant tensor:
#      x y z
#    x 1.641330 0.000000 -0.000300 
#    y 0.000000 1.695250 0.000000 
#    z -0.000300 0.000000 1.679310 
# 
# From -- ./inp_files/241523.got.cif
#   From: 2010.06.25/outbox.cif.g09.slc.cpg/sg12_121_cif.got.tgz:241523.got - 2010.06.28 00:19:55.
