data_PCOD8085200
_publ_section_title
;
Structure prediction by ZEFSAII (Michael W. Deem and Ramdas Pophale) SiO2 
 PCOD8085200
Probable space group: C 2/M
;
_chemical_formula_sum "Si O2"
_cell_formula_units_Z 56
_cell_length_a 25.525412
_cell_length_b 9.523350
_cell_length_c 29.178090
_cell_angle_alpha 90.000000
_cell_angle_beta 29.442632
_cell_angle_gamma 90.000000
_cell_volume 3486.492299
_symmetry_space_group_name_H-M "C 2/M"
_symmetry_group_IT_number 12
_symmetry_cell_setting 'monoclinic'
loop_
_space_group_symop_operation_xyz
x,y,z
-x,y,-z
-x,-y,-z
x,-y,z
1/2+x,1/2+y,z
1/2-x,1/2+y,-z
1/2-x,1/2-y,-z
1/2+x,1/2-y,z
loop_
_atom_site_type_symbol
_atom_site_label
_atom_site_fract_x
_atom_site_fract_y
_atom_site_fract_z
Si Si1 0.602910 0.662736 0.585156
Si Si2 0.052950 0.333848 0.888899
Si Si3 0.066307 0.836400 0.788600
Si Si4 0.128329 0.166993 0.216613
Si Si5 0.720744 0.661441 0.589526
Si Si6 0.847544 0.165083 0.905504
Si Si7 0.658765 0.166176 0.900759
O O1 0.610989 0.500000 0.565886
O O2 0.481143 0.718097 0.676259
O O3 0.644530 0.690900 0.604596
O O4 0.671655 0.747784 0.495698
O O5 0.056290 0.500000 0.877381
O O6 0.088990 0.253718 0.816255
O O7 0.134718 0.288958 0.866918
O O8 0.934802 0.283237 0.993782
O O9 0.157166 0.794206 0.683208
O O10 0.951457 0.798353 0.855719
O O11 0.072742 0.000000 0.795969
O O12 0.133657 0.219302 0.160368
O O13 0.228409 0.230040 0.168697
O O14 0.129710 0.000000 0.215623
O O15 0.755111 0.500000 0.565054
O O16 0.821463 0.000000 0.926535
O O17 0.750000 0.250000 0.000000
O O18 0.661717 0.000000 0.901144
#
# Coordination Sequence:
#
# PCOD8085200 Si02
#       7
#     8   8   8   8   8   8   8
#     4   9  16  28  47  68  87 114 153 188 221 269
#     4   9  17  30  48  70  91 117 158 195 221 256
#     4  10  19  31  46  66  95 126 150 178 225 279
#     4   9  15  27  47  67  90 120 149 182 229 275
#     4   9  17  30  45  64  92 121 147 181 226 272
#     4  10  19  30  44  66  95 123 149 178 219 273
#     4   8  15  28  47  69  92 118 151 193 231 261
#
# _framework density 16.061987999999999
#
# number of rings (size 3 to 8) (size 9 to 14) (size 15 to 20)
#    0.000    2.857    1.429    1.714    0.000    2.286 
#    0.000    2.143    0.000    3.429    0.000    6.000 
#    0.000    0.000    0.000    0.000    0.000    0.000 
#
# Total GULP energy -347131.827983 kJ/mol
# GULP energy per Si atom -12397.565285 kJ/mol
# Density = 1.602543 g / cm^3
# Si number density = 16.061988 Si / 1000 Ang^3
#
#
#
# Elastic Constant Matrix: (Units=GPa)
#
#
# Indices 1 2 3 4 5 6 
#
# 1 85.6384 31.2210 62.1138 0.0046 4.5351 -0.0147
# 2 31.2210 38.4908 50.3576 0.0109 5.1920 -0.0203
# 3 62.1138 50.3576 142.5099 0.0018 1.4405 -0.0075
# 4 0.0046 0.0109 0.0018 30.2852 -0.0023 3.7894
# 5 4.5351 5.1920 1.4405 -0.0023 26.0150 0.0108
# 6 -0.0147 -0.0203 -0.0075 3.7894 0.0108 19.5631
#
#
#
# Elastic Compliance Matrix: (Units=1/GPa)
#
#
# Indices 1 2 3 4 5 6 
#
# 1 0.018423 -0.007951 -0.005206 0.000000 -0.001336 0.000004
# 2 -0.007951 0.053803 -0.015460 -0.000025 -0.008496 0.000053
# 3 -0.005206 -0.015460 0.014717 0.000008 0.003178 -0.000018
# 4 0.000000 -0.000025 0.000008 0.033840 0.000010 -0.006555
# 5 -0.001336 -0.008496 0.003178 0.000010 0.040192 -0.000033
# 6 0.000004 0.000053 -0.000018 -0.006555 -0.000033 0.052386
#
#
# Mechanical properties :
#
#
# Convention : Reuss Voigt Hill
#
# Bulk Modulus (GPa) = 33.66275 61.55821 47.61048
# Shear Modulus (GPa) = 17.82537 23.36909 20.59723
#
# Velocity S-wave (km/s) = 3.33496 3.81849 3.58489
# Velocity P-wave (km/s) = 5.98605 7.60591 6.84407
#
# Compressibility (1/GPa) = 0.02970643
#
# Stress axis : x y z
#
# Youngs Moduli (GPa) = 54.28026 18.58647 67.94731
#
# Poissons Ratio (x) = 0.14779 0.35377
# Poissons Ratio (y) = 0.43160 1.05048
# Poissons Ratio (z) = 0.28261 0.28735
#
# Static dielectric constant tensor:
#      x y z
#    x 3.171930 -0.000010 -0.174480 
#    y -0.000010 2.752500 0.000000 
#    z -0.174480 0.000000 3.166450 
# 
# 
# High freq. dielectric constant tensor:
#      x y z
#    x 1.606200 0.000000 -0.003910 
#    y 0.000000 1.587380 0.000000 
#    z -0.003910 0.000000 1.621010 
# 
# From -- ./inp_files/181536.got.cif
#   From: 2010.06.25/outbox.cif.g09.slc.cpg/sg12_91_cif.got.tgz:181536.got - 2010.06.28 00:19:55.
