data_PCOD8085097
_publ_section_title
;
Structure prediction by ZEFSAII (Michael W. Deem and Ramdas Pophale) SiO2 
 PCOD8085097
Probable space group: C 2/M
;
_chemical_formula_sum "Si O2"
_cell_formula_units_Z 64
_cell_length_a 28.920234
_cell_length_b 9.021508
_cell_length_c 12.917444
_cell_angle_alpha 90.000000
_cell_angle_beta 105.303581
_cell_angle_gamma 90.000000
_cell_volume 3250.709704
_symmetry_space_group_name_H-M "C 2/M"
_symmetry_group_IT_number 12
_symmetry_cell_setting 'monoclinic'
loop_
_space_group_symop_operation_xyz
x,y,z
-x,y,-z
-x,-y,-z
x,-y,z
1/2+x,1/2+y,z
1/2-x,1/2+y,-z
1/2-x,1/2-y,-z
1/2+x,1/2-y,z
loop_
_atom_site_type_symbol
_atom_site_label
_atom_site_fract_x
_atom_site_fract_y
_atom_site_fract_z
Si Si1 0.203337 0.172522 0.167809
Si Si2 0.209470 0.830850 0.852280
Si Si3 0.144804 0.661553 0.679383
Si Si4 0.792363 0.177005 0.592468
Si Si5 0.514567 0.324094 0.391740
Si Si6 0.886719 0.325148 0.562410
Si Si7 0.938650 0.335373 0.207825
Si Si8 0.871980 0.170723 0.029973
O O1 0.240489 0.244789 0.108584
O O2 0.213305 0.222970 0.290873
O O3 0.211113 0.000000 0.158777
O O4 0.148705 0.210953 0.096929
O O5 0.185467 0.780294 0.729441
O O6 0.173056 0.795143 0.922387
O O7 0.223028 0.000000 0.851510
O O8 0.169534 0.500000 0.677906
O O9 0.117797 0.710359 0.560947
O O10 0.106870 0.650431 0.747176
O O11 0.750000 0.250000 0.500000
O O12 0.843737 0.242203 0.593593
O O13 0.791456 0.000000 0.576497
O O14 0.500000 0.273088 0.500000
O O15 0.520679 0.500000 0.391456
O O16 0.562547 0.246014 0.378236
O O17 0.475478 0.274484 0.284746
O O18 0.886128 0.500000 0.588104
O O19 0.960668 0.500000 0.201216
O O20 0.918939 0.266944 0.087594
O O21 0.887705 0.000000 0.048329
#
# Coordination Sequence:
#
# PCOD8085097 Si02
#       8
#     8   8   8   8   8   8   8   8
#     4  10  21  37  55  73 104 146 186 229 282 339
#     4  10  19  29  49  79 108 137 179 230 276 326
#     4   9  18  31  48  72 107 146 179 213 267 333
#     4  11  24  41  59  82 111 150 196 239 284 333
#     4  11  22  35  56  86 119 152 186 228 277 334
#     4  11  22  37  57  81 112 151 191 234 283 334
#     4  10  19  33  53  80 113 147 179 219 272 333
#     4   9  19  35  53  77 108 144 183 227 280 338
#
# _framework density 19.688009000000001
#
# number of rings (size 3 to 8) (size 9 to 14) (size 15 to 20)
#    0.000    1.875    1.250    3.000    0.000    7.000 
#    0.000    0.000    0.000    0.750    0.000    5.250 
#    0.000    0.000    0.000    0.000    0.000    0.000 
#
# Total GULP energy -396603.968260 kJ/mol
# GULP energy per Si atom -12393.874008 kJ/mol
# Density = 1.964320 g / cm^3
# Si number density = 19.688009 Si / 1000 Ang^3
#
#
#
# Elastic Constant Matrix: (Units=GPa)
#
#
# Indices 1 2 3 4 5 6 
#
# 1 63.2801 37.6097 16.8306 0.0000 17.9175 0.0000
# 2 37.6097 74.9321 42.0457 0.0000 5.8480 0.0000
# 3 16.8306 42.0457 107.6448 0.0000 22.3145 0.0000
# 4 0.0000 0.0000 0.0000 28.2368 0.0000 10.6964
# 5 17.9175 5.8480 22.3145 0.0000 24.4313 0.0000
# 6 0.0000 0.0000 0.0000 10.6964 0.0000 31.6943
#
#
#
# Elastic Compliance Matrix: (Units=1/GPa)
#
#
# Indices 1 2 3 4 5 6 
#
# 1 0.032001 -0.018247 0.007504 0.000000 -0.025955 0.000000
# 2 -0.018247 0.027618 -0.011519 0.000000 0.017292 0.000000
# 3 0.007504 -0.011519 0.016265 0.000000 -0.017601 0.000000
# 4 0.000000 0.000000 0.000000 0.040606 0.000000 -0.013704
# 5 -0.025955 0.017292 -0.017601 0.000000 0.071903 0.000000
# 6 0.000000 0.000000 0.000000 -0.013704 0.000000 0.036176
#
#
# Mechanical properties :
#
#
# Convention : Reuss Voigt Hill
#
# Bulk Modulus (GPa) = 31.88814 48.75877 40.32345
# Shear Modulus (GPa) = 17.88618 26.83055 22.35837
#
# Velocity S-wave (km/s) = 3.01737 3.69560 3.37357
# Velocity P-wave (km/s) = 5.32647 6.55968 5.97498
#
# Compressibility (1/GPa) = 0.03135962
#
# Stress axis : x y z
#
# Youngs Moduli (GPa) = 31.24933 36.20856 61.48327
#
# Poissons Ratio (x) = 0.66069 -0.46138
# Poissons Ratio (y) = 0.57020 0.70823
# Poissons Ratio (z) = -0.23450 0.41709
#
# Static dielectric constant tensor:
#      x y z
#    x 3.365530 0.000000 0.142290 
#    y 0.000000 3.760400 0.000000 
#    z 0.142290 0.000000 4.086960 
# 
# 
# High freq. dielectric constant tensor:
#      x y z
#    x 1.735840 0.000000 0.023260 
#    y 0.000000 1.772980 0.000000 
#    z 0.023260 0.000000 1.773470 
# 
# From -- ./inp_files/249139.got.cif
#   From: 2010.06.25/outbox.cif.g09.slc.cpg/sg12_125_cif.got.tgz:249139.got - 2010.06.28 00:19:55.
