data_PCOD8085285
_publ_section_title
;
Structure prediction by ZEFSAII (Michael W. Deem and Ramdas Pophale) SiO2 
 PCOD8085285
Probable space group: C 2/M
;
_chemical_formula_sum "Si O2"
_cell_formula_units_Z 64
_cell_length_a 27.230121
_cell_length_b 10.944341
_cell_length_c 11.310591
_cell_angle_alpha 90.000000
_cell_angle_beta 97.878226
_cell_angle_gamma 90.000000
_cell_volume 3338.919777
_symmetry_space_group_name_H-M "C 2/M"
_symmetry_group_IT_number 12
_symmetry_cell_setting 'monoclinic'
loop_
_space_group_symop_operation_xyz
x,y,z
-x,y,-z
-x,-y,-z
x,-y,z
1/2+x,1/2+y,z
1/2-x,1/2+y,-z
1/2-x,1/2-y,-z
1/2+x,1/2-y,z
loop_
_atom_site_type_symbol
_atom_site_label
_atom_site_fract_x
_atom_site_fract_y
_atom_site_fract_z
Si Si1 0.647379 0.138250 0.529028
Si Si2 0.705410 0.703252 0.858528
Si Si3 0.883826 0.860379 0.320177
Si Si4 0.249315 0.361885 0.677286
Si Si5 0.809942 0.629919 0.946760
Si Si6 0.545282 0.644596 0.864466
Si Si7 0.152196 0.276069 0.280923
Si Si8 0.935680 0.144396 0.870633
O O1 0.618772 0.252146 0.582948
O O2 0.706476 0.155851 0.565384
O O3 0.634722 0.142306 0.385826
O O4 0.632246 0.000000 0.569586
O O5 0.668125 0.626399 0.765850
O O6 0.729113 0.816341 0.796037
O O7 0.750140 0.619096 0.916758
O O8 0.675477 0.759800 0.960752
O O9 0.925303 0.812391 0.242128
O O10 0.894797 0.000000 0.373341
O O11 0.264774 0.500000 0.699869
O O12 0.299740 0.295867 0.655781
O O13 0.828522 0.500000 0.004288
O O14 0.834004 0.642124 0.826188
O O15 0.547363 0.500000 0.871104
O O16 0.488458 0.689776 0.835570
O O17 0.569313 0.694310 0.995563
O O18 0.107571 0.188618 0.228957
O O19 0.933791 0.000000 0.871176
#
# Coordination Sequence:
#
# PCOD8085285 Si02
#       8
#     8   8   8   8   8   8   8   8
#     4  10  22  38  52  72 107 146 179 215 260 307
#     4   9  18  30  47  74 101 131 167 212 264 313
#     4  10  19  34  57  79  99 131 177 221 258 305
#     4   9  18  32  49  71 102 139 178 218 259 306
#     4  10  19  30  45  69 104 139 170 208 256 313
#     4   8  16  32  54  81 109 134 162 209 272 320
#     4  11  20  31  50  75 101 139 183 218 252 301
#     4   9  17  31  53  81 111 135 162 210 268 319
#
# _framework density 19.167876
#
# number of rings (size 3 to 8) (size 9 to 14) (size 15 to 20)
#    0.000    2.500    0.000    3.375    0.000    1.500 
#    0.000    7.500    0.000    4.500    0.000    5.250 
#    0.000    0.000    0.000    0.000    0.000    0.000 
#
# Total GULP energy -396475.161616 kJ/mol
# GULP energy per Si atom -12389.848801 kJ/mol
# Density = 1.912425 g / cm^3
# Si number density = 19.167876 Si / 1000 Ang^3
#
#
#
# Elastic Constant Matrix: (Units=GPa)
#
#
# Indices 1 2 3 4 5 6 
#
# 1 73.1807 19.8224 30.3221 0.0000 -10.7178 0.0000
# 2 19.8224 87.1945 33.2643 0.0000 -13.6449 0.0000
# 3 30.3221 33.2643 91.8406 0.0000 -10.1603 0.0000
# 4 0.0000 0.0000 0.0000 12.5975 0.0000 7.4133
# 5 -10.7178 -13.6449 -10.1603 0.0000 19.6753 0.0000
# 6 0.0000 0.0000 0.0000 7.4133 0.0000 10.4407
#
#
#
# Elastic Compliance Matrix: (Units=1/GPa)
#
#
# Indices 1 2 3 4 5 6 
#
# 1 0.016693 -0.001168 -0.004425 0.000000 0.005998 0.000000
# 2 -0.001168 0.014410 -0.004028 0.000000 0.007277 0.000000
# 3 -0.004425 -0.004028 0.014034 0.000000 0.002043 0.000000
# 4 0.000000 0.000000 0.000000 0.136354 0.000000 -0.096817
# 5 0.005998 0.007277 0.002043 0.000000 0.060194 0.000000
# 6 0.000000 0.000000 0.000000 -0.096817 0.000000 0.164523
#
#
# Mechanical properties :
#
#
# Convention : Reuss Voigt Hill
#
# Bulk Modulus (GPa) = 38.61830 46.55927 42.58878
# Shear Modulus (GPa) = 11.51854 19.79651 15.65753
#
# Velocity S-wave (km/s) = 2.45405 3.21720 2.86118
# Velocity P-wave (km/s) = 5.31234 6.17604 5.76040
#
# Compressibility (1/GPa) = 0.02589446
#
# Stress axis : x y z
#
# Youngs Moduli (GPa) = 59.90505 69.39764 71.25341
#
# Poissons Ratio (x) = 0.08108 0.31527
# Poissons Ratio (y) = 0.06999 0.28704
# Poissons Ratio (z) = 0.26506 0.27956
#
# Static dielectric constant tensor:
#      x y z
#    x 3.550160 0.000000 -0.113730 
#    y 0.000000 3.279700 0.000000 
#    z -0.113730 0.000000 3.471760 
# 
# 
# High freq. dielectric constant tensor:
#      x y z
#    x 1.726250 0.000000 -0.008510 
#    y 0.000000 1.729660 0.000000 
#    z -0.008510 0.000000 1.738910 
# 
# From -- ./inp_files/182121.got.cif
#   From: 2010.06.25/outbox.cif.g09.slc.cpg/sg12_92_cif.got.tgz:182121.got - 2010.06.28 00:19:55.
