data_PCOD8085685
_publ_section_title
;
Structure prediction by ZEFSAII (Michael W. Deem and Ramdas Pophale) SiO2 
 PCOD8085685
Probable space group: C 2/M
;
_chemical_formula_sum "Si O2"
_cell_formula_units_Z 56
_cell_length_a 19.143895
_cell_length_b 8.847690
_cell_length_c 28.203393
_cell_angle_alpha 90.000000
_cell_angle_beta 140.555742
_cell_angle_gamma 90.000000
_cell_volume 3035.002291
_symmetry_space_group_name_H-M "C 2/M"
_symmetry_group_IT_number 12
_symmetry_cell_setting 'monoclinic'
loop_
_space_group_symop_operation_xyz
x,y,z
-x,y,-z
-x,-y,-z
x,-y,z
1/2+x,1/2+y,z
1/2-x,1/2+y,-z
1/2-x,1/2-y,-z
1/2+x,1/2-y,z
loop_
_atom_site_type_symbol
_atom_site_label
_atom_site_fract_x
_atom_site_fract_y
_atom_site_fract_z
Si Si1 0.968953 0.176909 0.760034
Si Si2 0.608043 0.176371 0.083076
Si Si3 0.871670 0.326047 0.796714
Si Si4 0.165351 0.677926 0.809818
Si Si5 0.634185 0.327156 0.695364
Si Si6 0.896167 0.172201 0.554775
Si Si7 0.317162 0.825793 0.606199
O O1 0.943415 0.219487 0.800857
O O2 0.865635 0.226853 0.673863
O O3 0.081673 0.256910 0.804574
O O4 0.985663 0.000000 0.763789
O O5 0.595356 0.210557 0.132105
O O6 0.712728 0.261042 0.116014
O O7 0.625235 0.000000 0.082573
O O8 0.500000 0.237760 0.000000
O O9 0.895330 0.500000 0.796102
O O10 0.741976 0.286588 0.721240
O O11 0.165886 0.500000 0.814722
O O12 0.123625 0.723629 0.735986
O O13 0.646671 0.500000 0.720102
O O14 0.523692 0.305898 0.605935
O O15 0.814517 0.205166 0.467819
O O16 0.872827 0.284921 0.585558
O O17 0.876621 0.000000 0.562300
O O18 0.342446 0.000000 0.631043
#
# Coordination Sequence:
#
# PCOD8085685 Si02
#       7
#     8   8   8   8   8   8   8
#     4  12  23  36  52  74 108 148 187 225 271 320
#     4   9  19  39  65  89 113 141 171 208 260 322
#     4   9  19  35  56  81 109 139 175 218 265 318
#     4  11  21  33  55  84 110 140 180 223 264 312
#     4   9  17  33  55  78 105 140 180 224 271 325
#     4   9  17  30  50  76 105 138 179 225 276 327
#     4  10  19  30  48  76 106 139 180 229 277 319
#
# _framework density 18.451384999999998
#
# number of rings (size 3 to 8) (size 9 to 14) (size 15 to 20)
#    0.000    2.143    1.429    3.857    0.000    3.143 
#    0.000    1.429    0.000    4.286    0.000    0.000 
#    0.000    0.000    0.000    0.000    0.000    0.000 
#
# Total GULP energy -347163.828536 kJ/mol
# GULP energy per Si atom -12398.708162 kJ/mol
# Density = 1.840939 g / cm^3
# Si number density = 18.451385 Si / 1000 Ang^3
#
#
#
# Elastic Constant Matrix: (Units=GPa)
#
#
# Indices 1 2 3 4 5 6 
#
# 1 105.9621 51.1061 54.3914 0.0000 16.6378 0.0000
# 2 51.1061 101.6631 45.6008 0.0000 11.4094 0.0000
# 3 54.3914 45.6008 132.4960 0.0000 25.9191 0.0000
# 4 0.0000 0.0000 0.0000 24.6505 0.0000 1.0102
# 5 16.6378 11.4094 25.9191 0.0000 23.9868 0.0000
# 6 0.0000 0.0000 0.0000 1.0102 0.0000 28.9933
#
#
#
# Elastic Compliance Matrix: (Units=1/GPa)
#
#
# Indices 1 2 3 4 5 6 
#
# 1 0.014271 -0.005265 -0.003297 0.000000 -0.003832 0.000000
# 2 -0.005265 0.013619 -0.002502 0.000000 -0.000123 0.000000
# 3 -0.003297 -0.002502 0.011516 0.000000 -0.008967 0.000000
# 4 0.000000 0.000000 0.000000 0.040625 0.000000 -0.001416
# 5 -0.003832 -0.000123 -0.008967 0.000000 0.054095 0.000000
# 6 0.000000 0.000000 0.000000 -0.001416 0.000000 0.034540
#
#
# Mechanical properties :
#
#
# Convention : Reuss Voigt Hill
#
# Bulk Modulus (GPa) = 57.87557 71.36864 64.62210
# Shear Modulus (GPa) = 25.43851 28.12766 26.78309
#
# Velocity S-wave (km/s) = 3.71708 3.90862 3.81405
# Velocity P-wave (km/s) = 7.06094 7.68980 7.38207
#
# Compressibility (1/GPa) = 0.01727845
#
# Stress axis : x y z
#
# Youngs Moduli (GPa) = 70.07435 73.42602 86.83649
#
# Poissons Ratio (x) = 0.38659 0.28626
# Poissons Ratio (y) = 0.36895 0.21726
# Poissons Ratio (z) = 0.23101 0.18370
#
# Static dielectric constant tensor:
#      x y z
#    x 3.168950 0.000000 0.261240 
#    y 0.000000 3.362850 0.000000 
#    z 0.261240 0.000000 3.597890 
# 
# 
# High freq. dielectric constant tensor:
#      x y z
#    x 1.691110 0.000000 0.022050 
#    y 0.000000 1.715020 0.000000 
#    z 0.022050 0.000000 1.715060 
# 
# From -- ./inp_files/342334.got.cif
#   From: 2010.06.25/outbox.cif.g09.slc.cpg/sg12_172_cif.got.tgz:342334.got - 2010.06.28 00:19:55.
