data_PCOD8085827
_publ_section_title
;
Structure prediction by ZEFSAII (Michael W. Deem and Ramdas Pophale) SiO2 
 PCOD8085827
Probable space group: C 2/M
;
_chemical_formula_sum "Si O2"
_cell_formula_units_Z 56
_cell_length_a 20.934071
_cell_length_b 9.548921
_cell_length_c 16.327142
_cell_angle_alpha 90.000000
_cell_angle_beta 58.622736
_cell_angle_gamma 90.000000
_cell_volume 2786.459164
_symmetry_space_group_name_H-M "C 2/M"
_symmetry_group_IT_number 12
_symmetry_cell_setting 'monoclinic'
loop_
_space_group_symop_operation_xyz
x,y,z
-x,y,-z
-x,-y,-z
x,-y,z
1/2+x,1/2+y,z
1/2-x,1/2+y,-z
1/2-x,1/2-y,-z
1/2+x,1/2-y,z
loop_
_atom_site_type_symbol
_atom_site_label
_atom_site_fract_x
_atom_site_fract_y
_atom_site_fract_z
Si Si1 0.182060 0.653151 0.372823
Si Si2 0.205155 0.661569 0.786253
Si Si3 0.778033 0.163044 0.905074
Si Si4 0.032274 0.340269 0.392723
Si Si5 0.430690 0.837603 0.227528
Si Si6 0.046267 0.835964 0.229060
Si Si7 0.323253 0.158451 0.444479
O O1 0.220490 0.500000 0.344176
O O2 0.247240 0.765459 0.317013
O O3 0.122009 0.665103 0.340729
O O4 0.139813 0.669713 0.489193
O O5 0.226345 0.500000 0.765485
O O6 0.229112 0.716508 0.859857
O O7 0.117135 0.686410 0.824440
O O8 0.865592 0.191852 0.834082
O O9 0.762808 0.000000 0.931780
O O10 0.750000 0.250000 0.000000
O O11 0.005121 0.500000 0.391662
O O12 0.011121 0.236762 0.333234
O O13 0.000000 0.284599 0.500000
O O14 0.504695 0.739282 0.179463
O O15 0.380607 0.787955 0.338051
O O16 0.455057 0.000000 0.218445
O O17 0.027554 0.000000 0.242370
O O18 0.250000 0.250000 0.500000
O O19 0.300169 0.000000 0.437705
#
# Coordination Sequence:
#
# PCOD8085827 Si02
#       7
#     8   8   8   8   8   8   8
#     4  10  19  30  50  80 112 151 200 245 285 336
#     4  10  20  38  61  84 114 150 192 242 288 345
#     4  10  23  43  67  93 117 147 193 247 307 367
#     4  10  20  35  55  80 117 162 204 243 288 351
#     4  10  21  37  58  83 119 165 201 239 294 350
#     4  11  23  39  60  89 123 154 194 252 303 352
#     4  10  19  31  49  77 115 160 206 244 283 337
#
# _framework density 20.097190999999999
#
# number of rings (size 3 to 8) (size 9 to 14) (size 15 to 20)
#    0.000    1.857    2.857    1.286    0.000    5.429 
#    0.000    2.143    0.000    4.286    0.000    0.000 
#    0.000    0.000    0.000    0.000    0.000    0.000 
#
# Total GULP energy -347088.542287 kJ/mol
# GULP energy per Si atom -12396.019367 kJ/mol
# Density = 2.005145 g / cm^3
# Si number density = 20.097191 Si / 1000 Ang^3
#
#
#
# Elastic Constant Matrix: (Units=GPa)
#
#
# Indices 1 2 3 4 5 6 
#
# 1 133.7955 54.9096 34.3956 0.0000 15.4872 0.0000
# 2 54.9096 81.1697 40.4086 0.0000 2.5258 0.0000
# 3 34.3956 40.4086 72.1752 0.0000 12.5822 0.0000
# 4 0.0000 0.0000 0.0000 29.7331 0.0000 -1.6603
# 5 15.4872 2.5258 12.5822 0.0000 19.3007 0.0000
# 6 0.0000 0.0000 0.0000 -1.6603 0.0000 35.3690
#
#
#
# Elastic Compliance Matrix: (Units=1/GPa)
#
#
# Indices 1 2 3 4 5 6 
#
# 1 0.011527 -0.007670 0.000269 0.000000 -0.008421 0.000000
# 2 -0.007670 0.022539 -0.010743 0.000000 0.010209 0.000000
# 3 0.000269 -0.010743 0.022039 0.000000 -0.013177 0.000000
# 4 0.000000 0.000000 0.000000 0.033721 0.000000 0.001583
# 5 -0.008421 0.010209 -0.013177 0.000000 0.065823 0.000000
# 6 0.000000 0.000000 0.000000 0.001583 0.000000 0.028348
#
#
# Mechanical properties :
#
#
# Convention : Reuss Voigt Hill
#
# Bulk Modulus (GPa) = 50.46282 60.72976 55.59629
# Shear Modulus (GPa) = 22.03687 27.37567 24.70627
#
# Velocity S-wave (km/s) = 3.31496 3.69475 3.51000
# Velocity P-wave (km/s) = 6.30998 6.96313 6.64459
#
# Compressibility (1/GPa) = 0.01981657
#
# Stress axis : x y z
#
# Youngs Moduli (GPa) = 86.74919 44.36746 45.37363
#
# Poissons Ratio (x) = 0.34029 -0.01219
# Poissons Ratio (y) = 0.66535 0.48747
# Poissons Ratio (z) = -0.02330 0.47666
#
# Static dielectric constant tensor:
#      x y z
#    x 4.049500 0.000000 0.213230 
#    y 0.000000 3.571630 0.000000 
#    z 0.213230 0.000000 3.349280 
# 
# 
# High freq. dielectric constant tensor:
#      x y z
#    x 1.805230 0.000000 0.010510 
#    y 0.000000 1.775610 0.000000 
#    z 0.010510 0.000000 1.746540 
# 
# From -- ./inp_files/280891.got.cif
#   From: 2010.06.25/outbox.cif.g09.slc.cpg/sg12_141_cif.got.tgz:280891.got - 2010.06.28 00:19:55.
