data_PCOD8085923
_publ_section_title
;
Structure prediction by ZEFSAII (Michael W. Deem and Ramdas Pophale) SiO2 
 PCOD8085923
Probable space group: C 2/M
;
_chemical_formula_sum "Si O2"
_cell_formula_units_Z 60
_cell_length_a 28.965142
_cell_length_b 25.677793
_cell_length_c 5.370827
_cell_angle_alpha 90.000000
_cell_angle_beta 103.175645
_cell_angle_gamma 90.000000
_cell_volume 3889.456612
_symmetry_space_group_name_H-M "C 2/M"
_symmetry_group_IT_number 12
_symmetry_cell_setting 'monoclinic'
loop_
_space_group_symop_operation_xyz
x,y,z
-x,y,-z
-x,-y,-z
x,-y,z
1/2+x,1/2+y,z
1/2-x,1/2+y,-z
1/2-x,1/2-y,-z
1/2+x,1/2-y,z
loop_
_atom_site_type_symbol
_atom_site_label
_atom_site_fract_x
_atom_site_fract_y
_atom_site_fract_z
Si Si1 0.560968 0.864750 0.679068
Si Si2 0.208105 0.200310 0.206677
Si Si3 0.000000 0.593302 0.000000
Si Si4 0.856552 0.646417 0.848459
Si Si5 0.608357 0.258512 0.151598
Si Si6 0.244775 0.682619 0.233664
Si Si7 0.590079 0.941674 0.334439
Si Si8 0.446412 0.751620 0.437014
O O1 0.563230 0.919591 0.540701
O O2 0.554613 0.813418 0.503434
O O3 0.513522 0.867536 0.791311
O O4 0.612008 0.860200 0.870076
O O5 0.151234 0.201550 0.155730
O O6 0.229472 0.257677 0.217850
O O7 0.227767 0.170218 0.474831
O O8 0.222793 0.170778 0.969129
O O9 0.952683 0.558150 0.918892
O O10 0.870351 0.702016 0.746999
O O11 0.800958 0.645157 0.844044
O O12 0.867290 0.597759 0.679012
O O13 0.579805 0.276903 0.363414
O O14 0.576643 0.258454 0.862902
O O15 0.610048 0.000000 0.396624
O O16 0.500000 0.730261 0.500000
#
# Coordination Sequence:
#
# PCOD8085923 Si02
#       8
#     8   8   4   8   8   8   8   8
#     4  10  21  31  45  57  78 101 143 176 227 261
#     4   9  17  28  45  66  82 105 123 164 204 258
#     4  10  21  34  44  58  72 100 138 190 224 274
#     4   9  20  31  44  60  80 103 128 174 218 268
#     4  10  19  31  45  63  87 105 139 171 210 252
#     4   9  17  28  46  64  85 100 129 154 213 267
#     4  11  21  33  45  58  76 103 138 180 228 269
#     4  11  20  29  44  61  85 115 142 171 208 251
#
# _framework density 15.42632
#
# number of rings (size 3 to 8) (size 9 to 14) (size 15 to 20)
#    0.000    2.133    1.333    2.600    5.600    6.400 
#    0.000    0.000    0.000    0.000    0.000    0.000 
#    0.000    0.000    0.000    0.000    0.000    0.000 
#
# Total GULP energy -371716.451982 kJ/mol
# GULP energy per Si atom -12390.548399 kJ/mol
# Density = 1.539121 g / cm^3
# Si number density = 15.426320 Si / 1000 Ang^3
#
#
#
# Elastic Constant Matrix: (Units=GPa)
#
#
# Indices 1 2 3 4 5 6 
#
# 1 129.4307 32.1774 51.3900 0.0000 -11.7402 0.0000
# 2 32.1774 24.6723 11.8094 0.0000 -0.5317 0.0000
# 3 51.3900 11.8094 87.6527 0.0000 -16.7074 0.0000
# 4 0.0000 0.0000 0.0000 9.6460 0.0000 -0.5510
# 5 -11.7402 -0.5317 -16.7074 0.0000 30.1906 0.0000
# 6 0.0000 0.0000 0.0000 -0.5510 0.0000 16.7395
#
#
#
# Elastic Compliance Matrix: (Units=1/GPa)
#
#
# Indices 1 2 3 4 5 6 
#
# 1 0.014060 -0.015532 -0.005769 0.000000 0.002001 0.000000
# 2 -0.015532 0.060690 -0.000020 0.000000 -0.004982 0.000000
# 3 -0.005769 -0.000020 0.016060 0.000000 0.006644 0.000000
# 4 0.000000 0.000000 0.000000 0.103866 0.000000 0.003419
# 5 0.002001 -0.004982 0.006644 0.000000 0.037490 0.000000
# 6 0.000000 0.000000 0.000000 0.003419 0.000000 0.059852
#
#
# Mechanical properties :
#
#
# Convention : Reuss Voigt Hill
#
# Bulk Modulus (GPa) = 20.76081 48.05657 34.40869
# Shear Modulus (GPa) = 14.25661 21.07380 17.66521
#
# Velocity S-wave (km/s) = 3.04332 3.70008 3.38765
# Velocity P-wave (km/s) = 5.08295 7.03378 6.13638
#
# Compressibility (1/GPa) = 0.04816767
#
# Stress axis : x y z
#
# Youngs Moduli (GPa) = 71.12619 16.47719 62.26643
#
# Poissons Ratio (x) = 0.25592 0.35921
# Poissons Ratio (y) = 1.10472 0.00125
# Poissons Ratio (z) = 0.41032 0.00033
#
# Static dielectric constant tensor:
#      x y z
#    x 3.049670 0.000000 -0.024150 
#    y 0.000000 2.393950 0.000000 
#    z -0.024150 0.000000 3.126860 
# 
# 
# High freq. dielectric constant tensor:
#      x y z
#    x 1.593420 0.000000 -0.006140 
#    y 0.000000 1.504050 0.000000 
#    z -0.006140 0.000000 1.608950 
# 
# From -- ./inp_files/29713.got.cif
#   From: 2010.06.25/outbox.cif.g09.slc.cpg/sg12_15_cif.got.tgz:29713.got - 2010.06.28 00:19:55.
