data_PCOD8085626
_publ_section_title
;
Structure prediction by ZEFSAII (Michael W. Deem and Ramdas Pophale) SiO2 
 PCOD8085626
Probable space group: C 2/M
;
_chemical_formula_sum "Si O2"
_cell_formula_units_Z 64
_cell_length_a 16.799656
_cell_length_b 24.858620
_cell_length_c 9.450333
_cell_angle_alpha 90.000000
_cell_angle_beta 112.315588
_cell_angle_gamma 90.000000
_cell_volume 3651.036921
_symmetry_space_group_name_H-M "C 2/M"
_symmetry_group_IT_number 12
_symmetry_cell_setting 'monoclinic'
loop_
_space_group_symop_operation_xyz
x,y,z
-x,y,-z
-x,-y,-z
x,-y,z
1/2+x,1/2+y,z
1/2-x,1/2+y,-z
1/2-x,1/2-y,-z
1/2+x,1/2-y,z
loop_
_atom_site_type_symbol
_atom_site_label
_atom_site_fract_x
_atom_site_fract_y
_atom_site_fract_z
Si Si1 0.280272 0.228720 0.672660
Si Si2 0.675533 0.234339 0.842879
Si Si3 0.903234 0.788016 0.971891
Si Si4 0.683702 0.938524 0.644443
Si Si5 0.466944 0.060913 0.243638
Si Si6 0.264657 0.628858 0.917838
Si Si7 0.644106 0.887863 0.334935
Si Si8 0.319046 0.939516 0.924992
O O1 0.250000 0.250000 0.500000
O O2 0.192636 0.231279 0.710238
O O3 0.352072 0.264616 0.801332
O O4 0.325087 0.171019 0.690030
O O5 0.685915 0.170437 0.824515
O O6 0.750000 0.250000 0.000000
O O7 0.592282 0.250614 0.880951
O O8 0.858005 0.844267 0.981317
O O9 0.000000 0.801008 0.000000
O O10 0.590416 0.931397 0.654493
O O11 0.759098 0.918691 0.799517
O O12 0.692610 0.903036 0.510622
O O13 0.701290 0.000000 0.618039
O O14 0.541538 0.106010 0.291893
O O15 0.506078 0.000000 0.270696
O O16 0.409640 0.069460 0.065428
O O17 0.250211 0.603077 0.062507
O O18 0.669562 0.930295 0.232526
O O19 0.285958 0.000000 0.929597
#
# Coordination Sequence:
#
# PCOD8085626 Si02
#       8
#     8   8   8   8   8   8   8   8
#     4  10  21  36  52  74 103 134 170 209 245 295
#     4   8  16  33  52  70  97 130 164 201 244 296
#     4  10  20  35  55  77 100 128 166 210 254 297
#     4  10  20  32  47  67  97 136 168 196 237 294
#     4   9  19  32  43  65 103 136 162 196 238 287
#     4   9  17  34  52  67  94 131 162 193 241 292
#     4  12  19  28  48  71  97 129 165 204 245 284
#     4  10  19  30  48  73  99 129 164 201 241 293
#
# _framework density 17.529267000000001
#
# number of rings (size 3 to 8) (size 9 to 14) (size 15 to 20)
#    0.000    2.500    0.000    6.750    0.000    5.000 
#    0.000    1.875    0.000    1.500    0.000    0.000 
#    0.000    4.000    0.000    0.000    0.000    0.000 
#
# Total GULP energy -396466.059972 kJ/mol
# GULP energy per Si atom -12389.564374 kJ/mol
# Density = 1.748937 g / cm^3
# Si number density = 17.529267 Si / 1000 Ang^3
#
#
#
# Elastic Constant Matrix: (Units=GPa)
#
#
# Indices 1 2 3 4 5 6 
#
# 1 76.8627 41.0131 21.4968 0.0000 -10.0320 0.0000
# 2 41.0131 84.8712 18.6111 0.0000 -10.0301 0.0000
# 3 21.4968 18.6111 94.7597 0.0000 -21.0662 0.0000
# 4 0.0000 0.0000 0.0000 29.4027 0.0000 -5.4710
# 5 -10.0320 -10.0301 -21.0662 0.0000 21.4401 0.0000
# 6 0.0000 0.0000 0.0000 -5.4710 0.0000 22.2201
#
#
#
# Elastic Compliance Matrix: (Units=1/GPa)
#
#
# Indices 1 2 3 4 5 6 
#
# 1 0.018211 -0.008041 -0.001912 0.000000 0.002881 0.000000
# 2 -0.008041 0.016185 -0.000650 0.000000 0.003171 0.000000
# 3 -0.001912 -0.000650 0.013880 0.000000 0.012439 0.000000
# 4 0.000000 0.000000 0.000000 0.035643 0.000000 0.008776
# 5 0.002881 0.003171 0.012439 0.000000 0.061696 0.000000
# 6 0.000000 0.000000 0.000000 0.008776 0.000000 0.047165
#
#
# Mechanical properties :
#
#
# Convention : Reuss Voigt Hill
#
# Bulk Modulus (GPa) = 36.93821 46.52618 41.73220
# Shear Modulus (GPa) = 22.42061 26.30407 24.36234
#
# Velocity S-wave (km/s) = 3.58025 3.87793 3.73206
# Velocity P-wave (km/s) = 6.18134 6.83014 6.51382
#
# Compressibility (1/GPa) = 0.02707223
#
# Stress axis : x y z
#
# Youngs Moduli (GPa) = 54.91068 61.78392 72.04789
#
# Poissons Ratio (x) = 0.49679 0.13772
# Poissons Ratio (y) = 0.44152 0.04682
# Poissons Ratio (z) = 0.10496 0.04015
#
# Static dielectric constant tensor:
#      x y z
#    x 3.689530 0.000000 -0.821970 
#    y 0.000000 4.272890 0.000000 
#    z -0.821970 0.000000 3.753310 
# 
# 
# High freq. dielectric constant tensor:
#      x y z
#    x 1.635030 0.000000 -0.031670 
#    y 0.000000 1.682060 0.000000 
#    z -0.031670 0.000000 1.683400 
# 
# From -- ./inp_files/78816.got.cif
#   From: 2010.06.25/outbox.cif.g09.slc.cpg/sg12_40_cif.got.tgz:78816.got - 2010.06.28 00:19:55.
