data_PCOD8085320
_publ_section_title
;
Structure prediction by ZEFSAII (Michael W. Deem and Ramdas Pophale) SiO2 
 PCOD8085320
Probable space group: C 2/M
;
_chemical_formula_sum "Si O2"
_cell_formula_units_Z 64
_cell_length_a 20.823897
_cell_length_b 9.794042
_cell_length_c 21.331669
_cell_angle_alpha 90.000000
_cell_angle_beta 120.171937
_cell_angle_gamma 90.000000
_cell_volume 3761.182348
_symmetry_space_group_name_H-M "C 2/M"
_symmetry_group_IT_number 12
_symmetry_cell_setting 'monoclinic'
loop_
_space_group_symop_operation_xyz
x,y,z
-x,y,-z
-x,-y,-z
x,-y,z
1/2+x,1/2+y,z
1/2-x,1/2+y,-z
1/2-x,1/2-y,-z
1/2+x,1/2-y,z
loop_
_atom_site_type_symbol
_atom_site_label
_atom_site_fract_x
_atom_site_fract_y
_atom_site_fract_z
Si Si1 0.288697 0.156655 0.928807
Si Si2 0.473680 0.350900 0.384185
Si Si3 0.385610 0.651319 0.457039
Si Si4 0.659691 0.843388 0.903931
Si Si5 0.567772 0.837476 0.075620
Si Si6 0.455068 0.154574 0.669155
Si Si7 0.508050 0.160455 0.177031
Si Si8 0.183900 0.342909 0.487673
O O1 0.215330 0.251561 0.888929
O O2 0.352060 0.212067 0.911541
O O3 0.266567 0.000000 0.902259
O O4 0.321936 0.166722 0.014160
O O5 0.467669 0.500000 0.349744
O O6 0.541765 0.347265 0.465008
O O7 0.401653 0.321284 0.391602
O O8 0.480448 0.242213 0.332086
O O9 0.347709 0.500000 0.445835
O O10 0.337511 0.779734 0.455679
O O11 0.576049 0.784047 0.856188
O O12 0.666012 0.000000 0.883493
O O13 0.552813 0.780122 0.138897
O O14 0.568135 0.000000 0.073585
O O15 0.500000 0.781406 0.000000
O O16 0.446101 0.198031 0.737438
O O17 0.377655 0.174591 0.596103
O O18 0.483207 0.000000 0.678473
O O19 0.501440 0.000000 0.162888
O O20 0.206610 0.500000 0.508259
O O21 0.250000 0.250000 0.500000
#
# Coordination Sequence:
#
# PCOD8085320 Si02
#       8
#     8   8   8   8   8   8   8   8
#     4   9  16  26  44  70  94 116 151 199 237 270
#     4   8  14  26  45  67  90 113 138 174 224 274
#     4   8  14  26  45  68  89 110 139 179 225 268
#     4   9  16  27  45  67  92 122 151 186 237 287
#     4   9  14  24  45  72  94 117 160 206 234 267
#     4   9  18  30  46  69  93 119 153 191 230 275
#     4   9  16  28  47  69  93 124 160 197 238 278
#     4  10  19  30  46  68  92 121 157 194 232 276
#
# _framework density 17.015926
#
# number of rings (size 3 to 8) (size 9 to 14) (size 15 to 20)
#    0.000    3.125    1.250    1.125    0.000    1.000 
#    0.000    3.125    2.750    1.875    0.000    0.000 
#    0.000    0.000    0.000    0.000    0.000    0.000 
#
# Total GULP energy -396459.835804 kJ/mol
# GULP energy per Si atom -12389.369869 kJ/mol
# Density = 1.697720 g / cm^3
# Si number density = 17.015926 Si / 1000 Ang^3
#
#
#
# Elastic Constant Matrix: (Units=GPa)
#
#
# Indices 1 2 3 4 5 6 
#
# 1 139.5663 65.5548 37.1486 0.0000 -17.1906 0.0000
# 2 65.5548 89.0038 31.0601 0.0000 -10.5356 0.0000
# 3 37.1486 31.0601 47.2709 0.0000 -20.7044 0.0000
# 4 0.0000 0.0000 0.0000 12.0020 0.0000 -1.8984
# 5 -17.1906 -10.5356 -20.7044 0.0000 24.3184 0.0000
# 6 0.0000 0.0000 0.0000 -1.8984 0.0000 30.6743
#
#
#
# Elastic Compliance Matrix: (Units=1/GPa)
#
#
# Indices 1 2 3 4 5 6 
#
# 1 0.011739 -0.007137 -0.003596 0.000000 0.002144 0.000000
# 2 -0.007137 0.019050 -0.008776 0.000000 -0.004264 0.000000
# 3 -0.003596 -0.008776 0.043005 0.000000 0.030270 0.000000
# 4 0.000000 0.000000 0.000000 0.084143 0.000000 0.005208
# 5 0.002144 -0.004264 0.030270 0.000000 0.066561 0.000000
# 6 0.000000 0.000000 0.000000 0.005208 0.000000 0.032923
#
#
# Mechanical properties :
#
#
# Convention : Reuss Voigt Hill
#
# Bulk Modulus (GPa) = 28.75596 60.37424 44.56510
# Shear Modulus (GPa) = 16.23210 22.87077 19.55143
#
# Velocity S-wave (km/s) = 3.09194 3.67015 3.39338
# Velocity P-wave (km/s) = 5.44820 7.31560 6.44984
#
# Compressibility (1/GPa) = 0.03477540
#
# Stress axis : x y z
#
# Youngs Moduli (GPa) = 85.18764 52.49308 23.25301
#
# Poissons Ratio (x) = 0.37466 0.08363
# Poissons Ratio (y) = 0.60800 0.20406
# Poissons Ratio (z) = 0.30637 0.46067
#
# Static dielectric constant tensor:
#      x y z
#    x 3.154800 0.000000 0.361590 
#    y 0.000000 2.973940 0.000000 
#    z 0.361590 0.000000 3.163010 
# 
# 
# High freq. dielectric constant tensor:
#      x y z
#    x 1.659200 0.000000 -0.013720 
#    y 0.000000 1.632150 0.000000 
#    z -0.013720 0.000000 1.624670 
# 
# From -- ./inp_files/345613.got.cif
#   From: 2010.06.25/outbox.cif.g09.slc.cpg/sg12_173_cif.got.tgz:345613.got - 2010.06.28 00:19:55.
