data_PCOD8085438
_publ_section_title
;
Structure prediction by ZEFSAII (Michael W. Deem and Ramdas Pophale) SiO2 
 PCOD8085438
Probable space group: C 2/M
;
_chemical_formula_sum "Si O2"
_cell_formula_units_Z 64
_cell_length_a 22.496629
_cell_length_b 9.402449
_cell_length_c 16.974071
_cell_angle_alpha 90.000000
_cell_angle_beta 105.146144
_cell_angle_gamma 90.000000
_cell_volume 3465.691403
_symmetry_space_group_name_H-M "C 2/M"
_symmetry_group_IT_number 12
_symmetry_cell_setting 'monoclinic'
loop_
_space_group_symop_operation_xyz
x,y,z
-x,y,-z
-x,-y,-z
x,-y,z
1/2+x,1/2+y,z
1/2-x,1/2+y,-z
1/2-x,1/2-y,-z
1/2+x,1/2-y,z
loop_
_atom_site_type_symbol
_atom_site_label
_atom_site_fract_x
_atom_site_fract_y
_atom_site_fract_z
Si Si1 0.722092 0.661367 0.561044
Si Si2 0.132974 0.659345 0.620738
Si Si3 0.776335 0.660102 0.200748
Si Si4 0.813183 0.661649 0.739274
Si Si5 0.064484 0.165053 0.248604
Si Si6 0.026317 0.163755 0.927475
Si Si7 0.882907 0.659109 0.130129
Si Si8 0.973944 0.340297 0.308151
O O1 0.709647 0.500000 0.529321
O O2 0.750000 0.750000 0.500000
O O3 0.656648 0.730998 0.562898
O O4 0.768858 0.665797 0.649334
O O5 0.130726 0.500000 0.583927
O O6 0.178993 0.660551 0.709536
O O7 0.064745 0.704295 0.627294
O O8 0.750474 0.500000 0.179395
O O9 0.720274 0.768622 0.196261
O O10 0.815376 0.709402 0.137195
O O11 0.831485 0.500000 0.766915
O O12 0.872400 0.752851 0.739480
O O13 0.024769 0.188448 0.156553
O O14 0.029325 0.229995 0.312458
O O15 0.077615 0.000000 0.269626
O O16 0.090751 0.240617 0.929371
O O17 0.043513 0.000000 0.943463
O O18 0.000000 0.226467 0.000000
O O19 0.878359 0.500000 0.094524
O O20 0.928722 0.663120 0.218965
O O21 0.000728 0.500000 0.327690
#
# Coordination Sequence:
#
# PCOD8085438 Si02
#       8
#     8   8   8   8   8   8   8   8
#     4  10  20  32  48  70  95 123 153 187 227 270
#     4   8  14  26  45  67  91 119 149 184 227 270
#     4   8  14  26  44  66  91 117 148 187 228 270
#     4  10  20  32  47  69  95 122 153 189 228 270
#     4  10  19  30  47  69  93 124 156 188 229 272
#     4   9  18  31  46  67  95 124 154 189 229 272
#     4   8  14  25  43  67  91 116 149 188 228 269
#     4   8  14  26  44  66  92 119 148 186 228 269
#
# _framework density 18.466732
#
# number of rings (size 3 to 8) (size 9 to 14) (size 15 to 20)
#    0.000    3.125    0.000    2.625    0.000    3.250 
#    0.000    5.000    0.000    1.500    0.000    5.250 
#    0.000    0.000    0.000    0.000    0.000    0.000 
#
# Total GULP energy -396611.133936 kJ/mol
# GULP energy per Si atom -12394.097935 kJ/mol
# Density = 1.842470 g / cm^3
# Si number density = 18.466732 Si / 1000 Ang^3
#
#
#
# Elastic Constant Matrix: (Units=GPa)
#
#
# Indices 1 2 3 4 5 6 
#
# 1 143.5580 93.1447 28.0440 0.0000 -44.3129 0.0000
# 2 93.1447 143.4266 32.6204 0.0000 -34.5174 0.0000
# 3 28.0440 32.6204 33.7579 0.0000 -28.5709 0.0000
# 4 0.0000 0.0000 0.0000 20.6638 0.0000 -10.8013
# 5 -44.3129 -34.5174 -28.5709 0.0000 34.7748 0.0000
# 6 0.0000 0.0000 0.0000 -10.8013 0.0000 39.9640
#
#
#
# Elastic Compliance Matrix: (Units=1/GPa)
#
#
# Indices 1 2 3 4 5 6 
#
# 1 0.018347 -0.008990 0.018645 0.000000 0.029775 0.000000
# 2 -0.008990 0.013716 -0.012994 0.000000 -0.008517 0.000000
# 3 0.018645 -0.012994 0.117784 0.000000 0.107632 0.000000
# 4 0.000000 0.000000 0.000000 0.056356 0.000000 0.015232
# 5 0.029775 -0.008517 0.107632 0.000000 0.146675 0.000000
# 6 0.000000 0.000000 0.000000 0.015232 0.000000 0.029139
#
#
# Mechanical properties :
#
#
# Convention : Reuss Voigt Hill
#
# Bulk Modulus (GPa) = 6.98471 69.81786 38.40129
# Shear Modulus (GPa) = 11.45692 30.20941 20.83317
#
# Velocity S-wave (km/s) = 2.49350 4.04899 3.36243
# Velocity P-wave (km/s) = 3.47572 7.72972 5.99288
#
# Compressibility (1/GPa) = 0.14316978
#
# Stress axis : x y z
#
# Youngs Moduli (GPa) = 54.50370 72.90676 8.49014
#
# Poissons Ratio (x) = 0.65544 -0.15830
# Poissons Ratio (y) = 0.48999 0.11032
# Poissons Ratio (z) = -1.01624 0.94735
#
# Static dielectric constant tensor:
#      x y z
#    x 3.666090 0.000000 -0.450590 
#    y 0.000000 3.634760 0.000000 
#    z -0.450590 0.000000 3.070630 
# 
# 
# High freq. dielectric constant tensor:
#      x y z
#    x 1.720310 0.000000 -0.033520 
#    y 0.000000 1.719190 0.000000 
#    z -0.033520 0.000000 1.667490 
# 
# From -- ./inp_files/287721.got.cif
#   From: 2010.06.25/outbox.cif.g09.slc.cpg/sg12_144_cif.got.tgz:287721.got - 2010.06.28 00:19:55.
