data_PCOD8085402
_publ_section_title
;
Structure prediction by ZEFSAII (Michael W. Deem and Ramdas Pophale) SiO2 
 PCOD8085402
Probable space group: C 2/M
;
_chemical_formula_sum "Si O2"
_cell_formula_units_Z 56
_cell_length_a 28.109085
_cell_length_b 9.109518
_cell_length_c 14.103929
_cell_angle_alpha 90.000000
_cell_angle_beta 119.511551
_cell_angle_gamma 90.000000
_cell_volume 3142.891932
_symmetry_space_group_name_H-M "C 2/M"
_symmetry_group_IT_number 12
_symmetry_cell_setting 'monoclinic'
loop_
_space_group_symop_operation_xyz
x,y,z
-x,y,-z
-x,-y,-z
x,-y,z
1/2+x,1/2+y,z
1/2-x,1/2+y,-z
1/2-x,1/2-y,-z
1/2+x,1/2-y,z
loop_
_atom_site_type_symbol
_atom_site_label
_atom_site_fract_x
_atom_site_fract_y
_atom_site_fract_z
Si Si1 0.121275 0.825323 0.367591
Si Si2 0.283021 0.831585 0.612328
Si Si3 0.206236 0.172799 0.836403
Si Si4 0.318659 0.328109 0.979322
Si Si5 0.419658 0.169563 0.987321
Si Si6 0.463759 0.830704 0.825176
Si Si7 0.822777 0.166605 0.388989
O O1 0.159570 0.754486 0.322055
O O2 0.060362 0.769591 0.283750
O O3 0.141608 0.760522 0.490555
O O4 0.125350 0.000000 0.366605
O O5 0.250000 0.750000 0.500000
O O6 0.243398 0.820855 0.664223
O O7 0.294836 0.000000 0.596862
O O8 0.173931 0.208102 0.901424
O O9 0.168394 0.227287 0.709632
O O10 0.218563 0.000000 0.838955
O O11 0.263547 0.255592 0.888111
O O12 0.314258 0.500000 0.956669
O O13 0.370050 0.268195 0.972807
O O14 0.436144 0.214575 0.897368
O O15 0.401848 0.000000 0.973436
O O16 0.471444 0.197424 0.106748
O O17 0.451422 0.000000 0.790547
O O18 0.842207 0.000000 0.412508
#
# Coordination Sequence:
#
# PCOD8085402 Si02
#       7
#     8   8   8   8   8   8   8
#     4  10  19  30  46  71 100 127 158 201 247 287
#     4   9  16  27  42  63  92 127 165 196 230 280
#     4   9  18  34  52  70  98 135 168 195 233 292
#     4  10  20  32  50  77 101 123 160 209 251 281
#     4   9  19  36  55  71  94 129 165 199 242 299
#     4   9  19  35  53  73  94 127 169 198 236 299
#     4   8  16  30  47  66  92 131 167 191 228 287
#
# _framework density 17.817983999999999
#
# number of rings (size 3 to 8) (size 9 to 14) (size 15 to 20)
#    0.000    2.857    0.000    3.000    2.000    1.714 
#    0.000    5.000    0.000    0.857    0.000    6.000 
#    0.000    0.000    0.000    0.000    0.000    0.000 
#
# Total GULP energy -346884.491917 kJ/mol
# GULP energy per Si atom -12388.731854 kJ/mol
# Density = 1.777743 g / cm^3
# Si number density = 17.817984 Si / 1000 Ang^3
#
#
#
# Elastic Constant Matrix: (Units=GPa)
#
#
# Indices 1 2 3 4 5 6 
#
# 1 53.4672 22.7197 14.5454 0.0000 0.6809 0.0000
# 2 22.7197 64.7673 27.6333 0.0000 1.4387 0.0000
# 3 14.5454 27.6333 94.1248 0.0000 -2.7729 0.0000
# 4 0.0000 0.0000 0.0000 26.1049 0.0000 4.4568
# 5 0.6809 1.4387 -2.7729 0.0000 18.6083 0.0000
# 6 0.0000 0.0000 0.0000 4.4568 0.0000 22.3503
#
#
#
# Elastic Compliance Matrix: (Units=1/GPa)
#
#
# Indices 1 2 3 4 5 6 
#
# 1 0.022122 -0.007186 -0.001322 0.000000 -0.000451 0.000000
# 2 -0.007186 0.020071 -0.004841 0.000000 -0.002010 0.000000
# 3 -0.001322 -0.004841 0.012316 0.000000 0.002258 0.000000
# 4 0.000000 0.000000 0.000000 0.039657 0.000000 -0.007908
# 5 -0.000451 -0.002010 0.002258 0.000000 0.054248 0.000000
# 6 0.000000 0.000000 0.000000 -0.007908 0.000000 0.046319
#
#
# Mechanical properties :
#
#
# Convention : Reuss Voigt Hill
#
# Bulk Modulus (GPa) = 35.95777 38.01734 36.98755
# Shear Modulus (GPa) = 21.67299 23.24344 22.45821
#
# Velocity S-wave (km/s) = 3.49141 3.61570 3.55410
# Velocity P-wave (km/s) = 6.03968 6.23007 6.13561
#
# Compressibility (1/GPa) = 0.02781040
#
# Stress axis : x y z
#
# Youngs Moduli (GPa) = 45.20374 49.82344 81.19313
#
# Poissons Ratio (x) = 0.35804 0.10735
# Poissons Ratio (y) = 0.32484 0.39307
# Poissons Ratio (z) = 0.05977 0.24120
#
# Static dielectric constant tensor:
#      x y z
#    x 3.312510 0.000000 -0.084260 
#    y 0.000000 3.226780 0.000000 
#    z -0.084260 0.000000 3.473400 
# 
# 
# High freq. dielectric constant tensor:
#      x y z
#    x 1.656990 0.000000 0.000190 
#    y 0.000000 1.680330 0.000000 
#    z 0.000190 0.000000 1.694780 
# 
# From -- ./inp_files/243633.got.cif
#   From: 2010.06.25/outbox.cif.g09.slc.cpg/sg12_122_cif.got.tgz:243633.got - 2010.06.28 00:19:55.
