data_PCOD8085195
_publ_section_title
;
Structure prediction by ZEFSAII (Michael W. Deem and Ramdas Pophale) SiO2 
 PCOD8085195
Probable space group: C 2/M
;
_chemical_formula_sum "Si O2"
_cell_formula_units_Z 64
_cell_length_a 23.515287
_cell_length_b 9.088688
_cell_length_c 17.997213
_cell_angle_alpha 90.000000
_cell_angle_beta 89.577930
_cell_angle_gamma 90.000000
_cell_volume 3846.315912
_symmetry_space_group_name_H-M "C 2/M"
_symmetry_group_IT_number 12
_symmetry_cell_setting 'monoclinic'
loop_
_space_group_symop_operation_xyz
x,y,z
-x,y,-z
-x,-y,-z
x,-y,z
1/2+x,1/2+y,z
1/2-x,1/2+y,-z
1/2-x,1/2-y,-z
1/2+x,1/2-y,z
loop_
_atom_site_type_symbol
_atom_site_label
_atom_site_fract_x
_atom_site_fract_y
_atom_site_fract_z
Si Si1 0.818415 0.834206 0.069801
Si Si2 0.687725 0.673231 0.221719
Si Si3 0.501308 0.325086 0.583911
Si Si4 0.319030 0.173170 0.218741
Si Si5 0.809394 0.828516 0.497536
Si Si6 0.183225 0.334463 0.073559
Si Si7 0.880630 0.825232 0.635376
Si Si8 0.380395 0.672077 0.351196
O O1 0.839236 0.746765 0.141907
O O2 0.750772 0.836393 0.067343
O O3 0.842647 0.000000 0.071868
O O4 0.842624 0.752646 0.996529
O O5 0.680585 0.500000 0.209482
O O6 0.753465 0.713226 0.237256
O O7 0.664215 0.753393 0.148868
O O8 0.649876 0.733982 0.290150
O O9 0.500000 0.260608 0.500000
O O10 0.502768 0.500000 0.577900
O O11 0.445840 0.270255 0.629804
O O12 0.556762 0.271107 0.627730
O O13 0.359308 0.234337 0.282197
O O14 0.327416 0.000000 0.211260
O O15 0.750000 0.750000 0.500000
O O16 0.847765 0.764419 0.563700
O O17 0.839352 0.794177 0.419957
O O18 0.799071 0.000000 0.509312
O O19 0.158898 0.500000 0.073826
O O20 0.878650 0.000000 0.634997
O O21 0.380125 0.500000 0.330492
#
# Coordination Sequence:
#
# PCOD8085195 Si02
#       8
#     8   8   8   8   8   8   8   8
#     4   9  16  27  44  66  93 124 158 191 221 264
#     4   9  17  28  43  65  93 125 157 189 226 274
#     4   9  15  28  49  70  87 111 154 206 244 271
#     4  10  19  30  44  65  97 130 155 184 228 280
#     4  10  19  30  45  66  92 121 152 187 231 282
#     4   9  16  26  42  65  94 126 155 185 225 273
#     4   9  16  28  46  66  89 118 155 196 236 273
#     4  10  19  30  47  69  90 116 155 199 238 275
#
# _framework density 16.639298
#
# number of rings (size 3 to 8) (size 9 to 14) (size 15 to 20)
#    0.000    2.625    1.250    1.875    0.000    5.000 
#    0.000    0.625    0.000    1.875    0.000    0.875 
#    0.000    7.000    0.000    0.000    0.000    0.000 
#
# Total GULP energy -396758.120906 kJ/mol
# GULP energy per Si atom -12398.691278 kJ/mol
# Density = 1.660143 g / cm^3
# Si number density = 16.639298 Si / 1000 Ang^3
#
#
#
# Elastic Constant Matrix: (Units=GPa)
#
#
# Indices 1 2 3 4 5 6 
#
# 1 96.8413 32.2791 56.9581 0.0000 9.7324 0.0000
# 2 32.2791 65.0565 59.2290 0.0000 9.9159 0.0000
# 3 56.9581 59.2290 150.8995 0.0000 12.7841 0.0000
# 4 0.0000 0.0000 0.0000 24.5864 0.0000 3.2311
# 5 9.7324 9.9159 12.7841 0.0000 7.7498 0.0000
# 6 0.0000 0.0000 0.0000 3.2311 0.0000 15.0016
#
#
#
# Elastic Compliance Matrix: (Units=1/GPa)
#
#
# Indices 1 2 3 4 5 6 
#
# 1 0.014147 -0.002339 -0.003685 0.000000 -0.008694 0.000000
# 2 -0.002339 0.026558 -0.008034 0.000000 -0.017791 0.000000
# 3 -0.003685 -0.008034 0.011518 0.000000 -0.004093 0.000000
# 4 0.000000 0.000000 0.000000 0.041858 0.000000 -0.009016
# 5 -0.008694 -0.017791 -0.004093 0.000000 0.169470 0.000000
# 6 0.000000 0.000000 0.000000 -0.009016 0.000000 0.068602
#
#
# Mechanical properties :
#
#
# Convention : Reuss Voigt Hill
#
# Bulk Modulus (GPa) = 41.48267 67.74774 54.61520
# Shear Modulus (GPa) = 13.57573 20.42295 16.99934
#
# Velocity S-wave (km/s) = 2.85947 3.50722 3.19977
# Velocity P-wave (km/s) = 5.99055 7.56338 6.82244
#
# Compressibility (1/GPa) = 0.02410645
#
# Stress axis : x y z
#
# Youngs Moduli (GPa) = 70.68579 37.65362 86.82000
#
# Poissons Ratio (x) = 0.08807 0.31995
# Poissons Ratio (y) = 0.16533 0.69752
# Poissons Ratio (z) = 0.26050 0.30251
#
# Static dielectric constant tensor:
#      x y z
#    x 2.961280 0.000000 -0.035300 
#    y 0.000000 2.978000 0.000000 
#    z -0.035300 0.000000 3.279980 
# 
# 
# High freq. dielectric constant tensor:
#      x y z
#    x 1.604530 0.000000 0.001260 
#    y 0.000000 1.622200 0.000000 
#    z 0.001260 0.000000 1.651870 
# 
# From -- ./inp_files/287492.got.cif
#   From: 2010.06.25/outbox.cif.g09.slc.cpg/sg12_144_cif.got.tgz:287492.got - 2010.06.28 00:19:55.
