data_PCOD8085610
_publ_section_title
;
Structure prediction by ZEFSAII (Michael W. Deem and Ramdas Pophale) SiO2 
 PCOD8085610
Probable space group: C 2/M
;
_chemical_formula_sum "Si O2"
_cell_formula_units_Z 64
_cell_length_a 20.700613
_cell_length_b 9.411719
_cell_length_c 18.695794
_cell_angle_alpha 90.000000
_cell_angle_beta 96.746380
_cell_angle_gamma 90.000000
_cell_volume 3617.249847
_symmetry_space_group_name_H-M "C 2/M"
_symmetry_group_IT_number 12
_symmetry_cell_setting 'monoclinic'
loop_
_space_group_symop_operation_xyz
x,y,z
-x,y,-z
-x,-y,-z
x,-y,z
1/2+x,1/2+y,z
1/2-x,1/2+y,-z
1/2-x,1/2-y,-z
1/2+x,1/2-y,z
loop_
_atom_site_type_symbol
_atom_site_label
_atom_site_fract_x
_atom_site_fract_y
_atom_site_fract_z
Si Si1 0.335022 0.834650 0.064365
Si Si2 0.402424 0.831381 0.214583
Si Si3 0.686956 0.663253 0.072111
Si Si4 0.959468 0.668860 0.710700
Si Si5 0.344520 0.333185 0.771287
Si Si6 0.692520 0.167859 0.530275
Si Si7 0.207294 0.667722 0.695480
Si Si8 0.554505 0.831679 0.453932
O O1 0.385973 0.783912 0.131491
O O2 0.263191 0.797666 0.084057
O O3 0.342566 0.000000 0.049046
O O4 0.350525 0.753186 0.992991
O O5 0.473595 0.776798 0.245292
O O6 0.348873 0.765684 0.261676
O O7 0.399630 0.000000 0.220695
O O8 0.677532 0.500000 0.050621
O O9 0.655914 0.698584 0.144396
O O10 0.950624 0.500000 0.715944
O O11 0.902046 0.744643 0.744674
O O12 0.959632 0.718767 0.628365
O O13 0.354220 0.500000 0.757015
O O14 0.277836 0.274782 0.727886
O O15 0.750000 0.250000 0.500000
O O16 0.691673 0.211820 0.612843
O O17 0.625367 0.221937 0.487033
O O18 0.702825 0.000000 0.521535
O O19 0.207649 0.500000 0.705980
O O20 0.500000 0.766594 0.500000
O O21 0.551971 0.000000 0.458952
#
# Coordination Sequence:
#
# PCOD8085610 Si02
#       8
#     8   8   8   8   8   8   8   8
#     4   9  16  29  51  75  96 119 157 206 243 275
#     4   9  16  30  51  74  95 122 164 206 237 275
#     4   9  17  30  49  73  98 125 157 195 241 289
#     4  10  20  32  50  74 101 129 160 202 246 286
#     4  10  19  33  51  71  99 133 164 195 237 293
#     4  10  19  30  48  72  98 126 158 199 243 286
#     4   9  16  29  51  73  91 123 169 203 231 280
#     4   9  17  31  50  73  98 127 164 204 244 285
#
# _framework density 17.693000000000001
#
# number of rings (size 3 to 8) (size 9 to 14) (size 15 to 20)
#    0.000    2.625    1.250    1.500    0.000    3.500 
#    0.000    1.250    0.000    9.000    0.000    0.000 
#    0.000    0.000    0.000    0.000    0.000    0.000 
#
# Total GULP energy -396781.516549 kJ/mol
# GULP energy per Si atom -12399.422392 kJ/mol
# Density = 1.765273 g / cm^3
# Si number density = 17.693000 Si / 1000 Ang^3
#
#
#
# Elastic Constant Matrix: (Units=GPa)
#
#
# Indices 1 2 3 4 5 6 
#
# 1 144.3527 34.2771 86.0001 0.0000 10.0272 0.0000
# 2 34.2771 29.7489 42.1464 0.0000 -1.2830 0.0000
# 3 86.0001 42.1464 155.9583 0.0000 17.3984 0.0000
# 4 0.0000 0.0000 0.0000 21.1678 0.0000 -4.3160
# 5 10.0272 -1.2830 17.3984 0.0000 31.3321 0.0000
# 6 0.0000 0.0000 0.0000 -4.3160 0.0000 25.9980
#
#
#
# Elastic Compliance Matrix: (Units=1/GPa)
#
#
# Indices 1 2 3 4 5 6 
#
# 1 0.011148 -0.007235 -0.004009 0.000000 -0.001638 0.000000
# 2 -0.007235 0.063037 -0.014489 0.000000 0.012942 0.000000
# 3 -0.004009 -0.014489 0.013284 0.000000 -0.006687 0.000000
# 4 0.000000 0.000000 0.000000 0.048897 0.000000 0.008118
# 5 -0.001638 0.012942 -0.006687 0.000000 0.036683 0.000000
# 6 0.000000 0.000000 0.000000 0.008118 0.000000 0.039812
#
#
# Mechanical properties :
#
#
# Convention : Reuss Voigt Hill
#
# Bulk Modulus (GPa) = 27.77664 72.76745 50.27205
# Shear Modulus (GPa) = 18.09434 26.87533 22.48483
#
# Velocity S-wave (km/s) = 3.20141 3.90164 3.56874
# Velocity P-wave (km/s) = 5.42206 7.84310 6.74214
#
# Compressibility (1/GPa) = 0.03600148
#
# Stress axis : x y z
#
# Youngs Moduli (GPa) = 89.70338 15.86375 75.27590
#
# Poissons Ratio (x) = 0.11478 0.30181
# Poissons Ratio (y) = 0.64901 1.09070
# Poissons Ratio (z) = 0.35965 0.22986
#
# Static dielectric constant tensor:
#      x y z
#    x 3.311760 0.000000 0.154550 
#    y 0.000000 2.863580 0.000000 
#    z 0.154550 0.000000 3.410820 
# 
# 
# High freq. dielectric constant tensor:
#      x y z
#    x 1.682300 0.000000 0.003470 
#    y 0.000000 1.636730 0.000000 
#    z 0.003470 0.000000 1.702700 
# 
# From -- ./inp_files/276599.got.cif
#   From: 2010.06.25/outbox.cif.g09.slc.cpg/sg12_139_cif.got.tgz:276599.got - 2010.06.28 00:19:55.
