data_PCOD8085277
_publ_section_title
;
Structure prediction by ZEFSAII (Michael W. Deem and Ramdas Pophale) SiO2 
 PCOD8085277
Probable space group: C 2/M
;
_chemical_formula_sum "Si O2"
_cell_formula_units_Z 56
_cell_length_a 32.507298
_cell_length_b 9.021577
_cell_length_c 18.242440
_cell_angle_alpha 90.000000
_cell_angle_beta 37.721330
_cell_angle_gamma 90.000000
_cell_volume 3273.188613
_symmetry_space_group_name_H-M "C 2/M"
_symmetry_group_IT_number 12
_symmetry_cell_setting 'monoclinic'
loop_
_space_group_symop_operation_xyz
x,y,z
-x,y,-z
-x,-y,-z
x,-y,z
1/2+x,1/2+y,z
1/2-x,1/2+y,-z
1/2-x,1/2-y,-z
1/2+x,1/2-y,z
loop_
_atom_site_type_symbol
_atom_site_label
_atom_site_fract_x
_atom_site_fract_y
_atom_site_fract_z
Si Si1 0.728232 0.672351 0.417131
Si Si2 0.002815 0.671475 0.911271
Si Si3 0.803383 0.832804 0.828068
Si Si4 0.610557 0.673813 0.019888
Si Si5 0.652704 0.167003 0.099353
Si Si6 0.756257 0.325607 0.757004
Si Si7 0.848830 0.329446 0.352214
O O1 0.718759 0.500000 0.412981
O O2 0.722486 0.763588 0.351063
O O3 0.800202 0.705899 0.352450
O O4 0.668890 0.725407 0.554421
O O5 0.983320 0.500000 0.926920
O O6 0.076340 0.707974 0.777740
O O7 0.951011 0.774283 0.942219
O O8 0.000000 0.714450 0.000000
O O9 0.853247 0.752179 0.814901
O O10 0.804940 0.746285 0.749081
O O11 0.828894 0.000000 0.779781
O O12 0.728959 0.831673 0.965264
O O13 0.606392 0.500000 0.039595
O O14 0.606246 0.752574 0.104895
O O15 0.679069 0.717692 0.881683
O O16 0.626367 0.000000 0.147081
O O17 0.767478 0.500000 0.743113
O O18 0.840303 0.500000 0.388245
#
# Coordination Sequence:
#
# PCOD8085277 Si02
#       7
#     8   8   8   8   8   8   8
#     4  10  19  32  51  71  92 121 158 199 239 280
#     4  10  20  34  51  70  95 127 160 194 234 282
#     4   9  16  26  42  65  93 123 156 194 234 278
#     4  10  20  31  45  68  97 128 161 197 236 279
#     4   9  16  27  43  63  91 126 159 191 232 282
#     4  10  19  30  45  68  98 128 158 194 238 284
#     4   9  19  34  50  69  94 124 157 194 238 284
#
# _framework density 17.108699000000001
#
# number of rings (size 3 to 8) (size 9 to 14) (size 15 to 20)
#    0.000    2.429    0.000    3.000    0.000    7.714 
#    0.000    0.000    0.000    0.000    0.000    1.000 
#    0.000    8.000    0.000    0.000    0.000    0.000 
#
# Total GULP energy -347269.158652 kJ/mol
# GULP energy per Si atom -12402.469952 kJ/mol
# Density = 1.706976 g / cm^3
# Si number density = 17.108699 Si / 1000 Ang^3
#
#
#
# Elastic Constant Matrix: (Units=GPa)
#
#
# Indices 1 2 3 4 5 6 
#
# 1 116.8372 60.3484 44.8110 0.0020 23.3376 -0.0007
# 2 60.3484 104.3946 37.8476 -0.0029 15.0629 -0.0008
# 3 44.8110 37.8476 57.3081 -0.0011 11.6305 0.0011
# 4 0.0020 -0.0029 -0.0011 22.1524 0.0019 5.0271
# 5 23.3376 15.0629 11.6305 0.0019 23.4315 -0.0002
# 6 -0.0007 -0.0008 0.0011 5.0271 -0.0002 37.0967
#
#
#
# Elastic Compliance Matrix: (Units=1/GPa)
#
#
# Indices 1 2 3 4 5 6 
#
# 1 0.015741 -0.005280 -0.007037 -0.000002 -0.008791 0.000001
# 2 -0.005280 0.014790 -0.005312 0.000002 -0.001612 0.000000
# 3 -0.007037 -0.005312 0.027072 0.000002 -0.003014 -0.000001
# 4 -0.000002 0.000002 0.000002 0.046574 -0.000004 -0.006311
# 5 -0.008791 -0.001612 -0.003014 -0.000004 0.053965 0.000001
# 6 0.000001 0.000000 -0.000001 -0.006311 0.000001 0.027812
#
#
# Mechanical properties :
#
#
# Convention : Reuss Voigt Hill
#
# Bulk Modulus (GPa) = 44.75361 62.72822 53.74092
# Shear Modulus (GPa) = 21.86654 25.57166 23.71910
#
# Velocity S-wave (km/s) = 3.57892 3.87028 3.72745
# Velocity P-wave (km/s) = 6.57978 7.53101 7.07141
#
# Compressibility (1/GPa) = 0.02234456
#
# Stress axis : x y z
#
# Youngs Moduli (GPa) = 63.52834 67.61542 36.93856
#
# Poissons Ratio (x) = 0.35699 0.25995
# Poissons Ratio (y) = 0.33542 0.19621
# Poissons Ratio (z) = 0.44708 0.35916
#
# Static dielectric constant tensor:
#      x y z
#    x 3.217280 0.000000 0.158240 
#    y 0.000000 3.317820 0.000000 
#    z 0.158240 0.000000 2.876430 
# 
# 
# High freq. dielectric constant tensor:
#      x y z
#    x 1.662810 0.000000 0.021300 
#    y 0.000000 1.674660 0.000000 
#    z 0.021300 0.000000 1.617870 
# 
# From -- ./inp_files/281704.got.cif
#   From: 2010.06.25/outbox.cif.g09.slc.cpg/sg12_141_cif.got.tgz:281704.got - 2010.06.28 00:19:55.
