data_PCOD8085905
_publ_section_title
;
Structure prediction by ZEFSAII (Michael W. Deem and Ramdas Pophale) SiO2 
 PCOD8085905
Probable space group: C 2/M
;
_chemical_formula_sum "Si O2"
_cell_formula_units_Z 56
_cell_length_a 30.616441
_cell_length_b 13.699912
_cell_length_c 12.414037
_cell_angle_alpha 90.000000
_cell_angle_beta 143.264445
_cell_angle_gamma 90.000000
_cell_volume 3114.409478
_symmetry_space_group_name_H-M "C 2/M"
_symmetry_group_IT_number 12
_symmetry_cell_setting 'monoclinic'
loop_
_space_group_symop_operation_xyz
x,y,z
-x,y,-z
-x,-y,-z
x,-y,z
1/2+x,1/2+y,z
1/2-x,1/2+y,-z
1/2-x,1/2-y,-z
1/2+x,1/2-y,z
loop_
_atom_site_type_symbol
_atom_site_label
_atom_site_fract_x
_atom_site_fract_y
_atom_site_fract_z
Si Si1 0.933436 0.615047 0.080052
Si Si2 0.681030 0.801705 0.747228
Si Si3 0.145380 0.303878 0.270730
Si Si4 0.801356 0.110172 0.550772
Si Si5 0.900577 0.390152 0.601211
Si Si6 0.685989 0.178428 0.998595
Si Si7 0.327070 0.604422 0.355433
O O1 0.914572 0.500000 0.046120
O O2 0.017528 0.634696 0.274514
O O3 0.919652 0.660711 0.934722
O O4 0.886675 0.677015 0.073590
O O5 0.653750 0.880304 0.607408
O O6 0.768996 0.782290 0.908203
O O7 0.638577 0.697766 0.639158
O O8 0.662512 0.841816 0.828845
O O9 0.159431 0.186779 0.290619
O O10 0.216182 0.363861 0.374445
O O11 0.125426 0.321100 0.354946
O O12 0.835534 0.119316 0.499743
O O13 0.811184 0.000000 0.615276
O O14 0.896482 0.500000 0.636760
O O15 0.740985 0.096491 0.153302
O O16 0.363233 0.500000 0.393745
#
# Coordination Sequence:
#
# PCOD8085905 Si02
#       7
#     8   8   8   8   8   8   8
#     4  11  22  35  55  79 108 150 184 212 264 334
#     4   9  19  35  51  79 108 134 176 225 272 305
#     4  11  19  34  53  77 115 139 176 225 267 316
#     4  10  19  30  55  84 105 138 181 225 269 314
#     4  11  23  35  50  80 115 145 176 216 275 328
#     4   9  18  34  53  76 108 132 180 221 260 315
#     4   9  15  30  54  78 102 129 175 219 256 315
#
# _framework density 17.980936
#
# number of rings (size 3 to 8) (size 9 to 14) (size 15 to 20)
#    0.857    1.143    2.857    2.143    2.000    2.857 
#    0.000    1.429    0.000    3.429    0.000    1.000 
#    0.000    0.000    0.000    0.000    0.000    0.000 
#
# Total GULP energy -346931.921410 kJ/mol
# GULP energy per Si atom -12390.425765 kJ/mol
# Density = 1.794001 g / cm^3
# Si number density = 17.980936 Si / 1000 Ang^3
#
#
#
# Elastic Constant Matrix: (Units=GPa)
#
#
# Indices 1 2 3 4 5 6 
#
# 1 38.6730 18.5193 33.8606 0.0000 -18.6363 0.0000
# 2 18.5193 79.2883 16.2585 0.0000 1.4930 0.0000
# 3 33.8606 16.2585 65.3898 0.0000 -10.6297 0.0000
# 4 0.0000 0.0000 0.0000 22.6376 0.0000 0.4002
# 5 -18.6363 1.4930 -10.6297 0.0000 21.1637 0.0000
# 6 0.0000 0.0000 0.0000 0.4002 0.0000 14.3711
#
#
#
# Elastic Compliance Matrix: (Units=1/GPa)
#
#
# Indices 1 2 3 4 5 6 
#
# 1 0.099696 -0.017287 -0.035779 0.000000 0.071040 0.000000
# 2 -0.017287 0.016445 0.002395 0.000000 -0.015180 0.000000
# 3 -0.035779 0.002395 0.030572 0.000000 -0.016320 0.000000
# 4 0.000000 0.000000 0.000000 0.044196 0.000000 -0.001231
# 5 0.071040 -0.015180 -0.016320 0.000000 0.102681 0.000000
# 6 0.000000 0.000000 0.000000 -0.001231 0.000000 0.069619
#
#
# Mechanical properties :
#
#
# Convention : Reuss Voigt Hill
#
# Bulk Modulus (GPa) = 22.04048 35.62531 28.83290
# Shear Modulus (GPa) = 10.42377 19.28199 14.85288
#
# Velocity S-wave (km/s) = 2.41033 3.27824 2.87720
# Velocity P-wave (km/s) = 4.47555 5.84679 5.20651
#
# Compressibility (1/GPa) = 0.04537106
#
# Stress axis : x y z
#
# Youngs Moduli (GPa) = 10.03045 60.81020 32.71001
#
# Poissons Ratio (x) = 1.05123 1.17033
# Poissons Ratio (y) = 0.17340 -0.07835
# Poissons Ratio (z) = 0.35888 -0.14566
#
# Static dielectric constant tensor:
#      x y z
#    x 3.073220 0.000000 -0.095700 
#    y 0.000000 3.307230 0.000000 
#    z -0.095700 0.000000 3.131000 
# 
# 
# High freq. dielectric constant tensor:
#      x y z
#    x 1.674450 0.000000 -0.018810 
#    y 0.000000 1.691330 0.000000 
#    z -0.018810 0.000000 1.677700 
# 
# From -- ./inp_files/189260.got.cif
#   From: 2010.06.25/outbox.cif.g09.slc.cpg/sg12_95_cif.got.tgz:189260.got - 2010.06.28 00:19:55.
