data_PCOD8085879
_publ_section_title
;
Structure prediction by ZEFSAII (Michael W. Deem and Ramdas Pophale) SiO2 
 PCOD8085879
Probable space group: C 2/M
;
_chemical_formula_sum "Si O2"
_cell_formula_units_Z 64
_cell_length_a 24.124815
_cell_length_b 8.544054
_cell_length_c 21.109542
_cell_angle_alpha 90.000000
_cell_angle_beta 128.447306
_cell_angle_gamma 90.000000
_cell_volume 3407.756582
_symmetry_space_group_name_H-M "C 2/M"
_symmetry_group_IT_number 12
_symmetry_cell_setting 'monoclinic'
loop_
_space_group_symop_operation_xyz
x,y,z
-x,y,-z
-x,-y,-z
x,-y,z
1/2+x,1/2+y,z
1/2-x,1/2+y,-z
1/2-x,1/2-y,-z
1/2+x,1/2-y,z
loop_
_atom_site_type_symbol
_atom_site_label
_atom_site_fract_x
_atom_site_fract_y
_atom_site_fract_z
Si Si1 0.260991 0.178431 0.609946
Si Si2 0.034848 0.317562 0.160902
Si Si3 0.614167 0.317757 0.953855
Si Si4 0.352778 0.321200 0.568159
Si Si5 0.514714 0.179394 0.293027
Si Si6 0.181887 0.818273 0.226217
Si Si7 0.143174 0.683336 0.840790
Si Si8 0.778350 0.680994 0.874624
O O1 0.317583 0.209039 0.594943
O O2 0.182380 0.208496 0.525709
O O3 0.273484 0.290235 0.678230
O O4 0.271291 0.000000 0.639822
O O5 0.033118 0.500000 0.142773
O O6 0.040004 0.289456 0.239447
O O7 0.101359 0.237605 0.175213
O O8 0.964309 0.238123 0.083301
O O9 0.613662 0.500000 0.936260
O O10 0.644760 0.221090 0.916396
O O11 0.664358 0.287251 0.049046
O O12 0.340624 0.500000 0.580230
O O13 0.436408 0.281643 0.625073
O O14 0.433119 0.229750 0.242433
O O15 0.523935 0.000000 0.318455
O O16 0.219982 0.722185 0.198041
O O17 0.183122 0.000000 0.210362
O O18 0.159070 0.500000 0.843876
O O19 0.200156 0.784890 0.844476
O O20 0.796454 0.500000 0.898258
#
# Coordination Sequence:
#
# PCOD8085879 Si02
#       8
#     8   8   8   8   8   8   8   8
#     4  10  20  34  51  78 115 151 183 223 273 325
#     4  10  20  36  56  82 114 149 183 225 279 332
#     4  11  22  38  60  86 113 143 184 234 278 327
#     4  10  19  30  52  83 114 146 185 226 269 324
#     4   9  18  32  55  82 114 146 178 225 280 327
#     4  12  24  38  57  81 111 149 188 228 274 337
#     4  10  21  39  60  84 112 145 186 233 280 327
#     4  12  25  41  59  80 108 147 188 231 281 333
#
# _framework density 18.780684000000001
#
# number of rings (size 3 to 8) (size 9 to 14) (size 15 to 20)
#    0.000    1.500    1.250    6.000    0.000    4.500 
#    0.000    2.500    0.000    0.750    0.000    5.250 
#    0.000    0.000    0.000    0.000    0.000    0.000 
#
# Total GULP energy -396939.828373 kJ/mol
# GULP energy per Si atom -12404.369637 kJ/mol
# Density = 1.873794 g / cm^3
# Si number density = 18.780684 Si / 1000 Ang^3
#
#
#
# Elastic Constant Matrix: (Units=GPa)
#
#
# Indices 1 2 3 4 5 6 
#
# 1 58.9163 26.7322 47.3644 0.0000 -4.7003 0.0000
# 2 26.7322 80.7038 27.0442 0.0000 12.7516 0.0000
# 3 47.3644 27.0442 99.7755 0.0000 18.2024 0.0000
# 4 0.0000 0.0000 0.0000 32.2547 0.0000 3.4119
# 5 -4.7003 12.7516 18.2024 0.0000 19.3895 0.0000
# 6 0.0000 0.0000 0.0000 3.4119 0.0000 30.2483
#
#
#
# Elastic Compliance Matrix: (Units=1/GPa)
#
#
# Indices 1 2 3 4 5 6 
#
# 1 0.051593 -0.015117 -0.029550 0.000000 0.050190 0.000000
# 2 -0.015117 0.018804 0.006038 0.000000 -0.021700 0.000000
# 3 -0.029550 0.006038 0.029497 0.000000 -0.038826 0.000000
# 4 0.000000 0.000000 0.000000 0.031378 0.000000 -0.003539
# 5 0.050190 -0.021700 -0.038826 0.000000 0.114460 0.000000
# 6 0.000000 0.000000 0.000000 -0.003539 0.000000 0.033459
#
#
# Mechanical properties :
#
#
# Convention : Reuss Voigt Hill
#
# Bulk Modulus (GPa) = 44.18055 49.07525 46.62790
# Shear Modulus (GPa) = 13.73649 25.59551 19.66600
#
# Velocity S-wave (km/s) = 2.70740 3.69570 3.23946
# Velocity P-wave (km/s) = 5.77485 6.66321 6.23487
#
# Compressibility (1/GPa) = 0.02263439
#
# Stress axis : x y z
#
# Youngs Moduli (GPa) = 19.38247 53.18126 33.90203
#
# Poissons Ratio (x) = 0.80396 1.00182
# Poissons Ratio (y) = 0.29301 -0.20471
# Poissons Ratio (z) = 0.57276 -0.32113
#
# Static dielectric constant tensor:
#      x y z
#    x 3.260600 0.000000 0.225360 
#    y 0.000000 3.465650 0.000000 
#    z 0.225360 0.000000 3.546700 
# 
# 
# High freq. dielectric constant tensor:
#      x y z
#    x 1.702650 0.000000 0.020920 
#    y 0.000000 1.743260 0.000000 
#    z 0.020920 0.000000 1.730920 
# 
# From -- ./inp_files/324250.got.cif
#   From: 2010.06.25/outbox.cif.g09.slc.cpg/sg12_163_cif.got.tgz:324250.got - 2010.06.28 00:19:55.
