data_PCOD8085799
_publ_section_title
;
Structure prediction by ZEFSAII (Michael W. Deem and Ramdas Pophale) SiO2 
 PCOD8085799
Probable space group: C 2/M
;
_chemical_formula_sum "Si O2"
_cell_formula_units_Z 40
_cell_length_a 23.913976
_cell_length_b 9.233723
_cell_length_c 14.887241
_cell_angle_alpha 90.000000
_cell_angle_beta 137.505688
_cell_angle_gamma 90.000000
_cell_volume 2220.645021
_symmetry_space_group_name_H-M "C 2/M"
_symmetry_group_IT_number 12
_symmetry_cell_setting 'monoclinic'
loop_
_space_group_symop_operation_xyz
x,y,z
-x,y,-z
-x,-y,-z
x,-y,z
1/2+x,1/2+y,z
1/2-x,1/2+y,-z
1/2-x,1/2-y,-z
1/2+x,1/2-y,z
loop_
_atom_site_type_symbol
_atom_site_label
_atom_site_fract_x
_atom_site_fract_y
_atom_site_fract_z
Si Si1 0.011114 0.832578 0.790788
Si Si2 0.451782 0.672035 0.528384
Si Si3 0.732021 0.335994 0.668139
Si Si4 0.126806 0.167996 0.231336
Si Si5 0.887886 0.336265 0.953796
O O1 0.999789 0.780566 0.675159
O O2 0.923740 0.806298 0.737318
O O3 0.037065 0.000000 0.827132
O O4 0.084446 0.738716 0.921018
O O5 0.500000 0.738436 0.500000
O O6 0.447930 0.500000 0.516209
O O7 0.357814 0.732286 0.418497
O O8 0.723375 0.500000 0.620231
O O9 0.781453 0.240448 0.651978
O O10 0.787047 0.335290 0.825532
O O11 0.077015 0.246096 0.090459
O O12 0.136255 0.000000 0.219147
O O13 0.922371 0.500000 0.991827
#
# Coordination Sequence:
#
# PCOD8085799 Si02
#       5
#     8   8   8   8   8
#     4  10  19  30  50  78 101 128 166 201 239 290
#     4   9  18  35  55  71  94 131 171 207 242 286
#     4   8  17  32  50  73 100 129 164 199 240 293
#     4   9  17  29  48  75 106 131 156 196 245 293
#     4   9  18  31  49  75 105 131 158 196 245 297
#
# _framework density 18.012785000000001
#
# number of rings (size 3 to 8) (size 9 to 14) (size 15 to 20)
#    1.200    1.800    0.000    1.200    0.000    4.800 
#    0.000    2.000    0.000    2.400    0.000    0.000 
#    0.000    0.000    0.000    0.000    0.000    0.000 
#
# Total GULP energy -247779.952188 kJ/mol
# GULP energy per Si atom -12388.997609 kJ/mol
# Density = 1.797179 g / cm^3
# Si number density = 18.012785 Si / 1000 Ang^3
#
#
#
# Elastic Constant Matrix: (Units=GPa)
#
#
# Indices 1 2 3 4 5 6 
#
# 1 51.4031 25.0220 40.8418 0.0000 -18.1017 0.0000
# 2 25.0220 77.5843 31.5574 0.0000 -6.8830 0.0000
# 3 40.8418 31.5574 54.8962 0.0000 -20.4926 0.0000
# 4 0.0000 0.0000 0.0000 17.7208 0.0000 4.0680
# 5 -18.1017 -6.8830 -20.4926 0.0000 27.3194 0.0000
# 6 0.0000 0.0000 0.0000 4.0680 0.0000 13.5916
#
#
#
# Elastic Compliance Matrix: (Units=1/GPa)
#
#
# Indices 1 2 3 4 5 6 
#
# 1 0.048743 -0.001888 -0.032362 0.000000 0.007546 0.000000
# 2 -0.001888 0.017248 -0.010216 0.000000 -0.004569 0.000000
# 3 -0.032362 -0.010216 0.054446 0.000000 0.016824 0.000000
# 4 0.000000 0.000000 0.000000 0.060594 0.000000 -0.018136
# 5 0.007546 -0.004569 0.016824 0.000000 0.053073 0.000000
# 6 0.000000 0.000000 0.000000 -0.018136 0.000000 0.079003
#
#
# Mechanical properties :
#
#
# Convention : Reuss Voigt Hill
#
# Bulk Modulus (GPa) = 31.74015 42.08066 36.91041
# Shear Modulus (GPa) = 12.11998 17.49052 14.80525
#
# Velocity S-wave (km/s) = 2.59676 3.11948 2.87004
# Velocity P-wave (km/s) = 5.16237 6.03217 5.61414
#
# Compressibility (1/GPa) = 0.03150583
#
# Stress axis : x y z
#
# Youngs Moduli (GPa) = 20.51558 57.97721 18.36673
#
# Poissons Ratio (x) = 0.10944 0.59439
# Poissons Ratio (y) = 0.03873 0.18764
# Poissons Ratio (z) = 0.66393 0.59231
#
# Static dielectric constant tensor:
#      x y z
#    x 3.170620 0.000000 0.070050 
#    y 0.000000 3.164820 0.000000 
#    z 0.070050 0.000000 3.233240 
# 
# 
# High freq. dielectric constant tensor:
#      x y z
#    x 1.665140 0.000000 0.010650 
#    y 0.000000 1.679630 0.000000 
#    z 0.010650 0.000000 1.694040 
# 
# From -- ./inp_files/236929.got.cif
#   From: 2010.06.25/outbox.cif.g09.slc.cpg/sg12_119_cif.got.tgz:236929.got - 2010.06.28 00:19:55.
