data_PCOD8085217
_publ_section_title
;
Structure prediction by ZEFSAII (Michael W. Deem and Ramdas Pophale) SiO2 
 PCOD8085217
Probable space group: C 2/M
;
_chemical_formula_sum "Si O2"
_cell_formula_units_Z 64
_cell_length_a 22.366756
_cell_length_b 9.176310
_cell_length_c 27.810181
_cell_angle_alpha 90.000000
_cell_angle_beta 136.996949
_cell_angle_gamma 90.000000
_cell_volume 3892.987606
_symmetry_space_group_name_H-M "C 2/M"
_symmetry_group_IT_number 12
_symmetry_cell_setting 'monoclinic'
loop_
_space_group_symop_operation_xyz
x,y,z
-x,y,-z
-x,-y,-z
x,-y,z
1/2+x,1/2+y,z
1/2-x,1/2+y,-z
1/2-x,1/2-y,-z
1/2+x,1/2-y,z
loop_
_atom_site_type_symbol
_atom_site_label
_atom_site_fract_x
_atom_site_fract_y
_atom_site_fract_z
Si Si1 0.473265 0.333392 0.879161
Si Si2 0.850535 0.167204 0.727099
Si Si3 0.199376 0.833640 0.406541
Si Si4 0.173531 0.333018 0.152213
Si Si5 0.022457 0.671820 0.567844
Si Si6 0.579166 0.161527 0.008556
Si Si7 0.131066 0.170189 0.469301
Si Si8 0.700494 0.668213 0.693671
O O1 0.489345 0.500000 0.899794
O O2 0.447010 0.304665 0.807699
O O3 0.388976 0.279871 0.858323
O O4 0.562144 0.256664 0.950591
O O5 0.859543 0.192964 0.675328
O O6 0.778496 0.277750 0.705246
O O7 0.821261 0.000000 0.720840
O O8 0.139875 0.797613 0.417650
O O9 0.283739 0.729946 0.453051
O O10 0.233652 0.000000 0.429461
O O11 0.139375 0.500000 0.139931
O O12 0.168078 0.298403 0.091290
O O13 0.269853 0.317064 0.232568
O O14 0.020570 0.500000 0.575228
O O15 0.117406 0.731706 0.636465
O O16 0.000000 0.712680 0.500000
O O17 0.954156 0.746533 0.563163
O O18 0.586216 0.000000 0.992271
O O19 0.500000 0.179893 0.000000
O O20 0.121248 0.000000 0.474947
O O21 0.679190 0.500000 0.668673
#
# Coordination Sequence:
#
# PCOD8085217 Si02
#       8
#     8   8   8   8   8   8   8   8
#     4   9  15  21  33  55  80 107 141 175 202 239
#     4   9  17  29  43  61  89 121 146 171 213 262
#     4   9  18  33  50  66  88 116 142 173 217 262
#     4   8  15  26  37  51  76 110 141 171 210 250
#     4  11  23  36  48  63  88 119 144 171 215 264
#     4   8  13  22  34  48  73 109 141 168 205 249
#     4  10  20  33  50  70  87 108 144 184 215 249
#     4  10  19  30  45  65  87 112 148 187 214 247
#
# _framework density 16.439816
#
# number of rings (size 3 to 8) (size 9 to 14) (size 15 to 20)
#    0.000    2.750    0.000    3.000    0.000    8.250 
#    0.000    0.000    0.000    0.000    0.000    0.000 
#    0.000    1.000    0.000    2.000    0.000    4.875 
#
# Total GULP energy -396476.630986 kJ/mol
# GULP energy per Si atom -12389.894718 kJ/mol
# Density = 1.640240 g / cm^3
# Si number density = 16.439816 Si / 1000 Ang^3
#
#
#
# Elastic Constant Matrix: (Units=GPa)
#
#
# Indices 1 2 3 4 5 6 
#
# 1 38.6564 22.1654 31.8203 0.0000 -4.8234 0.0000
# 2 22.1654 75.3582 52.9670 0.0000 -6.6309 -0.0002
# 3 31.8203 52.9670 150.8768 0.0000 -18.7713 0.0000
# 4 0.0000 0.0000 0.0000 25.4922 0.0000 -0.6577
# 5 -4.8234 -6.6309 -18.7713 0.0000 16.0645 0.0000
# 6 0.0000 -0.0002 0.0000 -0.6577 0.0000 17.4042
#
#
#
# Elastic Compliance Matrix: (Units=1/GPa)
#
#
# Indices 1 2 3 4 5 6 
#
# 1 0.033599 -0.006506 -0.004541 0.000000 0.002096 0.000000
# 2 -0.006506 0.018877 -0.005299 0.000000 -0.000353 0.000000
# 3 -0.004541 -0.005299 0.010536 0.000000 0.008760 0.000000
# 4 0.000000 0.000000 0.000000 0.039266 0.000000 0.001484
# 5 0.002096 -0.000353 0.008760 0.000000 0.072969 0.000000
# 6 0.000000 0.000000 0.000000 0.001484 0.000000 0.057513
#
#
# Mechanical properties :
#
#
# Convention : Reuss Voigt Hill
#
# Bulk Modulus (GPa) = 32.98208 53.19963 43.09086
# Shear Modulus (GPa) = 18.14486 22.32141 20.23314
#
# Velocity S-wave (km/s) = 3.32582 3.68878 3.51200
# Velocity P-wave (km/s) = 5.90373 7.11149 6.53557
#
# Compressibility (1/GPa) = 0.03031949
#
# Stress axis : x y z
#
# Youngs Moduli (GPa) = 29.76240 52.97473 94.91465
#
# Poissons Ratio (x) = 0.34467 0.43103
# Poissons Ratio (y) = 0.19365 0.50292
# Poissons Ratio (z) = 0.13516 0.28070
#
# Static dielectric constant tensor:
#      x y z
#    x 2.612940 0.000000 -0.205780 
#    y 0.000000 3.235550 0.000000 
#    z -0.205780 0.000000 3.724530 
# 
# 
# High freq. dielectric constant tensor:
#      x y z
#    x 1.559510 0.000000 -0.017490 
#    y 0.000000 1.645830 0.000000 
#    z -0.017490 0.000000 1.656180 
# 
# From -- ./inp_files/365249.got.cif
#   From: 2010.06.25/outbox.cif.g09.slc.cpg/sg12_183_cif.got.tgz:365249.got - 2010.06.28 00:19:55.
