data_PCOD8085820
_publ_section_title
;
Structure prediction by ZEFSAII (Michael W. Deem and Ramdas Pophale) SiO2 
 PCOD8085820
Probable space group: C 2/M
;
_chemical_formula_sum "Si O2"
_cell_formula_units_Z 64
_cell_length_a 18.794122
_cell_length_b 9.255906
_cell_length_c 24.216721
_cell_angle_alpha 90.000000
_cell_angle_beta 56.530768
_cell_angle_gamma 90.000000
_cell_volume 3514.124781
_symmetry_space_group_name_H-M "C 2/M"
_symmetry_group_IT_number 12
_symmetry_cell_setting 'monoclinic'
loop_
_space_group_symop_operation_xyz
x,y,z
-x,y,-z
-x,-y,-z
x,-y,z
1/2+x,1/2+y,z
1/2-x,1/2+y,-z
1/2-x,1/2-y,-z
1/2+x,1/2-y,z
loop_
_atom_site_type_symbol
_atom_site_label
_atom_site_fract_x
_atom_site_fract_y
_atom_site_fract_z
Si Si1 0.832724 0.833710 0.723088
Si Si2 0.101832 0.167579 0.101905
Si Si3 0.515363 0.336568 0.674397
Si Si4 0.277547 0.833171 0.327715
Si Si5 0.970283 0.664443 0.223627
Si Si6 0.703370 0.331686 0.568639
Si Si7 0.094870 0.831611 0.977022
Si Si8 0.742414 0.328559 0.129500
O O1 0.786879 0.764357 0.689632
O O2 0.802183 0.770966 0.795162
O O3 0.933912 0.812926 0.669959
O O4 0.805711 0.000000 0.734595
O O5 0.182950 0.220631 0.103333
O O6 0.016072 0.250853 0.155051
O O7 0.084973 0.000000 0.120336
O O8 0.115928 0.200711 0.031787
O O9 0.515830 0.500000 0.698222
O O10 0.502121 0.227357 0.729680
O O11 0.601928 0.307432 0.603554
O O12 0.369362 0.819525 0.259857
O O13 0.267847 0.735505 0.385804
O O14 0.258046 0.000000 0.352189
O O15 0.000496 0.500000 0.208483
O O16 0.727906 0.500000 0.557034
O O17 0.750000 0.250000 0.500000
O O18 0.164698 0.743645 0.912604
O O19 0.104901 0.000000 0.958817
O O20 0.000000 0.779370 0.000000
O O21 0.754303 0.500000 0.123825
#
# Coordination Sequence:
#
# PCOD8085820 Si02
#       8
#     8   8   8   8   8   8   8   8
#     4   9  17  33  56  80 107 136 174 221 265 311
#     4  10  20  36  55  72 100 140 179 218 266 323
#     4   9  17  34  57  79 106 141 178 212 254 311
#     4   9  19  34  53  79 111 140 171 217 263 307
#     4  10  19  30  50  80 106 132 170 217 264 310
#     4  10  20  35  58  83 109 145 182 215 255 307
#     4  10  23  39  52  73 106 140 175 222 278 328
#     4  10  20  35  57  78  99 137 181 222 266 314
#
# _framework density 18.212216000000002
#
# number of rings (size 3 to 8) (size 9 to 14) (size 15 to 20)
#    0.000    2.375    1.250    1.125    1.750    2.250 
#    0.000    1.875    0.000    3.750    0.000    0.000 
#    0.000    0.000    0.000    0.000    0.000    0.000 
#
# Total GULP energy -396758.428468 kJ/mol
# GULP energy per Si atom -12398.700890 kJ/mol
# Density = 1.817076 g / cm^3
# Si number density = 18.212216 Si / 1000 Ang^3
#
#
#
# Elastic Constant Matrix: (Units=GPa)
#
#
# Indices 1 2 3 4 5 6 
#
# 1 143.4287 37.6583 61.3016 0.0000 1.7110 0.0000
# 2 37.6583 63.5156 47.5092 0.0000 -2.9985 -0.0001
# 3 61.3016 47.5092 109.1166 0.0000 -7.7078 -0.0001
# 4 0.0000 0.0000 0.0000 30.6776 0.0000 -5.4987
# 5 1.7110 -2.9985 -7.7078 0.0000 19.9819 0.0000
# 6 0.0000 -0.0001 -0.0001 -5.4987 0.0000 21.3302
#
#
#
# Elastic Compliance Matrix: (Units=1/GPa)
#
#
# Indices 1 2 3 4 5 6 
#
# 1 0.009582 -0.002429 -0.004533 0.000000 -0.002934 0.000000
# 2 -0.002429 0.023967 -0.009048 0.000000 0.000314 0.000000
# 3 -0.004533 -0.009048 0.016019 0.000000 0.005209 0.000000
# 4 0.000000 0.000000 0.000000 0.034176 0.000000 0.008810
# 5 -0.002934 0.000314 0.005209 0.000000 0.052353 0.000000
# 6 0.000000 0.000000 0.000000 0.008810 0.000000 0.049153
#
#
# Mechanical properties :
#
#
# Convention : Reuss Voigt Hill
#
# Bulk Modulus (GPa) = 56.98862 67.66657 62.32759
# Shear Modulus (GPa) = 22.40936 25.70406 24.05671
#
# Velocity S-wave (km/s) = 3.51159 3.76089 3.63838
# Velocity P-wave (km/s) = 6.91383 7.48961 7.20747
#
# Compressibility (1/GPa) = 0.01754736
#
# Stress axis : x y z
#
# Youngs Moduli (GPa) = 104.35956 41.72317 62.42705
#
# Poissons Ratio (x) = 0.10136 0.28297
# Poissons Ratio (y) = 0.25352 0.56487
# Poissons Ratio (z) = 0.47304 0.37753
#
# Static dielectric constant tensor:
#      x y z
#    x 3.505860 0.000000 -0.048690 
#    y 0.000000 3.302150 0.000000 
#    z -0.048690 0.000000 3.265660 
# 
# 
# High freq. dielectric constant tensor:
#      x y z
#    x 1.710850 0.000000 -0.007190 
#    y 0.000000 1.692760 0.000000 
#    z -0.007190 0.000000 1.696240 
# 
# From -- ./inp_files/346066.got.cif
#   From: 2010.06.25/outbox.cif.g09.slc.cpg/sg12_174_cif.got.tgz:346066.got - 2010.06.28 00:19:55.
