data_PCOD8085532
_publ_section_title
;
Structure prediction by ZEFSAII (Michael W. Deem and Ramdas Pophale) SiO2 
 PCOD8085532
Probable space group: C 2/M
;
_chemical_formula_sum "Si O2"
_cell_formula_units_Z 40
_cell_length_a 19.204524
_cell_length_b 9.103914
_cell_length_c 15.546635
_cell_angle_alpha 90.000000
_cell_angle_beta 54.686655
_cell_angle_gamma 90.000000
_cell_volume 2217.991305
_symmetry_space_group_name_H-M "C 2/M"
_symmetry_group_IT_number 12
_symmetry_cell_setting 'monoclinic'
loop_
_space_group_symop_operation_xyz
x,y,z
-x,y,-z
-x,-y,-z
x,-y,z
1/2+x,1/2+y,z
1/2-x,1/2+y,-z
1/2-x,1/2-y,-z
1/2+x,1/2-y,z
loop_
_atom_site_type_symbol
_atom_site_label
_atom_site_fract_x
_atom_site_fract_y
_atom_site_fract_z
Si Si1 0.041656 0.326251 0.602837
Si Si2 0.872183 0.326609 0.631338
Si Si3 0.188333 0.828432 0.815169
Si Si4 0.572121 0.834308 0.020426
Si Si5 0.546968 0.328808 0.774445
O O1 0.049656 0.500000 0.613144
O O2 0.103083 0.271657 0.481803
O O3 0.070843 0.239488 0.665945
O O4 0.944558 0.281895 0.648230
O O5 0.866077 0.500000 0.630411
O O6 0.781115 0.262225 0.725582
O O7 0.127218 0.798146 0.778244
O O8 0.191701 0.000000 0.835312
O O9 0.155956 0.744780 0.923288
O O10 0.538219 0.748142 0.128012
O O11 0.595411 0.000000 0.031024
O O12 0.500000 0.831593 0.000000
O O13 0.527574 0.500000 0.779146
#
# Coordination Sequence:
#
# PCOD8085532 Si02
#       5
#     8   8   8   8   8
#     4   9  17  32  52  70  92 125 162 194 227 274
#     4   8  16  32  52  70  91 125 162 193 230 275
#     4   9  17  31  50  71  96 124 155 192 234 279
#     4   9  17  30  48  70  95 123 156 193 233 277
#     4  10  19  30  47  72  99 125 153 190 237 282
#
# _framework density 18.034334999999999
#
# number of rings (size 3 to 8) (size 9 to 14) (size 15 to 20)
#    0.000    3.000    0.000    2.400    0.000    4.000 
#    0.000    5.000    0.000    0.000    0.000    0.000 
#    0.000    0.000    0.000    0.000    0.000    0.000 
#
# Total GULP energy -247966.162778 kJ/mol
# GULP energy per Si atom -12398.308139 kJ/mol
# Density = 1.799329 g / cm^3
# Si number density = 18.034335 Si / 1000 Ang^3
#
#
#
# Elastic Constant Matrix: (Units=GPa)
#
#
# Indices 1 2 3 4 5 6 
#
# 1 35.8962 18.9204 24.2973 0.0000 -20.0466 0.0000
# 2 18.9204 65.7721 25.3707 0.0000 -7.3754 0.0000
# 3 24.2973 25.3707 80.6985 0.0000 -31.2647 0.0000
# 4 0.0000 0.0000 0.0000 32.6723 0.0000 5.0585
# 5 -20.0466 -7.3754 -31.2647 0.0000 33.7632 0.0000
# 6 0.0000 0.0000 0.0000 5.0585 0.0000 15.4465
#
#
#
# Elastic Compliance Matrix: (Units=1/GPa)
#
#
# Indices 1 2 3 4 5 6 
#
# 1 0.048432 -0.010514 -0.001600 0.000000 0.024978 0.000000
# 2 -0.010514 0.019669 -0.005882 0.000000 -0.007393 0.000000
# 3 -0.001600 -0.005882 0.021609 0.000000 0.017776 0.000000
# 4 0.000000 0.000000 0.000000 0.032242 0.000000 -0.010559
# 5 0.024978 -0.007393 0.017776 0.000000 0.059294 0.000000
# 6 0.000000 0.000000 0.000000 -0.010559 0.000000 0.068198
#
#
# Mechanical properties :
#
#
# Convention : Reuss Voigt Hill
#
# Bulk Modulus (GPa) = 18.61576 35.50486 27.06031
# Shear Modulus (GPa) = 16.48309 23.96162 20.22235
#
# Velocity S-wave (km/s) = 3.02650 3.64904 3.35225
# Velocity P-wave (km/s) = 4.74950 6.12243 5.47913
#
# Compressibility (1/GPa) = 0.05371794
#
# Stress axis : x y z
#
# Youngs Moduli (GPa) = 20.64756 50.84257 46.27595
#
# Poissons Ratio (x) = 0.53458 0.07402
# Poissons Ratio (y) = 0.21710 0.27220
# Poissons Ratio (z) = 0.03303 0.29906
#
# Static dielectric constant tensor:
#      x y z
#    x 3.205170 0.000000 -0.274950 
#    y 0.000000 3.166720 0.000000 
#    z -0.274950 0.000000 3.654720 
# 
# 
# High freq. dielectric constant tensor:
#      x y z
#    x 1.671700 0.000000 -0.005110 
#    y 0.000000 1.680620 0.000000 
#    z -0.005110 0.000000 1.710350 
# 
# From -- ./inp_files/220583.got.cif
#   From: 2010.06.25/outbox.cif.g09.slc.cpg/sg12_111_cif.got.tgz:220583.got - 2010.06.28 00:19:55.
