data_PCOD8085085
_publ_section_title
;
Structure prediction by ZEFSAII (Michael W. Deem and Ramdas Pophale) SiO2 
 PCOD8085085
Probable space group: C 2/M
;
_chemical_formula_sum "Si O2"
_cell_formula_units_Z 56
_cell_length_a 27.050205
_cell_length_b 10.655473
_cell_length_c 29.266732
_cell_angle_alpha 90.000000
_cell_angle_beta 21.158762
_cell_angle_gamma 90.000000
_cell_volume 3044.869737
_symmetry_space_group_name_H-M "C 2/M"
_symmetry_group_IT_number 12
_symmetry_cell_setting 'monoclinic'
loop_
_space_group_symop_operation_xyz
x,y,z
-x,y,-z
-x,-y,-z
x,-y,z
1/2+x,1/2+y,z
1/2-x,1/2+y,-z
1/2-x,1/2-y,-z
1/2+x,1/2-y,z
loop_
_atom_site_type_symbol
_atom_site_label
_atom_site_fract_x
_atom_site_fract_y
_atom_site_fract_z
Si Si1 0.152517 0.147968 0.368175
Si Si2 0.241187 0.147216 0.115238
Si Si3 0.925254 0.640880 0.875953
Si Si4 0.483269 0.735347 0.290783
Si Si5 0.222123 0.363200 0.473624
Si Si6 0.238223 0.641210 0.628188
Si Si7 0.653007 0.850076 0.879073
O O1 0.222871 0.183922 0.354866
O O2 0.243376 0.204029 0.248596
O O3 0.000000 0.206590 0.500000
O O4 0.143380 0.000000 0.369209
O O5 0.294369 0.203631 0.117499
O O6 0.080823 0.176719 0.245581
O O7 0.266062 0.000000 0.095285
O O8 0.329088 0.203880 0.997404
O O9 0.875300 0.500000 0.907781
O O10 0.919714 0.720887 0.834405
O O11 0.076258 0.640048 0.766242
O O12 0.371209 0.636091 0.369137
O O13 0.396935 0.852299 0.385548
O O14 0.206319 0.500000 0.463280
O O15 0.200646 0.245190 0.458580
O O16 0.295206 0.500000 0.567643
O O17 0.653939 0.000000 0.878128
O O18 0.500000 0.800657 0.000000
#
# Coordination Sequence:
#
# PCOD8085085 Si02
#       7
#     8   8   8   8   8   8   8
#     4   9  17  28  45  72 103 130 163 210 260 307
#     4  10  19  29  48  75 103 130 165 213 259 306
#     4   9  17  31  48  70 100 133 166 206 257 308
#     4  10  20  32  49  70 100 136 177 213 251 304
#     4  10  21  35  51  73 104 141 177 214 257 307
#     4   9  18  32  53  76 103 137 170 208 260 315
#     4   9  17  29  45  69 102 134 163 204 262 316
#
# _framework density 18.391591999999999
#
# number of rings (size 3 to 8) (size 9 to 14) (size 15 to 20)
#    0.000    2.571    0.000    2.143    2.000    7.429 
#    0.000    0.000    0.000    1.286    0.000    0.000 
#    0.000    7.429    0.000    0.000    0.000    0.000 
#
# Total GULP energy -347046.084855 kJ/mol
# GULP energy per Si atom -12394.503031 kJ/mol
# Density = 1.834973 g / cm^3
# Si number density = 18.391592 Si / 1000 Ang^3
#
#
#
# Elastic Constant Matrix: (Units=GPa)
#
#
# Indices 1 2 3 4 5 6 
#
# 1 135.4329 29.6936 57.1706 0.0006 3.7487 -0.0007
# 2 29.6936 61.3587 18.9536 -0.0010 12.5167 -0.0003
# 3 57.1706 18.9536 103.9020 -0.0120 15.7691 0.0023
# 4 0.0006 -0.0010 -0.0120 7.4388 0.0001 0.7765
# 5 3.7487 12.5167 15.7691 0.0001 24.4200 0.0005
# 6 -0.0007 -0.0003 0.0023 0.7765 0.0005 16.8498
#
#
#
# Elastic Compliance Matrix: (Units=1/GPa)
#
#
# Indices 1 2 3 4 5 6 
#
# 1 0.010602 -0.004231 -0.005703 -0.000011 0.004223 0.000002
# 2 -0.004231 0.020316 0.000115 0.000003 -0.009838 0.000000
# 3 -0.005703 0.000115 0.013988 0.000023 -0.008216 -0.000003
# 4 -0.000011 0.000003 0.000023 0.135081 -0.000015 -0.006225
# 5 0.004223 -0.009838 -0.008216 -0.000015 0.050650 0.000000
# 6 0.000002 0.000000 -0.000003 -0.006225 0.000000 0.059635
#
#
# Mechanical properties :
#
#
# Convention : Reuss Voigt Hill
#
# Bulk Modulus (GPa) = 39.57326 56.92545 48.24936
# Shear Modulus (GPa) = 15.70689 22.73344 19.22016
#
# Velocity S-wave (km/s) = 2.92554 3.51960 3.23623
# Velocity P-wave (km/s) = 5.74243 6.89463 6.34474
#
# Compressibility (1/GPa) = 0.02526959
#
# Stress axis : x y z
#
# Youngs Moduli (GPa) = 94.32492 49.22149 71.48826
#
# Poissons Ratio (x) = 0.20823 0.40767
# Poissons Ratio (y) = 0.39904 -0.00821
# Poissons Ratio (z) = 0.53790 -0.00565
#
# Static dielectric constant tensor:
#      x y z
#    x 3.484350 0.000000 0.087690 
#    y 0.000000 2.891320 0.000010 
#    z 0.087690 0.000010 3.511490 
# 
# 
# High freq. dielectric constant tensor:
#      x y z
#    x 1.717590 0.000000 0.002260 
#    y 0.000000 1.649870 0.000000 
#    z 0.002260 0.000000 1.726020 
# 
# From -- ./inp_files/369411.got.cif
#   From: 2010.06.25/outbox.cif.g09.slc.cpg/sg12_185_cif.got.tgz:369411.got - 2010.06.28 00:19:55.
