data_PCOD8085492
_publ_section_title
;
Structure prediction by ZEFSAII (Michael W. Deem and Ramdas Pophale) SiO2 
 PCOD8085492
Probable space group: C 2/M
;
_chemical_formula_sum "Si O2"
_cell_formula_units_Z 48
_cell_length_a 8.797681
_cell_length_b 31.545420
_cell_length_c 10.567291
_cell_angle_alpha 90.000000
_cell_angle_beta 114.599389
_cell_angle_gamma 90.000000
_cell_volume 2666.533148
_symmetry_space_group_name_H-M "C 2/M"
_symmetry_group_IT_number 12
_symmetry_cell_setting 'monoclinic'
loop_
_space_group_symop_operation_xyz
x,y,z
-x,y,-z
-x,-y,-z
x,-y,z
1/2+x,1/2+y,z
1/2-x,1/2+y,-z
1/2-x,1/2-y,-z
1/2+x,1/2-y,z
loop_
_atom_site_type_symbol
_atom_site_label
_atom_site_fract_x
_atom_site_fract_y
_atom_site_fract_z
Si Si1 0.647672 0.954077 0.151101
Si Si2 0.399653 0.793482 0.657964
Si Si3 0.241689 0.206518 0.342036
Si Si4 0.496571 0.545923 0.848899
Si Si5 0.006640 0.629386 0.152705
Si Si6 0.853935 0.129386 0.847295
O O1 0.818990 0.944438 0.137981
O O2 0.603718 0.914226 0.226207
O O3 0.658307 0.000000 0.226584
O O4 0.500000 0.956916 0.000000
O O5 0.583079 0.789372 0.666158
O O6 0.265805 0.801756 0.500000
O O7 0.358114 0.750000 0.716228
O O8 0.388086 0.831981 0.752612
O O9 0.135473 0.168019 0.247388
O O10 0.431723 0.500000 0.773417
O O11 0.377510 0.585774 0.773793
O O12 0.500000 0.543084 0.000000
O O13 0.821393 0.627910 0.142786
O O14 0.000000 0.635058 0.000000
O O15 0.000000 0.135058 0.000000
#
# Coordination Sequence:
#
# PCOD8085492 Si02
#       6
#     8   8   8   8   8   8
#     4   9  16  26  42  65  93 123 154 187 224 269
#     4   9  19  35  52  69  90 120 157 192 228 273
#     4   9  19  35  52  69  90 120 157 192 228 273
#     4   9  16  26  42  65  93 123 154 187 224 269
#     4  10  19  30  47  71  97 122 151 190 231 272
#     4  10  19  30  47  71  97 122 151 190 231 272
#
# _framework density 18.000900999999999
#
# number of rings (size 3 to 8) (size 9 to 14) (size 15 to 20)
#    0.000    2.667    0.000    4.000    0.000    5.333 
#    0.000    3.333    0.000    1.000    0.000    7.000 
#    0.000    0.000    0.000    0.000    0.000    0.000 
#
# Total GULP energy -297387.461045 kJ/mol
# GULP energy per Si atom -12391.144210 kJ/mol
# Density = 1.795993 g / cm^3
# Si number density = 18.000901 Si / 1000 Ang^3
#
#
#
# Elastic Constant Matrix: (Units=GPa)
#
#
# Indices 1 2 3 4 5 6 
#
# 1 69.4573 56.5841 22.8519 0.0000 -0.2391 0.0000
# 2 56.5841 218.5388 64.7970 0.0000 0.1539 0.0000
# 3 22.8519 64.7970 47.5439 0.0000 -0.1722 0.0000
# 4 0.0000 0.0000 0.0000 6.4273 0.0000 -0.5392
# 5 -0.2391 0.1539 -0.1722 0.0000 16.9333 0.0000
# 6 0.0000 0.0000 0.0000 -0.5392 0.0000 35.1705
#
#
#
# Elastic Compliance Matrix: (Units=1/GPa)
#
#
# Indices 1 2 3 4 5 6 
#
# 1 0.018691 -0.003652 -0.004006 0.000000 0.000256 0.000000
# 2 -0.003652 0.008393 -0.009684 0.000000 -0.000226 0.000000
# 3 -0.004006 -0.009684 0.036158 0.000000 0.000399 0.000000
# 4 0.000000 0.000000 0.000000 0.155787 0.000000 0.002388
# 5 0.000256 -0.000226 0.000399 0.000000 0.059065 0.000000
# 6 0.000000 0.000000 0.000000 0.002388 0.000000 0.028470
#
#
# Mechanical properties :
#
#
# Convention : Reuss Voigt Hill
#
# Bulk Modulus (GPa) = 35.01535 69.33398 52.17466
# Shear Modulus (GPa) = 14.25445 24.46001 19.35723
#
# Velocity S-wave (km/s) = 2.81708 3.69022 3.28281
# Velocity P-wave (km/s) = 5.48411 7.53376 6.58912
#
# Compressibility (1/GPa) = 0.02855890
#
# Stress axis : x y z
#
# Youngs Moduli (GPa) = 53.50086 119.14771 27.65614
#
# Poissons Ratio (x) = 0.43513 0.11078
# Poissons Ratio (y) = 0.19539 0.26783
# Poissons Ratio (z) = 0.21431 1.15384
#
# Static dielectric constant tensor:
#      x y z
#    x 3.374050 0.000000 -0.007150 
#    y 0.000000 4.333550 0.000000 
#    z -0.007150 0.000000 2.992790 
# 
# 
# High freq. dielectric constant tensor:
#      x y z
#    x 1.705180 0.000000 -0.001260 
#    y 0.000000 1.726800 0.000000 
#    z -0.001260 0.000000 1.638150 
# 
# From -- ./inp_files/124858.got.cif
#   From: 2010.06.25/outbox.cif.g09.slc.cpg/sg12_63_cif.got.tgz:124858.got - 2010.06.28 00:19:55.
