data_PCOD8085033
_publ_section_title
;
Structure prediction by ZEFSAII (Michael W. Deem and Ramdas Pophale) SiO2 
 PCOD8085033
Probable space group: C 2/M
;
_chemical_formula_sum "Si O2"
_cell_formula_units_Z 56
_cell_length_a 20.405166
_cell_length_b 8.984748
_cell_length_c 24.461971
_cell_angle_alpha 90.000000
_cell_angle_beta 134.610594
_cell_angle_gamma 90.000000
_cell_volume 3192.670931
_symmetry_space_group_name_H-M "C 2/M"
_symmetry_group_IT_number 12
_symmetry_cell_setting 'monoclinic'
loop_
_space_group_symop_operation_xyz
x,y,z
-x,y,-z
-x,-y,-z
x,-y,z
1/2+x,1/2+y,z
1/2-x,1/2+y,-z
1/2-x,1/2-y,-z
1/2+x,1/2-y,z
loop_
_atom_site_type_symbol
_atom_site_label
_atom_site_fract_x
_atom_site_fract_y
_atom_site_fract_z
Si Si1 0.721110 0.825567 0.038794
Si Si2 0.842022 0.174191 0.798520
Si Si3 0.938451 0.831983 0.343801
Si Si4 0.699988 0.824975 0.810241
Si Si5 0.573386 0.831873 0.494430
Si Si6 0.292310 0.667520 0.355067
Si Si7 0.511943 0.826961 0.945103
O O1 0.781256 0.754355 0.121807
O O2 0.741764 0.000000 0.048879
O O3 0.750000 0.750000 0.000000
O O4 0.614255 0.792516 0.985679
O O5 0.782648 0.214135 0.817331
O O6 0.799019 0.250362 0.719701
O O7 0.944577 0.235075 0.866469
O O8 0.844463 0.000000 0.789037
O O9 0.896042 0.738144 0.269096
O O10 0.867944 0.832157 0.352298
O O11 0.033168 0.755205 0.418519
O O12 0.959163 0.000000 0.336566
O O13 0.689897 0.000000 0.813454
O O14 0.500000 0.830477 0.500000
O O15 0.667467 0.752783 0.568701
O O16 0.596320 0.000000 0.490303
O O17 0.266648 0.500000 0.357224
O O18 0.485904 0.000000 0.925486
O O19 0.500000 0.770299 0.000000
#
# Coordination Sequence:
#
# PCOD8085033 Si02
#       7
#     8   8   8   8   8   8   8
#     4  11  23  38  55  74 100 132 166 208 255 303
#     4  10  19  29  46  71  97 125 162 207 249 292
#     4   9  16  25  39  59  85 121 162 199 240 292
#     4  10  19  31  47  69  96 126 163 205 250 296
#     4   9  15  23  35  54  84 120 158 198 242 290
#     4   9  16  25  38  57  87 124 160 197 241 294
#     4  10  20  35  54  74  98 129 167 207 250 301
#
# _framework density 17.540172999999999
#
# number of rings (size 3 to 8) (size 9 to 14) (size 15 to 20)
#    0.000    2.286    1.429    2.571    0.000    7.714 
#    0.000    0.000    0.000    0.000    0.000    0.000 
#    0.000    1.143    0.000    4.286    0.000    7.000 
#
# Total GULP energy -347252.196712 kJ/mol
# GULP energy per Si atom -12401.864168 kJ/mol
# Density = 1.750025 g / cm^3
# Si number density = 17.540173 Si / 1000 Ang^3
#
#
#
# Elastic Constant Matrix: (Units=GPa)
#
#
# Indices 1 2 3 4 5 6 
#
# 1 43.8449 35.9745 35.9050 0.0000 -2.9597 0.0000
# 2 35.9745 130.4989 86.1564 0.0000 -1.0772 0.0000
# 3 35.9050 86.1564 176.7606 0.0000 2.6761 0.0000
# 4 0.0000 0.0000 0.0000 41.8779 0.0000 -0.3133
# 5 -2.9597 -1.0772 2.6761 0.0000 11.1863 0.0000
# 6 0.0000 0.0000 0.0000 -0.3133 0.0000 16.2397
#
#
#
# Elastic Compliance Matrix: (Units=1/GPa)
#
#
# Indices 1 2 3 4 5 6 
#
# 1 0.031368 -0.006318 -0.003421 0.000000 0.008509 0.000000
# 2 -0.006318 0.012637 -0.004887 0.000000 0.000714 0.000000
# 3 -0.003421 -0.004887 0.008787 0.000000 -0.003478 0.000000
# 4 0.000000 0.000000 0.000000 0.023882 0.000000 0.000461
# 5 0.008509 0.000714 -0.003478 0.000000 0.092547 0.000000
# 6 0.000000 0.000000 0.000000 0.000461 0.000000 0.061586
#
#
# Mechanical properties :
#
#
# Convention : Reuss Voigt Hill
#
# Bulk Modulus (GPa) = 42.48217 74.13068 58.30643
# Shear Modulus (GPa) = 18.66332 26.73204 22.69768
#
# Velocity S-wave (km/s) = 3.26549 3.90814 3.60118
# Velocity P-wave (km/s) = 6.20406 7.91959 7.11373
#
# Compressibility (1/GPa) = 0.02353929
#
# Stress axis : x y z
#
# Youngs Moduli (GPa) = 31.88011 79.13320 113.80708
#
# Poissons Ratio (x) = 0.50000 0.38930
# Poissons Ratio (y) = 0.20143 0.55616
# Poissons Ratio (z) = 0.10905 0.38671
#
# Static dielectric constant tensor:
#      x y z
#    x 1.734390 0.000000 -0.161830 
#    y 0.000000 3.419990 0.000000 
#    z -0.161830 0.000000 3.375490 
# 
# 
# High freq. dielectric constant tensor:
#      x y z
#    x 1.599360 0.000000 0.005600 
#    y 0.000000 1.696530 0.000000 
#    z 0.005600 0.000000 1.698270 
# 
# From -- ./inp_files/280223.got.cif
#   From: 2010.06.25/outbox.cif.g09.slc.cpg/sg12_141_cif.got.tgz:280223.got - 2010.06.28 00:19:55.
