data_PCOD8085063
_publ_section_title
;
Structure prediction by ZEFSAII (Michael W. Deem and Ramdas Pophale) SiO2 
 PCOD8085063
Probable space group: C 2/M
;
_chemical_formula_sum "Si O2"
_cell_formula_units_Z 56
_cell_length_a 8.444615
_cell_length_b 31.233061
_cell_length_c 12.106938
_cell_angle_alpha 90.000000
_cell_angle_beta 114.841942
_cell_angle_gamma 90.000000
_cell_volume 2897.751155
_symmetry_space_group_name_H-M "C 2/M"
_symmetry_group_IT_number 12
_symmetry_cell_setting 'monoclinic'
loop_
_space_group_symop_operation_xyz
x,y,z
-x,y,-z
-x,-y,-z
x,-y,z
1/2+x,1/2+y,z
1/2-x,1/2+y,-z
1/2-x,1/2-y,-z
1/2+x,1/2-y,z
loop_
_atom_site_type_symbol
_atom_site_label
_atom_site_fract_x
_atom_site_fract_y
_atom_site_fract_z
Si Si1 0.699003 0.656499 0.404930
Si Si2 0.213463 0.547138 0.407250
Si Si3 0.954853 0.770836 0.357934
Si Si4 0.112717 0.311814 0.321235
Si Si5 0.512723 0.427654 0.343804
Si Si6 0.580293 0.110892 0.718004
Si Si7 0.126073 0.049538 0.137930
O O1 0.598724 0.699719 0.338811
O O2 0.810199 0.667165 0.545272
O O3 0.547190 0.621896 0.385031
O O4 0.819585 0.637880 0.345176
O O5 0.133517 0.500000 0.366243
O O6 0.338565 0.545180 0.550287
O O7 0.320773 0.560371 0.329299
O O8 0.058071 0.580152 0.383185
O O9 0.761897 0.791200 0.287447
O O10 0.000000 0.767408 0.500000
O O11 0.967689 0.724032 0.308094
O O12 0.014672 0.352395 0.234235
O O13 0.521243 0.438669 0.217681
O O14 0.707282 0.080853 0.827141
O O15 0.186212 0.000000 0.155987
O O16 0.000000 0.059437 0.000000
#
# Coordination Sequence:
#
# PCOD8085063 Si02
#       7
#     8   8   8   8   8   8   8
#     4  10  19  30  46  75 109 145 178 217 265 325
#     4  11  21  33  52  82 113 142 180 221 281 342
#     4  10  19  29  47  72 112 151 178 210 265 330
#     4  11  19  31  46  75 109 144 181 218 267 331
#     4  10  20  35  54  79 112 148 177 223 279 327
#     4  11  21  33  53  77 107 142 180 227 276 325
#     4  10  22  40  58  77 104 144 193 238 276 318
#
# _framework density 19.325332
#
# number of rings (size 3 to 8) (size 9 to 14) (size 15 to 20)
#    0.000    1.571    1.429    6.857    6.000    0.000 
#    0.000    2.857    0.000    2.571    0.000    9.000 
#    0.000    0.000    0.000    0.286    0.000    0.000 
#
# Total GULP energy -347074.152831 kJ/mol
# GULP energy per Si atom -12395.505458 kJ/mol
# Density = 1.928135 g / cm^3
# Si number density = 19.325332 Si / 1000 Ang^3
#
#
#
# Elastic Constant Matrix: (Units=GPa)
#
#
# Indices 1 2 3 4 5 6 
#
# 1 90.5108 51.5115 36.8584 0.0000 7.3878 0.0000
# 2 51.5115 163.9390 34.6402 0.0000 12.7321 0.0000
# 3 36.8584 34.6402 68.8473 0.0000 0.9400 0.0000
# 4 0.0000 0.0000 0.0000 11.6255 0.0000 9.7381
# 5 7.3878 12.7321 0.9400 0.0000 15.8967 0.0000
# 6 0.0000 0.0000 0.0000 9.7381 0.0000 37.0044
#
#
#
# Elastic Compliance Matrix: (Units=1/GPa)
#
#
# Indices 1 2 3 4 5 6 
#
# 1 0.016073 -0.003243 -0.006912 0.000000 -0.004464 0.000000
# 2 -0.003243 0.007951 -0.002200 0.000000 -0.004731 0.000000
# 3 -0.006912 -0.002200 0.019280 0.000000 0.003834 0.000000
# 4 0.000000 0.000000 0.000000 0.110341 0.000000 -0.029038
# 5 -0.004464 -0.004731 0.003834 0.000000 0.068543 0.000000
# 6 0.000000 0.000000 0.000000 -0.029038 0.000000 0.034665
#
#
# Mechanical properties :
#
#
# Convention : Reuss Voigt Hill
#
# Bulk Modulus (GPa) = 53.78095 63.25747 58.51921
# Shear Modulus (GPa) = 17.37544 26.25779 21.81662
#
# Velocity S-wave (km/s) = 3.00176 3.69009 3.36357
# Velocity P-wave (km/s) = 6.31694 7.13860 6.74030
#
# Compressibility (1/GPa) = 0.01859394
#
# Stress axis : x y z
#
# Youngs Moduli (GPa) = 62.21454 125.76894 51.86740
#
# Poissons Ratio (x) = 0.40789 0.35853
# Poissons Ratio (y) = 0.20177 0.11409
# Poissons Ratio (z) = 0.43005 0.27665
#
# Static dielectric constant tensor:
#      x y z
#    x 3.806280 0.000000 0.169350 
#    y 0.000000 4.144550 0.000000 
#    z 0.169350 0.000000 2.862490 
# 
# 
# High freq. dielectric constant tensor:
#      x y z
#    x 1.764030 0.000000 0.011670 
#    y 0.000000 1.789240 0.000000 
#    z 0.011670 0.000000 1.662350 
# 
# From -- ./inp_files/125833.got.cif
#   From: 2010.06.25/outbox.cif.g09.slc.cpg/sg12_63_cif.got.tgz:125833.got - 2010.06.28 00:19:55.
