data_PCOD8085607
_publ_section_title
;
Structure prediction by ZEFSAII (Michael W. Deem and Ramdas Pophale) SiO2 
 PCOD8085607
Probable space group: C 2/M
;
_chemical_formula_sum "Si O2"
_cell_formula_units_Z 48
_cell_length_a 20.208526
_cell_length_b 9.008589
_cell_length_c 26.323236
_cell_angle_alpha 90.000000
_cell_angle_beta 141.121022
_cell_angle_gamma 90.000000
_cell_volume 3007.926587
_symmetry_space_group_name_H-M "C 2/M"
_symmetry_group_IT_number 12
_symmetry_cell_setting 'monoclinic'
loop_
_space_group_symop_operation_xyz
x,y,z
-x,y,-z
-x,-y,-z
x,-y,z
1/2+x,1/2+y,z
1/2-x,1/2+y,-z
1/2-x,1/2-y,-z
1/2+x,1/2-y,z
loop_
_atom_site_type_symbol
_atom_site_label
_atom_site_fract_x
_atom_site_fract_y
_atom_site_fract_z
Si Si1 0.679124 0.167785 0.917130
Si Si2 0.586054 0.674174 0.774440
Si Si3 0.551444 0.832216 0.235530
Si Si4 0.255140 0.175681 0.325302
Si Si5 0.075614 0.336743 0.497204
Si Si6 0.409185 0.327057 0.340094
O O1 0.682606 0.254204 0.864832
O O2 0.556548 0.167515 0.862571
O O3 0.720633 0.000000 0.934531
O O4 0.750000 0.250000 0.000000
O O5 0.580648 0.500000 0.781558
O O6 0.475415 0.747864 0.727293
O O7 0.604935 0.711013 0.727199
O O8 0.639806 0.746592 0.256589
O O9 0.588686 0.000000 0.269464
O O10 0.311750 0.216791 0.412963
O O11 0.318937 0.239421 0.315774
O O12 0.247706 0.000000 0.313848
O O13 0.085716 0.500000 0.477888
O O14 0.000000 0.348287 0.500000
O O15 0.026982 0.222759 0.427507
O O16 0.397098 0.500000 0.344446
#
# Coordination Sequence:
#
# PCOD8085607 Si02
#       6
#     8   8   8   8   8   8
#     4   9  18  31  52  76  96 123 156 193 234 284
#     4   9  18  32  49  71  99 126 158 196 238 284
#     4   9  19  32  49  73  97 123 159 198 238 284
#     4  10  19  31  49  70  96 130 163 200 242 282
#     4   8  16  29  44  65  92 126 166 201 236 280
#     4  10  19  30  48  72  97 128 163 201 240 279
#
# _framework density 15.957836
#
# number of rings (size 3 to 8) (size 9 to 14) (size 15 to 20)
#    1.000    1.833    0.000    3.000    0.000    6.333 
#    0.000    0.833    0.000    1.000    0.000    7.000 
#    0.000    0.000    0.000    0.000    0.000    0.000 
#
# Total GULP energy -297352.934974 kJ/mol
# GULP energy per Si atom -12389.705624 kJ/mol
# Density = 1.592152 g / cm^3
# Si number density = 15.957836 Si / 1000 Ang^3
#
#
#
# Elastic Constant Matrix: (Units=GPa)
#
#
# Indices 1 2 3 4 5 6 
#
# 1 70.7006 54.6448 40.8885 0.0000 -2.3513 0.0000
# 2 54.6448 124.2379 60.0280 0.0000 -8.3489 0.0001
# 3 40.8885 60.0280 97.0750 0.0000 -9.3643 0.0000
# 4 0.0000 0.0000 0.0000 30.6381 0.0000 0.2081
# 5 -2.3513 -8.3489 -9.3643 0.0000 21.3051 0.0000
# 6 0.0000 0.0001 0.0000 0.2081 0.0000 25.4458
#
#
#
# Elastic Compliance Matrix: (Units=1/GPa)
#
#
# Indices 1 2 3 4 5 6 
#
# 1 0.023102 -0.007868 -0.005135 0.000000 -0.002790 0.000000
# 2 -0.007868 0.014201 -0.005236 0.000000 0.002395 0.000000
# 3 -0.005135 -0.005236 0.016133 0.000000 0.004473 0.000000
# 4 0.000000 0.000000 0.000000 0.032641 0.000000 -0.000267
# 5 -0.002790 0.002395 0.004473 0.000000 0.049534 0.000000
# 6 0.000000 0.000000 0.000000 -0.000267 0.000000 0.039301
#
#
# Mechanical properties :
#
#
# Convention : Reuss Voigt Hill
#
# Bulk Modulus (GPa) = 58.96694 67.01513 62.99103
# Shear Modulus (GPa) = 23.03703 24.57460 23.80582
#
# Velocity S-wave (km/s) = 3.80362 3.92850 3.86657
# Velocity P-wave (km/s) = 7.50480 7.91605 7.71316
#
# Compressibility (1/GPa) = 0.01695865
#
# Stress axis : x y z
#
# Youngs Moduli (GPa) = 43.28642 70.41985 61.98328
#
# Poissons Ratio (x) = 0.55405 0.31826
# Poissons Ratio (y) = 0.34057 0.32455
# Poissons Ratio (z) = 0.22226 0.36873
#
# Static dielectric constant tensor:
#      x y z
#    x 2.709510 0.000000 0.087700 
#    y 0.000000 3.168590 0.000000 
#    z 0.087700 0.000000 3.044950 
# 
# 
# High freq. dielectric constant tensor:
#      x y z
#    x 1.578650 0.000000 0.003670 
#    y 0.000000 1.633710 0.000000 
#    z 0.003670 0.000000 1.599000 
# 
# From -- ./inp_files/345693.got.cif
#   From: 2010.06.25/outbox.cif.g09.slc.cpg/sg12_173_cif.got.tgz:345693.got - 2010.06.28 00:19:55.
