data_PCOD8085252
_publ_section_title
;
Structure prediction by ZEFSAII (Michael W. Deem and Ramdas Pophale) SiO2 
 PCOD8085252
Probable space group: C 2/M
;
_chemical_formula_sum "Si O2"
_cell_formula_units_Z 48
_cell_length_a 22.770619
_cell_length_b 8.986503
_cell_length_c 19.875493
_cell_angle_alpha 90.000000
_cell_angle_beta 136.238144
_cell_angle_gamma 90.000000
_cell_volume 2813.051681
_symmetry_space_group_name_H-M "C 2/M"
_symmetry_group_IT_number 12
_symmetry_cell_setting 'monoclinic'
loop_
_space_group_symop_operation_xyz
x,y,z
-x,y,-z
-x,-y,-z
x,-y,z
1/2+x,1/2+y,z
1/2-x,1/2+y,-z
1/2-x,1/2-y,-z
1/2+x,1/2-y,z
loop_
_atom_site_type_symbol
_atom_site_label
_atom_site_fract_x
_atom_site_fract_y
_atom_site_fract_z
Si Si1 0.552307 0.674255 0.819335
Si Si2 0.661739 0.323870 0.784456
Si Si3 0.130157 0.824245 0.361617
Si Si4 0.293927 0.324635 0.973032
Si Si5 0.690712 0.174180 0.541637
Si Si6 0.903621 0.327054 0.401808
O O1 0.546683 0.500000 0.803283
O O2 0.599999 0.737322 0.792466
O O3 0.456263 0.737665 0.744811
O O4 0.605027 0.708314 0.931842
O O5 0.672316 0.500000 0.794111
O O6 0.755525 0.250663 0.873991
O O7 0.624094 0.273452 0.682910
O O8 0.210704 0.775461 0.383048
O O9 0.134760 0.757125 0.439881
O O10 0.128097 0.000000 0.367971
O O11 0.275919 0.500000 0.956842
O O12 0.250000 0.250000 0.000000
O O13 0.657114 0.218739 0.586916
O O14 0.679782 0.000000 0.519458
O O15 0.893374 0.500000 0.374494
O O16 0.000000 0.288976 0.500000
#
# Coordination Sequence:
#
# PCOD8085252 Si02
#       6
#     8   8   8   8   8   8
#     4   8  15  27  45  68  89 111 143 182 219 258
#     4  10  19  30  45  67  92 118 149 182 221 265
#     4   9  16  29  48  66  87 114 145 182 219 257
#     4   9  16  28  45  66  92 118 146 181 223 265
#     4   9  18  30  44  65  90 116 147 180 217 260
#     4  10  20  32  45  64  92 122 149 179 218 264
#
# _framework density 17.063320000000001
#
# number of rings (size 3 to 8) (size 9 to 14) (size 15 to 20)
#    0.000    2.833    0.000    3.000    0.000    1.000 
#    0.000    4.167    0.000    1.000    0.000    7.000 
#    0.000    0.000    0.000    0.000    0.000    0.000 
#
# Total GULP energy -297418.304724 kJ/mol
# GULP energy per Si atom -12392.429364 kJ/mol
# Density = 1.702448 g / cm^3
# Si number density = 17.063320 Si / 1000 Ang^3
#
#
#
# Elastic Constant Matrix: (Units=GPa)
#
#
# Indices 1 2 3 4 5 6 
#
# 1 75.1328 23.3477 56.7981 0.0000 10.4402 0.0000
# 2 23.3477 53.2792 46.2547 0.0000 3.4937 0.0000
# 3 56.7981 46.2547 146.3040 0.0000 21.7105 0.0000
# 4 0.0000 0.0000 0.0000 31.5919 0.0000 -3.6087
# 5 10.4402 3.4937 21.7105 0.0000 26.8157 0.0000
# 6 0.0000 0.0000 0.0000 -3.6087 0.0000 14.7847
#
#
#
# Elastic Compliance Matrix: (Units=1/GPa)
#
#
# Indices 1 2 3 4 5 6 
#
# 1 0.019206 -0.002857 -0.006249 0.000000 -0.002046 0.000000
# 2 -0.002857 0.026621 -0.007908 0.000000 0.004046 0.000000
# 3 -0.006249 -0.007908 0.012783 0.000000 -0.006886 0.000000
# 4 0.000000 0.000000 0.000000 0.032562 0.000000 0.007948
# 5 -0.002046 0.004046 -0.006886 0.000000 0.043136 0.000000
# 6 0.000000 0.000000 0.000000 0.007948 0.000000 0.069578
#
#
# Mechanical properties :
#
#
# Convention : Reuss Voigt Hill
#
# Bulk Modulus (GPa) = 40.67972 58.61302 49.64637
# Shear Modulus (GPa) = 20.31637 24.52616 22.42126
#
# Velocity S-wave (km/s) = 3.45432 3.79537 3.62885
# Velocity P-wave (km/s) = 6.30888 7.32334 6.83496
#
# Compressibility (1/GPa) = 0.02458227
#
# Stress axis : x y z
#
# Youngs Moduli (GPa) = 52.06659 37.56480 78.22813
#
# Poissons Ratio (x) = 0.10731 0.48888
# Poissons Ratio (y) = 0.14874 0.61860
# Poissons Ratio (z) = 0.32539 0.29705
#
# Static dielectric constant tensor:
#      x y z
#    x 3.155650 0.000000 0.415960 
#    y 0.000000 3.111550 0.000000 
#    z 0.415960 0.000000 3.665370 
# 
# 
# High freq. dielectric constant tensor:
#      x y z
#    x 1.627730 0.000000 0.019840 
#    y 0.000000 1.648710 0.000000 
#    z 0.019840 0.000000 1.668990 
# 
# From -- ./inp_files/280552.got.cif
#   From: 2010.06.25/outbox.cif.g09.slc.cpg/sg12_141_cif.got.tgz:280552.got - 2010.06.28 00:19:55.
