data_PCOD8085845
_publ_section_title
;
Structure prediction by ZEFSAII (Michael W. Deem and Ramdas Pophale) SiO2 
 PCOD8085845
Probable space group: C 2/M
;
_chemical_formula_sum "Si O2"
_cell_formula_units_Z 56
_cell_length_a 14.079656
_cell_length_b 13.999700
_cell_length_c 27.893966
_cell_angle_alpha 90.000000
_cell_angle_beta 33.741746
_cell_angle_gamma 90.000000
_cell_volume 3053.981209
_symmetry_space_group_name_H-M "C 2/M"
_symmetry_group_IT_number 12
_symmetry_cell_setting 'monoclinic'
loop_
_space_group_symop_operation_xyz
x,y,z
-x,y,-z
-x,-y,-z
x,-y,z
1/2+x,1/2+y,z
1/2-x,1/2+y,-z
1/2-x,1/2-y,-z
1/2+x,1/2-y,z
loop_
_atom_site_type_symbol
_atom_site_label
_atom_site_fract_x
_atom_site_fract_y
_atom_site_fract_z
Si Si1 0.071366 0.888127 0.606376
Si Si2 0.781978 0.111314 0.796335
Si Si3 0.934566 0.891426 0.245225
Si Si4 0.295717 0.205756 0.588536
Si Si5 0.042684 0.278468 0.037521
Si Si6 0.127775 0.888005 0.070330
Si Si7 0.838588 0.896615 0.535408
O O1 0.226730 0.862738 0.576111
O O2 0.102340 0.849152 0.539958
O O3 0.890403 0.853897 0.704406
O O4 0.064224 0.000000 0.605288
O O5 0.615356 0.176443 0.867610
O O6 0.895000 0.130304 0.796034
O O7 0.729362 0.000000 0.815144
O O8 0.776637 0.825903 0.329295
O O9 0.974713 0.872455 0.172734
O O10 0.877150 0.000000 0.277954
O O11 0.500000 0.203556 0.500000
O O12 0.225830 0.314221 0.608027
O O13 0.086215 0.174046 0.040674
O O14 0.197952 0.352073 0.978467
O O15 0.000000 0.264537 0.000000
O O16 0.145265 0.000000 0.049250
O O17 0.000000 0.917710 0.500000
O O18 0.741758 0.000000 0.570051
#
# Coordination Sequence:
#
# PCOD8085845 Si02
#       7
#     8   8   8   8   8   8   8
#     4   9  18  32  50  76 105 133 171 221 266 309
#     4   9  17  31  55  81 103 133 176 228 268 304
#     4   9  18  34  54  76 103 134 173 223 268 311
#     4  10  19  30  51  77 101 134 173 218 266 309
#     4  11  21  34  59  87 109 143 184 220 264 325
#     4  10  22  38  56  83 116 144 177 222 272 321
#     4   9  18  32  48  67  96 135 176 214 260 309
#
# _framework density 18.33672
#
# number of rings (size 3 to 8) (size 9 to 14) (size 15 to 20)
#    0.000    2.429    1.429    2.143    0.000    4.286 
#    0.000    0.000    0.000   10.286    0.000    0.000 
#    0.000    0.000    0.000    0.000    0.000    0.000 
#
# Total GULP energy -346995.972609 kJ/mol
# GULP energy per Si atom -12392.713307 kJ/mol
# Density = 1.829499 g / cm^3
# Si number density = 18.336720 Si / 1000 Ang^3
#
#
#
# Elastic Constant Matrix: (Units=GPa)
#
#
# Indices 1 2 3 4 5 6 
#
# 1 67.7397 21.6915 30.4637 -0.0002 4.7397 0.0001
# 2 21.6915 79.7229 60.5011 -0.0006 1.0845 0.0002
# 3 30.4637 60.5011 96.8453 -0.0008 -5.2261 0.0003
# 4 -0.0002 -0.0006 -0.0008 33.0557 0.0005 -0.4698
# 5 4.7397 1.0845 -5.2261 0.0005 20.1623 -0.0005
# 6 0.0001 0.0002 0.0003 -0.4698 -0.0005 18.8448
#
#
#
# Elastic Compliance Matrix: (Units=1/GPa)
#
#
# Indices 1 2 3 4 5 6 
#
# 1 0.017835 -0.000550 -0.005569 0.000000 -0.005607 0.000000
# 2 -0.000550 0.024422 -0.015363 0.000000 -0.005166 0.000000
# 3 -0.005569 -0.015363 0.022099 0.000000 0.007864 0.000000
# 4 0.000000 0.000000 0.000000 0.030263 -0.000001 0.000754
# 5 -0.005607 -0.005166 0.007864 -0.000001 0.053232 0.000001
# 6 0.000000 0.000000 0.000000 0.000754 0.000001 0.053084
#
#
# Mechanical properties :
#
#
# Convention : Reuss Voigt Hill
#
# Bulk Modulus (GPa) = 46.74467 52.18006 49.46237
# Shear Modulus (GPa) = 19.91797 23.18934 21.55366
#
# Velocity S-wave (km/s) = 3.29938 3.56004 3.43218
# Velocity P-wave (km/s) = 6.32948 6.73920 6.53755
#
# Compressibility (1/GPa) = 0.02139281
#
# Stress axis : x y z
#
# Youngs Moduli (GPa) = 56.06821 40.94676 45.25030
#
# Poissons Ratio (x) = 0.02252 0.25201
# Poissons Ratio (y) = 0.03084 0.69516
# Poissons Ratio (z) = 0.31226 0.62905
#
# Static dielectric constant tensor:
#      x y z
#    x 8.858120 -0.000010 2.431100 
#    y -0.000010 3.590730 0.000000 
#    z 2.431100 0.000000 4.386390 
# 
# 
# High freq. dielectric constant tensor:
#      x y z
#    x 1.694920 0.000000 0.015210 
#    y 0.000000 1.715560 0.000000 
#    z 0.015210 0.000000 1.703900 
# 
# From -- ./inp_files/361417.got.cif
#   From: 2010.06.25/outbox.cif.g09.slc.cpg/sg12_181_cif.got.tgz:361417.got - 2010.06.28 00:19:55.
