data_PCOD8085498
_publ_section_title
;
Structure prediction by ZEFSAII (Michael W. Deem and Ramdas Pophale) SiO2 
 PCOD8085498
Probable space group: C 2/M
;
_chemical_formula_sum "Si O2"
_cell_formula_units_Z 48
_cell_length_a 32.217935
_cell_length_b 8.903383
_cell_length_c 14.077418
_cell_angle_alpha 90.000000
_cell_angle_beta 43.818468
_cell_angle_gamma 90.000000
_cell_volume 2795.874231
_symmetry_space_group_name_H-M "C 2/M"
_symmetry_group_IT_number 12
_symmetry_cell_setting 'monoclinic'
loop_
_space_group_symop_operation_xyz
x,y,z
-x,y,-z
-x,-y,-z
x,-y,z
1/2+x,1/2+y,z
1/2-x,1/2+y,-z
1/2-x,1/2-y,-z
1/2+x,1/2-y,z
loop_
_atom_site_type_symbol
_atom_site_label
_atom_site_fract_x
_atom_site_fract_y
_atom_site_fract_z
Si Si1 0.556288 0.674161 0.474267
Si Si2 0.433781 0.663860 0.149711
Si Si3 0.484406 0.679459 0.253142
Si Si4 0.826154 0.323985 0.795476
Si Si5 0.611037 0.320242 0.969027
Si Si6 0.208001 0.676316 0.936922
O O1 0.500000 0.699136 0.500000
O O2 0.575576 0.500000 0.444466
O O3 0.539376 0.735524 0.606489
O O4 0.609699 0.774278 0.347500
O O5 0.405233 0.500000 0.214891
O O6 0.440639 0.746203 0.241354
O O7 0.500000 0.643515 0.000000
O O8 0.394333 0.742328 0.131586
O O9 0.483576 0.500000 0.248232
O O10 0.552896 0.734124 0.125070
O O11 0.817259 0.500000 0.795601
O O12 0.775268 0.239253 0.819438
O O13 0.821312 0.278915 0.914014
O O14 0.615312 0.500000 0.962468
O O15 0.670247 0.250515 0.915466
O O16 0.209796 0.500000 0.918054
#
# Coordination Sequence:
#
# PCOD8085498 Si02
#       6
#     8   8   8   8   8   8
#     4  10  19  30  47  71  98 126 153 183 222 269
#     4   7  11  21  40  67  94 120 152 187 221 260
#     4   8  14  25  43  69  99 127 153 183 222 268
#     4  10  21  35  49  66  90 121 155 189 226 270
#     4   9  15  26  48  73  94 119 154 191 224 265
#     4  10  20  33  49  68  91 118 149 190 236 276
#
# _framework density 17.168154999999999
#
# number of rings (size 3 to 8) (size 9 to 14) (size 15 to 20)
#    0.000    3.000    0.000    4.000    0.000    3.667 
#    0.000    0.833    0.000    6.500    0.000    0.000 
#    0.000    0.000    0.000    0.000    0.000    0.000 
#
# Total GULP energy -297385.995038 kJ/mol
# GULP energy per Si atom -12391.083127 kJ/mol
# Density = 1.712908 g / cm^3
# Si number density = 17.168155 Si / 1000 Ang^3
#
#
#
# Elastic Constant Matrix: (Units=GPa)
#
#
# Indices 1 2 3 4 5 6 
#
# 1 142.8747 30.3276 34.8400 -0.0001 5.7239 0.0001
# 2 30.3276 31.9894 14.1226 -0.0001 -0.7857 0.0003
# 3 34.8400 14.1226 59.9028 0.0000 5.2069 0.0001
# 4 -0.0001 -0.0001 0.0000 21.0935 0.0000 -4.5611
# 5 5.7239 -0.7857 5.2069 0.0000 25.8584 0.0000
# 6 0.0001 0.0003 0.0001 -4.5611 0.0000 13.4809
#
#
#
# Elastic Compliance Matrix: (Units=1/GPa)
#
#
# Indices 1 2 3 4 5 6 
#
# 1 0.009539 -0.007473 -0.003647 0.000000 -0.001604 0.000000
# 2 -0.007473 0.040942 -0.005657 0.000000 0.004037 -0.000001
# 3 -0.003647 -0.005657 0.020451 0.000000 -0.003483 0.000000
# 4 0.000000 0.000000 0.000000 0.051150 0.000000 0.017306
# 5 -0.001604 0.004037 -0.003483 0.000000 0.039851 0.000000
# 6 0.000000 -0.000001 0.000000 0.017306 0.000000 0.080035
#
#
# Mechanical properties :
#
#
# Convention : Reuss Voigt Hill
#
# Bulk Modulus (GPa) = 26.75336 43.70528 35.22932
# Shear Modulus (GPa) = 17.36231 22.45165 19.90698
#
# Velocity S-wave (km/s) = 3.18356 3.62021 3.40888
# Velocity P-wave (km/s) = 5.39725 6.55644 6.00489
#
# Compressibility (1/GPa) = 0.03737848
#
# Stress axis : x y z
#
# Youngs Moduli (GPa) = 104.83394 24.42505 48.89713
#
# Poissons Ratio (x) = 0.18252 0.17831
# Poissons Ratio (y) = 0.78341 0.27661
# Poissons Ratio (z) = 0.38230 0.13817
#
# Static dielectric constant tensor:
#      x y z
#    x 3.620730 0.000000 0.247490 
#    y 0.000000 2.848040 0.000000 
#    z 0.247490 0.000000 3.046180 
# 
# 
# High freq. dielectric constant tensor:
#      x y z
#    x 1.680770 0.000000 0.007920 
#    y 0.000000 1.627470 0.000000 
#    z 0.007920 0.000000 1.632290 
# 
# From -- ./inp_files/248783.got.cif
#   From: 2010.06.25/outbox.cif.g09.slc.cpg/sg12_125_cif.got.tgz:248783.got - 2010.06.28 00:19:55.
