data_PCOD8085670
_publ_section_title
;
Structure prediction by ZEFSAII (Michael W. Deem and Ramdas Pophale) SiO2 
 PCOD8085670
Probable space group: C 2/M
;
_chemical_formula_sum "Si O2"
_cell_formula_units_Z 56
_cell_length_a 19.207233
_cell_length_b 8.835246
_cell_length_c 19.044974
_cell_angle_alpha 90.000000
_cell_angle_beta 70.240788
_cell_angle_gamma 90.000000
_cell_volume 3041.652599
_symmetry_space_group_name_H-M "C 2/M"
_symmetry_group_IT_number 12
_symmetry_cell_setting 'monoclinic'
loop_
_space_group_symop_operation_xyz
x,y,z
-x,y,-z
-x,-y,-z
x,-y,z
1/2+x,1/2+y,z
1/2-x,1/2+y,-z
1/2-x,1/2-y,-z
1/2+x,1/2-y,z
loop_
_atom_site_type_symbol
_atom_site_label
_atom_site_fract_x
_atom_site_fract_y
_atom_site_fract_z
Si Si1 0.701827 0.825520 0.304869
Si Si2 0.658995 0.827794 0.802133
Si Si3 0.576898 0.176771 0.694386
Si Si4 0.814536 0.672647 0.055860
Si Si5 0.659659 0.825123 0.105364
Si Si6 0.421501 0.322015 0.740574
Si Si7 0.780481 0.177189 0.419614
O O1 0.772361 0.782081 0.234274
O O2 0.631477 0.729442 0.304605
O O3 0.719331 0.792753 0.380299
O O4 0.683861 0.000000 0.297131
O O5 0.591834 0.790063 0.772245
O O6 0.634176 0.806721 0.892089
O O7 0.685856 0.000000 0.779200
O O8 0.501735 0.255543 0.697392
O O9 0.642683 0.243915 0.625619
O O10 0.570593 0.000000 0.680774
O O11 0.784721 0.500000 0.061289
O O12 0.744968 0.782845 0.087271
O O13 0.861228 0.708932 0.969333
O O14 0.606853 0.730064 0.173610
O O15 0.648224 0.000000 0.128647
O O16 0.426811 0.500000 0.738678
O O17 0.750000 0.250000 0.500000
O O18 0.794989 0.000000 0.424852
#
# Coordination Sequence:
#
# PCOD8085670 Si02
#       7
#     8   8   8   8   8   8   8
#     4  10  20  34  56  84 110 141 181 223 265 316
#     4   9  17  32  54  79 105 139 182 228 274 325
#     4  10  21  37  58  82 111 145 181 223 275 326
#     4   9  17  30  49  76 106 138 182 231 278 325
#     4  10  19  30  48  75 107 143 182 229 280 325
#     4  12  23  36  53  77 111 148 187 229 275 325
#     4  10  21  39  63  90 117 143 175 214 261 319
#
# _framework density 18.411044
#
# number of rings (size 3 to 8) (size 9 to 14) (size 15 to 20)
#    0.000    2.000    1.429    3.000    0.000    2.857 
#    0.000    1.429    0.000    8.571    0.000    0.000 
#    0.000    0.000    0.000    0.000    0.000    0.000 
#
# Total GULP energy -347152.470748 kJ/mol
# GULP energy per Si atom -12398.302527 kJ/mol
# Density = 1.836914 g / cm^3
# Si number density = 18.411044 Si / 1000 Ang^3
#
#
#
# Elastic Constant Matrix: (Units=GPa)
#
#
# Indices 1 2 3 4 5 6 
#
# 1 100.8171 61.3364 47.5339 0.0000 -0.7705 -0.0001
# 2 61.3364 125.6483 55.7768 0.0000 -1.4194 -0.0001
# 3 47.5339 55.7768 116.4889 0.0000 11.0067 0.0000
# 4 0.0000 0.0000 0.0000 28.6354 0.0000 -3.7177
# 5 -0.7705 -1.4194 11.0067 0.0000 22.5521 -0.0001
# 6 -0.0001 -0.0001 0.0000 -3.7177 -0.0001 28.3707
#
#
#
# Elastic Compliance Matrix: (Units=1/GPa)
#
#
# Indices 1 2 3 4 5 6 
#
# 1 0.015141 -0.005774 -0.003594 0.000000 0.001908 0.000000
# 2 -0.005774 0.012526 -0.003876 0.000000 0.002483 0.000000
# 3 -0.003594 -0.003876 0.012519 0.000000 -0.006477 0.000000
# 4 0.000000 0.000000 0.000000 0.035526 0.000000 0.004655
# 5 0.001908 0.002483 -0.006477 0.000000 0.047724 0.000000
# 6 0.000000 0.000000 0.000000 0.004655 0.000000 0.035858
#
#
# Mechanical properties :
#
#
# Convention : Reuss Voigt Hill
#
# Bulk Modulus (GPa) = 73.00530 74.69427 73.84978
# Shear Modulus (GPa) = 26.26762 27.79881 27.03321
#
# Velocity S-wave (km/s) = 3.78131 3.88996 3.83602
# Velocity P-wave (km/s) = 7.66834 7.79962 7.73426
#
# Compressibility (1/GPa) = 0.01369764
#
# Stress axis : x y z
#
# Youngs Moduli (GPa) = 66.04576 79.83260 79.87949
#
# Poissons Ratio (x) = 0.46098 0.28707
# Poissons Ratio (y) = 0.38137 0.30962
# Poissons Ratio (z) = 0.23735 0.30944
#
# Static dielectric constant tensor:
#      x y z
#    x 3.257240 0.000000 0.281860 
#    y 0.000000 3.515350 0.000000 
#    z 0.281860 0.000000 3.475690 
# 
# 
# High freq. dielectric constant tensor:
#      x y z
#    x 1.691620 0.000000 0.021340 
#    y 0.000000 1.727540 0.000000 
#    z 0.021340 0.000000 1.710650 
# 
# From -- ./inp_files/275209.got.cif
#   From: 2010.06.25/outbox.cif.g09.slc.cpg/sg12_138_cif.got.tgz:275209.got - 2010.06.28 00:19:55.
