data_PCOD8085999
_publ_section_title
;
Structure prediction by ZEFSAII (Michael W. Deem and Ramdas Pophale) SiO2 
 PCOD8085999
Probable space group: C 2/M
;
_chemical_formula_sum "Si O2"
_cell_formula_units_Z 56
_cell_length_a 18.326493
_cell_length_b 9.159977
_cell_length_c 23.109298
_cell_angle_alpha 90.000000
_cell_angle_beta 52.264794
_cell_angle_gamma 90.000000
_cell_volume 3067.985593
_symmetry_space_group_name_H-M "C 2/M"
_symmetry_group_IT_number 12
_symmetry_cell_setting 'monoclinic'
loop_
_space_group_symop_operation_xyz
x,y,z
-x,y,-z
-x,-y,-z
x,-y,z
1/2+x,1/2+y,z
1/2-x,1/2+y,-z
1/2-x,1/2-y,-z
1/2+x,1/2-y,z
loop_
_atom_site_type_symbol
_atom_site_label
_atom_site_fract_x
_atom_site_fract_y
_atom_site_fract_z
Si Si1 0.946457 0.663731 0.790483
Si Si2 0.677799 0.328612 0.494209
Si Si3 0.376022 0.164907 0.214389
Si Si4 0.549608 0.338023 0.653637
Si Si5 0.769117 0.166021 0.355646
Si Si6 0.338514 0.331017 0.933413
Si Si7 0.513797 0.668269 0.928225
O O1 0.908736 0.500000 0.801177
O O2 0.867161 0.761543 0.858022
O O3 0.036685 0.667516 0.785980
O O4 0.972638 0.726156 0.714333
O O5 0.702073 0.500000 0.477310
O O6 0.750000 0.250000 0.500000
O O7 0.577027 0.306329 0.573138
O O8 0.684599 0.252731 0.427827
O O9 0.292217 0.254943 0.283806
O O10 0.403853 0.239101 0.140312
O O11 0.343008 0.000000 0.218697
O O12 0.507660 0.500000 0.679884
O O13 0.641970 0.328069 0.646708
O O14 0.738574 0.000000 0.358179
O O15 0.315723 0.500000 0.934408
O O16 0.418714 0.308009 0.940914
O O17 0.250000 0.250000 0.000000
O O18 0.544520 0.500000 0.912005
O O19 0.500000 0.724854 0.000000
#
# Coordination Sequence:
#
# PCOD8085999 Si02
#       7
#     8   8   8   8   8   8   8
#     4   9  16  25  38  55  75 101 135 171 207 250
#     4   9  15  21  29  43  65  94 129 167 205 246
#     4   9  16  25  38  56  77 102 134 172 211 252
#     4   8  14  22  31  45  67  96 129 165 205 246
#     4   9  15  22  32  46  67  97 132 168 205 247
#     4  10  19  31  47  65  87 113 143 179 217 259
#     4   9  18  32  48  65  86 114 146 179 217 260
#
# _framework density 18.253018000000001
#
# number of rings (size 3 to 8) (size 9 to 14) (size 15 to 20)
#    0.000    3.000    0.000    3.000    0.000    8.286 
#    0.000    0.000    0.000    0.000    0.000    0.000 
#    0.000    0.000    0.000    1.286    0.000   26.286 
#
# Total GULP energy -347044.944672 kJ/mol
# GULP energy per Si atom -12394.462310 kJ/mol
# Density = 1.821147 g / cm^3
# Si number density = 18.253018 Si / 1000 Ang^3
#
#
#
# Elastic Constant Matrix: (Units=GPa)
#
#
# Indices 1 2 3 4 5 6 
#
# 1 4.8960 14.0009 16.2526 0.0000 0.8388 0.0001
# 2 14.0009 166.5026 110.0060 0.0000 -0.3564 0.0000
# 3 16.2526 110.0060 197.5555 0.0000 6.1034 0.0000
# 4 0.0000 0.0000 0.0000 45.4101 0.0000 -1.8006
# 5 0.8388 -0.3564 6.1034 0.0000 14.4994 0.0000
# 6 0.0001 0.0000 0.0000 -1.8006 0.0000 8.6928
#
#
#
# Elastic Compliance Matrix: (Units=1/GPa)
#
#
# Indices 1 2 3 4 5 6 
#
# 1 0.302346 -0.014613 -0.016398 0.000000 -0.010947 -0.000003
# 2 -0.014613 0.010297 -0.004626 0.000000 0.003046 0.000000
# 3 -0.016398 -0.004626 0.009079 0.000000 -0.002987 0.000000
# 4 0.000000 0.000000 0.000000 0.022204 0.000000 0.004599
# 5 -0.010947 0.003046 -0.002987 0.000000 0.070934 0.000000
# 6 -0.000003 0.000000 0.000000 0.004599 0.000000 0.115990
#
#
# Mechanical properties :
#
#
# Convention : Reuss Voigt Hill
#
# Bulk Modulus (GPa) = 3.99284 72.16367 38.07825
# Shear Modulus (GPa) = 7.29280 28.96678 18.12979
#
# Velocity S-wave (km/s) = 2.00102 3.98799 3.15500
# Velocity P-wave (km/s) = 2.74427 7.79913 5.84626
#
# Compressibility (1/GPa) = 0.25044844
#
# Stress axis : x y z
#
# Youngs Moduli (GPa) = 3.30747 97.11107 110.14297
#
# Poissons Ratio (x) = 1.41907 1.80617
# Poissons Ratio (y) = 0.04833 0.50951
# Poissons Ratio (z) = 0.05424 0.44923
#
# Static dielectric constant tensor:
#      x y z
#    x 2.569380 0.000000 0.090170 
#    y 0.000000 3.579790 0.000000 
#    z 0.090170 0.000000 3.984540 
# 
# 
# High freq. dielectric constant tensor:
#      x y z
#    x 1.606540 0.000000 0.001710 
#    y 0.000000 1.722800 0.000000 
#    z 0.001710 0.000000 1.733720 
# 
# From -- ./inp_files/287066.got.cif
#   From: 2010.06.25/outbox.cif.g09.slc.cpg/sg12_144_cif.got.tgz:287066.got - 2010.06.28 00:19:55.
