data_PCOD8085593
_publ_section_title
;
Structure prediction by ZEFSAII (Michael W. Deem and Ramdas Pophale) SiO2 
 PCOD8085593
Probable space group: C 2/M
;
_chemical_formula_sum "Si O2"
_cell_formula_units_Z 56
_cell_length_a 22.656729
_cell_length_b 9.230325
_cell_length_c 14.979335
_cell_angle_alpha 90.000000
_cell_angle_beta 91.209848
_cell_angle_gamma 90.000000
_cell_volume 3131.914575
_symmetry_space_group_name_H-M "C 2/M"
_symmetry_group_IT_number 12
_symmetry_cell_setting 'monoclinic'
loop_
_space_group_symop_operation_xyz
x,y,z
-x,y,-z
-x,-y,-z
x,-y,z
1/2+x,1/2+y,z
1/2-x,1/2+y,-z
1/2-x,1/2-y,-z
1/2+x,1/2-y,z
loop_
_atom_site_type_symbol
_atom_site_label
_atom_site_fract_x
_atom_site_fract_y
_atom_site_fract_z
Si Si1 0.534608 0.337275 0.127943
Si Si2 0.873468 0.331263 0.970694
Si Si3 0.710463 0.832290 0.197812
Si Si4 0.549873 0.166214 0.757527
Si Si5 0.511957 0.670363 0.399498
Si Si6 0.378500 0.340069 0.702837
Si Si7 0.826197 0.664578 0.159335
O O1 0.515429 0.500000 0.099776
O O2 0.566820 0.259898 0.045499
O O3 0.478175 0.244662 0.156966
O O4 0.579475 0.342280 0.210771
O O5 0.890975 0.500000 0.974222
O O6 0.824565 0.299528 0.894080
O O7 0.846294 0.278344 0.062989
O O8 0.675366 0.769163 0.282302
O O9 0.774402 0.762337 0.195402
O O10 0.718836 0.000000 0.215875
O O11 0.532778 0.242246 0.664554
O O12 0.620217 0.175144 0.769247
O O13 0.527850 0.000000 0.755781
O O14 0.500000 0.717829 0.500000
O O15 0.500618 0.500000 0.383169
O O16 0.580327 0.709188 0.378915
O O17 0.352012 0.500000 0.684934
O O18 0.803321 0.500000 0.149921
#
# Coordination Sequence:
#
# PCOD8085593 Si02
#       7
#     8   8   8   8   8   8   8
#     4   9  17  30  48  69  95 128 163 203 247 287
#     4   9  18  32  48  68  94 127 169 212 249 284
#     4  10  19  30  48  71  94 125 168 211 241 273
#     4  10  20  33  49  71  99 131 163 195 239 294
#     4   9  18  34  57  82 103 123 150 190 242 294
#     4   8  15  29  49  71  96 125 153 186 235 290
#     4  10  21  34  47  65  96 136 169 201 245 291
#
# _framework density 17.880437000000001
#
# number of rings (size 3 to 8) (size 9 to 14) (size 15 to 20)
#    0.000    2.714    0.000    2.571    0.000    6.571 
#    0.000    2.857    0.000    0.857    0.000    0.000 
#    0.000    0.000    0.000    0.000    0.000    0.000 
#
# Total GULP energy -347192.850398 kJ/mol
# GULP energy per Si atom -12399.744657 kJ/mol
# Density = 1.783974 g / cm^3
# Si number density = 17.880437 Si / 1000 Ang^3
#
#
#
# Elastic Constant Matrix: (Units=GPa)
#
#
# Indices 1 2 3 4 5 6 
#
# 1 84.0592 58.0799 51.5455 0.0000 -21.9316 0.0000
# 2 58.0799 104.4190 46.2668 0.0000 -13.1263 0.0000
# 3 51.5455 46.2668 93.9194 0.0000 -26.9221 0.0000
# 4 0.0000 0.0000 0.0000 20.3944 0.0000 -5.0489
# 5 -21.9316 -13.1263 -26.9221 0.0000 24.6656 0.0000
# 6 0.0000 0.0000 0.0000 -5.0489 0.0000 31.9380
#
#
#
# Elastic Compliance Matrix: (Units=1/GPa)
#
#
# Indices 1 2 3 4 5 6 
#
# 1 0.025245 -0.010127 -0.005787 0.000000 0.010740 0.000000
# 2 -0.010127 0.016314 -0.003742 0.000000 -0.004407 0.000000
# 3 -0.005787 -0.003742 0.019823 0.000000 0.014500 0.000000
# 4 0.000000 0.000000 0.000000 0.051030 0.000000 0.008067
# 5 0.010740 -0.004407 0.014500 0.000000 0.063573 0.000000
# 6 0.000000 0.000000 0.000000 0.008067 0.000000 0.032586
#
#
# Mechanical properties :
#
#
# Convention : Reuss Voigt Hill
#
# Bulk Modulus (GPa) = 45.31204 66.02020 55.66612
# Shear Modulus (GPa) = 19.58944 23.83329 21.71136
#
# Velocity S-wave (km/s) = 3.31354 3.65489 3.48839
# Velocity P-wave (km/s) = 6.32741 7.40366 6.88659
#
# Compressibility (1/GPa) = 0.02206919
#
# Stress axis : x y z
#
# Youngs Moduli (GPa) = 39.61225 61.29851 50.44565
#
# Poissons Ratio (x) = 0.62078 0.29195
# Poissons Ratio (y) = 0.40116 0.18875
# Poissons Ratio (z) = 0.22925 0.22936
#
# Static dielectric constant tensor:
#      x y z
#    x 3.250310 0.000000 -0.286780 
#    y 0.000000 3.436520 0.000000 
#    z -0.286780 0.000000 3.175620 
# 
# 
# High freq. dielectric constant tensor:
#      x y z
#    x 1.683900 0.000000 -0.018280 
#    y 0.000000 1.698450 0.000000 
#    z -0.018280 0.000000 1.664320 
# 
# From -- ./inp_files/231020.got.cif
#   From: 2010.06.25/outbox.cif.g09.slc.cpg/sg12_116_cif.got.tgz:231020.got - 2010.06.28 00:19:55.
