data_PCOD8085261
_publ_section_title
;
Structure prediction by ZEFSAII (Michael W. Deem and Ramdas Pophale) SiO2 
 PCOD8085261
Probable space group: C 2/M
;
_chemical_formula_sum "Si O2"
_cell_formula_units_Z 56
_cell_length_a 19.418416
_cell_length_b 9.025600
_cell_length_c 24.601693
_cell_angle_alpha 90.000000
_cell_angle_beta 46.906844
_cell_angle_gamma 90.000000
_cell_volume 3148.638554
_symmetry_space_group_name_H-M "C 2/M"
_symmetry_group_IT_number 12
_symmetry_cell_setting 'monoclinic'
loop_
_space_group_symop_operation_xyz
x,y,z
-x,y,-z
-x,-y,-z
x,-y,z
1/2+x,1/2+y,z
1/2-x,1/2+y,-z
1/2-x,1/2-y,-z
1/2+x,1/2-y,z
loop_
_atom_site_type_symbol
_atom_site_label
_atom_site_fract_x
_atom_site_fract_y
_atom_site_fract_z
Si Si1 0.225171 0.676280 0.708186
Si Si2 0.541539 0.674092 0.308917
Si Si3 0.108588 0.831866 0.100671
Si Si4 0.543343 0.175876 0.743552
Si Si5 0.934110 0.824820 0.582392
Si Si6 0.816111 0.331286 0.037293
Si Si7 0.246129 0.675915 0.815936
O O1 0.229107 0.500000 0.706832
O O2 0.144204 0.733301 0.711558
O O3 0.327440 0.738607 0.634476
O O4 0.202856 0.731745 0.781984
O O5 0.530231 0.500000 0.304021
O O6 0.467246 0.760703 0.311464
O O7 0.521726 0.713800 0.382591
O O8 0.645988 0.730561 0.236898
O O9 0.209767 0.822162 0.073726
O O10 0.037567 0.733653 0.173342
O O11 0.071798 0.000000 0.118352
O O12 0.114501 0.768738 0.036154
O O13 0.538524 0.000000 0.744637
O O14 0.000000 0.753704 0.500000
O O15 0.929398 0.000000 0.577790
O O16 0.853065 0.500000 0.014773
O O17 0.816098 0.268172 0.099316
O O18 0.249183 0.500000 0.816152
#
# Coordination Sequence:
#
# PCOD8085261 Si02
#       7
#     8   8   8   8   8   8   8
#     4   8  16  28  45  69  97 125 156 197 237 276
#     4   9  16  29  50  73  95 122 158 198 236 275
#     4  10  19  30  45  67  95 125 157 199 244 281
#     4  11  20  30  45  69  99 129 159 192 236 287
#     4   8  14  28  53  79  97 119 158 202 234 268
#     4   9  16  28  47  69  89 116 159 206 246 278
#     4   8  13  27  48  67  87 118 162 204 234 267
#
# _framework density 17.785464999999999
#
# number of rings (size 3 to 8) (size 9 to 14) (size 15 to 20)
#    0.000    3.000    1.429    2.571    0.000    0.571 
#    0.000    1.429    0.000   13.286    0.000    0.000 
#    0.000    0.000    0.000    0.000    0.000    0.000 
#
# Total GULP energy -347009.968939 kJ/mol
# GULP energy per Si atom -12393.213176 kJ/mol
# Density = 1.774498 g / cm^3
# Si number density = 17.785465 Si / 1000 Ang^3
#
#
#
# Elastic Constant Matrix: (Units=GPa)
#
#
# Indices 1 2 3 4 5 6 
#
# 1 116.5318 34.1013 50.6307 0.0000 18.9767 0.0000
# 2 34.1013 43.7201 25.8219 0.0000 5.7289 -0.0002
# 3 50.6307 25.8219 110.7277 0.0000 26.3842 0.0001
# 4 0.0000 0.0000 0.0000 15.4381 0.0000 4.0520
# 5 18.9767 5.7289 26.3842 0.0000 20.7651 0.0000
# 6 0.0000 -0.0002 0.0001 4.0520 0.0000 20.4037
#
#
#
# Elastic Compliance Matrix: (Units=1/GPa)
#
#
# Indices 1 2 3 4 5 6 
#
# 1 0.013046 -0.007788 -0.002611 0.000000 -0.006457 0.000000
# 2 -0.007788 0.031184 -0.004815 0.000000 0.004631 0.000000
# 3 -0.002611 -0.004815 0.015006 0.000000 -0.015352 0.000000
# 4 0.000000 0.000000 0.000000 0.068337 0.000000 -0.013571
# 5 -0.006457 0.004631 -0.015352 0.000000 0.072287 0.000000
# 6 0.000000 0.000000 0.000000 -0.013571 0.000000 0.051706
#
#
# Mechanical properties :
#
#
# Convention : Reuss Voigt Hill
#
# Bulk Modulus (GPa) = 34.71083 54.67637 44.69360
# Shear Modulus (GPa) = 17.14706 22.01644 19.58175
#
# Velocity S-wave (km/s) = 3.10837 3.52218 3.32173
# Velocity P-wave (km/s) = 5.69574 6.88113 6.31630
#
# Compressibility (1/GPa) = 0.02880945
#
# Stress axis : x y z
#
# Youngs Moduli (GPa) = 76.65127 32.06777 66.64050
#
# Poissons Ratio (x) = 0.24974 0.17398
# Poissons Ratio (y) = 0.59695 0.32085
# Poissons Ratio (z) = 0.20012 0.15440
#
# Static dielectric constant tensor:
#      x y z
#    x 3.433000 0.000000 0.207010 
#    y 0.000000 2.933590 0.000000 
#    z 0.207010 0.000000 3.590420 
# 
# 
# High freq. dielectric constant tensor:
#      x y z
#    x 1.677910 0.000000 0.019070 
#    y 0.000000 1.644430 0.000000 
#    z 0.019070 0.000000 1.684210 
# 
# From -- ./inp_files/342342.got.cif
#   From: 2010.06.25/outbox.cif.g09.slc.cpg/sg12_172_cif.got.tgz:342342.got - 2010.06.28 00:19:55.
