data_PCOD8085338
_publ_section_title
;
Structure prediction by ZEFSAII (Michael W. Deem and Ramdas Pophale) SiO2 
 PCOD8085338
Probable space group: C 2/M
;
_chemical_formula_sum "Si O2"
_cell_formula_units_Z 52
_cell_length_a 16.889502
_cell_length_b 12.901534
_cell_length_c 24.399121
_cell_angle_alpha 90.000000
_cell_angle_beta 34.052767
_cell_angle_gamma 90.000000
_cell_volume 2977.051958
_symmetry_space_group_name_H-M "C 2/M"
_symmetry_group_IT_number 12
_symmetry_cell_setting 'monoclinic'
loop_
_space_group_symop_operation_xyz
x,y,z
-x,y,-z
-x,-y,-z
x,-y,z
1/2+x,1/2+y,z
1/2-x,1/2+y,-z
1/2-x,1/2-y,-z
1/2+x,1/2-y,z
loop_
_atom_site_type_symbol
_atom_site_label
_atom_site_fract_x
_atom_site_fract_y
_atom_site_fract_z
Si Si1 0.549499 0.119480 0.253610
Si Si2 0.670943 0.723015 0.101283
Si Si3 0.594974 0.740185 0.806444
Si Si4 0.500000 0.247659 0.500000
Si Si5 0.363040 0.878266 0.676453
Si Si6 0.263546 0.120065 0.359085
Si Si7 0.433579 0.886138 0.978952
O O1 0.651684 0.178902 0.152659
O O2 0.573568 0.158426 0.301765
O O3 0.383346 0.136342 0.336565
O O4 0.592671 0.000000 0.222407
O O5 0.512894 0.685375 0.174965
O O6 0.750000 0.750000 0.000000
O O7 0.764120 0.636502 0.079089
O O8 0.697617 0.651878 0.770592
O O9 0.682868 0.833374 0.728906
O O10 0.507556 0.793270 0.904787
O O11 0.554696 0.176140 0.419814
O O12 0.378477 0.319254 0.542818
O O13 0.379098 0.000000 0.659127
O O14 0.227434 0.000000 0.371100
O O15 0.453624 0.000000 0.939945
O O16 0.500000 0.888242 0.000000
#
# Coordination Sequence:
#
# PCOD8085338 Si02
#       7
#     8   8   8   4   8   8   8
#     4   9  18  33  52  72  96 128 162 198 238 282
#     4   9  18  31  49  72  96 123 157 195 234 277
#     4   9  18  32  49  69  94 125 158 196 237 280
#     4  10  20  32  50  74  98 126 158 200 246 290
#     4  10  20  34  51  70  96 128 162 199 241 289
#     4   9  17  31  51  73  95 121 158 199 241 286
#     4  10  19  30  46  68  95 125 155 190 233 280
#
# _framework density 17.466944999999999
#
# number of rings (size 3 to 8) (size 9 to 14) (size 15 to 20)
#    0.000    2.615    0.000    1.846    0.000    4.923 
#    0.000    2.308    0.000    9.231    0.000    0.000 
#    0.000    0.000    0.000    0.000    0.000    0.000 
#
# Total GULP energy -322244.871481 kJ/mol
# GULP energy per Si atom -12394.033519 kJ/mol
# Density = 1.742719 g / cm^3
# Si number density = 17.466945 Si / 1000 Ang^3
#
#
#
# Elastic Constant Matrix: (Units=GPa)
#
#
# Indices 1 2 3 4 5 6 
#
# 1 118.9056 50.7342 48.0587 -0.0001 -8.1504 0.0000
# 2 50.7342 72.2525 45.6138 0.0001 -7.1928 0.0000
# 3 48.0587 45.6138 88.9194 0.0002 -7.5657 0.0001
# 4 -0.0001 0.0001 0.0002 25.9884 -0.0001 -2.2559
# 5 -8.1504 -7.1928 -7.5657 -0.0001 27.6674 0.0000
# 6 0.0000 0.0000 0.0001 -2.2559 0.0000 24.0388
#
#
#
# Elastic Compliance Matrix: (Units=1/GPa)
#
#
# Indices 1 2 3 4 5 6 
#
# 1 0.012689 -0.006700 -0.003328 0.000000 0.001086 0.000000
# 2 -0.006700 0.024179 -0.008616 0.000000 0.001956 0.000000
# 3 -0.003328 -0.008616 0.017600 0.000000 0.001593 0.000000
# 4 0.000000 0.000000 0.000000 0.038795 0.000000 0.003641
# 5 0.001086 0.001956 0.001593 0.000000 0.037407 0.000000
# 6 0.000000 0.000000 0.000000 0.003641 0.000000 0.041941
#
#
# Mechanical properties :
#
#
# Convention : Reuss Voigt Hill
#
# Bulk Modulus (GPa) = 58.20966 63.21011 60.70989
# Shear Modulus (GPa) = 23.18832 24.58364 23.88598
#
# Velocity S-wave (km/s) = 3.64752 3.75565 3.70198
# Velocity P-wave (km/s) = 7.15102 7.42116 7.28734
#
# Compressibility (1/GPa) = 0.01717928
#
# Stress axis : x y z
#
# Youngs Moduli (GPa) = 78.81112 41.35815 56.81784
#
# Poissons Ratio (x) = 0.27711 0.18911
# Poissons Ratio (y) = 0.52806 0.48952
# Poissons Ratio (z) = 0.26231 0.35632
#
# Static dielectric constant tensor:
#      x y z
#    x 3.569740 0.000000 -0.325780 
#    y 0.000000 3.312140 0.000000 
#    z -0.325780 0.000000 3.297140 
# 
# 
# High freq. dielectric constant tensor:
#      x y z
#    x 1.686980 0.000000 -0.013610 
#    y 0.000000 1.666120 0.000000 
#    z -0.013610 0.000000 1.667790 
# 
# From -- ./inp_files/293135.got.cif
#   From: 2010.06.25/outbox.cif.g09.slc.cpg/sg12_147_cif.got.tgz:293135.got - 2010.06.28 00:19:55.
