data_PCOD8085234
_publ_section_title
;
Structure prediction by ZEFSAII (Michael W. Deem and Ramdas Pophale) SiO2 
 PCOD8085234
Probable space group: C 2/M
;
_chemical_formula_sum "Si O2"
_cell_formula_units_Z 64
_cell_length_a 23.067108
_cell_length_b 9.191939
_cell_length_c 22.820116
_cell_angle_alpha 90.000000
_cell_angle_beta 130.460388
_cell_angle_gamma 90.000000
_cell_volume 3681.458483
_symmetry_space_group_name_H-M "C 2/M"
_symmetry_group_IT_number 12
_symmetry_cell_setting 'monoclinic'
loop_
_space_group_symop_operation_xyz
x,y,z
-x,y,-z
-x,-y,-z
x,-y,z
1/2+x,1/2+y,z
1/2-x,1/2+y,-z
1/2-x,1/2-y,-z
1/2+x,1/2-y,z
loop_
_atom_site_type_symbol
_atom_site_label
_atom_site_fract_x
_atom_site_fract_y
_atom_site_fract_z
Si Si1 0.236865 0.169818 0.931072
Si Si2 0.080295 0.169986 0.766315
Si Si3 0.291444 0.332738 0.350661
Si Si4 0.923628 0.166962 0.720137
Si Si5 0.700281 0.660818 0.127990
Si Si6 0.349128 0.665434 0.785966
Si Si7 0.221506 0.669924 0.424142
Si Si8 0.639460 0.836244 0.700746
O O1 0.153011 0.211463 0.853456
O O2 0.299512 0.223780 0.924578
O O3 0.248260 0.000000 0.948032
O O4 0.250000 0.250000 0.000000
O O5 0.080732 0.253002 0.704614
O O6 0.006083 0.220911 0.753264
O O7 0.080166 0.000000 0.752239
O O8 0.305946 0.500000 0.344376
O O9 0.209626 0.286901 0.272867
O O10 0.287473 0.307261 0.418110
O O11 0.357409 0.239541 0.361504
O O12 0.921852 0.181200 0.790425
O O13 0.858969 0.263664 0.647998
O O14 0.909804 0.000000 0.692128
O O15 0.691086 0.500000 0.094206
O O16 0.633379 0.691314 0.132810
O O17 0.777510 0.671224 0.216080
O O18 0.315369 0.500000 0.757182
O O19 0.208980 0.500000 0.428534
O O20 0.250000 0.750000 0.500000
O O21 0.610113 0.000000 0.673303
#
# Coordination Sequence:
#
# PCOD8085234 Si02
#       8
#     8   8   8   8   8   8   8   8
#     4  10  19  30  45  66  91 120 154 190 230 275
#     4   9  18  31  48  70  95 123 154 190 232 277
#     4   9  16  26  42  65  91 117 150 190 228 266
#     4   9  17  31  50  71  96 124 153 188 231 277
#     4   8  14  25  41  63  88 113 145 185 225 265
#     4   8  14  25  43  66  90 116 147 184 226 270
#     4  10  20  32  48  71  97 126 157 190 229 273
#     4   9  16  26  43  66  91 119 151 189 231 271
#
# _framework density 17.384415000000001
#
# number of rings (size 3 to 8) (size 9 to 14) (size 15 to 20)
#    0.000    3.000    0.000    2.250    0.000    5.500 
#    0.000    0.000    0.000    1.500    0.000   10.500 
#    0.000    0.000    0.000    0.000    0.000    0.000 
#
# Total GULP energy -396500.505159 kJ/mol
# GULP energy per Si atom -12390.640786 kJ/mol
# Density = 1.734485 g / cm^3
# Si number density = 17.384415 Si / 1000 Ang^3
#
#
#
# Elastic Constant Matrix: (Units=GPa)
#
#
# Indices 1 2 3 4 5 6 
#
# 1 137.7865 60.3100 51.5086 0.0000 -35.5095 0.0000
# 2 60.3100 101.3637 52.1255 0.0000 -24.1863 0.0000
# 3 51.5086 52.1255 67.1931 0.0000 -28.5405 0.0000
# 4 0.0000 0.0000 0.0000 23.9994 0.0000 -8.7034
# 5 -35.5095 -24.1863 -28.5405 0.0000 28.4206 0.0000
# 6 0.0000 0.0000 0.0000 -8.7034 0.0000 25.7321
#
#
#
# Elastic Compliance Matrix: (Units=1/GPa)
#
#
# Indices 1 2 3 4 5 6 
#
# 1 0.012319 -0.003785 -0.002333 0.000000 0.009828 0.000000
# 2 -0.003785 0.017646 -0.011191 0.000000 -0.000951 0.000000
# 3 -0.002333 -0.011191 0.034997 0.000000 0.022706 0.000000
# 4 0.000000 0.000000 0.000000 0.047493 0.000000 0.016064
# 5 0.009828 -0.000951 0.022706 0.000000 0.069458 0.000000
# 6 0.000000 0.000000 0.000000 0.016064 0.000000 0.044295
#
#
# Mechanical properties :
#
#
# Convention : Reuss Voigt Hill
#
# Bulk Modulus (GPa) = 32.95550 70.47017 51.71283
# Shear Modulus (GPa) = 18.45422 25.12368 21.78895
#
# Velocity S-wave (km/s) = 3.26166 3.80568 3.54412
# Velocity P-wave (km/s) = 5.76044 7.74179 6.82342
#
# Compressibility (1/GPa) = 0.03034395
#
# Stress axis : x y z
#
# Youngs Moduli (GPa) = 81.17328 56.67161 28.57414
#
# Poissons Ratio (x) = 0.21451 0.06666
# Poissons Ratio (y) = 0.30725 0.31977
# Poissons Ratio (z) = 0.18936 0.63421
#
# Static dielectric constant tensor:
#      x y z
#    x 3.557760 0.000000 -0.509130 
#    y 0.000000 3.344320 0.000000 
#    z -0.509130 0.000000 2.934870 
# 
# 
# High freq. dielectric constant tensor:
#      x y z
#    x 1.670040 0.000000 -0.047620 
#    y 0.000000 1.680780 0.000000 
#    z -0.047620 0.000000 1.623570 
# 
# From -- ./inp_files/319806.got.cif
#   From: 2010.06.25/outbox.cif.g09.slc.cpg/sg12_160_cif.got.tgz:319806.got - 2010.06.28 00:19:55.
