data_PCOD8085706
_publ_section_title
;
Structure prediction by ZEFSAII (Michael W. Deem and Ramdas Pophale) SiO2 
 PCOD8085706
Probable space group: C 2/M
;
_chemical_formula_sum "Si O2"
_cell_formula_units_Z 48
_cell_length_a 30.066772
_cell_length_b 8.975820
_cell_length_c 23.359333
_cell_angle_alpha 90.000000
_cell_angle_beta 154.103440
_cell_angle_gamma 90.000000
_cell_volume 2753.290788
_symmetry_space_group_name_H-M "C 2/M"
_symmetry_group_IT_number 12
_symmetry_cell_setting 'monoclinic'
loop_
_space_group_symop_operation_xyz
x,y,z
-x,y,-z
-x,-y,-z
x,-y,z
1/2+x,1/2+y,z
1/2-x,1/2+y,-z
1/2-x,1/2-y,-z
1/2+x,1/2-y,z
loop_
_atom_site_type_symbol
_atom_site_label
_atom_site_fract_x
_atom_site_fract_y
_atom_site_fract_z
Si Si1 0.888133 0.676290 0.393172
Si Si2 0.098987 0.824038 0.474200
Si Si3 0.602891 0.168508 0.785673
Si Si4 0.234985 0.829124 0.118573
Si Si5 0.158927 0.678122 0.429061
Si Si6 0.939455 0.331831 0.135802
O O1 0.882256 0.500000 0.397078
O O2 0.859487 0.763956 0.417472
O O3 0.804685 0.732401 0.250630
O O4 0.000000 0.720500 0.500000
O O5 0.161104 0.742446 0.495717
O O6 0.979868 0.785348 0.332416
O O7 0.115537 0.000000 0.488663
O O8 0.708075 0.200326 0.875505
O O9 0.620201 0.184870 0.873240
O O10 0.563863 0.000000 0.725976
O O11 0.213000 0.000000 0.104094
O O12 0.123945 0.753516 0.986477
O O13 0.167863 0.500000 0.442029
O O14 0.250000 0.750000 0.500000
O O15 0.054320 0.728988 0.276609
O O16 0.944545 0.500000 0.120668
#
# Coordination Sequence:
#
# PCOD8085706 Si02
#       6
#     8   8   8   8   8   8
#     4  10  19  34  52  70 104 150 186 217 255 303
#     4  11  21  32  51  80 108 137 177 222 262 307
#     4   9  17  32  48  68 102 144 179 211 256 308
#     4  10  19  30  49  72 101 144 183 212 252 307
#     4  10  21  39  61  82 104 133 169 215 271 320
#     4   9  19  32  49  74 106 135 165 212 266 313
#
# _framework density 17.433682999999998
#
# number of rings (size 3 to 8) (size 9 to 14) (size 15 to 20)
#    0.000    2.167    1.667    3.500    0.000    5.000 
#    0.000    0.000    0.000    1.000    0.000    7.000 
#    0.000    0.000    0.000    0.000    0.000    0.000 
#
# Total GULP energy -297547.907488 kJ/mol
# GULP energy per Si atom -12397.829479 kJ/mol
# Density = 1.739400 g / cm^3
# Si number density = 17.433683 Si / 1000 Ang^3
#
#
#
# Elastic Constant Matrix: (Units=GPa)
#
#
# Indices 1 2 3 4 5 6 
#
# 1 89.4019 46.5064 61.5840 0.0000 1.6926 0.0000
# 2 46.5064 78.1455 50.4733 0.0000 -2.3861 0.0000
# 3 61.5840 50.4733 125.4983 0.0000 -9.0127 0.0000
# 4 0.0000 0.0000 0.0000 31.7885 0.0000 -1.1505
# 5 1.6926 -2.3861 -9.0127 0.0000 18.6709 0.0000
# 6 0.0000 0.0000 0.0000 -1.1505 0.0000 27.0656
#
#
#
# Elastic Compliance Matrix: (Units=1/GPa)
#
#
# Indices 1 2 3 4 5 6 
#
# 1 0.020309 -0.007496 -0.007409 0.000000 -0.006376 0.000000
# 2 -0.007496 0.020079 -0.004314 0.000000 0.001163 0.000000
# 3 -0.007409 -0.004314 0.013827 0.000000 0.006795 0.000000
# 4 0.000000 0.000000 0.000000 0.031506 0.000000 0.001339
# 5 -0.006376 0.001163 0.006795 0.000000 0.057566 0.000000
# 6 0.000000 0.000000 0.000000 0.001339 0.000000 0.037004
#
#
# Mechanical properties :
#
#
# Convention : Reuss Voigt Hill
#
# Bulk Modulus (GPa) = 63.37920 67.79699 65.58810
# Shear Modulus (GPa) = 22.32257 24.47047 23.39652
#
# Velocity S-wave (km/s) = 3.58219 3.75057 3.66735
# Velocity P-wave (km/s) = 7.31730 7.59794 7.45894
#
# Compressibility (1/GPa) = 0.01577805
#
# Stress axis : x y z
#
# Youngs Moduli (GPa) = 49.23883 49.80279 72.32230
#
# Poissons Ratio (x) = 0.37330 0.53586
# Poissons Ratio (y) = 0.36907 0.31198
# Poissons Ratio (z) = 0.36482 0.21484
#
# Static dielectric constant tensor:
#      x y z
#    x 3.113540 0.000000 -0.124490 
#    y 0.000000 3.183860 0.000000 
#    z -0.124490 0.000000 3.194810 
# 
# 
# High freq. dielectric constant tensor:
#      x y z
#    x 1.649430 0.000000 -0.012510 
#    y 0.000000 1.670770 0.000000 
#    z -0.012510 0.000000 1.667100 
# 
# From -- ./inp_files/352756.got.cif
#   From: 2010.06.25/outbox.cif.g09.slc.cpg/sg12_177_cif.got.tgz:352756.got - 2010.06.28 00:19:55.
