data_PCOD8085603
_publ_section_title
;
Structure prediction by ZEFSAII (Michael W. Deem and Ramdas Pophale) SiO2 
 PCOD8085603
Probable space group: C 2/M
;
_chemical_formula_sum "Si O2"
_cell_formula_units_Z 48
_cell_length_a 17.796293
_cell_length_b 9.264451
_cell_length_c 15.343107
_cell_angle_alpha 90.000000
_cell_angle_beta 80.664504
_cell_angle_gamma 90.000000
_cell_volume 2496.157968
_symmetry_space_group_name_H-M "C 2/M"
_symmetry_group_IT_number 12
_symmetry_cell_setting 'monoclinic'
loop_
_space_group_symop_operation_xyz
x,y,z
-x,y,-z
-x,-y,-z
x,-y,z
1/2+x,1/2+y,z
1/2-x,1/2+y,-z
1/2-x,1/2-y,-z
1/2+x,1/2-y,z
loop_
_atom_site_type_symbol
_atom_site_label
_atom_site_fract_x
_atom_site_fract_y
_atom_site_fract_z
Si Si1 0.082738 0.667732 0.515252
Si Si2 0.682570 0.332842 0.363364
Si Si3 0.673174 0.159842 0.201383
Si Si4 0.829611 0.330461 0.987761
Si Si5 0.640992 0.834569 0.690593
Si Si6 0.853768 0.163529 0.144551
O O1 0.096745 0.500000 0.492458
O O2 0.146684 0.756707 0.453309
O O3 0.089102 0.699562 0.616822
O O4 0.000000 0.719159 0.500000
O O5 0.662984 0.500000 0.371343
O O6 0.646654 0.271999 0.279942
O O7 0.771983 0.300165 0.350465
O O8 0.632242 0.190003 0.115517
O O9 0.763112 0.169625 0.168842
O O10 0.651190 0.000000 0.238820
O O11 0.817703 0.500000 0.010835
O O12 0.750000 0.250000 0.000000
O O13 0.880002 0.255460 0.054293
O O14 0.611075 0.735325 0.775205
O O15 0.633240 0.000000 0.721956
O O16 0.883746 0.000000 0.130209
#
# Coordination Sequence:
#
# PCOD8085603 Si02
#       6
#     8   8   8   8   8   8
#     4  10  21  36  52  69  92 124 159 195 237 286
#     4  10  19  30  48  72  96 123 155 196 239 277
#     4   8  15  26  40  61  91 125 157 188 225 273
#     4   9  15  23  37  60  92 127 158 191 231 274
#     4   9  18  32  49  70  95 124 159 196 235 280
#     4   9  16  25  40  64  93 125 157 191 233 278
#
# _framework density 19.229552999999999
#
# number of rings (size 3 to 8) (size 9 to 14) (size 15 to 20)
#    0.000    2.833    0.000    3.000    0.000    6.333 
#    0.000    0.000    0.000    0.000    0.000    1.167 
#    0.000    9.333    0.000    0.000    0.000    0.000 
#
# Total GULP energy -297496.442348 kJ/mol
# GULP energy per Si atom -12395.685098 kJ/mol
# Density = 1.918579 g / cm^3
# Si number density = 19.229553 Si / 1000 Ang^3
#
#
#
# Elastic Constant Matrix: (Units=GPa)
#
#
# Indices 1 2 3 4 5 6 
#
# 1 42.6847 29.5324 35.4699 0.0000 23.6616 0.0000
# 2 29.5324 106.7414 51.0291 0.0000 22.1338 0.0000
# 3 35.4699 51.0291 93.6712 0.0000 40.6072 0.0000
# 4 0.0000 0.0000 0.0000 41.0846 0.0000 5.3529
# 5 23.6616 22.1338 40.6072 0.0000 22.5366 0.0000
# 6 0.0000 0.0000 0.0000 5.3529 0.0000 10.6816
#
#
#
# Elastic Compliance Matrix: (Units=1/GPa)
#
#
# Indices 1 2 3 4 5 6 
#
# 1 0.071309 -0.009204 0.029921 0.000000 -0.119742 0.000000
# 2 -0.009204 0.013855 -0.010749 0.000000 0.015423 0.000000
# 3 0.029921 -0.010749 0.065071 0.000000 -0.138104 0.000000
# 4 0.000000 0.000000 0.000000 0.026040 0.000000 -0.013050
# 5 -0.119742 0.015423 -0.138104 0.000000 0.403784 0.000000
# 6 0.000000 0.000000 0.000000 -0.013050 0.000000 0.100158
#
#
# Mechanical properties :
#
#
# Convention : Reuss Voigt Hill
#
# Bulk Modulus (GPa) = 5.87644 52.79557 29.33600
# Shear Modulus (GPa) = 6.97345 23.33163 15.15254
#
# Velocity S-wave (km/s) = 1.90638 3.48706 2.81015
# Velocity P-wave (km/s) = 2.81217 6.61270 5.08115
#
# Compressibility (1/GPa) = 0.17017117
#
# Stress axis : x y z
#
# Youngs Moduli (GPa) = 14.02345 72.17411 15.36792
#
# Poissons Ratio (x) = 0.66427 -0.45982
# Poissons Ratio (y) = 0.12907 0.16519
# Poissons Ratio (z) = -0.41959 0.77580
#
# Static dielectric constant tensor:
#      x y z
#    x 3.010760 0.000000 0.442400 
#    y 0.000000 3.622630 0.000000 
#    z 0.442400 0.000000 3.921190 
# 
# 
# High freq. dielectric constant tensor:
#      x y z
#    x 1.684660 0.000000 0.031290 
#    y 0.000000 1.754040 0.000000 
#    z 0.031290 0.000000 1.760330 
# 
# From -- ./inp_files/229306.got.cif
#   From: 2010.06.25/outbox.cif.g09.slc.cpg/sg12_115_cif.got.tgz:229306.got - 2010.06.28 00:19:55.
