data_PCOD8085816
_publ_section_title
;
Structure prediction by ZEFSAII (Michael W. Deem and Ramdas Pophale) SiO2 
 PCOD8085816
Probable space group: C 2/M
;
_chemical_formula_sum "Si O2"
_cell_formula_units_Z 40
_cell_length_a 24.194861
_cell_length_b 8.888719
_cell_length_c 31.749781
_cell_angle_alpha 90.000000
_cell_angle_beta 19.662310
_cell_angle_gamma 90.000000
_cell_volume 2297.507672
_symmetry_space_group_name_H-M "C 2/M"
_symmetry_group_IT_number 12
_symmetry_cell_setting 'monoclinic'
loop_
_space_group_symop_operation_xyz
x,y,z
-x,y,-z
-x,-y,-z
x,-y,z
1/2+x,1/2+y,z
1/2-x,1/2+y,-z
1/2-x,1/2-y,-z
1/2+x,1/2-y,z
loop_
_atom_site_type_symbol
_atom_site_label
_atom_site_fract_x
_atom_site_fract_y
_atom_site_fract_z
Si Si1 0.749042 0.173259 0.297808
Si Si2 0.444146 0.172989 0.898895
Si Si3 0.709284 0.822864 0.573369
Si Si4 0.577951 0.326639 0.173831
Si Si5 0.418909 0.173978 0.492922
O O1 0.610104 0.215399 0.363252
O O2 0.681250 0.206695 0.392905
O O3 0.910289 0.275376 0.174141
O O4 0.798541 0.000000 0.257445
O O5 0.456053 0.275954 0.849258
O O6 0.466342 0.000000 0.869534
O O7 0.269928 0.196844 0.047242
O O8 0.750000 0.750000 0.500000
O O9 0.529255 0.768944 0.716857
O O10 0.849097 0.777470 0.506278
O O11 0.707381 0.000000 0.569721
O O12 0.524782 0.500000 0.215555
O O13 0.400927 0.000000 0.492869
#
# Coordination Sequence:
#
# PCOD8085816 Si02
#       5
#     8   8   8   8   8
#     4   9  17  30  52  77 108 141 167 208 263 312
#     4  10  19  30  50  79 108 137 170 213 262 308
#     4  12  24  37  55  77 103 139 178 218 259 306
#     4  10  20  34  50  73 107 140 173 214 259 308
#     4   9  18  33  51  76 106 139 174 210 258 310
#
# _framework density 17.410170000000001
#
# number of rings (size 3 to 8) (size 9 to 14) (size 15 to 20)
#    0.000    2.000    2.000    4.200    0.000    3.200 
#    0.000    2.000    0.000    1.200    0.000    8.400 
#    0.000    0.000    0.000    0.000    0.000    0.000 
#
# Total GULP energy -248002.782986 kJ/mol
# GULP energy per Si atom -12400.139149 kJ/mol
# Density = 1.737054 g / cm^3
# Si number density = 17.410170 Si / 1000 Ang^3
#
#
#
# Elastic Constant Matrix: (Units=GPa)
#
#
# Indices 1 2 3 4 5 6 
#
# 1 76.6211 54.9757 58.4687 -0.0188 -9.5872 0.0416
# 2 54.9757 122.6289 62.2000 -0.0062 -7.3584 0.0287
# 3 58.4687 62.2000 113.5256 -0.0278 -21.8721 -0.0025
# 4 -0.0188 -0.0062 -0.0278 30.7821 0.0043 -4.2458
# 5 -9.5872 -7.3584 -21.8721 0.0043 34.0437 -0.0088
# 6 0.0416 0.0287 -0.0025 -4.2458 -0.0088 29.2039
#
#
#
# Elastic Compliance Matrix: (Units=1/GPa)
#
#
# Indices 1 2 3 4 5 6 
#
# 1 0.024657 -0.006367 -0.009287 0.000001 -0.000399 -0.000030
# 2 -0.006367 0.013029 -0.004180 -0.000006 -0.001662 -0.000005
# 3 -0.009287 -0.004180 0.017352 0.000011 0.007629 0.000023
# 4 0.000001 -0.000006 0.000011 0.033151 0.000003 0.004820
# 5 -0.000399 -0.001662 0.007629 0.000003 0.033804 0.000014
# 6 -0.000030 -0.000005 0.000023 0.004820 0.000014 0.034943
#
#
# Mechanical properties :
#
#
# Convention : Reuss Voigt Hill
#
# Bulk Modulus (GPa) = 65.06386 73.78493 69.42440
# Shear Modulus (GPa) = 24.78598 27.94804 26.36701
#
# Velocity S-wave (km/s) = 3.77722 4.01093 3.89583
# Velocity P-wave (km/s) = 7.51502 7.99515 7.75880
#
# Compressibility (1/GPa) = 0.01536952
#
# Stress axis : x y z
#
# Youngs Moduli (GPa) = 40.55695 76.74931 57.63121
#
# Poissons Ratio (x) = 0.48867 0.53524
# Poissons Ratio (y) = 0.25823 0.24089
# Poissons Ratio (z) = 0.37666 0.32080
#
# Static dielectric constant tensor:
#      x y z
#    x 3.259950 0.000250 -0.380720 
#    y 0.000250 3.274120 0.000250 
#    z -0.380720 0.000250 3.420750 
# 
# 
# High freq. dielectric constant tensor:
#      x y z
#    x 1.643690 0.000000 -0.033130 
#    y 0.000000 1.680670 0.000010 
#    z -0.033130 0.000010 1.669940 
# 
# From -- ./inp_files/162733.got.cif
#   From: 2010.06.25/outbox.cif.g09.slc.cpg/sg12_82_cif.got.tgz:162733.got - 2010.06.28 00:19:55.
