data_PCOD8085011
_publ_section_title
;
Structure prediction by ZEFSAII (Michael W. Deem and Ramdas Pophale) SiO2 
 PCOD8085011
Probable space group: C 2/M
;
_chemical_formula_sum "Si O2"
_cell_formula_units_Z 40
_cell_length_a 23.802020
_cell_length_b 13.805876
_cell_length_c 11.179403
_cell_angle_alpha 90.000000
_cell_angle_beta 42.736077
_cell_angle_gamma 90.000000
_cell_volume 2493.012824
_symmetry_space_group_name_H-M "C 2/M"
_symmetry_group_IT_number 12
_symmetry_cell_setting 'monoclinic'
loop_
_space_group_symop_operation_xyz
x,y,z
-x,y,-z
-x,-y,-z
x,-y,z
1/2+x,1/2+y,z
1/2-x,1/2+y,-z
1/2-x,1/2-y,-z
1/2+x,1/2-y,z
loop_
_atom_site_type_symbol
_atom_site_label
_atom_site_fract_x
_atom_site_fract_y
_atom_site_fract_z
Si Si1 0.370505 0.611243 0.653142
Si Si2 0.961820 0.888492 0.747205
Si Si3 0.251851 0.202488 0.320227
Si Si4 0.079084 0.784377 0.947855
Si Si5 0.284757 0.608930 0.382804
O O1 0.342444 0.500000 0.691950
O O2 0.446714 0.629341 0.445193
O O3 0.395198 0.639240 0.749344
O O4 0.294290 0.678915 0.731412
O O5 0.950217 0.000000 0.803194
O O6 0.947642 0.819129 0.880340
O O7 0.351810 0.199322 0.145871
O O8 0.226964 0.311615 0.404699
O O9 0.223506 0.123324 0.461972
O O10 0.119863 0.872820 0.807397
O O11 0.000000 0.743559 0.000000
O O12 0.257900 0.500000 0.390892
#
# Coordination Sequence:
#
# PCOD8085011 Si02
#       5
#     8   8   8   8   8
#     4   9  17  32  50  70  96 123 153 187 232 283
#     4   9  18  29  48  75  95 118 150 194 242 275
#     4   9  19  30  46  71  92 125 159 178 241 274
#     4  10  19  29  45  71  99 119 154 192 229 273
#     4   9  18  31  46  69  93 119 155 191 232 277
#
# _framework density 16.044844000000001
#
# number of rings (size 3 to 8) (size 9 to 14) (size 15 to 20)
#    1.200    1.600    0.000    3.600    0.000    4.000 
#    0.000    0.000    0.000    2.400    0.000    2.800 
#    0.000    0.000    0.000    0.000    0.000    0.000 
#
# Total GULP energy -247812.208280 kJ/mol
# GULP energy per Si atom -12390.610414 kJ/mol
# Density = 1.600832 g / cm^3
# Si number density = 16.044844 Si / 1000 Ang^3
#
#
#
# Elastic Constant Matrix: (Units=GPa)
#
#
# Indices 1 2 3 4 5 6 
#
# 1 133.7620 38.5074 39.3028 0.0000 -8.8466 0.0000
# 2 38.5074 54.6886 12.2571 0.0000 -9.1569 0.0000
# 3 39.3028 12.2571 65.0631 0.0000 5.1678 0.0000
# 4 0.0000 0.0000 0.0000 10.7774 0.0000 -3.8187
# 5 -8.8466 -9.1569 5.1678 0.0000 19.2837 0.0000
# 6 0.0000 0.0000 0.0000 -3.8187 0.0000 22.1797
#
#
#
# Elastic Compliance Matrix: (Units=1/GPa)
#
#
# Indices 1 2 3 4 5 6 
#
# 1 0.011179 -0.005877 -0.005958 0.000000 0.003934 0.000000
# 2 -0.005877 0.024393 -0.001789 0.000000 0.009366 0.000000
# 3 -0.005958 -0.001789 0.020016 0.000000 -0.008947 0.000000
# 4 0.000000 0.000000 0.000000 0.098814 0.000000 0.017013
# 5 0.003934 0.009366 -0.008947 0.000000 0.060508 0.000000
# 6 0.000000 0.000000 0.000000 0.017013 0.000000 0.048015
#
#
# Mechanical properties :
#
#
# Convention : Reuss Voigt Hill
#
# Bulk Modulus (GPa) = 35.28638 48.18314 41.73476
# Shear Modulus (GPa) = 16.68780 21.34459 19.01619
#
# Velocity S-wave (km/s) = 3.22851 3.65130 3.44639
# Velocity P-wave (km/s) = 5.99482 6.91892 6.47338
#
# Compressibility (1/GPa) = 0.02833954
#
# Stress axis : x y z
#
# Youngs Moduli (GPa) = 89.45586 40.99584 49.95881
#
# Poissons Ratio (x) = 0.24093 0.29766
# Poissons Ratio (y) = 0.52574 0.08938
# Poissons Ratio (z) = 0.53298 0.07334
#
# Static dielectric constant tensor:
#      x y z
#    x 2.955600 0.000000 0.045080 
#    y 0.000000 2.696320 0.000000 
#    z 0.045080 0.000000 2.939470 
# 
# 
# High freq. dielectric constant tensor:
#      x y z
#    x 1.612060 0.000000 0.009920 
#    y 0.000000 1.582890 0.000000 
#    z 0.009920 0.000000 1.610930 
# 
# From -- ./inp_files/182849.got.cif
#   From: 2010.06.25/outbox.cif.g09.slc.cpg/sg12_92_cif.got.tgz:182849.got - 2010.06.28 00:19:55.
