data_PCOD8085092
_publ_section_title
;
Structure prediction by ZEFSAII (Michael W. Deem and Ramdas Pophale) SiO2 
 PCOD8085092
Probable space group: C 2/M
;
_chemical_formula_sum "Si O2"
_cell_formula_units_Z 56
_cell_length_a 27.039260
_cell_length_b 15.255386
_cell_length_c 9.221783
_cell_angle_alpha 90.000000
_cell_angle_beta 122.880199
_cell_angle_gamma 90.000000
_cell_volume 3194.571894
_symmetry_space_group_name_H-M "C 2/M"
_symmetry_group_IT_number 12
_symmetry_cell_setting 'monoclinic'
loop_
_space_group_symop_operation_xyz
x,y,z
-x,y,-z
-x,-y,-z
x,-y,z
1/2+x,1/2+y,z
1/2-x,1/2+y,-z
1/2-x,1/2-y,-z
1/2+x,1/2-y,z
loop_
_atom_site_type_symbol
_atom_site_label
_atom_site_fract_x
_atom_site_fract_y
_atom_site_fract_z
Si Si1 0.844043 0.226821 0.722366
Si Si2 0.792337 0.092997 0.431277
Si Si3 0.184435 0.161537 0.827679
Si Si4 0.942642 0.900104 0.328374
Si Si5 0.822331 0.595773 0.571340
Si Si6 0.558954 0.401416 0.008654
Si Si7 0.246286 0.320120 0.787607
O O1 0.829169 0.173384 0.553241
O O2 0.863440 0.323249 0.692486
O O3 0.895273 0.175763 0.885452
O O4 0.786982 0.233621 0.737369
O O5 0.790451 0.096943 0.254192
O O6 0.726714 0.092160 0.384478
O O7 0.822447 0.000000 0.522785
O O8 0.113794 0.158316 0.722134
O O9 0.202720 0.259630 0.811695
O O10 0.211198 0.132558 0.026935
O O11 0.000000 0.861609 0.500000
O O12 0.930121 0.000000 0.358442
O O13 0.957564 0.895392 0.184217
O O14 0.854827 0.500000 0.617031
O O15 0.792947 0.611543 0.366256
O O16 0.583041 0.500000 0.083737
O O17 0.500000 0.380634 0.000000
#
# Coordination Sequence:
#
# PCOD8085092 Si02
#       7
#     8   8   8   8   8   8   8
#     4  11  18  37  52  74 108 140 180 225 269 322
#     4  10  19  29  49  76 102 139 176 210 259 319
#     4  11  19  33  52  77 109 147 181 223 271 329
#     4  10  22  36  50  76 113 147 182 218 256 321
#     4  10  20  34  51  74 104 140 182 222 264 319
#     4  10  22  37  55  79 107 145 185 217 258 319
#     4  10  20  33  53  77 109 143 181 225 276 330
#
# _framework density 17.529734999999999
#
# number of rings (size 3 to 8) (size 9 to 14) (size 15 to 20)
#    0.000    1.714    4.286    1.714    2.000    1.714 
#    0.000    0.000    0.000    0.429    0.000    0.000 
#    0.000    2.286    0.000    0.000    0.000    0.000 
#
# Total GULP energy -346958.797332 kJ/mol
# GULP energy per Si atom -12391.385619 kJ/mol
# Density = 1.748984 g / cm^3
# Si number density = 17.529735 Si / 1000 Ang^3
#
#
#
# Elastic Constant Matrix: (Units=GPa)
#
#
# Indices 1 2 3 4 5 6 
#
# 1 68.9606 20.9867 33.1669 0.0000 -3.7565 0.0000
# 2 20.9867 118.0741 40.0593 0.0000 5.9561 0.0000
# 3 33.1669 40.0593 100.2090 0.0000 -3.6859 0.0000
# 4 0.0000 0.0000 0.0000 14.9220 0.0000 -0.0392
# 5 -3.7565 5.9561 -3.6859 0.0000 29.5461 0.0000
# 6 0.0000 0.0000 0.0000 -0.0392 0.0000 16.8331
#
#
#
# Elastic Compliance Matrix: (Units=1/GPa)
#
#
# Indices 1 2 3 4 5 6 
#
# 1 0.017524 -0.001464 -0.005146 0.000000 0.001881 0.000000
# 2 -0.001464 0.010104 -0.003653 0.000000 -0.002679 0.000000
# 3 -0.005146 -0.003653 0.013206 0.000000 0.001730 0.000000
# 4 0.000000 0.000000 0.000000 0.067015 0.000000 0.000156
# 5 0.001881 -0.002679 0.001730 0.000000 0.034840 0.000000
# 6 0.000000 0.000000 0.000000 0.000156 0.000000 0.059407
#
#
# Mechanical properties :
#
#
# Convention : Reuss Voigt Hill
#
# Bulk Modulus (GPa) = 49.23980 52.85217 51.04599
# Shear Modulus (GPa) = 21.79677 25.12897 23.46287
#
# Velocity S-wave (km/s) = 3.53004 3.79027 3.66247
# Velocity P-wave (km/s) = 6.69068 7.02640 6.86060
#
# Compressibility (1/GPa) = 0.02030877
#
# Stress axis : x y z
#
# Youngs Moduli (GPa) = 57.06521 98.97085 75.72190
#
# Poissons Ratio (x) = 0.14488 0.38964
# Poissons Ratio (y) = 0.08353 0.27662
# Poissons Ratio (z) = 0.29364 0.36156
#
# Static dielectric constant tensor:
#      x y z
#    x 3.081060 0.000000 -0.233700 
#    y 0.000000 3.479280 0.000000 
#    z -0.233700 0.000000 3.362970 
# 
# 
# High freq. dielectric constant tensor:
#      x y z
#    x 1.653660 0.000000 -0.029640 
#    y 0.000000 1.666950 0.000000 
#    z -0.029640 0.000000 1.678900 
# 
# From -- ./inp_files/87351.got.cif
#   From: 2010.06.25/outbox.cif.g09.slc.cpg/sg12_44_cif.got.tgz:87351.got - 2010.06.28 00:19:55.
