data_PCOD8085156
_publ_section_title
;
Structure prediction by ZEFSAII (Michael W. Deem and Ramdas Pophale) SiO2 
 PCOD8085156
Probable space group: C 2/M
;
_chemical_formula_sum "Si O2"
_cell_formula_units_Z 64
_cell_length_a 31.584632
_cell_length_b 9.106307
_cell_length_c 14.397259
_cell_angle_alpha 90.000000
_cell_angle_beta 91.349325
_cell_angle_gamma 90.000000
_cell_volume 4139.782106
_symmetry_space_group_name_H-M "C 2/M"
_symmetry_group_IT_number 12
_symmetry_cell_setting 'monoclinic'
loop_
_space_group_symop_operation_xyz
x,y,z
-x,y,-z
-x,-y,-z
x,-y,z
1/2+x,1/2+y,z
1/2-x,1/2+y,-z
1/2-x,1/2-y,-z
1/2+x,1/2-y,z
loop_
_atom_site_type_symbol
_atom_site_label
_atom_site_fract_x
_atom_site_fract_y
_atom_site_fract_z
Si Si1 0.748021 0.331026 0.404478
Si Si2 0.547615 0.826082 0.903431
Si Si3 0.075772 0.173924 0.288123
Si Si4 0.451093 0.826174 0.891454
Si Si5 0.416562 0.174142 0.282398
Si Si6 0.656484 0.328425 0.407754
Si Si7 0.339103 0.826794 0.394977
Si Si8 0.499286 0.171228 0.608494
O O1 0.750257 0.500000 0.429991
O O2 0.750000 0.250000 0.500000
O O3 0.701886 0.295191 0.357315
O O4 0.791585 0.290108 0.351595
O O5 0.499659 0.775712 0.880702
O O6 0.577467 0.763716 0.822449
O O7 0.547283 0.000000 0.903204
O O8 0.563678 0.774914 0.005900
O O9 0.076951 0.241075 0.185009
O O10 0.119563 0.224431 0.337763
O O11 0.037392 0.235948 0.346154
O O12 0.071648 0.000000 0.281507
O O13 0.445643 0.000000 0.877045
O O14 0.373222 0.238146 0.323771
O O15 0.455928 0.223256 0.347841
O O16 0.414277 0.000000 0.278209
O O17 0.651954 0.500000 0.430243
O O18 0.653082 0.243501 0.504381
O O19 0.346158 0.000000 0.407278
O O20 0.500000 0.205623 0.500000
O O21 0.490819 0.000000 0.628672
#
# Coordination Sequence:
#
# PCOD8085156 Si02
#       8
#     8   8   8   8   8   8   8   8
#     4   8  14  26  42  60  81 106 137 171 206 241
#     4   8  14  26  46  65  80 103 135 173 219 255
#     4  11  21  30  41  60  86 116 144 172 206 243
#     4   9  16  29  48  63  77 105 142 176 212 253
#     4   9  15  25  42  65  87 104 130 171 213 248
#     4   9  18  30  41  56  86 120 141 164 204 248
#     4   9  16  26  45  68  84 103 138 178 206 238
#     4  10  19  30  44  60  83 116 146 170 200 241
#
# _framework density 15.459751000000001
#
# number of rings (size 3 to 8) (size 9 to 14) (size 15 to 20)
#    0.000    2.875    1.250    1.875    0.000    2.250 
#    0.000    1.875    0.000    0.000    0.000    0.875 
#    0.000    0.000    0.000    0.000    0.000    0.000 
#
# Total GULP energy -396418.089455 kJ/mol
# GULP energy per Si atom -12388.065295 kJ/mol
# Density = 1.542456 g / cm^3
# Si number density = 15.459751 Si / 1000 Ang^3
#
#
#
# Elastic Constant Matrix: (Units=GPa)
#
#
# Indices 1 2 3 4 5 6 
#
# 1 141.4181 25.6166 72.5580 0.0000 -13.0819 0.0000
# 2 25.6166 25.1045 23.8567 0.0000 -0.7774 0.0000
# 3 72.5580 23.8567 117.8494 0.0000 -9.5173 0.0000
# 4 0.0000 0.0000 0.0000 12.3316 0.0000 1.1560
# 5 -13.0819 -0.7774 -9.5173 0.0000 12.8348 0.0000
# 6 0.0000 0.0000 0.0000 1.1560 0.0000 16.6526
#
#
#
# Elastic Compliance Matrix: (Units=1/GPa)
#
#
# Indices 1 2 3 4 5 6 
#
# 1 0.011664 -0.006719 -0.005206 0.000000 0.007622 0.000000
# 2 -0.006719 0.053460 -0.007421 0.000000 -0.009114 0.000000
# 3 -0.005206 -0.007421 0.013539 0.000000 0.004284 0.000000
# 4 0.000000 0.000000 0.000000 0.081624 0.000000 -0.005666
# 5 0.007622 -0.009114 0.004284 0.000000 0.088306 0.000000
# 6 0.000000 0.000000 0.000000 -0.005666 0.000000 0.060444
#
#
# Mechanical properties :
#
#
# Convention : Reuss Voigt Hill
#
# Bulk Modulus (GPa) = 25.01839 58.71495 41.86667
# Shear Modulus (GPa) = 13.84837 19.18651 16.51744
#
# Velocity S-wave (km/s) = 2.99619 3.52669 3.27221
# Velocity P-wave (km/s) = 5.30920 7.39223 6.43555
#
# Compressibility (1/GPa) = 0.03997060
#
# Stress axis : x y z
#
# Youngs Moduli (GPa) = 85.73093 18.70561 73.86168
#
# Poissons Ratio (x) = 0.12569 0.38451
# Poissons Ratio (y) = 0.57605 0.54814
# Poissons Ratio (z) = 0.44630 0.13882
#
# Static dielectric constant tensor:
#      x y z
#    x 3.490560 0.000000 -0.120080 
#    y 0.000000 2.629400 0.000000 
#    z -0.120080 0.000000 3.083760 
# 
# 
# High freq. dielectric constant tensor:
#      x y z
#    x 1.591710 0.000000 -0.004010 
#    y 0.000000 1.570890 0.000000 
#    z -0.004010 0.000000 1.575640 
# 
# From -- ./inp_files/248393.got.cif
#   From: 2010.06.25/outbox.cif.g09.slc.cpg/sg12_125_cif.got.tgz:248393.got - 2010.06.28 00:19:55.
