data_PCOD8085447
_publ_section_title
;
Structure prediction by ZEFSAII (Michael W. Deem and Ramdas Pophale) SiO2 
 PCOD8085447
Probable space group: C 2/M
;
_chemical_formula_sum "Si O2"
_cell_formula_units_Z 48
_cell_length_a 23.726325
_cell_length_b 8.948103
_cell_length_c 13.593242
_cell_angle_alpha 90.000000
_cell_angle_beta 70.716634
_cell_angle_gamma 90.000000
_cell_volume 2724.012163
_symmetry_space_group_name_H-M "C 2/M"
_symmetry_group_IT_number 12
_symmetry_cell_setting 'monoclinic'
loop_
_space_group_symop_operation_xyz
x,y,z
-x,y,-z
-x,-y,-z
x,-y,z
1/2+x,1/2+y,z
1/2-x,1/2+y,-z
1/2-x,1/2-y,-z
1/2+x,1/2-y,z
loop_
_atom_site_type_symbol
_atom_site_label
_atom_site_fract_x
_atom_site_fract_y
_atom_site_fract_z
Si Si1 0.382236 0.673669 0.865251
Si Si2 0.800103 0.174733 0.745405
Si Si3 0.688001 0.832669 0.934162
Si Si4 0.763039 0.177688 0.388576
Si Si5 0.504644 0.677024 0.882925
Si Si6 0.123981 0.670876 0.773000
O O1 0.385151 0.500000 0.883587
O O2 0.364069 0.706688 0.761487
O O3 0.446589 0.739981 0.857719
O O4 0.329310 0.730952 0.964782
O O5 0.749884 0.223674 0.852536
O O6 0.791063 0.272237 0.652709
O O7 0.792234 0.000000 0.722289
O O8 0.636877 0.822246 0.881268
O O9 0.694542 0.000000 0.970391
O O10 0.750000 0.250000 0.500000
O O11 0.826840 0.236350 0.315038
O O12 0.764361 0.000000 0.395597
O O13 0.512606 0.500000 0.868109
O O14 0.559409 0.755532 0.795716
O O15 0.500000 0.723475 0.000000
O O16 0.124158 0.500000 0.734610
#
# Coordination Sequence:
#
# PCOD8085447 Si02
#       6
#     8   8   8   8   8   8
#     4  10  19  30  47  70 105 147 180 214 254 301
#     4   9  19  34  49  73 105 137 174 215 262 313
#     4   9  17  28  44  68 101 137 177 219 256 302
#     4  11  22  38  61  83 103 129 165 216 272 321
#     4  10  19  31  48  74 109 148 188 220 251 301
#     4  10  20  34  52  77 107 140 179 220 261 307
#
# _framework density 17.621067
#
# number of rings (size 3 to 8) (size 9 to 14) (size 15 to 20)
#    0.000    2.167    1.667    3.500    0.000    4.333 
#    0.000    0.000    0.000    1.000    0.000    7.000 
#    0.000    0.000    0.000    0.000    0.000    0.000 
#
# Total GULP energy -297518.460982 kJ/mol
# GULP energy per Si atom -12396.602541 kJ/mol
# Density = 1.758096 g / cm^3
# Si number density = 17.621067 Si / 1000 Ang^3
#
#
#
# Elastic Constant Matrix: (Units=GPa)
#
#
# Indices 1 2 3 4 5 6 
#
# 1 119.5743 44.6699 46.4121 0.0000 17.2452 0.0000
# 2 44.6699 83.6043 47.3787 0.0000 7.7002 0.0000
# 3 46.4121 47.3787 84.6670 0.0000 11.9034 0.0000
# 4 0.0000 0.0000 0.0000 29.0064 0.0000 -1.6332
# 5 17.2452 7.7002 11.9034 0.0000 16.8066 0.0000
# 6 0.0000 0.0000 0.0000 -1.6332 0.0000 24.9803
#
#
#
# Elastic Compliance Matrix: (Units=1/GPa)
#
#
# Indices 1 2 3 4 5 6 
#
# 1 0.012364 -0.003895 -0.003404 0.000000 -0.008491 0.000000
# 2 -0.003895 0.018765 -0.008572 0.000000 0.001470 0.000000
# 3 -0.003404 -0.008572 0.019358 0.000000 -0.006290 0.000000
# 4 0.000000 0.000000 0.000000 0.034603 0.000000 0.002262
# 5 -0.008491 0.001470 -0.006290 0.000000 0.071995 0.000000
# 6 0.000000 0.000000 0.000000 0.002262 0.000000 0.040179
#
#
# Mechanical properties :
#
#
# Convention : Reuss Voigt Hill
#
# Bulk Modulus (GPa) = 53.34955 62.75188 58.05071
# Shear Modulus (GPa) = 21.25363 24.11763 22.68563
#
# Velocity S-wave (km/s) = 3.47673 3.70358 3.59195
# Velocity P-wave (km/s) = 6.81606 7.34696 7.08648
#
# Compressibility (1/GPa) = 0.01874430
#
# Stress axis : x y z
#
# Youngs Moduli (GPa) = 80.88028 53.29211 51.65729
#
# Poissons Ratio (x) = 0.20756 0.17586
# Poissons Ratio (y) = 0.31501 0.44281
# Poissons Ratio (z) = 0.27534 0.45683
#
# Static dielectric constant tensor:
#      x y z
#    x 3.548680 0.000000 0.150840 
#    y 0.000000 3.236580 0.000000 
#    z 0.150840 0.000000 2.998790 
# 
# 
# High freq. dielectric constant tensor:
#      x y z
#    x 1.687800 0.000000 0.008820 
#    y 0.000000 1.680780 0.000000 
#    z 0.008820 0.000000 1.645250 
# 
# From -- ./inp_files/172111.got.cif
#   From: 2010.06.25/outbox.cif.g09.slc.cpg/sg12_87_cif.got.tgz:172111.got - 2010.06.28 00:19:55.
