data_PCOD8085880
_publ_section_title
;
Structure prediction by ZEFSAII (Michael W. Deem and Ramdas Pophale) SiO2 
 PCOD8085880
Probable space group: C 2/M
;
_chemical_formula_sum "Si O2"
_cell_formula_units_Z 56
_cell_length_a 22.467655
_cell_length_b 8.941429
_cell_length_c 24.238039
_cell_angle_alpha 90.000000
_cell_angle_beta 35.827848
_cell_angle_gamma 90.000000
_cell_volume 2850.224887
_symmetry_space_group_name_H-M "C 2/M"
_symmetry_group_IT_number 12
_symmetry_cell_setting 'monoclinic'
loop_
_space_group_symop_operation_xyz
x,y,z
-x,y,-z
-x,-y,-z
x,-y,z
1/2+x,1/2+y,z
1/2-x,1/2+y,-z
1/2-x,1/2-y,-z
1/2+x,1/2-y,z
loop_
_atom_site_type_symbol
_atom_site_label
_atom_site_fract_x
_atom_site_fract_y
_atom_site_fract_z
Si Si1 0.253467 0.175436 0.862387
Si Si2 0.218164 0.176594 0.387439
Si Si3 0.443655 0.673741 0.776563
Si Si4 0.690052 0.675836 0.283242
Si Si5 0.172922 0.823523 0.600669
Si Si6 0.658043 0.328600 0.040752
Si Si7 0.014303 0.332601 0.554078
O O1 0.361717 0.225350 0.806845
O O2 0.231352 0.262375 0.821596
O O3 0.257919 0.000000 0.846138
O O4 0.159250 0.219128 0.974834
O O5 0.227491 0.221975 0.316086
O O6 0.309165 0.255503 0.351852
O O7 0.113707 0.235866 0.493017
O O8 0.222380 0.000000 0.392650
O O9 0.418932 0.500000 0.782773
O O10 0.556890 0.715337 0.671130
O O11 0.440248 0.701879 0.846574
O O12 0.677011 0.500000 0.288847
O O13 0.582485 0.749623 0.347495
O O14 0.250000 0.750000 0.500000
O O15 0.191041 0.000000 0.588724
O O16 0.687685 0.500000 0.018324
O O17 0.750000 0.250000 0.000000
O O18 0.024741 0.500000 0.570972
O O19 0.000000 0.340900 0.500000
#
# Coordination Sequence:
#
# PCOD8085880 Si02
#       7
#     8   8   8   8   8   8   8
#     4  10  19  30  52  84 111 134 167 215 263 311
#     4  10  21  37  54  72 100 138 178 217 259 308
#     4   9  19  36  55  75 104 141 176 212 262 315
#     4  10  20  33  51  75 105 139 171 210 262 315
#     4  11  24  39  56  76 102 140 181 221 259 304
#     4   8  15  30  51  76 104 133 168 211 260 312
#     4   9  17  30  49  72  97 128 168 212 256 302
#
# _framework density 19.647572
#
# number of rings (size 3 to 8) (size 9 to 14) (size 15 to 20)
#    0.000    2.429    0.000    2.143    2.000    5.143 
#    0.000    0.000    0.000    0.857    0.000    6.000 
#    0.000    0.000    0.000    0.000    0.000    0.000 
#
# Total GULP energy -346939.795458 kJ/mol
# GULP energy per Si atom -12390.706981 kJ/mol
# Density = 1.960285 g / cm^3
# Si number density = 19.647572 Si / 1000 Ang^3
#
#
#
# Elastic Constant Matrix: (Units=GPa)
#
#
# Indices 1 2 3 4 5 6 
#
# 1 50.1173 19.0470 14.2734 0.0008 11.8010 -0.0019
# 2 19.0470 75.6902 25.7297 0.0000 9.4447 -0.0016
# 3 14.2734 25.7297 94.5163 0.0001 23.1128 -0.0008
# 4 0.0008 0.0000 0.0001 27.4193 0.0002 6.0971
# 5 11.8010 9.4447 23.1128 0.0002 28.2394 0.0002
# 6 -0.0019 -0.0016 -0.0008 6.0971 0.0002 28.1700
#
#
#
# Elastic Compliance Matrix: (Units=1/GPa)
#
#
# Indices 1 2 3 4 5 6 
#
# 1 0.023792 -0.004881 -0.000290 -0.000001 -0.008072 0.000002
# 2 -0.004881 0.015654 -0.003429 0.000000 -0.000389 0.000000
# 3 -0.000290 -0.003429 0.014062 0.000000 -0.010241 0.000000
# 4 -0.000001 0.000000 0.000000 0.038315 0.000000 -0.008293
# 5 -0.008072 -0.000389 -0.010241 0.000000 0.047297 -0.000001
# 6 0.000002 0.000000 0.000000 -0.008293 -0.000001 0.037294
#
#
# Mechanical properties :
#
#
# Convention : Reuss Voigt Hill
#
# Bulk Modulus (GPa) = 27.54305 37.60268 32.57287
# Shear Modulus (GPa) = 24.30536 27.51733 25.91134
#
# Velocity S-wave (km/s) = 3.52101 3.74645 3.63548
# Velocity P-wave (km/s) = 5.52983 6.15586 5.85122
#
# Compressibility (1/GPa) = 0.03630680
#
# Stress axis : x y z
#
# Youngs Moduli (GPa) = 42.03149 63.88016 71.11477
#
# Poissons Ratio (x) = 0.31181 0.02063
# Poissons Ratio (y) = 0.20516 0.24387
# Poissons Ratio (z) = 0.01220 0.21906
#
# Static dielectric constant tensor:
#      x y z
#    x 3.379380 0.000000 0.353400 
#    y 0.000000 3.620830 0.000000 
#    z 0.353400 0.000000 4.202710 
# 
# 
# High freq. dielectric constant tensor:
#      x y z
#    x 1.729960 0.000000 0.032850 
#    y 0.000000 1.774530 0.000000 
#    z 0.032850 0.000000 1.768140 
# 
# From -- ./inp_files/348476.got.cif
#   From: 2010.06.25/outbox.cif.g09.slc.cpg/sg12_175_cif.got.tgz:348476.got - 2010.06.28 00:19:55.
