data_PCOD8085470
_publ_section_title
;
Structure prediction by ZEFSAII (Michael W. Deem and Ramdas Pophale) SiO2 
 PCOD8085470
Probable space group: C 2/M
;
_chemical_formula_sum "Si O2"
_cell_formula_units_Z 48
_cell_length_a 17.578502
_cell_length_b 13.765472
_cell_length_c 9.495426
_cell_angle_alpha 90.000000
_cell_angle_beta 89.178894
_cell_angle_gamma 90.000000
_cell_volume 2297.432841
_symmetry_space_group_name_H-M "C 2/M"
_symmetry_group_IT_number 12
_symmetry_cell_setting 'monoclinic'
loop_
_space_group_symop_operation_xyz
x,y,z
-x,y,-z
-x,-y,-z
x,-y,z
1/2+x,1/2+y,z
1/2-x,1/2+y,-z
1/2-x,1/2-y,-z
1/2+x,1/2-y,z
loop_
_atom_site_type_symbol
_atom_site_label
_atom_site_fract_x
_atom_site_fract_y
_atom_site_fract_z
Si Si1 0.782814 0.112666 0.461134
Si Si2 0.209319 0.607781 0.742726
Si Si3 0.151439 0.388654 0.267428
Si Si4 0.879318 0.107191 0.851329
Si Si5 0.420785 0.285757 0.579603
Si Si6 0.663595 0.221244 0.988234
O O1 0.722974 0.147552 0.584523
O O2 0.739811 0.127219 0.313627
O O3 0.858605 0.176685 0.468059
O O4 0.804230 0.000000 0.487953
O O5 0.173593 0.500000 0.739446
O O6 0.290458 0.605875 0.817462
O O7 0.150834 0.676555 0.832192
O O8 0.126624 0.500000 0.290485
O O9 0.097499 0.322079 0.364600
O O10 0.144825 0.361208 0.104404
O O11 0.925238 0.141024 0.712173
O O12 0.889800 0.184093 0.980245
O O13 0.907538 0.000000 0.897089
O O14 0.500000 0.283228 0.500000
O O15 0.750000 0.250000 0.000000
#
# Coordination Sequence:
#
# PCOD8085470 Si02
#       6
#     8   8   8   8   8   8
#     4   9  18  32  50  74 101 126 155 198 246 286
#     4   8  13  24  43  67  94 121 151 188 234 289
#     4  10  20  33  49  72 102 128 155 199 247 284
#     4   8  15  26  39  60  89 117 150 193 233 271
#     4  10  19  30  47  70  97 131 165 196 234 285
#     4   9  16  26  43  69  96 123 155 193 240 286
#
# _framework density 20.892885
#
# number of rings (size 3 to 8) (size 9 to 14) (size 15 to 20)
#    0.000    3.000    0.000    3.500    0.000    2.333 
#    0.000    0.000    0.000    0.000    0.000   42.000 
#    0.000   90.667    0.000    0.000    0.000    0.000 
#
# Total GULP energy -297411.302092 kJ/mol
# GULP energy per Si atom -12392.137587 kJ/mol
# Density = 2.084533 g / cm^3
# Si number density = 20.892885 Si / 1000 Ang^3
#
#
#
# Elastic Constant Matrix: (Units=GPa)
#
#
# Indices 1 2 3 4 5 6 
#
# 1 55.4549 48.9451 33.2938 0.0000 -26.5074 0.0000
# 2 48.9451 132.6383 34.7745 0.0000 -17.9225 0.0000
# 3 33.2938 34.7745 55.1013 0.0000 -14.1747 0.0000
# 4 0.0000 0.0000 0.0000 19.5193 0.0000 -2.8231
# 5 -26.5074 -17.9225 -14.1747 0.0000 22.4590 0.0000
# 6 0.0000 0.0000 0.0000 -2.8231 0.0000 11.2738
#
#
#
# Elastic Compliance Matrix: (Units=1/GPa)
#
#
# Indices 1 2 3 4 5 6 
#
# 1 0.068035 -0.012386 -0.018120 0.000000 0.058978 0.000000
# 2 -0.012386 0.011653 -0.001479 0.000000 -0.006253 0.000000
# 3 -0.018120 -0.001479 0.028921 0.000000 -0.004313 0.000000
# 4 0.000000 0.000000 0.000000 0.053157 0.000000 0.013311
# 5 0.058978 -0.006253 -0.004313 0.000000 0.106423 0.000000
# 6 0.000000 0.000000 0.000000 0.013311 0.000000 0.092035
#
#
# Mechanical properties :
#
#
# Convention : Reuss Voigt Hill
#
# Bulk Modulus (GPa) = 22.40174 53.02459 37.71316
# Shear Modulus (GPa) = 11.38770 19.06249 15.22510
#
# Velocity S-wave (km/s) = 2.33717 3.02386 2.70241
# Velocity P-wave (km/s) = 4.24601 6.13400 5.27516
#
# Compressibility (1/GPa) = 0.04463939
#
# Stress axis : x y z
#
# Youngs Moduli (GPa) = 14.69838 85.81804 34.57751
#
# Poissons Ratio (x) = 1.06292 0.62654
# Poissons Ratio (y) = 0.18205 0.05113
# Poissons Ratio (z) = 0.26633 0.12689
#
# Static dielectric constant tensor:
#      x y z
#    x 3.050050 0.000000 -0.253670 
#    y 0.000000 4.487250 0.000000 
#    z -0.253670 0.000000 4.127130 
# 
# 
# High freq. dielectric constant tensor:
#      x y z
#    x 1.739610 0.000000 -0.021660 
#    y 0.000000 1.841750 0.000000 
#    z -0.021660 0.000000 1.812070 
# 
# From -- ./inp_files/73594.got.cif
#   From: 2010.06.25/outbox.cif.g09.slc.cpg/sg12_37_cif.got.tgz:73594.got - 2010.06.28 00:19:55.
