data_PCOD8085643
_publ_section_title
;
Structure prediction by ZEFSAII (Michael W. Deem and Ramdas Pophale) SiO2 
 PCOD8085643
Probable space group: C 2/M
;
_chemical_formula_sum "Si O2"
_cell_formula_units_Z 48
_cell_length_a 21.427233
_cell_length_b 10.254089
_cell_length_c 21.448479
_cell_angle_alpha 90.000000
_cell_angle_beta 32.762804
_cell_angle_gamma 90.000000
_cell_volume 2550.276647
_symmetry_space_group_name_H-M "C 2/M"
_symmetry_group_IT_number 12
_symmetry_cell_setting 'monoclinic'
loop_
_space_group_symop_operation_xyz
x,y,z
-x,y,-z
-x,-y,-z
x,-y,z
1/2+x,1/2+y,z
1/2-x,1/2+y,-z
1/2-x,1/2-y,-z
1/2+x,1/2-y,z
loop_
_atom_site_type_symbol
_atom_site_label
_atom_site_fract_x
_atom_site_fract_y
_atom_site_fract_z
Si Si1 0.873602 0.213461 0.978779
Si Si2 0.336749 0.360309 0.875229
Si Si3 0.047712 0.651378 0.299986
Si Si4 0.241969 0.145101 0.800657
Si Si5 0.127045 0.845899 0.774652
Si Si6 0.716344 0.149240 0.475068
O O1 0.834139 0.128806 0.952369
O O2 0.010591 0.237274 0.861597
O O3 0.793800 0.342977 0.041714
O O4 0.845262 0.142646 0.067689
O O5 0.381817 0.500000 0.811851
O O6 0.423697 0.243531 0.783106
O O7 0.074694 0.500000 0.260018
O O8 0.132782 0.701227 0.284046
O O9 0.916988 0.669277 0.431181
O O10 0.186381 0.215071 0.787044
O O11 0.263669 0.000000 0.758332
O O12 0.210879 0.818071 0.646938
O O13 0.096148 0.000000 0.806114
O O14 0.750000 0.250000 0.500000
O O15 0.737897 0.000000 0.479489
#
# Coordination Sequence:
#
# PCOD8085643 Si02
#       6
#     8   8   8   8   8   8
#     4  10  19  30  48  74 105 134 169 211 253 303
#     4  10  20  33  53  78 105 139 173 209 257 309
#     4   9  19  35  54  77 105 134 172 218 257 299
#     4   9  17  30  50  75 102 134 170 212 259 302
#     4  10  19  31  51  77 105 137 172 210 256 309
#     4  10  21  36  54  79 107 136 171 212 257 303
#
# _framework density 18.821487000000001
#
# number of rings (size 3 to 8) (size 9 to 14) (size 15 to 20)
#    0.000    2.333    0.000    3.000    0.000    8.667 
#    0.000    4.167    0.000   12.000    0.000    5.833 
#    0.000    0.000    0.000    0.000    0.000    0.000 
#
# Total GULP energy -297358.488925 kJ/mol
# GULP energy per Si atom -12389.937039 kJ/mol
# Density = 1.877865 g / cm^3
# Si number density = 18.821487 Si / 1000 Ang^3
#
#
#
# Elastic Constant Matrix: (Units=GPa)
#
#
# Indices 1 2 3 4 5 6 
#
# 1 135.4820 33.4258 68.6074 0.0000 -0.7312 0.0000
# 2 33.4258 68.8157 33.7941 0.0000 -2.4762 0.0000
# 3 68.6074 33.7941 140.0543 0.0000 -16.5027 0.0000
# 4 0.0000 0.0000 0.0000 15.4658 0.0000 -2.5808
# 5 -0.7312 -2.4762 -16.5027 0.0000 29.3176 0.0000
# 6 0.0000 0.0000 0.0000 -2.5808 0.0000 15.9387
#
#
#
# Elastic Compliance Matrix: (Units=1/GPa)
#
#
# Indices 1 2 3 4 5 6 
#
# 1 0.010480 -0.002849 -0.004759 0.000000 -0.002658 0.000000
# 2 -0.002849 0.017282 -0.002796 0.000000 -0.000185 0.000000
# 3 -0.004759 -0.002796 0.010822 0.000000 0.005737 0.000000
# 4 0.000000 0.000000 0.000000 0.066454 0.000000 0.010760
# 5 -0.002658 -0.000185 0.005737 0.000000 0.037256 0.000000
# 6 0.000000 0.000000 0.000000 0.010760 0.000000 0.064483
#
#
# Mechanical properties :
#
#
# Convention : Reuss Voigt Hill
#
# Bulk Modulus (GPa) = 56.25947 68.44519 62.35233
# Shear Modulus (GPa) = 21.41224 26.04608 23.72916
#
# Velocity S-wave (km/s) = 3.37656 3.72405 3.55455
# Velocity P-wave (km/s) = 6.71994 7.41187 7.07437
#
# Compressibility (1/GPa) = 0.01777478
#
# Stress axis : x y z
#
# Youngs Moduli (GPa) = 95.42266 57.86429 92.40163
#
# Poissons Ratio (x) = 0.16483 0.43978
# Poissons Ratio (y) = 0.27183 0.25839
# Poissons Ratio (z) = 0.45416 0.16181
#
# Static dielectric constant tensor:
#      x y z
#    x 3.658350 0.000000 -0.120020 
#    y 0.000000 3.211440 0.000000 
#    z -0.120020 0.000000 3.450260 
# 
# 
# High freq. dielectric constant tensor:
#      x y z
#    x 1.737280 0.000000 -0.011210 
#    y 0.000000 1.689930 0.000000 
#    z -0.011210 0.000000 1.732010 
# 
# From -- ./inp_files/153552.got.cif
#   From: 2010.06.25/outbox.cif.g09.slc.cpg/sg12_77_cif.got.tgz:153552.got - 2010.06.28 00:19:55.
