data_PCOD8085317
_publ_section_title
;
Structure prediction by ZEFSAII (Michael W. Deem and Ramdas Pophale) SiO2 
 PCOD8085317
Probable space group: C 2/M
;
_chemical_formula_sum "Si O2"
_cell_formula_units_Z 48
_cell_length_a 18.346438
_cell_length_b 9.410042
_cell_length_c 19.122539
_cell_angle_alpha 90.000000
_cell_angle_beta 122.263983
_cell_angle_gamma 90.000000
_cell_volume 2791.596210
_symmetry_space_group_name_H-M "C 2/M"
_symmetry_group_IT_number 12
_symmetry_cell_setting 'monoclinic'
loop_
_space_group_symop_operation_xyz
x,y,z
-x,y,-z
-x,-y,-z
x,-y,z
1/2+x,1/2+y,z
1/2-x,1/2+y,-z
1/2-x,1/2-y,-z
1/2+x,1/2-y,z
loop_
_atom_site_type_symbol
_atom_site_label
_atom_site_fract_x
_atom_site_fract_y
_atom_site_fract_z
Si Si1 0.316237 0.331993 0.081797
Si Si2 0.173813 0.334077 0.424717
Si Si3 0.668031 0.835820 0.257632
Si Si4 0.011240 0.158851 0.343869
Si Si5 0.322575 0.331053 0.242822
Si Si6 0.508159 0.656490 0.176210
O O1 0.299851 0.500000 0.068419
O O2 0.303698 0.276339 0.154783
O O3 0.412700 0.293618 0.104390
O O4 0.250000 0.250000 0.000000
O O5 0.177257 0.500000 0.446239
O O6 0.250000 0.250000 0.500000
O O7 0.183285 0.309409 0.347050
O O8 0.084130 0.268317 0.407210
O O9 0.749818 0.771578 0.257965
O O10 0.581244 0.761761 0.184961
O O11 0.656474 0.000000 0.234172
O O12 0.010518 0.150027 0.260507
O O13 0.917129 0.217925 0.319064
O O14 0.029577 0.000000 0.383682
O O15 0.324174 0.500000 0.242527
O O16 0.527524 0.500000 0.155613
#
# Coordination Sequence:
#
# PCOD8085317 Si02
#       6
#     8   8   8   8   8   8
#     4   9  17  30  48  68  91 119 150 184 221 263
#     4  10  19  30  46  68  92 117 147 183 221 264
#     4   9  17  30  49  70  88 112 151 190 219 257
#     4   8  14  28  49  66  84 115 150 182 218 262
#     4   8  15  30  50  69  89 115 149 187 224 260
#     4   8  15  28  45  65  89 118 148 178 220 268
#
# _framework density 17.194465000000001
#
# number of rings (size 3 to 8) (size 9 to 14) (size 15 to 20)
#    0.000    3.333    0.000    2.500    0.000    1.333 
#    0.000    5.833    0.000   10.000    0.000    0.000 
#    0.000    0.000    0.000    0.000    0.000    0.000 
#
# Total GULP energy -297445.435579 kJ/mol
# GULP energy per Si atom -12393.559816 kJ/mol
# Density = 1.715533 g / cm^3
# Si number density = 17.194465 Si / 1000 Ang^3
#
#
#
# Elastic Constant Matrix: (Units=GPa)
#
#
# Indices 1 2 3 4 5 6 
#
# 1 148.0411 60.1765 51.5654 0.0000 32.3068 0.0000
# 2 60.1765 79.8533 51.1635 0.0000 23.4953 0.0000
# 3 51.5654 51.1635 78.3947 0.0000 33.1530 0.0000
# 4 0.0000 0.0000 0.0000 28.6577 0.0000 10.1451
# 5 32.3068 23.4953 33.1530 0.0000 30.3982 0.0000
# 6 0.0000 0.0000 0.0000 10.1451 0.0000 25.4820
#
#
#
# Elastic Compliance Matrix: (Units=1/GPa)
#
#
# Indices 1 2 3 4 5 6 
#
# 1 0.010693 -0.005857 -0.000593 0.000000 -0.006191 0.000000
# 2 -0.005857 0.024829 -0.012748 0.000000 0.000937 0.000000
# 3 -0.000593 -0.012748 0.031614 0.000000 -0.023994 0.000000
# 4 0.000000 0.000000 0.000000 0.040620 0.000000 -0.016172
# 5 -0.006191 0.000937 -0.023994 0.000000 0.064921 0.000000
# 6 0.000000 0.000000 0.000000 -0.016172 0.000000 0.045682
#
#
# Mechanical properties :
#
#
# Convention : Reuss Voigt Hill
#
# Bulk Modulus (GPa) = 34.79596 70.23330 52.51463
# Shear Modulus (GPa) = 18.77347 26.46651 22.61999
#
# Velocity S-wave (km/s) = 3.30787 3.92758 3.63097
# Velocity P-wave (km/s) = 5.90508 7.84238 6.94165
#
# Compressibility (1/GPa) = 0.02873897
#
# Stress axis : x y z
#
# Youngs Moduli (GPa) = 93.51775 40.27600 31.63205
#
# Poissons Ratio (x) = 0.23588 0.01877
# Poissons Ratio (y) = 0.54769 0.40326
# Poissons Ratio (z) = 0.05548 0.51345
#
# Static dielectric constant tensor:
#      x y z
#    x 3.726660 0.000000 0.264030 
#    y 0.000000 3.169010 0.000000 
#    z 0.264030 0.000000 2.999900 
# 
# 
# High freq. dielectric constant tensor:
#      x y z
#    x 1.665750 0.000000 0.025690 
#    y 0.000000 1.646560 0.000000 
#    z 0.025690 0.000000 1.639310 
# 
# From -- ./inp_files/250919.got.cif
#   From: 2010.06.25/outbox.cif.g09.slc.cpg/sg12_126_cif.got.tgz:250919.got - 2010.06.28 00:19:55.
