data_PCOD8085091
_publ_section_title
;
Structure prediction by ZEFSAII (Michael W. Deem and Ramdas Pophale) SiO2 
 PCOD8085091
Probable space group: C 2/M
;
_chemical_formula_sum "Si O2"
_cell_formula_units_Z 64
_cell_length_a 19.729012
_cell_length_b 20.068348
_cell_length_c 12.835846
_cell_angle_alpha 90.000000
_cell_angle_beta 47.514632
_cell_angle_gamma 90.000000
_cell_volume 3747.778760
_symmetry_space_group_name_H-M "C 2/M"
_symmetry_group_IT_number 12
_symmetry_cell_setting 'monoclinic'
loop_
_space_group_symop_operation_xyz
x,y,z
-x,y,-z
-x,-y,-z
x,-y,z
1/2+x,1/2+y,z
1/2-x,1/2+y,-z
1/2-x,1/2-y,-z
1/2+x,1/2-y,z
loop_
_atom_site_type_symbol
_atom_site_label
_atom_site_fract_x
_atom_site_fract_y
_atom_site_fract_z
Si Si1 0.823241 0.842478 0.880819
Si Si2 0.394442 0.806745 0.122759
Si Si3 0.810287 0.924566 0.519074
Si Si4 0.740072 0.282980 0.853240
Si Si5 0.021761 0.146539 0.587490
Si Si6 0.590759 0.208462 0.463145
Si Si7 0.716761 0.924567 0.837038
Si Si8 0.685992 0.184840 0.570565
O O1 0.777054 0.778749 0.878983
O O2 0.779302 0.907987 0.873153
O O3 0.932262 0.837942 0.749035
O O4 0.800080 0.840351 0.028404
O O5 0.340381 0.742017 0.138771
O O6 0.368544 0.873690 0.084789
O O7 0.375634 0.815577 0.263422
O O8 0.500000 0.791209 0.000000
O O9 0.915720 0.900484 0.405680
O O10 0.779108 0.915689 0.670533
O O11 0.750541 0.880172 0.502691
O O12 0.802844 0.000000 0.487446
O O13 0.823556 0.310828 0.698371
O O14 0.078384 0.212682 0.495167
O O15 0.000000 0.109939 0.500000
O O16 0.500000 0.178808 0.500000
O O17 0.613284 0.177057 0.551998
O O18 0.679472 0.000000 0.886734
O O19 0.750000 0.250000 0.500000
#
# Coordination Sequence:
#
# PCOD8085091 Si02
#       8
#     8   8   8   8   8   8   8   8
#     4  10  19  29  49  74 111 140 169 211 265 323
#     4  10  21  32  49  79 107 137 177 218 266 318
#     4  10  20  33  52  78 109 143 183 228 272 322
#     4  10  19  32  46  75 109 138 170 217 264 308
#     4  11  17  29  49  81 111 139 175 216 266 332
#     4  11  20  33  55  80 106 137 177 225 275 318
#     4   9  18  34  50  70 104 142 176 217 266 319
#     4  11  20  35  57  77 108 145 182 219 272 326
#
# _framework density 17.076782000000001
#
# number of rings (size 3 to 8) (size 9 to 14) (size 15 to 20)
#    0.000    1.750    6.250    0.750    1.750    2.000 
#    0.000    0.000    0.000    1.125    0.000    0.875 
#    0.000    0.000    0.000    0.000    0.000    0.000 
#
# Total GULP energy -396711.798689 kJ/mol
# GULP energy per Si atom -12397.243709 kJ/mol
# Density = 1.703791 g / cm^3
# Si number density = 17.076782 Si / 1000 Ang^3
#
#
#
# Elastic Constant Matrix: (Units=GPa)
#
#
# Indices 1 2 3 4 5 6 
#
# 1 130.6548 40.3338 46.0239 0.0000 -1.9957 0.0000
# 2 40.3338 62.7577 24.7214 0.0000 3.2788 0.0000
# 3 46.0239 24.7214 97.4489 0.0000 -8.9595 0.0000
# 4 0.0000 0.0000 0.0000 11.7975 0.0000 6.1605
# 5 -1.9957 3.2788 -8.9595 0.0000 31.8987 0.0000
# 6 0.0000 0.0000 0.0000 6.1605 0.0000 18.1884
#
#
#
# Elastic Compliance Matrix: (Units=1/GPa)
#
#
# Indices 1 2 3 4 5 6 
#
# 1 0.010597 -0.005396 -0.003617 0.000000 0.000202 0.000000
# 2 -0.005396 0.020768 -0.003025 0.000000 -0.003322 0.000000
# 3 -0.003617 -0.003025 0.013083 0.000000 0.003759 0.000000
# 4 0.000000 0.000000 0.000000 0.102977 0.000000 -0.034879
# 5 0.000202 -0.003322 0.003759 0.000000 0.032759 0.000000
# 6 0.000000 0.000000 0.000000 -0.034879 0.000000 0.066794
#
#
# Mechanical properties :
#
#
# Convention : Reuss Voigt Hill
#
# Bulk Modulus (GPa) = 49.09119 57.00219 53.04669
# Shear Modulus (GPa) = 17.99561 24.36240 21.17900
#
# Velocity S-wave (km/s) = 3.24976 3.78118 3.52550
# Velocity P-wave (km/s) = 6.54912 7.24676 6.90676
#
# Compressibility (1/GPa) = 0.02037025
#
# Stress axis : x y z
#
# Youngs Moduli (GPa) = 94.36745 48.15180 76.43308
#
# Poissons Ratio (x) = 0.25983 0.27648
# Poissons Ratio (y) = 0.50922 0.23124
# Poissons Ratio (z) = 0.34136 0.14568
#
# Static dielectric constant tensor:
#      x y z
#    x 3.399110 0.000000 0.076760 
#    y 0.000000 3.004440 0.000000 
#    z 0.076760 0.000000 3.319660 
# 
# 
# High freq. dielectric constant tensor:
#      x y z
#    x 1.664660 0.000000 -0.007170 
#    y 0.000000 1.619960 0.000000 
#    z -0.007170 0.000000 1.650050 
# 
# From -- ./inp_files/159556.got.cif
#   From: 2010.06.25/outbox.cif.g09.slc.cpg/sg12_80_cif.got.tgz:159556.got - 2010.06.28 00:19:55.
