data_PCOD8085467
_publ_section_title
;
Structure prediction by ZEFSAII (Michael W. Deem and Ramdas Pophale) SiO2 
 PCOD8085467
Probable space group: C 2/M
;
_chemical_formula_sum "Si O2"
_cell_formula_units_Z 64
_cell_length_a 25.374957
_cell_length_b 9.010463
_cell_length_c 16.975619
_cell_angle_alpha 90.000000
_cell_angle_beta 89.152754
_cell_angle_gamma 90.000000
_cell_volume 3880.883075
_symmetry_space_group_name_H-M "C 2/M"
_symmetry_group_IT_number 12
_symmetry_cell_setting 'monoclinic'
loop_
_space_group_symop_operation_xyz
x,y,z
-x,y,-z
-x,-y,-z
x,-y,z
1/2+x,1/2+y,z
1/2-x,1/2+y,-z
1/2-x,1/2-y,-z
1/2+x,1/2-y,z
loop_
_atom_site_type_symbol
_atom_site_label
_atom_site_fract_x
_atom_site_fract_y
_atom_site_fract_z
Si Si1 0.443059 0.324944 0.336663
Si Si2 0.062524 0.836304 0.491330
Si Si3 0.003980 0.328128 0.091102
Si Si4 0.593661 0.325967 0.187298
Si Si5 0.599987 0.827446 0.808027
Si Si6 0.690049 0.672383 0.078210
Si Si7 0.191328 0.674009 0.918667
Si Si8 0.444390 0.175436 0.662113
O O1 0.454130 0.500000 0.329432
O O2 0.416802 0.287221 0.422563
O O3 0.403211 0.269736 0.270936
O O4 0.497811 0.239805 0.323814
O O5 0.079187 0.722034 0.422625
O O6 0.000000 0.841964 0.500000
O O7 0.084017 0.000000 0.468451
O O8 0.019969 0.500000 0.100816
O O9 0.948356 0.294039 0.132875
O O10 0.047974 0.227288 0.130085
O O11 0.000000 0.283704 0.000000
O O12 0.586148 0.500000 0.202892
O O13 0.650378 0.288417 0.149142
O O14 0.593423 0.238937 0.269684
O O15 0.653542 0.773907 0.848947
O O16 0.601902 0.000000 0.784630
O O17 0.689158 0.500000 0.057874
O O18 0.748837 0.722946 0.102541
O O19 0.671453 0.755093 0.000184
O O20 0.185758 0.500000 0.930522
O O21 0.447088 0.000000 0.667427
#
# Coordination Sequence:
#
# PCOD8085467 Si02
#       8
#     8   8   8   8   8   8   8   8
#     4  10  19  31  47  68  97 129 157 191 232 282
#     4   8  16  30  46  65  92 126 158 187 230 281
#     4  10  20  32  45  65  94 127 160 192 232 286
#     4  11  21  32  47  68  96 129 161 197 237 280
#     4  10  19  30  47  70  96 127 159 195 237 283
#     4   9  19  34  51  71  93 122 164 205 242 283
#     4   9  18  34  53  71  93 123 160 204 247 282
#     4  11  20  30  46  69  96 126 160 196 234 279
#
# _framework density 16.491091999999998
#
# number of rings (size 3 to 8) (size 9 to 14) (size 15 to 20)
#    0.000    2.250    1.250    3.375    0.000    5.500 
#    0.000    0.000    0.000    0.000    0.000    0.875 
#    0.000    0.000    0.000    0.000    0.000    0.000 
#
# Total GULP energy -396788.375279 kJ/mol
# GULP energy per Si atom -12399.636727 kJ/mol
# Density = 1.645356 g / cm^3
# Si number density = 16.491092 Si / 1000 Ang^3
#
#
#
# Elastic Constant Matrix: (Units=GPa)
#
#
# Indices 1 2 3 4 5 6 
#
# 1 70.8988 39.3973 56.5695 0.0000 5.8506 0.0000
# 2 39.3973 85.8141 66.5497 0.0000 1.1222 0.0000
# 3 56.5695 66.5497 151.3659 0.0000 11.8223 0.0000
# 4 0.0000 0.0000 0.0000 30.2666 0.0000 3.1431
# 5 5.8506 1.1222 11.8223 0.0000 19.6713 0.0000
# 6 0.0000 0.0000 0.0000 3.1431 0.0000 18.4485
#
#
#
# Elastic Compliance Matrix: (Units=1/GPa)
#
#
# Indices 1 2 3 4 5 6 
#
# 1 0.021885 -0.005833 -0.005385 0.000000 -0.002940 0.000000
# 2 -0.005833 0.019518 -0.006768 0.000000 0.004689 0.000000
# 3 -0.005385 -0.006768 0.012003 0.000000 -0.005226 0.000000
# 4 0.000000 0.000000 0.000000 0.033635 0.000000 -0.005730
# 5 -0.002940 0.004689 -0.005226 0.000000 0.054583 0.000000
# 6 0.000000 0.000000 0.000000 -0.005730 0.000000 0.055181
#
#
# Mechanical properties :
#
#
# Convention : Reuss Voigt Hill
#
# Bulk Modulus (GPa) = 57.35653 70.34575 63.85114
# Shear Modulus (GPa) = 20.95669 23.38143 22.16906
#
# Velocity S-wave (km/s) = 3.56868 3.76948 3.67045
# Velocity P-wave (km/s) = 7.19975 7.85460 7.53430
#
# Compressibility (1/GPa) = 0.01743481
#
# Stress axis : x y z
#
# Youngs Moduli (GPa) = 45.69327 51.23468 83.31538
#
# Poissons Ratio (x) = 0.29885 0.44864
# Poissons Ratio (y) = 0.26653 0.56384
# Poissons Ratio (z) = 0.24605 0.34674
#
# Static dielectric constant tensor:
#      x y z
#    x 2.996890 0.000000 0.066060 
#    y 0.000000 3.117960 0.000000 
#    z 0.066060 0.000000 3.420080 
# 
# 
# High freq. dielectric constant tensor:
#      x y z
#    x 1.597960 0.000000 0.005820 
#    y 0.000000 1.639100 0.000000 
#    z 0.005820 0.000000 1.643020 
# 
# From -- ./inp_files/287547.got.cif
#   From: 2010.06.25/outbox.cif.g09.slc.cpg/sg12_144_cif.got.tgz:287547.got - 2010.06.28 00:19:55.
