data_PCOD8085377
_publ_section_title
;
Structure prediction by ZEFSAII (Michael W. Deem and Ramdas Pophale) SiO2 
 PCOD8085377
Probable space group: C 2/M
;
_chemical_formula_sum "Si O2"
_cell_formula_units_Z 48
_cell_length_a 11.748608
_cell_length_b 15.517782
_cell_length_c 13.318190
_cell_angle_alpha 90.000000
_cell_angle_beta 84.535069
_cell_angle_gamma 90.000000
_cell_volume 2417.033987
_symmetry_space_group_name_H-M "C 2/M"
_symmetry_group_IT_number 12
_symmetry_cell_setting 'monoclinic'
loop_
_space_group_symop_operation_xyz
x,y,z
-x,y,-z
-x,-y,-z
x,-y,z
1/2+x,1/2+y,z
1/2-x,1/2+y,-z
1/2-x,1/2-y,-z
1/2+x,1/2-y,z
loop_
_atom_site_type_symbol
_atom_site_label
_atom_site_fract_x
_atom_site_fract_y
_atom_site_fract_z
Si Si1 0.280475 0.401736 0.850380
Si Si2 0.941924 0.402070 0.401069
Si Si3 0.307118 0.224777 0.299105
Si Si4 0.375941 0.838093 0.764830
Si Si5 0.005363 0.187934 0.824054
Si Si6 0.810737 0.097293 0.074355
O O1 0.247380 0.500000 0.828365
O O2 0.196068 0.338775 0.797606
O O3 0.413661 0.387155 0.808079
O O4 0.262535 0.379390 0.969135
O O5 0.895886 0.500000 0.409482
O O6 0.032963 0.395394 0.302447
O O7 0.000000 0.375517 0.500000
O O8 0.834940 0.336416 0.392422
O O9 0.188513 0.277557 0.313663
O O10 0.410065 0.294034 0.277504
O O11 0.435440 0.777293 0.844241
O O12 0.287065 0.896561 0.832783
O O13 0.083085 0.161079 0.912531
O O14 0.857737 0.000000 0.071568
#
# Coordination Sequence:
#
# PCOD8085377 Si02
#       6
#     8   8   8   8   8   8
#     4  10  19  30  46  69  98 131 162 192 227 269
#     4  10  20  35  55  74  92 119 155 197 244 289
#     4   9  19  34  50  71  97 125 157 194 236 279
#     4   9  19  34  50  71  97 125 157 194 236 279
#     4   9  18  30  46  67  94 125 161 193 225 267
#     4  10  19  30  46  69  98 131 162 192 227 269
#
# _framework density 19.859051000000001
#
# number of rings (size 3 to 8) (size 9 to 14) (size 15 to 20)
#    0.000    2.500    0.000    2.000    0.000    9.333 
#    0.000    2.500    0.000    9.000    0.000    0.000 
#    0.000   32.000    0.000    0.000    0.000    0.000 
#
# Total GULP energy -297370.306633 kJ/mol
# GULP energy per Si atom -12390.429443 kJ/mol
# Density = 1.981385 g / cm^3
# Si number density = 19.859051 Si / 1000 Ang^3
#
#
#
# Elastic Constant Matrix: (Units=GPa)
#
#
# Indices 1 2 3 4 5 6 
#
# 1 56.3364 6.3725 6.6939 0.0000 5.3642 0.0000
# 2 6.3725 59.5783 20.5160 0.0000 11.1262 0.0000
# 3 6.6939 20.5160 56.9652 0.0000 16.8893 0.0000
# 4 0.0000 0.0000 0.0000 24.4685 0.0000 8.9080
# 5 5.3642 11.1262 16.8893 0.0000 26.6219 0.0000
# 6 0.0000 0.0000 0.0000 8.9080 0.0000 21.9844
#
#
#
# Elastic Compliance Matrix: (Units=1/GPa)
#
#
# Indices 1 2 3 4 5 6 
#
# 1 0.018240 -0.001135 -0.000968 0.000000 -0.002587 0.000000
# 2 -0.001135 0.019674 -0.005644 0.000000 -0.004413 0.000000
# 3 -0.000968 -0.005644 0.023332 0.000000 -0.012249 0.000000
# 4 0.000000 0.000000 0.000000 0.047941 0.000000 -0.019425
# 5 -0.002587 -0.004413 -0.012249 0.000000 0.047700 0.000000
# 6 0.000000 0.000000 0.000000 -0.019425 0.000000 0.053358
#
#
# Mechanical properties :
#
#
# Convention : Reuss Voigt Hill
#
# Bulk Modulus (GPa) = 21.85583 26.67163 24.26373
# Shear Modulus (GPa) = 20.74793 23.90146 22.32469
#
# Velocity S-wave (km/s) = 3.23578 3.47299 3.35648
# Velocity P-wave (km/s) = 4.99897 5.43524 5.22167
#
# Compressibility (1/GPa) = 0.04575438
#
# Stress axis : x y z
#
# Youngs Moduli (GPa) = 54.82401 50.82961 42.85884
#
# Poissons Ratio (x) = 0.05767 0.04147
# Poissons Ratio (y) = 0.06220 0.24188
# Poissons Ratio (z) = 0.05305 0.28686
#
# Static dielectric constant tensor:
#      x y z
#    x 3.700110 0.000000 0.213610 
#    y 0.000000 3.671510 0.000000 
#    z 0.213610 0.000000 3.265350 
# 
# 
# High freq. dielectric constant tensor:
#      x y z
#    x 1.777290 0.000000 0.017350 
#    y 0.000000 1.778850 0.000000 
#    z 0.017350 0.000000 1.731950 
# 
# From -- ./inp_files/131039.got.cif
#   From: 2010.06.25/outbox.cif.g09.slc.cpg/sg12_66_cif.got.tgz:131039.got - 2010.06.28 00:19:55.
