data_PCOD8085442
_publ_section_title
;
Structure prediction by ZEFSAII (Michael W. Deem and Ramdas Pophale) SiO2 
 PCOD8085442
Probable space group: C 2/M
;
_chemical_formula_sum "Si O2"
_cell_formula_units_Z 64
_cell_length_a 23.120753
_cell_length_b 14.303467
_cell_length_c 11.649056
_cell_angle_alpha 90.000000
_cell_angle_beta 85.877056
_cell_angle_gamma 90.000000
_cell_volume 3842.453724
_symmetry_space_group_name_H-M "C 2/M"
_symmetry_group_IT_number 12
_symmetry_cell_setting 'monoclinic'
loop_
_space_group_symop_operation_xyz
x,y,z
-x,y,-z
-x,-y,-z
x,-y,z
1/2+x,1/2+y,z
1/2-x,1/2+y,-z
1/2-x,1/2-y,-z
1/2+x,1/2-y,z
loop_
_atom_site_type_symbol
_atom_site_label
_atom_site_fract_x
_atom_site_fract_y
_atom_site_fract_z
Si Si1 0.437577 0.759929 0.505431
Si Si2 0.801206 0.108609 0.658048
Si Si3 0.661456 0.896503 0.455136
Si Si4 0.886635 0.780257 0.268521
Si Si5 0.017434 0.109174 0.869702
Si Si6 0.572938 0.392045 0.310045
Si Si7 0.709666 0.389894 0.595361
Si Si8 0.322084 0.104232 0.275597
O O1 0.500000 0.812485 0.500000
O O2 0.389252 0.825097 0.572776
O O3 0.423865 0.733130 0.377443
O O4 0.446433 0.665505 0.576542
O O5 0.858701 0.127604 0.724757
O O6 0.807880 0.151985 0.528260
O O7 0.743934 0.141785 0.735599
O O8 0.789819 0.000000 0.635867
O O9 0.722666 0.866670 0.389170
O O10 0.669141 0.897721 0.589800
O O11 0.643877 0.000000 0.414565
O O12 0.828699 0.838784 0.303953
O O13 0.867091 0.679836 0.217432
O O14 0.925087 0.833432 0.169839
O O15 0.963583 0.136998 0.796181
O O16 0.032343 0.000000 0.857018
O O17 0.000000 0.137389 0.000000
O O18 0.563015 0.500000 0.343149
O O19 0.697459 0.500000 0.605031
O O20 0.333227 0.000000 0.221862
#
# Coordination Sequence:
#
# PCOD8085442 Si02
#       8
#     8   8   8   8   8   8   8   8
#     4  11  20  28  43  73 100 123 158 189 229 276
#     4   8  14  25  42  68  98 125 148 179 227 277
#     4   8  17  30  42  62 101 138 158 182 220 274
#     4  11  19  28  49  72  95 126 155 193 231 272
#     4  10  22  38  51  65  90 124 158 191 231 282
#     4  10  19  30  47  69  95 123 149 189 235 277
#     4   9  16  26  42  69  99 127 156 185 225 276
#     4   8  16  28  43  68 100 128 156 185 224 274
#
# _framework density 16.656023000000001
#
# number of rings (size 3 to 8) (size 9 to 14) (size 15 to 20)
#    0.000    2.625    2.500    1.875    1.750    2.500 
#    0.000    0.000    0.000    1.125    0.000    0.000 
#    0.000    0.000    0.000    0.000    0.000    0.000 
#
# Total GULP energy -396615.905528 kJ/mol
# GULP energy per Si atom -12394.247048 kJ/mol
# Density = 1.661811 g / cm^3
# Si number density = 16.656023 Si / 1000 Ang^3
#
#
#
# Elastic Constant Matrix: (Units=GPa)
#
#
# Indices 1 2 3 4 5 6 
#
# 1 119.1780 54.9467 38.6262 0.0000 -20.2445 0.0000
# 2 54.9467 73.7888 33.6083 0.0000 -15.6939 0.0000
# 3 38.6262 33.6083 55.4320 0.0000 -15.6815 0.0000
# 4 0.0000 0.0000 0.0000 14.0350 0.0000 -7.5297
# 5 -20.2445 -15.6939 -15.6815 0.0000 16.2955 0.0000
# 6 0.0000 0.0000 0.0000 -7.5297 0.0000 25.7382
#
#
#
# Elastic Compliance Matrix: (Units=1/GPa)
#
#
# Indices 1 2 3 4 5 6 
#
# 1 0.014130 -0.007508 -0.003261 0.000000 0.007185 0.000000
# 2 -0.007508 0.023916 -0.007408 0.000000 0.006577 0.000000
# 3 -0.003261 -0.007408 0.029734 0.000000 0.017428 0.000000
# 4 0.000000 0.000000 0.000000 0.084515 0.000000 0.024725
# 5 0.007185 0.006577 0.017428 0.000000 0.093398 0.000000
# 6 0.000000 0.000000 0.000000 0.024725 0.000000 0.046086
#
#
# Mechanical properties :
#
#
# Convention : Reuss Voigt Hill
#
# Bulk Modulus (GPa) = 31.82136 55.86238 43.84187
# Shear Modulus (GPa) = 14.76630 19.29490 17.03060
#
# Velocity S-wave (km/s) = 2.98072 3.40727 3.20111
# Velocity P-wave (km/s) = 5.56711 7.00649 6.32786
#
# Compressibility (1/GPa) = 0.03142544
#
# Stress axis : x y z
#
# Youngs Moduli (GPa) = 70.77166 41.81295 33.63130
#
# Poissons Ratio (x) = 0.31395 0.10968
# Poissons Ratio (y) = 0.53138 0.24913
# Poissons Ratio (z) = 0.23080 0.30974
#
# Static dielectric constant tensor:
#      x y z
#    x 3.428910 0.000000 -0.119690 
#    y 0.000000 3.335310 0.000000 
#    z -0.119690 0.000000 2.551150 
# 
# 
# High freq. dielectric constant tensor:
#      x y z
#    x 1.656440 0.000000 -0.016810 
#    y 0.000000 1.642590 0.000000 
#    z -0.016810 0.000000 1.566580 
# 
# From -- ./inp_files/176111.got.cif
#   From: 2010.06.25/outbox.cif.g09.slc.cpg/sg12_89_cif.got.tgz:176111.got - 2010.06.28 00:19:55.
