data_PCOD8085176
_publ_section_title
;
Structure prediction by ZEFSAII (Michael W. Deem and Ramdas Pophale) SiO2 
 PCOD8085176
Probable space group: C 2/M
;
_chemical_formula_sum "Si O2"
_cell_formula_units_Z 64
_cell_length_a 20.622790
_cell_length_b 9.120747
_cell_length_c 26.610814
_cell_angle_alpha 90.000000
_cell_angle_beta 48.025530
_cell_angle_gamma 90.000000
_cell_volume 3721.205111
_symmetry_space_group_name_H-M "C 2/M"
_symmetry_group_IT_number 12
_symmetry_cell_setting 'monoclinic'
loop_
_space_group_symop_operation_xyz
x,y,z
-x,y,-z
-x,-y,-z
x,-y,z
1/2+x,1/2+y,z
1/2-x,1/2+y,-z
1/2-x,1/2-y,-z
1/2+x,1/2-y,z
loop_
_atom_site_type_symbol
_atom_site_label
_atom_site_fract_x
_atom_site_fract_y
_atom_site_fract_z
Si Si1 0.117722 0.827602 0.580140
Si Si2 0.716832 0.825827 0.967781
Si Si3 0.280701 0.674351 0.672582
Si Si4 0.078452 0.825652 0.321801
Si Si5 0.475054 0.174367 0.958239
Si Si6 0.852650 0.674140 0.178419
Si Si7 0.253338 0.327709 0.575042
Si Si8 0.786532 0.826218 0.827674
O O1 0.165176 0.750157 0.602220
O O2 0.166724 0.788846 0.503024
O O3 0.019772 0.763666 0.625946
O O4 0.117806 0.000000 0.590717
O O5 0.778237 0.772764 0.889542
O O6 0.719379 0.000000 0.972964
O O7 0.750000 0.750000 0.000000
O O8 0.618997 0.767057 0.009397
O O9 0.284461 0.500000 0.669787
O O10 0.365637 0.732669 0.659199
O O11 0.191930 0.728547 0.746563
O O12 0.279301 0.734712 0.616474
O O13 0.124359 0.773148 0.245855
O O14 0.075864 0.000000 0.325591
O O15 0.547795 0.229376 0.880028
O O16 0.472852 0.000000 0.962022
O O17 0.500000 0.237254 0.000000
O O18 0.850723 0.500000 0.178377
O O19 0.795941 0.734004 0.160984
O O20 0.234626 0.500000 0.586257
O O21 0.782817 0.000000 0.828744
#
# Coordination Sequence:
#
# PCOD8085176 Si02
#       8
#     8   8   8   8   8   8   8   8
#     4   9  17  29  45  63  86 117 147 171 201 252
#     4  10  19  30  44  64  90 115 140 176 217 254
#     4   8  14  24  40  63  88 108 133 178 224 249
#     4   8  14  25  43  65  84 108 145 180 211 249
#     4   9  14  23  42  64  82 106 144 181 208 242
#     4   8  12  21  39  63  85 104 135 180 219 246
#     4   9  17  29  44  64  90 115 138 172 216 253
#     4   8  13  24  42  62  85 111 139 176 216 250
#
# _framework density 17.198730000000001
#
# number of rings (size 3 to 8) (size 9 to 14) (size 15 to 20)
#    0.000    3.375    1.250    1.500    0.000    0.500 
#    2.250    2.500    0.000    1.125    0.000    6.125 
#    0.000    0.000    0.000    0.000    0.000    0.000 
#
# Total GULP energy -396487.760695 kJ/mol
# GULP energy per Si atom -12390.242522 kJ/mol
# Density = 1.715959 g / cm^3
# Si number density = 17.198730 Si / 1000 Ang^3
#
#
#
# Elastic Constant Matrix: (Units=GPa)
#
#
# Indices 1 2 3 4 5 6 
#
# 1 147.2868 19.3620 101.4498 0.0000 0.1487 0.0001
# 2 19.3620 9.6212 17.1753 0.0001 1.1859 0.0004
# 3 101.4498 17.1753 144.3455 0.0000 -0.8840 0.0000
# 4 0.0000 0.0001 0.0000 10.4608 0.0000 3.2513
# 5 0.1487 1.1859 -0.8840 0.0000 35.7050 0.0000
# 6 0.0001 0.0004 0.0000 3.2513 0.0000 20.2915
#
#
#
# Elastic Compliance Matrix: (Units=1/GPa)
#
#
# Indices 1 2 3 4 5 6 
#
# 1 0.014500 -0.013984 -0.008526 0.000000 0.000193 0.000000
# 2 -0.013984 0.146275 -0.007607 -0.000001 -0.004989 -0.000003
# 3 -0.008526 -0.007607 0.013829 0.000000 0.000631 0.000000
# 4 0.000000 -0.000001 0.000000 0.100605 0.000000 -0.016120
# 5 0.000193 -0.004989 0.000631 0.000000 0.028188 0.000000
# 6 0.000000 -0.000003 0.000000 -0.016120 0.000000 0.051865
#
#
# Mechanical properties :
#
#
# Convention : Reuss Voigt Hill
#
# Bulk Modulus (GPa) = 8.74359 64.13640 36.44000
# Shear Modulus (GPa) = 11.02247 24.17588 17.59918
#
# Velocity S-wave (km/s) = 2.53432 3.75331 3.20235
# Velocity P-wave (km/s) = 3.69576 7.49369 5.90822
#
# Compressibility (1/GPa) = 0.11436947
#
# Stress axis : x y z
#
# Youngs Moduli (GPa) = 68.96418 6.83646 72.31117
#
# Poissons Ratio (x) = 0.09560 0.61653
# Poissons Ratio (y) = 0.96442 0.55006
# Poissons Ratio (z) = 0.58799 0.05200
#
# Static dielectric constant tensor:
#      x y z
#    x 3.338060 0.000000 -0.079160 
#    y 0.000000 2.558580 0.000000 
#    z -0.079160 0.000000 3.658050 
# 
# 
# High freq. dielectric constant tensor:
#      x y z
#    x 1.657490 0.000000 -0.003260 
#    y 0.000000 1.591320 0.000000 
#    z -0.003260 0.000000 1.679150 
# 
# From -- ./inp_files/315088.got.cif
#   From: 2010.06.25/outbox.cif.g09.slc.cpg/sg12_158_cif.got.tgz:315088.got - 2010.06.28 00:19:55.
