data_PCOD8085604
_publ_section_title
;
Structure prediction by ZEFSAII (Michael W. Deem and Ramdas Pophale) SiO2 
 PCOD8085604
Probable space group: C 2/M
;
_chemical_formula_sum "Si O2"
_cell_formula_units_Z 64
_cell_length_a 22.905121
_cell_length_b 8.953974
_cell_length_c 17.711334
_cell_angle_alpha 90.000000
_cell_angle_beta 102.257642
_cell_angle_gamma 90.000000
_cell_volume 3549.640690
_symmetry_space_group_name_H-M "C 2/M"
_symmetry_group_IT_number 12
_symmetry_cell_setting 'monoclinic'
loop_
_space_group_symop_operation_xyz
x,y,z
-x,y,-z
-x,-y,-z
x,-y,z
1/2+x,1/2+y,z
1/2-x,1/2+y,-z
1/2-x,1/2-y,-z
1/2+x,1/2-y,z
loop_
_atom_site_type_symbol
_atom_site_label
_atom_site_fract_x
_atom_site_fract_y
_atom_site_fract_z
Si Si1 0.728562 0.670786 0.568735
Si Si2 0.135352 0.664638 0.629941
Si Si3 0.782587 0.668194 0.200527
Si Si4 0.812221 0.673826 0.733886
Si Si5 0.061308 0.177514 0.239153
Si Si6 0.015511 0.175192 0.923317
Si Si7 0.879303 0.825952 0.146220
Si Si8 0.962058 0.324376 0.289732
O O1 0.723157 0.500000 0.546993
O O2 0.750000 0.750000 0.500000
O O3 0.662304 0.723409 0.575684
O O4 0.775153 0.703704 0.647833
O O5 0.140166 0.500000 0.595425
O O6 0.171884 0.671294 0.717691
O O7 0.066286 0.700209 0.633943
O O8 0.761690 0.500000 0.176179
O O9 0.725219 0.769159 0.204090
O O10 0.817116 0.735222 0.136730
O O11 0.827519 0.500000 0.748748
O O12 0.870646 0.773277 0.744045
O O13 0.029356 0.235667 0.153535
O O14 0.029744 0.262055 0.301842
O O15 0.056797 0.000000 0.248652
O O16 0.085389 0.208256 0.922454
O O17 0.004498 0.000000 0.925179
O O18 0.000000 0.250326 0.000000
O O19 0.925125 0.779215 0.223287
O O20 0.864386 0.000000 0.150895
O O21 0.958310 0.500000 0.267069
#
# Coordination Sequence:
#
# PCOD8085604 Si02
#       8
#     8   8   8   8   8   8   8   8
#     4  10  20  32  49  71  95 124 154 188 230 275
#     4   8  15  27  44  66  91 119 151 188 229 271
#     4   9  16  27  44  66  92 120 152 193 236 276
#     4  10  20  33  49  70  96 125 156 191 233 280
#     4  10  19  30  48  72  96 125 158 194 236 279
#     4   8  15  28  46  69  96 125 157 192 232 278
#     4   9  15  24  42  67  92 119 154 195 236 276
#     4   9  16  27  44  66  93 123 154 193 235 273
#
# _framework density 18.029993999999999
#
# number of rings (size 3 to 8) (size 9 to 14) (size 15 to 20)
#    0.000    2.875    0.000    3.750    0.000    5.000 
#    0.000    0.000    0.000   15.000    0.000    5.250 
#    0.000    0.000    0.000    0.000    0.000    0.000 
#
# Total GULP energy -396526.613077 kJ/mol
# GULP energy per Si atom -12391.456659 kJ/mol
# Density = 1.798896 g / cm^3
# Si number density = 18.029994 Si / 1000 Ang^3
#
#
#
# Elastic Constant Matrix: (Units=GPa)
#
#
# Indices 1 2 3 4 5 6 
#
# 1 130.0688 52.8646 40.0881 0.0000 -36.2081 0.0000
# 2 52.8646 92.5874 39.9517 0.0000 -20.4638 0.0000
# 3 40.0881 39.9517 47.6339 0.0000 -27.6680 0.0000
# 4 0.0000 0.0000 0.0000 14.2822 0.0000 -6.6518
# 5 -36.2081 -20.4638 -27.6680 0.0000 29.1414 0.0000
# 6 0.0000 0.0000 0.0000 -6.6518 0.0000 36.2252
#
#
#
# Elastic Compliance Matrix: (Units=1/GPa)
#
#
# Indices 1 2 3 4 5 6 
#
# 1 0.013277 -0.004982 0.001237 0.000000 0.014173 0.000000
# 2 -0.004982 0.018962 -0.016883 0.000000 -0.008904 0.000000
# 3 0.001237 -0.016883 0.062693 0.000000 0.049204 0.000000
# 4 0.000000 0.000000 0.000000 0.076565 0.000000 0.014059
# 5 0.014173 -0.008904 0.049204 0.000000 0.092388 0.000000
# 6 0.000000 0.000000 0.000000 0.014059 0.000000 0.030187
#
#
# Mechanical properties :
#
#
# Convention : Reuss Voigt Hill
#
# Bulk Modulus (GPa) = 18.63050 59.56654 39.09852
# Shear Modulus (GPa) = 14.15543 25.08882 19.62212
#
# Velocity S-wave (km/s) = 2.80501 3.73433 3.30253
# Velocity P-wave (km/s) = 4.56577 7.19047 6.02284
#
# Compressibility (1/GPa) = 0.05367541
#
# Stress axis : x y z
#
# Youngs Moduli (GPa) = 75.31652 52.73588 15.95080
#
# Poissons Ratio (x) = 0.26274 -0.01973
# Poissons Ratio (y) = 0.37524 0.26930
# Poissons Ratio (z) = -0.09315 0.89035
#
# Static dielectric constant tensor:
#      x y z
#    x 3.739900 0.000000 -0.475540 
#    y 0.000000 3.374910 0.000000 
#    z -0.475540 0.000000 3.061290 
# 
# 
# High freq. dielectric constant tensor:
#      x y z
#    x 1.708390 0.000000 -0.039610 
#    y 0.000000 1.701970 0.000000 
#    z -0.039610 0.000000 1.641180 
# 
# From -- ./inp_files/287722.got.cif
#   From: 2010.06.25/outbox.cif.g09.slc.cpg/sg12_144_cif.got.tgz:287722.got - 2010.06.28 00:19:55.
