data_PCOD8085036
_publ_section_title
;
Structure prediction by ZEFSAII (Michael W. Deem and Ramdas Pophale) SiO2 
 PCOD8085036
Probable space group: C 2/M
;
_chemical_formula_sum "Si O2"
_cell_formula_units_Z 64
_cell_length_a 23.888875
_cell_length_b 11.460352
_cell_length_c 21.097011
_cell_angle_alpha 90.000000
_cell_angle_beta 138.994525
_cell_angle_gamma 90.000000
_cell_volume 3789.703533
_symmetry_space_group_name_H-M "C 2/M"
_symmetry_group_IT_number 12
_symmetry_cell_setting 'monoclinic'
loop_
_space_group_symop_operation_xyz
x,y,z
-x,y,-z
-x,-y,-z
x,-y,z
1/2+x,1/2+y,z
1/2-x,1/2+y,-z
1/2-x,1/2-y,-z
1/2+x,1/2-y,z
loop_
_atom_site_type_symbol
_atom_site_label
_atom_site_fract_x
_atom_site_fract_y
_atom_site_fract_z
Si Si1 0.443024 0.370204 0.290046
Si Si2 0.928762 0.129712 0.493056
Si Si3 0.101625 0.629807 0.580489
Si Si4 0.364252 0.135933 0.868156
Si Si5 0.982785 0.635716 0.086485
Si Si6 0.701291 0.754075 0.767626
Si Si7 0.252584 0.628813 0.937269
Si Si8 0.104641 0.252356 0.874601
O O1 0.431715 0.500000 0.253880
O O2 0.531256 0.356141 0.403026
O O3 0.366655 0.346445 0.274342
O O4 0.443539 0.283486 0.230848
O O5 0.871732 0.249254 0.434601
O O6 0.000000 0.128858 0.500000
O O7 0.882077 0.000000 0.450212
O O8 0.126903 0.500000 0.573452
O O9 0.150628 0.640352 0.689771
O O10 0.000000 0.630793 0.500000
O O11 0.428331 0.180191 0.867962
O O12 0.275522 0.204642 0.785689
O O13 0.346010 0.000000 0.844149
O O14 0.405995 0.159974 0.972287
O O15 0.989668 0.500000 0.107625
O O16 0.967011 0.703156 0.138348
O O17 0.744995 0.788674 0.870548
O O18 0.248920 0.500000 0.907372
O O19 0.174604 0.647791 0.919675
O O20 0.342560 0.645868 0.049729
#
# Coordination Sequence:
#
# PCOD8085036 Si02
#       8
#     8   8   8   8   8   8   8   8
#     4  10  19  29  46  72 101 129 162 202 249 302
#     4   9  16  30  47  68  97 131 166 203 248 304
#     4  10  19  31  47  70 103 138 165 203 257 311
#     4   9  18  30  51  74  95 129 173 219 256 287
#     4   9  17  33  50  69  97 131 174 217 250 286
#     4  11  18  30  48  73  99 132 165 203 247 307
#     4  10  20  30  42  66  98 131 162 193 237 295
#     4  10  19  31  46  66  96 134 163 197 246 298
#
# _framework density 16.887865000000001
#
# number of rings (size 3 to 8) (size 9 to 14) (size 15 to 20)
#    0.000    2.250    3.750    2.250    0.000    0.500 
#    0.000    0.625    0.000    3.750    0.000    0.875 
#    0.000    0.000    0.000    0.000    0.000    0.000 
#
# Total GULP energy -396421.281152 kJ/mol
# GULP energy per Si atom -12388.165036 kJ/mol
# Density = 1.684943 g / cm^3
# Si number density = 16.887865 Si / 1000 Ang^3
#
#
#
# Elastic Constant Matrix: (Units=GPa)
#
#
# Indices 1 2 3 4 5 6 
#
# 1 85.5851 30.0072 22.1956 0.0000 -0.5851 0.0000
# 2 30.0072 103.0259 24.3983 0.0000 -4.7880 0.0000
# 3 22.1956 24.3983 63.3858 0.0000 -10.4849 0.0000
# 4 0.0000 0.0000 0.0000 8.9282 0.0000 -6.9416
# 5 -0.5851 -4.7880 -10.4849 0.0000 14.8288 0.0000
# 6 0.0000 0.0000 0.0000 -6.9416 0.0000 13.9529
#
#
#
# Elastic Compliance Matrix: (Units=1/GPa)
#
#
# Indices 1 2 3 4 5 6 
#
# 1 0.013873 -0.003208 -0.004195 0.000000 -0.003454 0.000000
# 2 -0.003208 0.011427 -0.003041 0.000000 0.001413 0.000000
# 3 -0.004195 -0.003041 0.020640 0.000000 0.013446 0.000000
# 4 0.000000 0.000000 0.000000 0.182657 0.000000 0.090872
# 5 -0.003454 0.001413 0.013446 0.000000 0.077263 0.000000
# 6 0.000000 0.000000 0.000000 0.090872 0.000000 0.116879
#
#
# Mechanical properties :
#
#
# Convention : Reuss Voigt Hill
#
# Bulk Modulus (GPa) = 39.91657 45.02213 42.46935
# Shear Modulus (GPa) = 11.06251 19.23502 15.14876
#
# Velocity S-wave (km/s) = 2.56218 3.37855 2.99828
# Velocity P-wave (km/s) = 5.69567 6.47586 6.09825
#
# Compressibility (1/GPa) = 0.02505225
#
# Stress axis : x y z
#
# Youngs Moduli (GPa) = 72.08145 87.51578 48.44957
#
# Poissons Ratio (x) = 0.28074 0.20322
# Poissons Ratio (y) = 0.23123 0.14735
# Poissons Ratio (z) = 0.30235 0.26616
#
# Static dielectric constant tensor:
#      x y z
#    x 2.830270 0.000000 -0.085120 
#    y 0.000000 3.409560 0.000000 
#    z -0.085120 0.000000 3.120920 
# 
# 
# High freq. dielectric constant tensor:
#      x y z
#    x 1.601570 0.000000 -0.014900 
#    y 0.000000 1.652720 0.000000 
#    z -0.014900 0.000000 1.648480 
# 
# From -- ./inp_files/324983.got.cif
#   From: 2010.06.25/outbox.cif.g09.slc.cpg/sg12_163_cif.got.tgz:324983.got - 2010.06.28 00:19:55.
