data_PCOD8085959
_publ_section_title
;
Structure prediction by ZEFSAII (Michael W. Deem and Ramdas Pophale) SiO2 
 PCOD8085959
Probable space group: C 2/M
;
_chemical_formula_sum "Si O2"
_cell_formula_units_Z 64
_cell_length_a 22.698868
_cell_length_b 8.802601
_cell_length_c 23.662986
_cell_angle_alpha 90.000000
_cell_angle_beta 126.294325
_cell_angle_gamma 90.000000
_cell_volume 3810.770148
_symmetry_space_group_name_H-M "C 2/M"
_symmetry_group_IT_number 12
_symmetry_cell_setting 'monoclinic'
loop_
_space_group_symop_operation_xyz
x,y,z
-x,y,-z
-x,-y,-z
x,-y,z
1/2+x,1/2+y,z
1/2-x,1/2+y,-z
1/2-x,1/2-y,-z
1/2+x,1/2-y,z
loop_
_atom_site_type_symbol
_atom_site_label
_atom_site_fract_x
_atom_site_fract_y
_atom_site_fract_z
Si Si1 0.084851 0.830322 0.368255
Si Si2 0.077607 0.676376 0.069539
Si Si3 0.847306 0.175589 0.104997
Si Si4 0.404549 0.319048 0.800810
Si Si5 0.012771 0.321191 0.774969
Si Si6 0.181282 0.674985 0.026106
Si Si7 0.789249 0.832110 0.653357
Si Si8 0.811025 0.317929 0.494764
O O1 0.151213 0.834869 0.362485
O O2 0.110490 0.748282 0.441324
O O3 0.018302 0.738954 0.302230
O O4 0.058328 0.000000 0.368131
O O5 0.077264 0.500000 0.086519
O O6 0.093980 0.776229 0.133353
O O7 0.140617 0.715424 0.060793
O O8 0.000000 0.724942 0.000000
O O9 0.902403 0.275087 0.173654
O O10 0.766753 0.209082 0.083526
O O11 0.868829 0.000000 0.122541
O O12 0.851974 0.221592 0.041972
O O13 0.407922 0.500000 0.794892
O O14 0.473515 0.249740 0.807430
O O15 0.328696 0.251683 0.729483
O O16 0.003160 0.500000 0.771612
O O17 0.168194 0.500000 0.001451
O O18 0.714024 0.763646 0.583439
O O19 0.768983 0.000000 0.661986
O O20 0.811440 0.500000 0.499260
O O21 0.750000 0.250000 0.500000
#
# Coordination Sequence:
#
# PCOD8085959 Si02
#       8
#     8   8   8   8   8   8   8   8
#     4   9  16  26  38  57  85 114 147 186 223 264
#     4  10  20  33  48  67  93 122 150 183 224 268
#     4  10  19  32  50  69  90 117 150 188 227 268
#     4  10  19  31  46  66  91 119 153 190 226 266
#     4  11  20  30  45  65  90 121 154 187 228 274
#     4   9  19  34  50  69  93 120 149 183 226 272
#     4   7  13  24  37  54  80 112 144 179 216 256
#     4   9  14  22  36  54  79 114 150 182 220 264
#
# _framework density 16.794505999999998
#
# number of rings (size 3 to 8) (size 9 to 14) (size 15 to 20)
#    0.000    2.625    0.000    4.875    0.000    2.250 
#    0.000    1.875    0.000    0.000    0.000    0.000 
#    0.000    1.000    0.000   11.500    0.000    5.750 
#
# Total GULP energy -396500.596875 kJ/mol
# GULP energy per Si atom -12390.643652 kJ/mol
# Density = 1.675628 g / cm^3
# Si number density = 16.794506 Si / 1000 Ang^3
#
#
#
# Elastic Constant Matrix: (Units=GPa)
#
#
# Indices 1 2 3 4 5 6 
#
# 1 50.0106 22.7710 44.3670 0.0000 5.9053 0.0000
# 2 22.7710 88.7960 55.0404 0.0000 6.4178 0.0000
# 3 44.3670 55.0404 158.0104 0.0000 13.0710 0.0000
# 4 0.0000 0.0000 0.0000 30.3479 0.0000 2.4283
# 5 5.9053 6.4178 13.0710 0.0000 14.3209 0.0000
# 6 0.0000 0.0000 0.0000 2.4283 0.0000 15.7938
#
#
#
# Elastic Compliance Matrix: (Units=1/GPa)
#
#
# Indices 1 2 3 4 5 6 
#
# 1 0.027421 -0.002768 -0.006384 0.000000 -0.004239 0.000000
# 2 -0.002768 0.014697 -0.004210 0.000000 -0.001603 0.000000
# 3 -0.006384 -0.004210 0.009966 0.000000 -0.004577 0.000000
# 4 0.000000 0.000000 0.000000 0.033362 0.000000 -0.005129
# 5 -0.004239 -0.001603 -0.004577 0.000000 0.076472 0.000000
# 6 0.000000 0.000000 0.000000 -0.005129 0.000000 0.064105
#
#
# Mechanical properties :
#
#
# Convention : Reuss Voigt Hill
#
# Bulk Modulus (GPa) = 39.43262 60.13044 49.78153
# Shear Modulus (GPa) = 19.14245 23.73509 21.43877
#
# Velocity S-wave (km/s) = 3.37976 3.76342 3.57674
# Velocity P-wave (km/s) = 6.22582 7.40039 6.83837
#
# Compressibility (1/GPa) = 0.02535972
#
# Stress axis : x y z
#
# Youngs Moduli (GPa) = 36.46888 68.04217 100.33767
#
# Poissons Ratio (x) = 0.18834 0.64060
# Poissons Ratio (y) = 0.10095 0.42238
# Poissons Ratio (z) = 0.23283 0.28643
#
# Static dielectric constant tensor:
#      x y z
#    x 2.695500 0.000000 0.176510 
#    y 0.000000 3.200870 0.000000 
#    z 0.176510 0.000000 3.606200 
# 
# 
# High freq. dielectric constant tensor:
#      x y z
#    x 1.581090 0.000000 0.016690 
#    y 0.000000 1.647980 0.000000 
#    z 0.016690 0.000000 1.670190 
# 
# From -- ./inp_files/348581.got.cif
#   From: 2010.06.25/outbox.cif.g09.slc.cpg/sg12_175_cif.got.tgz:348581.got - 2010.06.28 00:19:55.
