data_PCOD8085496
_publ_section_title
;
Structure prediction by ZEFSAII (Michael W. Deem and Ramdas Pophale) SiO2 
 PCOD8085496
Probable space group: C 2/M
;
_chemical_formula_sum "Si O2"
_cell_formula_units_Z 48
_cell_length_a 21.845035
_cell_length_b 14.976772
_cell_length_c 11.898830
_cell_angle_alpha 90.000000
_cell_angle_beta 42.857978
_cell_angle_gamma 90.000000
_cell_volume 2647.898089
_symmetry_space_group_name_H-M "C 2/M"
_symmetry_group_IT_number 12
_symmetry_cell_setting 'monoclinic'
loop_
_space_group_symop_operation_xyz
x,y,z
-x,y,-z
-x,-y,-z
x,-y,z
1/2+x,1/2+y,z
1/2-x,1/2+y,-z
1/2-x,1/2-y,-z
1/2+x,1/2-y,z
loop_
_atom_site_type_symbol
_atom_site_label
_atom_site_fract_x
_atom_site_fract_y
_atom_site_fract_z
Si Si1 0.574159 0.713574 0.740332
Si Si2 0.704049 0.662601 0.375566
Si Si3 0.591316 0.602250 0.330183
Si Si4 0.654528 0.901516 0.638152
Si Si5 0.215517 0.152596 0.726836
Si Si6 0.593346 0.398810 0.077265
O O1 0.615708 0.675123 0.570158
O O2 0.579526 0.822682 0.735728
O O3 0.628866 0.675408 0.770228
O O4 0.473977 0.674927 0.884980
O O5 0.675603 0.612364 0.300563
O O6 0.780293 0.610086 0.342101
O O7 0.739579 0.757794 0.288434
O O8 0.500000 0.650411 0.500000
O O9 0.567822 0.500000 0.347762
O O10 0.617265 0.636231 0.170415
O O11 0.713311 0.900874 0.444911
O O12 0.608809 0.000000 0.708178
O O13 0.183289 0.098279 0.879703
O O14 0.552663 0.500000 0.132073
#
# Coordination Sequence:
#
# PCOD8085496 Si02
#       6
#     8   8   8   8   8   8
#     4   9  18  31  47  72 100 128 162 196 237 292
#     4   9  17  32  49  69  98 128 162 200 235 284
#     4  10  19  30  47  71  97 128 165 198 235 291
#     4   9  17  31  53  73  95 129 163 199 238 281
#     4   9  19  31  47  73 100 125 158 199 246 290
#     4  11  21  31  48  75 104 129 155 199 249 286
#
# _framework density 18.127586000000001
#
# number of rings (size 3 to 8) (size 9 to 14) (size 15 to 20)
#    0.000    2.500    1.667    3.500    0.000    4.667 
#    0.000    0.000    0.000    9.000    0.000   10.500 
#    0.000    0.000    0.000    0.000    0.000    0.000 
#
# Total GULP energy -297377.764671 kJ/mol
# GULP energy per Si atom -12390.740195 kJ/mol
# Density = 1.808633 g / cm^3
# Si number density = 18.127586 Si / 1000 Ang^3
#
#
#
# Elastic Constant Matrix: (Units=GPa)
#
#
# Indices 1 2 3 4 5 6 
#
# 1 60.1857 12.3699 34.0473 0.0000 14.3865 0.0000
# 2 12.3699 91.1137 22.0283 0.0000 3.5938 0.0000
# 3 34.0473 22.0283 63.3426 0.0000 12.4967 0.0000
# 4 0.0000 0.0000 0.0000 20.8273 0.0000 -1.5300
# 5 14.3865 3.5938 12.4967 0.0000 20.7674 0.0000
# 6 0.0000 0.0000 0.0000 -1.5300 0.0000 25.7470
#
#
#
# Elastic Compliance Matrix: (Units=1/GPa)
#
#
# Indices 1 2 3 4 5 6 
#
# 1 0.025865 -0.000262 -0.011671 0.000000 -0.010849 0.000000
# 2 -0.000262 0.011990 -0.004148 0.000000 0.000602 0.000000
# 3 -0.011671 -0.004148 0.024698 0.000000 -0.006059 0.000000
# 4 0.000000 0.000000 0.000000 0.048224 0.000000 0.002866
# 5 -0.010849 0.000602 -0.006059 0.000000 0.059210 0.000000
# 6 0.000000 0.000000 0.000000 0.002866 0.000000 0.039010
#
#
# Mechanical properties :
#
#
# Convention : Reuss Voigt Hill
#
# Bulk Modulus (GPa) = 32.90382 39.05924 35.98153
# Shear Modulus (GPa) = 19.89740 23.21478 21.55609
#
# Velocity S-wave (km/s) = 3.31665 3.58248 3.45212
# Velocity P-wave (km/s) = 5.73215 6.22140 5.98178
#
# Compressibility (1/GPa) = 0.03039161
#
# Stress axis : x y z
#
# Youngs Moduli (GPa) = 38.66260 83.40369 40.48860
#
# Poissons Ratio (x) = 0.02184 0.47254
# Poissons Ratio (y) = 0.01013 0.16794
# Poissons Ratio (z) = 0.45123 0.34594
#
# Static dielectric constant tensor:
#      x y z
#    x 3.121380 0.000000 0.266630 
#    y 0.000000 3.238730 0.000000 
#    z 0.266630 0.000000 3.293270 
# 
# 
# High freq. dielectric constant tensor:
#      x y z
#    x 1.681240 0.000000 0.024330 
#    y 0.000000 1.691130 0.000000 
#    z 0.024330 0.000000 1.689660 
# 
# From -- ./inp_files/142713.got.cif
#   From: 2010.06.25/outbox.cif.g09.slc.cpg/sg12_72_cif.got.tgz:142713.got - 2010.06.28 00:19:55.
