data_PCOD8085271
_publ_section_title
;
Structure prediction by ZEFSAII (Michael W. Deem and Ramdas Pophale) SiO2 
 PCOD8085271
Probable space group: C 2/M
;
_chemical_formula_sum "Si O2"
_cell_formula_units_Z 64
_cell_length_a 30.762104
_cell_length_b 9.229199
_cell_length_c 14.232480
_cell_angle_alpha 90.000000
_cell_angle_beta 89.479862
_cell_angle_gamma 90.000000
_cell_volume 4040.570910
_symmetry_space_group_name_H-M "C 2/M"
_symmetry_group_IT_number 12
_symmetry_cell_setting 'monoclinic'
loop_
_space_group_symop_operation_xyz
x,y,z
-x,y,-z
-x,-y,-z
x,-y,z
1/2+x,1/2+y,z
1/2-x,1/2+y,-z
1/2-x,1/2-y,-z
1/2+x,1/2-y,z
loop_
_atom_site_type_symbol
_atom_site_label
_atom_site_fract_x
_atom_site_fract_y
_atom_site_fract_z
Si Si1 0.757313 0.332904 0.404052
Si Si2 0.550992 0.828636 0.894725
Si Si3 0.086223 0.671997 0.292855
Si Si4 0.452928 0.829141 0.898388
Si Si5 0.423188 0.329848 0.281802
Si Si6 0.661763 0.335280 0.382775
Si Si7 0.338929 0.668964 0.398371
Si Si8 0.508828 0.331696 0.391500
O O1 0.768180 0.500000 0.424172
O O2 0.750000 0.250000 0.500000
O O3 0.712000 0.319439 0.347586
O O4 0.798582 0.257562 0.352604
O O5 0.501750 0.770720 0.881578
O O6 0.581150 0.749388 0.818186
O O7 0.555070 0.000000 0.879696
O O8 0.566078 0.781079 0.999692
O O9 0.084732 0.500000 0.301928
O O10 0.077626 0.724299 0.185777
O O11 0.133582 0.728500 0.319748
O O12 0.050186 0.737910 0.361944
O O13 0.457050 0.000000 0.899270
O O14 0.422749 0.500000 0.264470
O O15 0.382638 0.281546 0.345955
O O16 0.466975 0.280550 0.333569
O O17 0.645595 0.500000 0.368771
O O18 0.656211 0.292079 0.492003
O O19 0.329148 0.500000 0.385018
O O20 0.500000 0.300925 0.500000
O O21 0.519348 0.500000 0.373709
#
# Coordination Sequence:
#
# PCOD8085271 Si02
#       8
#     8   8   8   8   8   8   8   8
#     4   9  17  30  48  68  91 119 154 191 227 269
#     4   9  16  31  50  63  85 120 152 187 233 278
#     4  11  20  30  46  69  91 115 155 196 224 260
#     4   8  16  30  47  65  87 117 150 189 236 274
#     4  10  19  30  45  68  93 119 153 191 226 265
#     4   9  18  32  47  65  93 127 153 179 225 276
#     4   9  18  32  48  66  94 126 154 186 226 272
#     4  10  20  33  45  58  88 131 160 178 215 268
#
# _framework density 15.839345
#
# number of rings (size 3 to 8) (size 9 to 14) (size 15 to 20)
#    0.000    2.625    1.250    3.000    0.000    5.250 
#    0.000    3.750    0.000    0.000    0.000    0.875 
#    0.000    0.000    0.000    0.000    0.000    0.000 
#
# Total GULP energy -396671.363625 kJ/mol
# GULP energy per Si atom -12395.980113 kJ/mol
# Density = 1.580329 g / cm^3
# Si number density = 15.839345 Si / 1000 Ang^3
#
#
#
# Elastic Constant Matrix: (Units=GPa)
#
#
# Indices 1 2 3 4 5 6 
#
# 1 87.0900 37.6172 37.0174 0.0000 11.6042 0.0000
# 2 37.6172 52.2208 31.4947 0.0000 7.4158 0.0000
# 3 37.0174 31.4947 88.5735 0.0000 8.4689 0.0000
# 4 0.0000 0.0000 0.0000 22.5338 0.0000 -1.0478
# 5 11.6042 7.4158 8.4689 0.0000 13.0192 0.0000
# 6 0.0000 0.0000 0.0000 -1.0478 0.0000 29.7792
#
#
#
# Elastic Compliance Matrix: (Units=1/GPa)
#
#
# Indices 1 2 3 4 5 6 
#
# 1 0.018342 -0.010022 -0.003289 0.000000 -0.008500 0.000000
# 2 -0.010022 0.030835 -0.006345 0.000000 -0.004504 0.000000
# 3 -0.003289 -0.006345 0.015243 0.000000 -0.003369 0.000000
# 4 0.000000 0.000000 0.000000 0.044451 0.000000 0.001564
# 5 -0.008500 -0.004504 -0.003369 0.000000 0.089143 0.000000
# 6 0.000000 0.000000 0.000000 0.001564 0.000000 0.033636
#
#
# Mechanical properties :
#
#
# Convention : Reuss Voigt Hill
#
# Bulk Modulus (GPa) = 39.82877 48.90475 44.36676
# Shear Modulus (GPa) = 17.89997 21.18345 19.54171
#
# Velocity S-wave (km/s) = 3.36534 3.66101 3.51628
# Velocity P-wave (km/s) = 6.34828 6.98664 6.67510
#
# Compressibility (1/GPa) = 0.02510748
#
# Stress axis : x y z
#
# Youngs Moduli (GPa) = 54.52040 32.43081 65.60309
#
# Poissons Ratio (x) = 0.32501 0.21580
# Poissons Ratio (y) = 0.54638 0.41627
# Poissons Ratio (z) = 0.17934 0.20578
#
# Static dielectric constant tensor:
#      x y z
#    x 3.270440 0.000000 0.055080 
#    y 0.000000 2.972840 0.000000 
#    z 0.055080 0.000000 3.036350 
# 
# 
# High freq. dielectric constant tensor:
#      x y z
#    x 1.599430 0.000000 0.001330 
#    y 0.000000 1.602930 0.000000 
#    z 0.001330 0.000000 1.587880 
# 
# From -- ./inp_files/248394.got.cif
#   From: 2010.06.25/outbox.cif.g09.slc.cpg/sg12_125_cif.got.tgz:248394.got - 2010.06.28 00:19:55.
