data_PCOD8085776
_publ_section_title
;
Structure prediction by ZEFSAII (Michael W. Deem and Ramdas Pophale) SiO2 
 PCOD8085776
Probable space group: C 2/M
;
_chemical_formula_sum "Si O2"
_cell_formula_units_Z 64
_cell_length_a 29.872743
_cell_length_b 9.084462
_cell_length_c 30.628751
_cell_angle_alpha 90.000000
_cell_angle_beta 151.320356
_cell_angle_gamma 90.000000
_cell_volume 3989.009429
_symmetry_space_group_name_H-M "C 2/M"
_symmetry_group_IT_number 12
_symmetry_cell_setting 'monoclinic'
loop_
_space_group_symop_operation_xyz
x,y,z
-x,y,-z
-x,-y,-z
x,-y,z
1/2+x,1/2+y,z
1/2-x,1/2+y,-z
1/2-x,1/2-y,-z
1/2+x,1/2-y,z
loop_
_atom_site_type_symbol
_atom_site_label
_atom_site_fract_x
_atom_site_fract_y
_atom_site_fract_z
Si Si1 0.656035 0.674293 0.693600
Si Si2 0.374384 0.326289 0.750364
Si Si3 0.823864 0.671343 0.379879
Si Si4 0.857661 0.332419 0.554059
Si Si5 0.981585 0.674302 0.914064
Si Si6 0.827148 0.330278 0.625143
Si Si7 0.358156 0.173682 0.888451
Si Si8 0.485046 0.832050 0.585940
O O1 0.653857 0.500000 0.687928
O O2 0.646805 0.738826 0.637473
O O3 0.751854 0.730541 0.798391
O O4 0.571856 0.726732 0.651764
O O5 0.384455 0.500000 0.756760
O O6 0.276529 0.277159 0.688273
O O7 0.460034 0.259085 0.850975
O O8 0.382075 0.262643 0.708234
O O9 0.822855 0.500000 0.366936
O O10 0.899453 0.708214 0.481266
O O11 0.821808 0.500000 0.515483
O O12 0.879675 0.305942 0.623886
O O13 0.779101 0.222409 0.469799
O O14 0.951975 0.305274 0.607411
O O15 0.974225 0.500000 0.899732
O O16 0.908082 0.731945 0.887370
O O17 0.085012 0.721533 0.019478
O O18 0.826480 0.500000 0.638595
O O19 0.362460 0.000000 0.889260
O O20 0.516678 0.000000 0.605385
#
# Coordination Sequence:
#
# PCOD8085776 Si02
#       8
#     8   8   8   8   8   8   8   8
#     4  11  21  32  47  70  95 122 162 205 234 265
#     4  11  20  31  47  71 100 128 156 193 237 280
#     4  10  20  33  46  62  93 135 166 187 226 277
#     4   9  18  34  50  68  94 125 159 196 236 280
#     4   9  16  31  51  68  90 124 159 190 236 289
#     4  10  19  30  50  73  94 122 158 196 237 283
#     4   8  16  30  48  68  93 122 153 196 242 281
#     4  10  20  35  49  63  92 133 165 190 230 280
#
# _framework density 16.044084000000002
#
# number of rings (size 3 to 8) (size 9 to 14) (size 15 to 20)
#    0.000    2.250    2.500    2.250    0.000    3.500 
#    0.000    2.500    0.000    0.000    0.000    0.875 
#    0.000    0.000    0.000    0.000    0.000    0.000 
#
# Total GULP energy -396781.138005 kJ/mol
# GULP energy per Si atom -12399.410563 kJ/mol
# Density = 1.600757 g / cm^3
# Si number density = 16.044084 Si / 1000 Ang^3
#
#
#
# Elastic Constant Matrix: (Units=GPa)
#
#
# Indices 1 2 3 4 5 6 
#
# 1 95.3901 38.1440 47.4190 0.0000 -9.2909 0.0000
# 2 38.1440 58.3833 36.8142 0.0004 -7.3769 -0.0011
# 3 47.4190 36.8142 92.0801 -0.0001 -10.8067 0.0001
# 4 0.0000 0.0004 -0.0001 21.9047 0.0000 -1.5334
# 5 -9.2909 -7.3769 -10.8067 0.0000 23.6922 0.0000
# 6 0.0000 -0.0011 0.0001 -1.5334 0.0000 23.5809
#
#
#
# Elastic Compliance Matrix: (Units=1/GPa)
#
#
# Indices 1 2 3 4 5 6 
#
# 1 0.016055 -0.006934 -0.005294 0.000000 0.001722 0.000000
# 2 -0.006934 0.026117 -0.006588 0.000000 0.002408 0.000001
# 3 -0.005294 -0.006588 0.016626 0.000000 0.003456 0.000000
# 4 0.000000 0.000000 0.000000 0.045861 0.000000 0.002982
# 5 0.001722 0.002408 0.003456 0.000000 0.045210 0.000000
# 6 0.000000 0.000001 0.000000 0.002982 0.000000 0.042601
#
#
# Mechanical properties :
#
#
# Convention : Reuss Voigt Hill
#
# Bulk Modulus (GPa) = 47.24505 54.51197 50.87851
# Shear Modulus (GPa) = 21.08307 22.06731 21.57519
#
# Velocity S-wave (km/s) = 3.62894 3.71269 3.67105
# Velocity P-wave (km/s) = 6.86075 7.24078 7.05332
#
# Compressibility (1/GPa) = 0.02116624
#
# Stress axis : x y z
#
# Youngs Moduli (GPa) = 62.28495 38.28940 60.14700
#
# Poissons Ratio (x) = 0.26549 0.31840
# Poissons Ratio (y) = 0.43187 0.39627
# Poissons Ratio (z) = 0.32972 0.25226
#
# Static dielectric constant tensor:
#      x y z
#    x 3.009820 0.000000 -0.061500 
#    y 0.000000 2.971340 0.000000 
#    z -0.061500 0.000000 3.146320 
# 
# 
# High freq. dielectric constant tensor:
#      x y z
#    x 1.599200 0.000000 -0.012580 
#    y 0.000000 1.613670 0.000000 
#    z -0.012580 0.000000 1.604430 
# 
# From -- ./inp_files/248296.got.cif
#   From: 2010.06.25/outbox.cif.g09.slc.cpg/sg12_125_cif.got.tgz:248296.got - 2010.06.28 00:19:55.
