data_PCOD8085398
_publ_section_title
;
Structure prediction by ZEFSAII (Michael W. Deem and Ramdas Pophale) SiO2 
 PCOD8085398
Probable space group: C 2/M
;
_chemical_formula_sum "Si O2"
_cell_formula_units_Z 56
_cell_length_a 21.968486
_cell_length_b 9.006939
_cell_length_c 21.026149
_cell_angle_alpha 90.000000
_cell_angle_beta 50.424111
_cell_angle_gamma 90.000000
_cell_volume 3206.773752
_symmetry_space_group_name_H-M "C 2/M"
_symmetry_group_IT_number 12
_symmetry_cell_setting 'monoclinic'
loop_
_space_group_symop_operation_xyz
x,y,z
-x,y,-z
-x,-y,-z
x,-y,z
1/2+x,1/2+y,z
1/2-x,1/2+y,-z
1/2-x,1/2-y,-z
1/2+x,1/2-y,z
loop_
_atom_site_type_symbol
_atom_site_label
_atom_site_fract_x
_atom_site_fract_y
_atom_site_fract_z
Si Si1 0.264286 0.330637 0.405083
Si Si2 0.875569 0.330851 0.424330
Si Si3 0.001621 0.170344 0.730791
Si Si4 0.412873 0.826451 0.079305
Si Si5 0.883993 0.166919 0.226098
Si Si6 0.320278 0.327094 0.033391
Si Si7 0.642095 0.827205 0.117591
O O1 0.287069 0.500000 0.411761
O O2 0.169044 0.308193 0.477359
O O3 0.308987 0.208495 0.417029
O O4 0.294107 0.311260 0.312362
O O5 0.902770 0.500000 0.396922
O O6 0.952590 0.228520 0.362828
O O7 0.056060 0.196302 0.755970
O O8 0.921110 0.261521 0.791514
O O9 0.979710 0.000000 0.734949
O O10 0.401042 0.785658 0.160566
O O11 0.348872 0.738414 0.080857
O O12 0.398827 0.000000 0.079117
O O13 0.500000 0.778247 0.000000
O O14 0.895232 0.000000 0.191704
O O15 0.339736 0.500000 0.017272
O O16 0.227523 0.294233 0.090204
O O17 0.367394 0.250357 0.944503
O O18 0.626676 0.000000 0.117636
#
# Coordination Sequence:
#
# PCOD8085398 Si02
#       7
#     8   8   8   8   8   8   8
#     4   8  15  27  41  61  91 125 158 192 234 283
#     4   9  15  24  41  64  92 124 156 193 234 277
#     4  10  19  30  46  70  99 129 159 192 234 281
#     4  11  23  35  48  69  96 125 159 197 232 271
#     4   9  18  31  46  66  94 127 161 193 230 280
#     4  10  21  36  53  71  93 124 157 191 235 281
#     4  10  20  34  52  73  95 120 155 196 234 276
#
# _framework density 17.463035000000001
#
# number of rings (size 3 to 8) (size 9 to 14) (size 15 to 20)
#    0.000    2.429    0.000    3.857    0.000    8.571 
#    0.000    0.000    0.000    0.000    0.000    1.000 
#    0.000    8.000    0.000    0.000    0.000    0.000 
#
# Total GULP energy -347098.806248 kJ/mol
# GULP energy per Si atom -12396.385937 kJ/mol
# Density = 1.742329 g / cm^3
# Si number density = 17.463035 Si / 1000 Ang^3
#
#
#
# Elastic Constant Matrix: (Units=GPa)
#
#
# Indices 1 2 3 4 5 6 
#
# 1 36.8381 29.6216 24.9929 0.0000 -3.3193 0.0003
# 2 29.6216 84.6263 48.2671 -0.0004 -8.4905 0.0027
# 3 24.9929 48.2671 134.3038 0.0002 -18.7777 -0.0001
# 4 0.0000 -0.0004 0.0002 31.4072 -0.0001 -2.2483
# 5 -3.3193 -8.4905 -18.7777 -0.0001 18.9540 -0.0001
# 6 0.0003 0.0027 -0.0001 -2.2483 -0.0001 22.4428
#
#
#
# Elastic Compliance Matrix: (Units=1/GPa)
#
#
# Indices 1 2 3 4 5 6 
#
# 1 0.038723 -0.011923 -0.003157 0.000000 -0.001687 0.000001
# 2 -0.011923 0.018576 -0.004162 0.000000 0.002110 -0.000002
# 3 -0.003157 -0.004162 0.010669 0.000000 0.008152 0.000001
# 4 0.000000 0.000000 0.000000 0.032070 0.000000 0.003213
# 5 -0.001687 0.002110 0.008152 0.000000 0.061485 0.000000
# 6 0.000001 -0.000002 0.000001 0.003213 0.000000 0.044880
#
#
# Mechanical properties :
#
#
# Convention : Reuss Voigt Hill
#
# Bulk Modulus (GPa) = 33.91733 51.28128 42.59930
# Shear Modulus (GPa) = 19.62992 24.75326 22.19159
#
# Velocity S-wave (km/s) = 3.35637 3.76901 3.56866
# Velocity P-wave (km/s) = 5.87238 6.95485 6.43641
#
# Compressibility (1/GPa) = 0.02948346
#
# Stress axis : x y z
#
# Youngs Moduli (GPa) = 25.82461 53.83434 93.73007
#
# Poissons Ratio (x) = 0.64185 0.29591
# Poissons Ratio (y) = 0.30790 0.39012
# Poissons Ratio (z) = 0.08153 0.22407
#
# Static dielectric constant tensor:
#      x y z
#    x 2.782530 0.000000 -0.207040 
#    y 0.000000 3.327830 0.000000 
#    z -0.207040 0.000000 3.628520 
# 
# 
# High freq. dielectric constant tensor:
#      x y z
#    x 1.613600 0.000000 -0.021130 
#    y 0.000000 1.689590 0.000000 
#    z -0.021130 0.000000 1.691150 
# 
# From -- ./inp_files/287870.got.cif
#   From: 2010.06.25/outbox.cif.g09.slc.cpg/sg12_144_cif.got.tgz:287870.got - 2010.06.28 00:19:55.
