data_PCOD8085152
_publ_section_title
;
Structure prediction by ZEFSAII (Michael W. Deem and Ramdas Pophale) SiO2 
 PCOD8085152
Probable space group: C 2/M
;
_chemical_formula_sum "Si O2"
_cell_formula_units_Z 64
_cell_length_a 24.526857
_cell_length_b 8.951112
_cell_length_c 16.081562
_cell_angle_alpha 90.000000
_cell_angle_beta 99.883460
_cell_angle_gamma 90.000000
_cell_volume 3478.190883
_symmetry_space_group_name_H-M "C 2/M"
_symmetry_group_IT_number 12
_symmetry_cell_setting 'monoclinic'
loop_
_space_group_symop_operation_xyz
x,y,z
-x,y,-z
-x,-y,-z
x,-y,z
1/2+x,1/2+y,z
1/2-x,1/2+y,-z
1/2-x,1/2-y,-z
1/2+x,1/2-y,z
loop_
_atom_site_type_symbol
_atom_site_label
_atom_site_fract_x
_atom_site_fract_y
_atom_site_fract_z
Si Si1 0.597713 0.177899 0.790257
Si Si2 0.366620 0.826303 0.021619
Si Si3 0.981078 0.823954 0.760888
Si Si4 0.804415 0.175552 0.268709
Si Si5 0.947741 0.160505 0.933622
Si Si6 0.263852 0.173475 0.589229
Si Si7 0.198109 0.322554 0.146111
Si Si8 0.871028 0.676821 0.716036
O O1 0.621956 0.245618 0.884640
O O2 0.538294 0.245407 0.750260
O O3 0.639962 0.230395 0.730357
O O4 0.592585 0.000000 0.791127
O O5 0.361928 0.000000 0.035793
O O6 0.416082 0.791996 0.971912
O O7 0.313134 0.770251 0.952986
O O8 0.969103 0.778144 0.851972
O O9 0.927281 0.757857 0.699316
O O10 0.986593 0.000000 0.746243
O O11 0.783240 0.211959 0.355517
O O12 0.758314 0.234372 0.190448
O O13 0.816243 0.000000 0.259997
O O14 0.914858 0.000000 0.915887
O O15 0.000000 0.119290 0.000000
O O16 0.250000 0.250000 0.500000
O O17 0.323639 0.224762 0.638488
O O18 0.264990 0.000000 0.572248
O O19 0.198001 0.500000 0.154261
O O20 0.149548 0.266473 0.197160
O O21 0.880670 0.500000 0.718593
#
# Coordination Sequence:
#
# PCOD8085152 Si02
#       8
#     8   8   8   8   8   8   8   8
#     4  11  23  34  47  72 104 142 186 224 259 302
#     4  10  19  30  47  69  96 136 184 224 263 305
#     4  11  21  32  49  73 103 141 180 219 265 309
#     4   9  19  37  56  74 102 140 175 207 256 316
#     4  10  19  30  43  65  98 133 177 229 270 300
#     4   9  19  36  62  91 112 134 162 200 256 317
#     4   8  15  30  51  71  96 134 176 219 262 304
#     4   9  17  32  54  80 108 136 169 210 259 309
#
# _framework density 18.400369999999999
#
# number of rings (size 3 to 8) (size 9 to 14) (size 15 to 20)
#    0.000    2.375    2.500    2.250    0.000    2.750 
#    0.000    2.500    0.000    0.750    0.000    5.250 
#    0.000    0.000    0.000    0.000    0.000    0.000 
#
# Total GULP energy -396451.608622 kJ/mol
# GULP energy per Si atom -12389.112769 kJ/mol
# Density = 1.835849 g / cm^3
# Si number density = 18.400370 Si / 1000 Ang^3
#
#
#
# Elastic Constant Matrix: (Units=GPa)
#
#
# Indices 1 2 3 4 5 6 
#
# 1 134.5172 42.5126 48.1489 0.0000 4.6580 0.0000
# 2 42.5126 45.9529 33.6047 0.0000 3.4051 0.0000
# 3 48.1489 33.6047 90.5558 0.0000 10.0921 0.0000
# 4 0.0000 0.0000 0.0000 24.0463 0.0000 -0.5709
# 5 4.6580 3.4051 10.0921 0.0000 15.6737 0.0000
# 6 0.0000 0.0000 0.0000 -0.5709 0.0000 30.7627
#
#
#
# Elastic Compliance Matrix: (Units=1/GPa)
#
#
# Indices 1 2 3 4 5 6 
#
# 1 0.011018 -0.008106 -0.002889 0.000000 0.000347 0.000000
# 2 -0.008106 0.035838 -0.009038 0.000000 0.000443 0.000000
# 3 -0.002889 -0.009038 0.016826 0.000000 -0.008012 0.000000
# 4 0.000000 0.000000 0.000000 0.041605 0.000000 0.000772
# 5 0.000347 0.000443 -0.008012 0.000000 0.068761 0.000000
# 6 0.000000 0.000000 0.000000 0.000772 0.000000 0.032521
#
#
# Mechanical properties :
#
#
# Convention : Reuss Voigt Hill
#
# Bulk Modulus (GPa) = 42.34659 57.72870 50.03765
# Shear Modulus (GPa) = 19.64592 23.88053 21.76322
#
# Velocity S-wave (km/s) = 3.27110 3.60645 3.44286
# Velocity P-wave (km/s) = 6.10989 6.98453 6.56180
#
# Compressibility (1/GPa) = 0.02361465
#
# Stress axis : x y z
#
# Youngs Moduli (GPa) = 90.76199 27.90372 59.43243
#
# Poissons Ratio (x) = 0.22619 0.17168
# Poissons Ratio (y) = 0.73573 0.53717
# Poissons Ratio (z) = 0.26219 0.25220
#
# Static dielectric constant tensor:
#      x y z
#    x 3.317000 0.000000 0.034910 
#    y 0.000000 3.198140 0.000000 
#    z 0.034910 0.000000 2.866450 
# 
# 
# High freq. dielectric constant tensor:
#      x y z
#    x 1.709880 0.000000 0.015040 
#    y 0.000000 1.700240 0.000000 
#    z 0.015040 0.000000 1.686050 
# 
# From -- ./inp_files/287773.got.cif
#   From: 2010.06.25/outbox.cif.g09.slc.cpg/sg12_144_cif.got.tgz:287773.got - 2010.06.28 00:19:55.
