data_PCOD8085064
_publ_section_title
;
Structure prediction by ZEFSAII (Michael W. Deem and Ramdas Pophale) SiO2 
 PCOD8085064
Probable space group: C 2/M
;
_chemical_formula_sum "Si O2"
_cell_formula_units_Z 64
_cell_length_a 22.628160
_cell_length_b 9.152293
_cell_length_c 17.667535
_cell_angle_alpha 90.000000
_cell_angle_beta 77.206657
_cell_angle_gamma 90.000000
_cell_volume 3568.105730
_symmetry_space_group_name_H-M "C 2/M"
_symmetry_group_IT_number 12
_symmetry_cell_setting 'monoclinic'
loop_
_space_group_symop_operation_xyz
x,y,z
-x,y,-z
-x,-y,-z
x,-y,z
1/2+x,1/2+y,z
1/2-x,1/2+y,-z
1/2-x,1/2-y,-z
1/2+x,1/2-y,z
loop_
_atom_site_type_symbol
_atom_site_label
_atom_site_fract_x
_atom_site_fract_y
_atom_site_fract_z
Si Si1 0.471577 0.662755 0.700574
Si Si2 0.476295 0.171060 0.924852
Si Si3 0.185642 0.836529 0.731122
Si Si4 0.562871 0.829834 0.763868
Si Si5 0.774712 0.329459 0.566190
Si Si6 0.636610 0.672524 0.362901
Si Si7 0.880067 0.833831 0.866200
Si Si8 0.702591 0.830915 0.208843
O O1 0.498194 0.500000 0.687972
O O2 0.528412 0.767778 0.699500
O O3 0.435262 0.701201 0.633037
O O4 0.423791 0.674897 0.781952
O O5 0.527779 0.215843 0.849991
O O6 0.414292 0.259114 0.927067
O O7 0.461401 0.000000 0.924385
O O8 0.500000 0.217860 0.000000
O O9 0.130989 0.724889 0.749790
O O10 0.227216 0.803157 0.646883
O O11 0.225054 0.821040 0.797453
O O12 0.159210 0.000000 0.732814
O O13 0.565327 0.000000 0.751973
O O14 0.785403 0.500000 0.547133
O O15 0.750000 0.250000 0.500000
O O16 0.839663 0.255307 0.568785
O O17 0.649606 0.500000 0.365640
O O18 0.672985 0.737626 0.283030
O O19 0.818534 0.742544 0.864482
O O20 0.862859 0.000000 0.891887
O O21 0.680995 0.000000 0.218443
#
# Coordination Sequence:
#
# PCOD8085064 Si02
#       8
#     8   8   8   8   8   8   8   8
#     4   8  15  27  43  64  92 122 150 186 232 276
#     4   9  18  32  48  68  96 127 157 192 236 284
#     4   9  19  33  48  68  96 127 155 187 233 282
#     4  10  19  29  47  72  94 122 158 194 232 274
#     4  10  20  33  50  72  97 127 158 191 234 280
#     4   9  16  27  45  69  94 121 154 194 235 273
#     4   9  16  26  43  68  93 118 152 195 237 275
#     4   9  16  27  44  66  91 121 155 191 234 279
#
# _framework density 17.936689000000001
#
# number of rings (size 3 to 8) (size 9 to 14) (size 15 to 20)
#    0.000    2.875    0.000    3.375    0.000    7.250 
#    0.000    0.000    0.000    1.500    0.000    5.250 
#    0.000    0.000    0.000    0.000    0.000    0.000 
#
# Total GULP energy -396573.070380 kJ/mol
# GULP energy per Si atom -12392.908449 kJ/mol
# Density = 1.789586 g / cm^3
# Si number density = 17.936689 Si / 1000 Ang^3
#
#
#
# Elastic Constant Matrix: (Units=GPa)
#
#
# Indices 1 2 3 4 5 6 
#
# 1 127.8928 74.0231 45.0963 0.0000 39.0035 0.0000
# 2 74.0231 116.0343 40.0455 0.0000 26.2706 0.0000
# 3 45.0963 40.0455 50.7911 0.0000 31.1808 0.0000
# 4 0.0000 0.0000 0.0000 21.1189 0.0000 8.6566
# 5 39.0035 26.2706 31.1808 0.0000 34.0980 0.0000
# 6 0.0000 0.0000 0.0000 8.6566 0.0000 37.7735
#
#
#
# Elastic Compliance Matrix: (Units=1/GPa)
#
#
# Indices 1 2 3 4 5 6 
#
# 1 0.015905 -0.007019 -0.001684 0.000000 -0.011245 0.000000
# 2 -0.007019 0.014964 -0.007791 0.000000 0.003625 0.000000
# 3 -0.001684 -0.007791 0.051204 0.000000 -0.038894 0.000000
# 4 0.000000 0.000000 0.000000 0.052260 0.000000 -0.011976
# 5 -0.011245 0.003625 -0.038894 0.000000 0.074965 0.000000
# 6 0.000000 0.000000 0.000000 -0.011976 0.000000 0.029218
#
#
# Mechanical properties :
#
#
# Convention : Reuss Voigt Hill
#
# Bulk Modulus (GPa) = 20.37314 68.11646 44.24480
# Shear Modulus (GPa) = 17.36914 27.63496 22.50205
#
# Velocity S-wave (km/s) = 3.11522 3.92943 3.54577
# Velocity P-wave (km/s) = 4.93178 7.65805 6.44081
#
# Compressibility (1/GPa) = 0.04908423
#
# Stress axis : x y z
#
# Youngs Moduli (GPa) = 62.87305 66.82545 19.52973
#
# Poissons Ratio (x) = 0.46907 0.03288
# Poissons Ratio (y) = 0.44133 0.15216
# Poissons Ratio (z) = 0.10587 0.52066
#
# Static dielectric constant tensor:
#      x y z
#    x 3.850190 0.000000 0.658700 
#    y 0.000000 3.475680 0.000000 
#    z 0.658700 0.000000 3.096060 
# 
# 
# High freq. dielectric constant tensor:
#      x y z
#    x 1.697270 0.000000 0.042450 
#    y 0.000000 1.707840 0.000000 
#    z 0.042450 0.000000 1.642030 
# 
# From -- ./inp_files/287531.got.cif
#   From: 2010.06.25/outbox.cif.g09.slc.cpg/sg12_144_cif.got.tgz:287531.got - 2010.06.28 00:19:55.
