data_PCOD8085665
_publ_section_title
;
Structure prediction by ZEFSAII (Michael W. Deem and Ramdas Pophale) SiO2 
 PCOD8085665
Probable space group: C 2/M
;
_chemical_formula_sum "Si O2"
_cell_formula_units_Z 64
_cell_length_a 20.355588
_cell_length_b 8.997587
_cell_length_c 19.250096
_cell_angle_alpha 90.000000
_cell_angle_beta 90.335677
_cell_angle_gamma 90.000000
_cell_volume 3525.617174
_symmetry_space_group_name_H-M "C 2/M"
_symmetry_group_IT_number 12
_symmetry_cell_setting 'monoclinic'
loop_
_space_group_symop_operation_xyz
x,y,z
-x,y,-z
-x,-y,-z
x,-y,z
1/2+x,1/2+y,z
1/2-x,1/2+y,-z
1/2-x,1/2-y,-z
1/2+x,1/2-y,z
loop_
_atom_site_type_symbol
_atom_site_label
_atom_site_fract_x
_atom_site_fract_y
_atom_site_fract_z
Si Si1 0.379838 0.324851 0.841622
Si Si2 0.497276 0.827732 0.919498
Si Si3 0.827591 0.832550 0.568861
Si Si4 0.328629 0.832711 0.433451
Si Si5 0.746706 0.325898 0.073182
Si Si6 0.370097 0.827327 0.161507
Si Si7 0.825049 0.675383 0.708993
Si Si8 0.673222 0.674827 0.706360
O O1 0.381539 0.500000 0.828280
O O2 0.446025 0.273690 0.878835
O O3 0.320201 0.277448 0.890577
O O4 0.371274 0.243291 0.768363
O O5 0.567241 0.795843 0.885522
O O6 0.476746 0.000000 0.912782
O O7 0.500000 0.779686 0.000000
O O8 0.749511 0.834398 0.563775
O O9 0.857046 0.752271 0.500950
O O10 0.850363 0.742072 0.636587
O O11 0.855306 0.000000 0.572926
O O12 0.352421 0.748035 0.364776
O O13 0.356590 0.000000 0.432773
O O14 0.751591 0.500000 0.061423
O O15 0.807202 0.268600 0.119300
O O16 0.750000 0.250000 0.000000
O O17 0.373379 0.735003 0.232739
O O18 0.363259 0.000000 0.180787
O O19 0.834397 0.500000 0.706874
O O20 0.749007 0.719471 0.721860
O O21 0.665095 0.500000 0.699045
#
# Coordination Sequence:
#
# PCOD8085665 Si02
#       8
#     8   8   8   8   8   8   8   8
#     4  11  22  36  55  79 107 138 174 222 272 318
#     4  10  22  40  60  78 103 140 179 220 268 325
#     4   9  16  26  42  67 102 140 177 218 262 309
#     4   9  16  26  42  66 101 142 178 214 259 315
#     4  10  21  35  54  78 103 133 171 214 265 320
#     4  10  20  36  55  76 104 139 176 217 266 322
#     4  10  19  31  49  74 105 141 179 218 264 319
#     4  10  19  30  48  75 105 138 176 222 267 312
#
# _framework density 18.152850000000001
#
# number of rings (size 3 to 8) (size 9 to 14) (size 15 to 20)
#    0.000    2.125    1.250    2.625    0.000    7.250 
#    0.000    0.000    0.000    0.000    0.000    0.875 
#    0.000    7.000    0.000    0.000    0.000    0.000 
#
# Total GULP energy -396893.339461 kJ/mol
# GULP energy per Si atom -12402.916858 kJ/mol
# Density = 1.811153 g / cm^3
# Si number density = 18.152850 Si / 1000 Ang^3
#
#
#
# Elastic Constant Matrix: (Units=GPa)
#
#
# Indices 1 2 3 4 5 6 
#
# 1 40.3168 26.4554 23.8277 0.0000 -2.0719 0.0000
# 2 26.4554 96.4396 67.5265 0.0000 -0.0317 0.0000
# 3 23.8277 67.5265 161.4728 0.0000 -3.9211 0.0000
# 4 0.0000 0.0000 0.0000 41.2784 0.0000 1.1138
# 5 -2.0719 -0.0317 -3.9211 0.0000 20.8751 0.0000
# 6 0.0000 0.0000 0.0000 1.1138 0.0000 22.0751
#
#
#
# Elastic Compliance Matrix: (Units=1/GPa)
#
#
# Indices 1 2 3 4 5 6 
#
# 1 0.030635 -0.007473 -0.001328 0.000000 0.002780 0.000000
# 2 -0.007473 0.016512 -0.005847 0.000000 -0.001815 0.000000
# 3 -0.001328 -0.005847 0.008871 0.000000 0.001526 0.000000
# 4 0.000000 0.000000 0.000000 0.024259 0.000000 -0.001224
# 5 0.002780 -0.001815 0.001526 0.000000 0.048464 0.000000
# 6 0.000000 0.000000 0.000000 -0.001224 0.000000 0.045362
#
#
# Mechanical properties :
#
#
# Convention : Reuss Voigt Hill
#
# Bulk Modulus (GPa) = 37.42091 59.31649 48.36870
# Shear Modulus (GPa) = 23.55095 28.87368 26.21231
#
# Velocity S-wave (km/s) = 3.60581 3.99254 3.80409
# Velocity P-wave (km/s) = 6.16400 7.34853 6.78218
#
# Compressibility (1/GPa) = 0.02672303
#
# Stress axis : x y z
#
# Youngs Moduli (GPa) = 32.64243 60.56052 112.72654
#
# Poissons Ratio (x) = 0.45257 0.14970
# Poissons Ratio (y) = 0.24394 0.65907
# Poissons Ratio (z) = 0.04335 0.35408
#
# Static dielectric constant tensor:
#      x y z
#    x 3.025560 0.000000 0.018980 
#    y 0.000000 3.423110 0.000000 
#    z 0.018980 0.000000 3.528030 
# 
# 
# High freq. dielectric constant tensor:
#      x y z
#    x 1.654050 0.000000 -0.001170 
#    y 0.000000 1.712160 0.000000 
#    z -0.001170 0.000000 1.721590 
# 
# From -- ./inp_files/281291.got.cif
#   From: 2010.06.25/outbox.cif.g09.slc.cpg/sg12_141_cif.got.tgz:281291.got - 2010.06.28 00:19:55.
