data_PCOD8085337
_publ_section_title
;
Structure prediction by ZEFSAII (Michael W. Deem and Ramdas Pophale) SiO2 
 PCOD8085337
Probable space group: C 2/M
;
_chemical_formula_sum "Si O2"
_cell_formula_units_Z 64
_cell_length_a 16.602190
_cell_length_b 14.434366
_cell_length_c 18.071781
_cell_angle_alpha 90.000000
_cell_angle_beta 123.306159
_cell_angle_gamma 90.000000
_cell_volume 3619.424904
_symmetry_space_group_name_H-M "C 2/M"
_symmetry_group_IT_number 12
_symmetry_cell_setting 'monoclinic'
loop_
_space_group_symop_operation_xyz
x,y,z
-x,y,-z
-x,-y,-z
x,-y,z
1/2+x,1/2+y,z
1/2-x,1/2+y,-z
1/2-x,1/2-y,-z
1/2+x,1/2-y,z
loop_
_atom_site_type_symbol
_atom_site_label
_atom_site_fract_x
_atom_site_fract_y
_atom_site_fract_z
Si Si1 0.945958 0.197034 0.543305
Si Si2 0.901733 0.103578 0.067013
Si Si3 0.219574 0.105958 0.132009
Si Si4 0.236979 0.104435 0.615272
Si Si5 0.123929 0.752900 0.827612
Si Si6 0.084725 0.731058 0.314996
Si Si7 0.882864 0.894788 0.773008
Si Si8 0.382594 0.398975 0.303990
O O1 0.839554 0.161288 0.471487
O O2 0.933210 0.266105 0.605825
O O3 0.000000 0.246449 0.500000
O O4 0.016370 0.112502 0.601388
O O5 0.849500 0.183258 0.088750
O O6 0.015347 0.113501 0.134715
O O7 0.868434 0.000000 0.075217
O O8 0.874159 0.118984 0.967371
O O9 0.304235 0.168003 0.142043
O O10 0.194832 0.134549 0.203792
O O11 0.255185 0.000000 0.148303
O O12 0.342254 0.148740 0.663915
O O13 0.206730 0.105240 0.685421
O O14 0.243205 0.000000 0.587761
O O15 0.131874 0.818542 0.761115
O O16 0.016072 0.710582 0.777413
O O17 0.125969 0.828549 0.303048
O O18 0.865035 0.000000 0.736542
O O19 0.386177 0.500000 0.266867
#
# Coordination Sequence:
#
# PCOD8085337 Si02
#       8
#     8   8   8   8   8   8   8   8
#     4   9  18  32  50  70  91 116 149 191 235 270
#     4   9  17  30  49  71  92 116 151 195 237 269
#     4  10  19  31  47  67  94 126 155 185 223 271
#     4  10  19  31  48  69  94 123 152 184 224 272
#     4  10  19  30  46  68  95 124 154 187 224 270
#     4  10  20  32  48  69  94 123 152 185 224 270
#     4   9  18  32  50  71  92 116 151 194 235 269
#     4   9  17  30  49  71  92 115 148 193 238 270
#
# _framework density 17.682366999999999
#
# number of rings (size 3 to 8) (size 9 to 14) (size 15 to 20)
#    0.000    2.500    0.000    2.625    0.000    7.000 
#    0.000    0.000    0.000    0.375    0.000    0.000 
#    0.000   18.000    0.000    0.000    0.000    0.000 
#
# Total GULP energy -396641.509463 kJ/mol
# GULP energy per Si atom -12395.047171 kJ/mol
# Density = 1.764212 g / cm^3
# Si number density = 17.682367 Si / 1000 Ang^3
#
#
#
# Elastic Constant Matrix: (Units=GPa)
#
#
# Indices 1 2 3 4 5 6 
#
# 1 85.5997 35.8958 16.6156 0.0000 -0.9032 0.0000
# 2 35.8958 51.8042 12.3257 0.0000 3.8545 0.0000
# 3 16.6156 12.3257 49.8097 0.0000 -5.2333 0.0000
# 4 0.0000 0.0000 0.0000 17.2150 0.0000 0.4667
# 5 -0.9032 3.8545 -5.2333 0.0000 24.7613 0.0000
# 6 0.0000 0.0000 0.0000 0.4667 0.0000 29.0565
#
#
#
# Elastic Compliance Matrix: (Units=1/GPa)
#
#
# Indices 1 2 3 4 5 6 
#
# 1 0.016929 -0.011227 -0.002680 0.000000 0.001799 0.000000
# 2 -0.011227 0.028427 -0.003884 0.000000 -0.005656 0.000000
# 3 -0.002680 -0.003884 0.022484 0.000000 0.005259 0.000000
# 4 0.000000 0.000000 0.000000 0.058114 0.000000 -0.000933
# 5 0.001799 -0.005656 0.005259 0.000000 0.042443 0.000000
# 6 0.000000 0.000000 0.000000 -0.000933 0.000000 0.034431
#
#
# Mechanical properties :
#
#
# Convention : Reuss Voigt Hill
#
# Bulk Modulus (GPa) = 30.99858 35.20976 33.10417
# Shear Modulus (GPa) = 20.06715 22.36499 21.21607
#
# Velocity S-wave (km/s) = 3.37243 3.56029 3.46763
# Velocity P-wave (km/s) = 5.72130 6.07095 5.89872
#
# Compressibility (1/GPa) = 0.03225954
#
# Stress axis : x y z
#
# Youngs Moduli (GPa) = 59.06883 35.17729 44.47600
#
# Poissons Ratio (x) = 0.39493 0.11921
# Poissons Ratio (y) = 0.66315 0.17273
# Poissons Ratio (z) = 0.15832 0.13662
#
# Static dielectric constant tensor:
#      x y z
#    x 3.308040 0.000000 -0.105490 
#    y 0.000000 3.143730 0.000000 
#    z -0.105490 0.000000 3.261510 
# 
# 
# High freq. dielectric constant tensor:
#      x y z
#    x 1.683170 0.000000 -0.009670 
#    y 0.000000 1.665890 0.000000 
#    z -0.009670 0.000000 1.676950 
# 
# From -- ./inp_files/270303.got.cif
#   From: 2010.06.25/outbox.cif.g09.slc.cpg/sg12_136_cif.got.tgz:270303.got - 2010.06.28 00:19:55.
