data_PCOD8085355
_publ_section_title
;
Structure prediction by ZEFSAII (Michael W. Deem and Ramdas Pophale) SiO2 
 PCOD8085355
Probable space group: C 2/M
;
_chemical_formula_sum "Si O2"
_cell_formula_units_Z 64
_cell_length_a 24.444069
_cell_length_b 9.385658
_cell_length_c 21.375248
_cell_angle_alpha 90.000000
_cell_angle_beta 128.826124
_cell_angle_gamma 90.000000
_cell_volume 3820.462469
_symmetry_space_group_name_H-M "C 2/M"
_symmetry_group_IT_number 12
_symmetry_cell_setting 'monoclinic'
loop_
_space_group_symop_operation_xyz
x,y,z
-x,y,-z
-x,-y,-z
x,-y,z
1/2+x,1/2+y,z
1/2-x,1/2+y,-z
1/2-x,1/2-y,-z
1/2+x,1/2-y,z
loop_
_atom_site_type_symbol
_atom_site_label
_atom_site_fract_x
_atom_site_fract_y
_atom_site_fract_z
Si Si1 0.966522 0.337639 0.320463
Si Si2 0.638568 0.666631 0.338502
Si Si3 0.723826 0.831774 0.632660
Si Si4 0.517619 0.336214 0.789207
Si Si5 0.243799 0.834648 0.897655
Si Si6 0.181883 0.666433 0.737715
Si Si7 0.877638 0.667297 0.547794
Si Si8 0.348465 0.662547 0.047224
O O1 0.968289 0.500000 0.299269
O O2 0.953802 0.248122 0.249431
O O3 0.902325 0.309843 0.321691
O O4 0.040301 0.298220 0.406578
O O5 0.645493 0.500000 0.359506
O O6 0.698218 0.714831 0.332471
O O7 0.563154 0.702842 0.252879
O O8 0.649050 0.752654 0.409737
O O9 0.708804 0.771151 0.690903
O O10 0.666498 0.772749 0.542381
O O11 0.716004 0.000000 0.630054
O O12 0.524313 0.500000 0.774617
O O13 0.568198 0.304691 0.884803
O O14 0.219800 0.755090 0.818419
O O15 0.186803 0.809809 0.910744
O O16 0.255441 0.000000 0.890958
O O17 0.317885 0.767840 0.973119
O O18 0.200537 0.500000 0.760113
O O19 0.864304 0.500000 0.548547
O O20 0.335244 0.500000 0.016199
#
# Coordination Sequence:
#
# PCOD8085355 Si02
#       8
#     8   8   8   8   8   8   8   8
#     4   9  17  27  43  67  92 121 153 186 227 270
#     4   9  17  30  49  70  91 118 154 193 231 267
#     4   9  18  31  47  67  91 123 159 192 225 265
#     4   9  16  28  47  69  93 118 146 186 230 270
#     4  10  19  30  46  69  95 120 147 184 226 271
#     4  10  19  31  46  64  93 128 157 185 221 271
#     4   9  17  30  47  68  93 118 152 197 235 266
#     4   9  17  29  46  69  94 118 145 181 227 273
#
# _framework density 16.751899000000002
#
# number of rings (size 3 to 8) (size 9 to 14) (size 15 to 20)
#    0.000    2.750    1.250    0.750    0.000    1.500 
#    0.000    3.750    0.000    0.750    0.000    9.625 
#    0.000    0.000    0.000    0.000    0.000    0.000 
#
# Total GULP energy -396702.885572 kJ/mol
# GULP energy per Si atom -12396.965174 kJ/mol
# Density = 1.671377 g / cm^3
# Si number density = 16.751899 Si / 1000 Ang^3
#
#
#
# Elastic Constant Matrix: (Units=GPa)
#
#
# Indices 1 2 3 4 5 6 
#
# 1 110.2332 39.7116 70.9763 0.0000 2.2110 0.0000
# 2 39.7116 53.3774 45.3310 0.0000 2.4087 0.0000
# 3 70.9763 45.3310 110.1100 0.0000 13.0519 0.0000
# 4 0.0000 0.0000 0.0000 24.7276 0.0000 -0.3362
# 5 2.2110 2.4087 13.0519 0.0000 22.9985 0.0000
# 6 0.0000 0.0000 0.0000 -0.3362 0.0000 15.5923
#
#
#
# Elastic Compliance Matrix: (Units=1/GPa)
#
#
# Indices 1 2 3 4 5 6 
#
# 1 0.016671 -0.004682 -0.009313 0.000000 0.004173 0.000000
# 2 -0.004682 0.030465 -0.009863 0.000000 0.002857 0.000000
# 3 -0.009313 -0.009863 0.020281 0.000000 -0.009582 0.000000
# 4 0.000000 0.000000 0.000000 0.040452 0.000000 0.000872
# 5 0.004173 0.002857 -0.009582 0.000000 0.048218 0.000000
# 6 0.000000 0.000000 0.000000 0.000872 0.000000 0.064153
#
#
# Mechanical properties :
#
#
# Convention : Reuss Voigt Hill
#
# Bulk Modulus (GPa) = 50.75783 65.08425 57.92104
# Shear Modulus (GPa) = 18.21332 20.51045 19.36189
#
# Velocity S-wave (km/s) = 3.30091 3.50289 3.40340
# Velocity P-wave (km/s) = 6.70026 7.43616 7.07778
#
# Compressibility (1/GPa) = 0.01970139
#
# Stress axis : x y z
#
# Youngs Moduli (GPa) = 59.98325 32.82487 49.30658
#
# Poissons Ratio (x) = 0.15368 0.45921
# Poissons Ratio (y) = 0.28084 0.48629
# Poissons Ratio (z) = 0.55865 0.32374
#
# Static dielectric constant tensor:
#      x y z
#    x 3.230140 0.000000 0.244160 
#    y 0.000000 3.063320 0.000000 
#    z 0.244160 0.000000 3.192660 
# 
# 
# High freq. dielectric constant tensor:
#      x y z
#    x 1.631440 0.000000 0.025010 
#    y 0.000000 1.633830 0.000000 
#    z 0.025010 0.000000 1.639970 
# 
# From -- ./inp_files/288856.got.cif
#   From: 2010.06.25/outbox.cif.g09.slc.cpg/sg12_145_cif.got.tgz:288856.got - 2010.06.28 00:19:55.
