data_PCOD8085225
_publ_section_title
;
Structure prediction by ZEFSAII (Michael W. Deem and Ramdas Pophale) SiO2 
 PCOD8085225
Probable space group: C 2/M
;
_chemical_formula_sum "Si O2"
_cell_formula_units_Z 64
_cell_length_a 18.850379
_cell_length_b 9.557481
_cell_length_c 22.831610
_cell_angle_alpha 90.000000
_cell_angle_beta 65.617991
_cell_angle_gamma 90.000000
_cell_volume 3746.531996
_symmetry_space_group_name_H-M "C 2/M"
_symmetry_group_IT_number 12
_symmetry_cell_setting 'monoclinic'
loop_
_space_group_symop_operation_xyz
x,y,z
-x,y,-z
-x,-y,-z
x,-y,z
1/2+x,1/2+y,z
1/2-x,1/2+y,-z
1/2-x,1/2-y,-z
1/2+x,1/2-y,z
loop_
_atom_site_type_symbol
_atom_site_label
_atom_site_fract_x
_atom_site_fract_y
_atom_site_fract_z
Si Si1 0.915633 0.166952 0.313692
Si Si2 0.385250 0.665897 0.571448
Si Si3 0.043304 0.165897 0.571446
Si Si4 0.770677 0.666952 0.313690
Si Si5 0.729890 0.333738 0.197769
Si Si6 0.637230 0.655278 0.056683
Si Si7 0.572344 0.666262 0.197771
Si Si8 0.693910 0.844722 0.943320
O O1 0.926894 0.220384 0.376365
O O2 0.843673 0.250000 0.312656
O O3 0.990688 0.217038 0.251495
O O4 0.902450 0.000000 0.314260
O O5 0.386557 0.500000 0.574558
O O6 0.456527 0.723911 0.586948
O O7 0.397298 0.715389 0.500001
O O8 0.303259 0.720385 0.623638
O O9 0.038887 0.000000 0.574555
O O10 0.783291 0.500000 0.314260
O O11 0.757823 0.717037 0.251492
O O12 0.725575 0.500000 0.196880
O O13 0.643368 0.273838 0.213267
O O14 0.791399 0.282851 0.127081
O O15 0.609986 0.500000 0.047838
O O16 0.581521 0.717148 0.127084
O O17 0.724165 0.649834 0.051671
O O18 0.632727 0.750000 0.000002
O O19 0.577547 0.500000 0.196882
O O20 0.657822 0.000000 0.952165
#
# Coordination Sequence:
#
# PCOD8085225 Si02
#       8
#     8   8   8   8   8   8   8   8
#     4  10  19  30  45  65  90 118 146 178 216 256
#     4   8  14  26  46  70  90 110 144 186 217 245
#     4   8  14  26  46  70  90 110 144 186 217 245
#     4  10  19  30  45  65  90 118 146 178 216 256
#     4   8  14  26  45  65  83 110 149 184 211 248
#     4   8  13  22  38  61  85 105 131 172 218 258
#     4   8  14  26  45  65  83 110 149 184 211 248
#     4   8  13  22  38  61  85 105 131 172 218 258
#
# _framework density 17.082464000000002
#
# number of rings (size 3 to 8) (size 9 to 14) (size 15 to 20)
#    0.000    3.500    0.000    3.000    0.000    3.500 
#    0.000    1.250    0.000    5.250    0.000    7.000 
#    0.000    0.000    0.000    0.000    0.000    0.000 
#
# Total GULP energy -396506.595075 kJ/mol
# GULP energy per Si atom -12390.831096 kJ/mol
# Density = 1.704358 g / cm^3
# Si number density = 17.082464 Si / 1000 Ang^3
#
#
#
# Elastic Constant Matrix: (Units=GPa)
#
#
# Indices 1 2 3 4 5 6 
#
# 1 104.0083 29.9302 89.1226 0.0000 0.0136 0.0000
# 2 29.9302 31.1157 40.3264 -0.0001 -0.0897 -0.0001
# 3 89.1226 40.3264 184.1677 0.0000 -0.7052 0.0000
# 4 0.0000 -0.0001 0.0000 17.8945 0.0000 0.0380
# 5 0.0136 -0.0897 -0.7052 0.0000 6.9163 0.0000
# 6 0.0000 -0.0001 0.0000 0.0380 0.0000 22.2098
#
#
#
# Elastic Compliance Matrix: (Units=1/GPa)
#
#
# Indices 1 2 3 4 5 6 
#
# 1 0.017858 -0.008344 -0.006818 0.000000 -0.000838 0.000000
# 2 -0.008344 0.048772 -0.006642 0.000000 -0.000028 0.000000
# 3 -0.006818 -0.006642 0.010187 0.000000 0.000966 0.000000
# 4 0.000000 0.000000 0.000000 0.055883 0.000000 -0.000096
# 5 -0.000838 -0.000028 0.000966 0.000000 0.144685 0.000000
# 6 0.000000 0.000000 0.000000 -0.000096 0.000000 0.045025
#
#
# Mechanical properties :
#
#
# Convention : Reuss Voigt Hill
#
# Bulk Modulus (GPa) = 30.11158 70.89446 50.50302
# Shear Modulus (GPa) = 13.25952 20.06496 16.66224
#
# Velocity S-wave (km/s) = 2.78907 3.43095 3.12653
# Velocity P-wave (km/s) = 5.29503 7.56880 6.53162
#
# Compressibility (1/GPa) = 0.03320982
#
# Stress axis : x y z
#
# Youngs Moduli (GPa) = 55.99696 20.50374 98.16172
#
# Poissons Ratio (x) = 0.17108 0.66928
# Poissons Ratio (y) = 0.46723 0.65196
# Poissons Ratio (z) = 0.38179 0.13618
#
# Static dielectric constant tensor:
#      x y z
#    x 3.011110 0.000000 -0.006900 
#    y 0.000000 2.773360 0.000000 
#    z -0.006900 0.000000 3.800460 
# 
# 
# High freq. dielectric constant tensor:
#      x y z
#    x 1.629240 0.000000 -0.000470 
#    y 0.000000 1.600600 0.000000 
#    z -0.000470 0.000000 1.682520 
# 
# From -- ./inp_files/309896.got.cif
#   From: 2010.06.25/outbox.cif.g09.slc.cpg/sg12_155_cif.got.tgz:309896.got - 2010.06.28 00:19:55.
