data_PCOD8085510
_publ_section_title
;
Structure prediction by ZEFSAII (Michael W. Deem and Ramdas Pophale) SiO2 
 PCOD8085510
Probable space group: C 2/M
;
_chemical_formula_sum "Si O2"
_cell_formula_units_Z 56
_cell_length_a 32.668873
_cell_length_b 8.943543
_cell_length_c 18.170909
_cell_angle_alpha 90.000000
_cell_angle_beta 36.368001
_cell_angle_gamma 90.000000
_cell_volume 3148.129529
_symmetry_space_group_name_H-M "C 2/M"
_symmetry_group_IT_number 12
_symmetry_cell_setting 'monoclinic'
loop_
_space_group_symop_operation_xyz
x,y,z
-x,y,-z
-x,-y,-z
x,-y,z
1/2+x,1/2+y,z
1/2-x,1/2+y,-z
1/2-x,1/2-y,-z
1/2+x,1/2-y,z
loop_
_atom_site_type_symbol
_atom_site_label
_atom_site_fract_x
_atom_site_fract_y
_atom_site_fract_z
Si Si1 0.258850 0.173276 0.601427
Si Si2 0.768797 0.827868 0.737280
Si Si3 0.809407 0.331372 0.819425
Si Si4 0.151877 0.168822 0.097583
Si Si5 0.854572 0.326638 0.324720
Si Si6 0.994903 0.175562 0.092567
Si Si7 0.112480 0.327656 0.013199
O O1 0.286718 0.247937 0.635072
O O2 0.187106 0.247834 0.680652
O O3 0.317181 0.200001 0.456197
O O4 0.243835 0.000000 0.637182
O O5 0.815299 0.752628 0.733115
O O6 0.688567 0.807929 0.870985
O O7 0.790009 0.000000 0.701144
O O8 0.836950 0.500000 0.770695
O O9 0.856779 0.245818 0.810291
O O10 0.731246 0.331544 0.959829
O O11 0.123170 0.000000 0.143017
O O12 0.107832 0.262729 0.102415
O O13 0.860155 0.500000 0.296374
O O14 0.929751 0.256253 0.223365
O O15 0.987366 0.000000 0.115809
O O16 0.000000 0.218489 0.000000
O O17 0.063557 0.233051 0.031743
O O18 0.089493 0.500000 0.048233
#
# Coordination Sequence:
#
# PCOD8085510 Si02
#       7
#     8   8   8   8   8   8   8
#     4  10  20  34  52  73  97 125 159 200 243 286
#     4  10  19  30  47  72 100 130 163 199 241 287
#     4   9  16  26  42  65  95 128 160 197 240 285
#     4   9  16  27  43  64  93 127 162 198 238 286
#     4  10  21  36  53  72  95 126 162 199 241 287
#     4  11  23  36  51  72  98 128 162 200 241 285
#     4  10  20  32  47  69  98 131 165 199 239 288
#
# _framework density 17.788340000000002
#
# number of rings (size 3 to 8) (size 9 to 14) (size 15 to 20)
#    0.000    2.143    0.000    3.857    0.000   10.286 
#    0.000    0.000    0.000    0.000    0.000    1.000 
#    0.000    8.000    0.000    0.000    0.000    0.000 
#
# Total GULP energy -347305.690393 kJ/mol
# GULP energy per Si atom -12403.774657 kJ/mol
# Density = 1.774785 g / cm^3
# Si number density = 17.788340 Si / 1000 Ang^3
#
#
#
# Elastic Constant Matrix: (Units=GPa)
#
#
# Indices 1 2 3 4 5 6 
#
# 1 119.4753 55.9076 26.7677 -0.0010 32.4948 0.0001
# 2 55.9076 125.0195 38.2570 0.0024 21.2194 0.0010
# 3 26.7677 38.2570 32.0227 0.0003 8.0921 0.0004
# 4 -0.0010 0.0024 0.0003 23.7022 0.0004 3.6728
# 5 32.4948 21.2194 8.0921 0.0004 25.2947 -0.0002
# 6 0.0001 0.0010 0.0004 3.6728 -0.0002 38.8617
#
#
#
# Elastic Compliance Matrix: (Units=1/GPa)
#
#
# Indices 1 2 3 4 5 6 
#
# 1 0.014940 -0.002263 -0.005891 0.000001 -0.015409 0.000000
# 2 -0.002263 0.013934 -0.013639 -0.000001 -0.004419 0.000000
# 3 -0.005891 -0.013639 0.051833 0.000001 0.002427 0.000000
# 4 0.000001 -0.000001 0.000001 0.042817 -0.000001 -0.004047
# 5 -0.015409 -0.004419 0.002427 -0.000001 0.062260 0.000001
# 6 0.000000 0.000000 0.000000 -0.004047 0.000001 0.026115
#
#
# Mechanical properties :
#
#
# Convention : Reuss Voigt Hill
#
# Bulk Modulus (GPa) = 26.93826 57.59800 42.26813
# Shear Modulus (GPa) = 18.66662 27.94407 23.30535
#
# Velocity S-wave (km/s) = 3.24292 3.96778 3.62352
# Velocity P-wave (km/s) = 5.40358 7.31034 6.42805
#
# Compressibility (1/GPa) = 0.03712192
#
# Stress axis : x y z
#
# Youngs Moduli (GPa) = 66.93618 71.76513 19.29282
#
# Poissons Ratio (x) = 0.16240 0.11365
# Poissons Ratio (y) = 0.15147 0.26313
# Poissons Ratio (z) = 0.39429 0.97880
#
# Static dielectric constant tensor:
#      x y z
#    x 3.367950 0.000000 0.201060 
#    y 0.000000 3.523810 0.000000 
#    z 0.201060 0.000000 2.898770 
# 
# 
# High freq. dielectric constant tensor:
#      x y z
#    x 1.693170 0.000000 0.023020 
#    y 0.000000 1.711140 0.000000 
#    z 0.023020 0.000000 1.640680 
# 
# From -- ./inp_files/281703.got.cif
#   From: 2010.06.25/outbox.cif.g09.slc.cpg/sg12_141_cif.got.tgz:281703.got - 2010.06.28 00:19:55.
