data_PCOD8085424
_publ_section_title
;
Structure prediction by ZEFSAII (Michael W. Deem and Ramdas Pophale) SiO2 
 PCOD8085424
Probable space group: C 2/M
;
_chemical_formula_sum "Si O2"
_cell_formula_units_Z 56
_cell_length_a 9.852833
_cell_length_b 24.993673
_cell_length_c 14.628772
_cell_angle_alpha 90.000000
_cell_angle_beta 119.442270
_cell_angle_gamma 90.000000
_cell_volume 3137.206713
_symmetry_space_group_name_H-M "C 2/M"
_symmetry_group_IT_number 12
_symmetry_cell_setting 'monoclinic'
loop_
_space_group_symop_operation_xyz
x,y,z
-x,y,-z
-x,-y,-z
x,-y,z
1/2+x,1/2+y,z
1/2-x,1/2+y,-z
1/2-x,1/2-y,-z
1/2+x,1/2-y,z
loop_
_atom_site_type_symbol
_atom_site_label
_atom_site_fract_x
_atom_site_fract_y
_atom_site_fract_z
Si Si1 0.405084 0.937012 0.877465
Si Si2 0.067593 0.806476 0.423027
Si Si3 0.445767 0.137826 0.211687
Si Si4 0.415357 0.185181 0.567264
Si Si5 0.402781 0.661928 0.876175
Si Si6 0.096832 0.718478 0.123336
Si Si7 0.627434 0.640771 0.793518
O O1 0.496139 0.916267 0.818079
O O2 0.231379 0.912557 0.820832
O O3 0.388362 0.000000 0.865444
O O4 0.500000 0.919372 0.000000
O O5 0.239216 0.830339 0.486246
O O6 0.069533 0.745335 0.386137
O O7 0.000000 0.804324 0.500000
O O8 0.964729 0.847017 0.329763
O O9 0.519824 0.143672 0.336527
O O10 0.260209 0.132701 0.160083
O O11 0.498699 0.187767 0.167397
O O12 0.500000 0.177510 0.500000
O O13 0.368120 0.721980 0.828584
O O14 0.503521 0.631637 0.833127
O O15 0.500000 0.661940 0.000000
O O16 0.259701 0.691031 0.151243
O O17 0.000000 0.721720 0.000000
#
# Coordination Sequence:
#
# PCOD8085424 Si02
#       7
#     8   8   8   8   8   8   8
#     4  10  22  41  61  78  99 133 179 228 280 334
#     4  10  19  31  49  75 107 143 181 214 244 294
#     4  11  20  34  54  74 105 144 178 211 260 317
#     4  10  20  32  48  75 111 146 175 205 250 307
#     4  11  20  29  47  79 111 136 167 208 258 319
#     4  10  19  30  46  73 110 146 173 200 249 322
#     4  11  20  33  53  76 106 140 179 221 264 306
#
# _framework density 17.850273000000001
#
# number of rings (size 3 to 8) (size 9 to 14) (size 15 to 20)
#    0.000    1.571    0.000    8.571    0.000    4.571 
#    0.000    0.714    0.000    6.857    0.000    0.000 
#    0.000    0.000    0.000    0.000    0.000    0.000 
#
# Total GULP energy -347229.189242 kJ/mol
# GULP energy per Si atom -12401.042473 kJ/mol
# Density = 1.780965 g / cm^3
# Si number density = 17.850273 Si / 1000 Ang^3
#
#
#
# Elastic Constant Matrix: (Units=GPa)
#
#
# Indices 1 2 3 4 5 6 
#
# 1 129.1657 35.1548 28.1852 0.0000 9.5775 0.0000
# 2 35.1548 80.3451 37.6887 0.0000 6.0705 0.0000
# 3 28.1852 37.6887 103.1330 0.0000 6.9373 0.0000
# 4 0.0000 0.0000 0.0000 26.3734 0.0000 -4.7217
# 5 9.5775 6.0705 6.9373 0.0000 27.9179 0.0000
# 6 0.0000 0.0000 0.0000 -4.7217 0.0000 20.4546
#
#
#
# Elastic Compliance Matrix: (Units=1/GPa)
#
#
# Indices 1 2 3 4 5 6 
#
# 1 0.009034 -0.003261 -0.001135 0.000000 -0.002108 0.000000
# 2 -0.003261 0.016302 -0.004986 0.000000 -0.001187 0.000000
# 3 -0.001135 -0.004986 0.011929 0.000000 -0.001490 0.000000
# 4 0.000000 0.000000 0.000000 0.039552 0.000000 0.009130
# 5 -0.002108 -0.001187 -0.001490 0.000000 0.037171 0.000000
# 6 0.000000 0.000000 0.000000 0.009130 0.000000 0.050996
#
#
# Mechanical properties :
#
#
# Convention : Reuss Voigt Hill
#
# Bulk Modulus (GPa) = 54.05599 57.18904 55.62252
# Shear Modulus (GPa) = 26.32766 29.05685 27.69226
#
# Velocity S-wave (km/s) = 3.84463 4.03899 3.94301
# Velocity P-wave (km/s) = 7.07510 7.33887 7.20819
#
# Compressibility (1/GPa) = 0.01849934
#
# Stress axis : x y z
#
# Youngs Moduli (GPa) = 110.69900 61.34324 83.82965
#
# Poissons Ratio (x) = 0.20002 0.09518
# Poissons Ratio (y) = 0.36096 0.41800
# Poissons Ratio (z) = 0.12569 0.30588
#
# Static dielectric constant tensor:
#      x y z
#    x 5.945660 0.000000 0.029660 
#    y 0.000000 2.966170 0.000000 
#    z 0.029660 0.000000 3.345370 
# 
# 
# High freq. dielectric constant tensor:
#      x y z
#    x 1.711300 0.000000 0.001890 
#    y 0.000000 1.638570 0.000000 
#    z 0.001890 0.000000 1.701590 
# 
# From -- ./inp_files/199705.got.cif
#   From: 2010.06.25/outbox.cif.g09.slc.cpg/sg12_100_cif.got.tgz:199705.got - 2010.06.28 00:19:55.
