data_PCOD8085920
_publ_section_title
;
Structure prediction by ZEFSAII (Michael W. Deem and Ramdas Pophale) SiO2 
 PCOD8085920
Probable space group: C 2/M
;
_chemical_formula_sum "Si O2"
_cell_formula_units_Z 64
_cell_length_a 25.082139
_cell_length_b 9.162675
_cell_length_c 17.665206
_cell_angle_alpha 90.000000
_cell_angle_beta 90.564926
_cell_angle_gamma 90.000000
_cell_volume 4059.611260
_symmetry_space_group_name_H-M "C 2/M"
_symmetry_group_IT_number 12
_symmetry_cell_setting 'monoclinic'
loop_
_space_group_symop_operation_xyz
x,y,z
-x,y,-z
-x,-y,-z
x,-y,z
1/2+x,1/2+y,z
1/2-x,1/2+y,-z
1/2-x,1/2-y,-z
1/2+x,1/2-y,z
loop_
_atom_site_type_symbol
_atom_site_label
_atom_site_fract_x
_atom_site_fract_y
_atom_site_fract_z
Si Si1 0.563682 0.336233 0.499540
Si Si2 0.853356 0.167895 0.909296
Si Si3 0.636011 0.333762 0.915106
Si Si4 0.062151 0.663765 0.354898
Si Si5 0.946046 0.828315 0.795047
Si Si6 0.935593 0.338828 0.358189
Si Si7 0.746083 0.167639 0.078185
Si Si8 0.056431 0.327456 0.808621
O O1 0.500000 0.334672 0.500000
O O2 0.585544 0.500000 0.491836
O O3 0.585973 0.241876 0.429740
O O4 0.586560 0.270716 0.578459
O O5 0.905108 0.205318 0.861480
O O6 0.802797 0.259862 0.876169
O O7 0.837049 0.000000 0.901864
O O8 0.865670 0.208190 0.996420
O O9 0.615868 0.500000 0.903356
O O10 0.695920 0.317246 0.881470
O O11 0.598012 0.221453 0.872209
O O12 0.085827 0.500000 0.348959
O O13 0.077726 0.757115 0.281456
O O14 0.999081 0.656291 0.361517
O O15 0.001329 0.756490 0.821148
O O16 0.954529 0.000000 0.781364
O O17 0.912822 0.500000 0.375450
O O18 0.918991 0.287493 0.273640
O O19 0.732252 0.000000 0.062874
O O20 0.750000 0.250000 0.000000
O O21 0.045397 0.500000 0.814008
#
# Coordination Sequence:
#
# PCOD8085920 Si02
#       8
#     8   8   8   8   8   8   8   8
#     4   9  15  22  36  57  77 103 141 176 209 251
#     4   9  19  33  48  66  87 114 147 183 224 263
#     4   9  18  32  47  64  86 113 145 180 221 263
#     4   9  16  26  39  56  81 111 142 176 213 253
#     4  10  19  31  45  61  87 120 150 182 218 258
#     4   8  15  26  37  52  78 109 140 175 213 250
#     4   9  17  30  49  69  87 108 138 180 226 266
#     4  10  20  31  43  62  88 119 151 181 216 258
#
# _framework density 15.765056
#
# number of rings (size 3 to 8) (size 9 to 14) (size 15 to 20)
#    0.000    2.875    0.000    3.375    0.000    9.000 
#    0.000    2.500    0.000    0.000    0.000    0.000 
#    0.000    1.000    0.000    3.250    0.000    5.875 
#
# Total GULP energy -396634.819024 kJ/mol
# GULP energy per Si atom -12394.838094 kJ/mol
# Density = 1.572917 g / cm^3
# Si number density = 15.765056 Si / 1000 Ang^3
#
#
#
# Elastic Constant Matrix: (Units=GPa)
#
#
# Indices 1 2 3 4 5 6 
#
# 1 58.8387 48.8076 43.4494 0.0000 -2.1206 0.0000
# 2 48.8076 116.6957 57.5032 0.0000 -3.2002 0.0000
# 3 43.4494 57.5032 95.3563 0.0000 -1.9815 0.0000
# 4 0.0000 0.0000 0.0000 29.6110 0.0000 1.0821
# 5 -2.1206 -3.2002 -1.9815 0.0000 0.1896 0.0000
# 6 0.0000 0.0000 0.0000 1.0821 0.0000 20.9855
#
#
#
# Elastic Compliance Matrix: (Units=1/GPa)
#
#
# Indices 1 2 3 4 5 6 
#
# 1 0.035261 -0.003950 -0.008782 0.000000 0.235962 0.000000
# 2 -0.003950 0.018650 -0.004884 0.000000 0.219602 0.000000
# 3 -0.008782 -0.004884 0.017474 0.000000 0.001975 0.000000
# 4 0.000000 0.000000 0.000000 0.033835 0.000000 -0.001745
# 5 0.235962 0.219602 0.001975 0.000000 11.642112 0.000000
# 6 0.000000 0.000000 0.000000 -0.001745 0.000000 0.047742
#
#
# Mechanical properties :
#
#
# Convention : Reuss Voigt Hill
#
# Bulk Modulus (GPa) = 27.65849 63.37903 45.51876
# Shear Modulus (GPa) = 0.42221 18.23258 9.32740
#
# Velocity S-wave (km/s) = 0.51807 3.40445 2.43502
# Velocity P-wave (km/s) = 4.23558 7.46614 6.06973
#
# Compressibility (1/GPa) = 0.03615527
#
# Stress axis : x y z
#
# Youngs Moduli (GPa) = 28.36007 53.61959 57.22632
#
# Poissons Ratio (x) = 0.21177 0.50255
# Poissons Ratio (y) = 0.11201 0.27947
# Poissons Ratio (z) = 0.24905 0.26186
#
# Static dielectric constant tensor:
#      x y z
#    x 2.881530 0.000000 -0.068680 
#    y 0.000000 3.245160 0.000000 
#    z -0.068680 0.000000 3.094630 
# 
# 
# High freq. dielectric constant tensor:
#      x y z
#    x 1.553060 0.000000 -0.002020 
#    y 0.000000 1.622720 0.000000 
#    z -0.002020 0.000000 1.596900 
# 
# From -- ./inp_files/287616.got.cif
#   From: 2010.06.25/outbox.cif.g09.slc.cpg/sg12_144_cif.got.tgz:287616.got - 2010.06.28 00:19:55.
