data_PCOD8085345
_publ_section_title
;
Structure prediction by ZEFSAII (Michael W. Deem and Ramdas Pophale) SiO2 
 PCOD8085345
Probable space group: C 2/M
;
_chemical_formula_sum "Si O2"
_cell_formula_units_Z 48
_cell_length_a 26.576897
_cell_length_b 10.108393
_cell_length_c 11.181670
_cell_angle_alpha 90.000000
_cell_angle_beta 72.927580
_cell_angle_gamma 90.000000
_cell_volume 2871.581672
_symmetry_space_group_name_H-M "C 2/M"
_symmetry_group_IT_number 12
_symmetry_cell_setting 'monoclinic'
loop_
_space_group_symop_operation_xyz
x,y,z
-x,y,-z
-x,-y,-z
x,-y,z
1/2+x,1/2+y,z
1/2-x,1/2+y,-z
1/2-x,1/2-y,-z
1/2+x,1/2-y,z
loop_
_atom_site_type_symbol
_atom_site_label
_atom_site_fract_x
_atom_site_fract_y
_atom_site_fract_z
Si Si1 0.359364 0.849709 0.197994
Si Si2 0.129602 0.857856 0.132385
Si Si3 0.939775 0.153998 0.028209
Si Si4 0.822284 0.354673 0.724632
Si Si5 0.717652 0.709268 0.908273
Si Si6 0.701277 0.152362 0.521511
O O1 0.406156 0.747645 0.139059
O O2 0.309458 0.830653 0.143737
O O3 0.340750 0.821175 0.345465
O O4 0.379460 0.000000 0.168430
O O5 0.145862 0.748303 0.216626
O O6 0.124505 0.000000 0.202167
O O7 0.075726 0.820329 0.100856
O O8 0.171020 0.880210 0.993922
O O9 0.930951 0.000000 0.069272
O O10 0.000000 0.195820 0.000000
O O11 0.845676 0.500000 0.735766
O O12 0.759218 0.361202 0.792086
O O13 0.829369 0.317769 0.580941
O O14 0.750000 0.750000 0.000000
O O15 0.750000 0.250000 0.500000
O O16 0.721404 0.000000 0.510955
#
# Coordination Sequence:
#
# PCOD8085345 Si02
#       6
#     8   8   8   8   8   8
#     4  10  20  33  50  73 100 129 166 207 243 288
#     4   9  18  30  47  71  96 124 160 202 248 296
#     4   9  19  36  56  76  98 124 158 206 259 304
#     4  10  19  30  46  68  99 135 167 199 238 285
#     4   9  17  27  43  65  97 129 160 191 237 283
#     4  10  20  33  48  70 100 137 173 203 235 281
#
# _framework density 16.715526000000001
#
# number of rings (size 3 to 8) (size 9 to 14) (size 15 to 20)
#    0.000    2.500    1.667    0.500    0.000   11.000 
#    0.000    0.000    0.000    1.000    0.000    7.000 
#    0.000    0.000    0.000    0.000    0.000    0.000 
#
# Total GULP energy -297350.067595 kJ/mol
# GULP energy per Si atom -12389.586150 kJ/mol
# Density = 1.667748 g / cm^3
# Si number density = 16.715526 Si / 1000 Ang^3
#
#
#
# Elastic Constant Matrix: (Units=GPa)
#
#
# Indices 1 2 3 4 5 6 
#
# 1 106.9898 58.7569 51.6777 0.0000 12.1476 0.0000
# 2 58.7569 126.6564 63.3940 0.0000 6.7062 0.0000
# 3 51.6777 63.3940 109.6507 0.0000 12.0853 0.0000
# 4 0.0000 0.0000 0.0000 25.6540 0.0000 2.6942
# 5 12.1476 6.7062 12.0853 0.0000 16.9064 0.0000
# 6 0.0000 0.0000 0.0000 2.6942 0.0000 22.9647
#
#
#
# Elastic Compliance Matrix: (Units=1/GPa)
#
#
# Indices 1 2 3 4 5 6 
#
# 1 0.014160 -0.004562 -0.003381 0.000000 -0.005948 0.000000
# 2 -0.004562 0.012581 -0.005357 0.000000 0.002117 0.000000
# 3 -0.003381 -0.005357 0.014446 0.000000 -0.005773 0.000000
# 4 0.000000 0.000000 0.000000 0.039467 0.000000 -0.004630
# 5 -0.005948 0.002117 -0.005773 0.000000 0.066710 0.000000
# 6 0.000000 0.000000 0.000000 -0.004630 0.000000 0.044088
#
#
# Mechanical properties :
#
#
# Convention : Reuss Voigt Hill
#
# Bulk Modulus (GPa) = 68.54600 76.77268 72.65934
# Shear Modulus (GPa) = 22.43014 24.40290 23.41652
#
# Velocity S-wave (km/s) = 3.66714 3.82500 3.74690
# Velocity P-wave (km/s) = 7.68290 8.09544 7.89187
#
# Compressibility (1/GPa) = 0.01458874
#
# Stress axis : x y z
#
# Youngs Moduli (GPa) = 70.61979 79.48575 69.22172
#
# Poissons Ratio (x) = 0.36262 0.23400
# Poissons Ratio (y) = 0.32218 0.37080
# Poissons Ratio (z) = 0.23873 0.42579
#
# Static dielectric constant tensor:
#      x y z
#    x 3.488970 0.000000 -0.049690 
#    y 0.000000 4.001370 0.000000 
#    z -0.049690 0.000000 3.339930 
# 
# 
# High freq. dielectric constant tensor:
#      x y z
#    x 1.619470 0.000000 0.017230 
#    y 0.000000 1.650370 0.000000 
#    z 0.017230 0.000000 1.636870 
# 
# From -- ./inp_files/179163.got.cif
#   From: 2010.06.25/outbox.cif.g09.slc.cpg/sg12_90_cif.got.tgz:179163.got - 2010.06.28 00:19:55.
