data_PCOD8085934
_publ_section_title
;
Structure prediction by ZEFSAII (Michael W. Deem and Ramdas Pophale) SiO2 
 PCOD8085934
Probable space group: C 2/M
;
_chemical_formula_sum "Si O2"
_cell_formula_units_Z 64
_cell_length_a 27.194133
_cell_length_b 9.123038
_cell_length_c 20.664171
_cell_angle_alpha 90.000000
_cell_angle_beta 128.619331
_cell_angle_gamma 90.000000
_cell_volume 4005.493546
_symmetry_space_group_name_H-M "C 2/M"
_symmetry_group_IT_number 12
_symmetry_cell_setting 'monoclinic'
loop_
_space_group_symop_operation_xyz
x,y,z
-x,y,-z
-x,-y,-z
x,-y,z
1/2+x,1/2+y,z
1/2-x,1/2+y,-z
1/2-x,1/2-y,-z
1/2+x,1/2-y,z
loop_
_atom_site_type_symbol
_atom_site_label
_atom_site_fract_x
_atom_site_fract_y
_atom_site_fract_z
Si Si1 0.795427 0.334748 0.449905
Si Si2 0.890458 0.328122 0.761596
Si Si3 0.878485 0.666845 0.023475
Si Si4 0.498299 0.329895 0.074429
Si Si5 0.696466 0.168159 0.917389
Si Si6 0.253095 0.329463 0.152082
Si Si7 0.157258 0.834303 0.396194
Si Si8 0.244500 0.329270 0.292308
O O1 0.820426 0.500000 0.462633
O O2 0.843700 0.245895 0.535094
O O3 0.727128 0.332790 0.425615
O O4 0.792371 0.259462 0.377163
O O5 0.899703 0.500000 0.758230
O O6 0.888791 0.251608 0.690109
O O7 0.827523 0.292570 0.749863
O O8 0.947923 0.266026 0.849134
O O9 0.898945 0.500000 0.023659
O O10 0.931410 0.781077 0.047254
O O11 0.866913 0.681956 0.091635
O O12 0.815921 0.707850 0.932046
O O13 0.509169 0.500000 0.099509
O O14 0.500000 0.299244 0.000000
O O15 0.692663 0.242498 0.843283
O O16 0.715861 0.000000 0.924778
O O17 0.750000 0.250000 0.000000
O O18 0.267519 0.500000 0.156289
O O19 0.257012 0.278868 0.229447
O O20 0.132737 0.000000 0.384735
O O21 0.258015 0.500000 0.313976
#
# Coordination Sequence:
#
# PCOD8085934 Si02
#       8
#     8   8   8   8   8   8   8   8
#     4   9  16  25  39  60  84 112 144 175 211 255
#     4  10  19  31  46  61  82 115 151 183 215 253
#     4   9  18  32  47  62  82 112 148 182 216 256
#     4  11  23  34  44  62  87 114 147 185 220 253
#     4   9  17  29  45  64  84 107 139 177 217 260
#     4   9  17  29  45  65  88 113 143 177 216 262
#     4   9  16  27  42  59  82 110 142 180 216 252
#     4   9  17  28  42  62  88 117 146 176 213 257
#
# _framework density 15.978056
#
# number of rings (size 3 to 8) (size 9 to 14) (size 15 to 20)
#    0.000    2.625    0.000    3.375    0.000    8.500 
#    0.000    0.000    0.000    0.000    0.000    0.000 
#    0.000    1.000    0.000   10.500    0.000    6.250 
#
# Total GULP energy -396734.115123 kJ/mol
# GULP energy per Si atom -12397.941098 kJ/mol
# Density = 1.594169 g / cm^3
# Si number density = 15.978056 Si / 1000 Ang^3
#
#
#
# Elastic Constant Matrix: (Units=GPa)
#
#
# Indices 1 2 3 4 5 6 
#
# 1 67.9025 42.6062 38.2763 0.0000 -22.5704 0.0000
# 2 42.6062 102.2538 57.4452 0.0000 -16.5350 0.0000
# 3 38.2763 57.4452 99.3078 0.0000 -27.6731 0.0000
# 4 0.0000 0.0000 0.0000 30.1674 0.0000 -4.1553
# 5 -22.5704 -16.5350 -27.6731 0.0000 23.8470 0.0000
# 6 0.0000 0.0000 0.0000 -4.1553 0.0000 22.6224
#
#
#
# Elastic Compliance Matrix: (Units=1/GPa)
#
#
# Indices 1 2 3 4 5 6 
#
# 1 0.025956 -0.007551 -0.000369 0.000000 0.018903 0.000000
# 2 -0.007551 0.016688 -0.008143 0.000000 -0.005026 0.000000
# 3 -0.000369 -0.008143 0.019585 0.000000 0.016732 0.000000
# 4 0.000000 0.000000 0.000000 0.034009 0.000000 0.006247
# 5 0.018903 -0.005026 0.016732 0.000000 0.075757 0.000000
# 6 0.000000 0.000000 0.000000 0.006247 0.000000 0.045351
#
#
# Mechanical properties :
#
#
# Convention : Reuss Voigt Hill
#
# Bulk Modulus (GPa) = 33.21988 60.67995 46.94991
# Shear Modulus (GPa) = 19.26729 24.06979 21.66854
#
# Velocity S-wave (km/s) = 3.47632 3.88548 3.68658
# Velocity P-wave (km/s) = 6.07858 7.62816 6.89703
#
# Compressibility (1/GPa) = 0.03010246
#
# Stress axis : x y z
#
# Youngs Moduli (GPa) = 38.52629 59.92252 51.05983
#
# Poissons Ratio (x) = 0.45250 0.01882
# Poissons Ratio (y) = 0.29093 0.41580
# Poissons Ratio (z) = 0.01420 0.48797
#
# Static dielectric constant tensor:
#      x y z
#    x 2.387640 0.000000 0.122270 
#    y 0.000000 3.209180 0.000000 
#    z 0.122270 0.000000 2.640660 
# 
# 
# High freq. dielectric constant tensor:
#      x y z
#    x 1.575670 0.000000 -0.029870 
#    y 0.000000 1.629110 0.000000 
#    z -0.029870 0.000000 1.599540 
# 
# From -- ./inp_files/326966.got.cif
#   From: 2010.06.25/outbox.cif.g09.slc.cpg/sg12_164_cif.got.tgz:326966.got - 2010.06.28 00:19:55.
