data_PCOD8085715
_publ_section_title
;
Structure prediction by ZEFSAII (Michael W. Deem and Ramdas Pophale) SiO2 
 PCOD8085715
Probable space group: C 2/M
;
_chemical_formula_sum "Si O2"
_cell_formula_units_Z 48
_cell_length_a 23.069569
_cell_length_b 12.387666
_cell_length_c 23.106177
_cell_angle_alpha 90.000000
_cell_angle_beta 154.195986
_cell_angle_gamma 90.000000
_cell_volume 2874.351769
_symmetry_space_group_name_H-M "C 2/M"
_symmetry_group_IT_number 12
_symmetry_cell_setting 'monoclinic'
loop_
_space_group_symop_operation_xyz
x,y,z
-x,y,-z
-x,-y,-z
x,-y,z
1/2+x,1/2+y,z
1/2-x,1/2+y,-z
1/2-x,1/2-y,-z
1/2+x,1/2-y,z
loop_
_atom_site_type_symbol
_atom_site_label
_atom_site_fract_x
_atom_site_fract_y
_atom_site_fract_z
Si Si1 0.838704 0.747504 0.664401
Si Si2 0.673917 0.265673 0.842815
Si Si3 0.887485 0.876525 0.818733
Si Si4 0.185915 0.123916 0.118952
Si Si5 0.600448 0.626893 0.393828
Si Si6 0.603287 0.126074 0.888697
O O1 0.819694 0.803290 0.709215
O O2 0.701665 0.688808 0.526511
O O3 0.875444 0.839513 0.650891
O O4 0.954155 0.658729 0.771293
O O5 0.704774 0.201063 0.811710
O O6 0.547240 0.341737 0.718604
O O7 0.648120 0.178625 0.869174
O O8 0.798417 0.340617 0.971273
O O9 0.831646 0.839278 0.830581
O O10 0.847939 0.000000 0.771577
O O11 0.046920 0.863934 0.959794
O O12 0.234132 0.000000 0.159249
O O13 0.621773 0.500000 0.418849
O O14 0.610039 0.000000 0.885072
#
# Coordination Sequence:
#
# PCOD8085715 Si02
#       6
#     8   8   8   8   8   8
#     4  10  19  34  53  75 101 132 170 206 245 298
#     4  10  19  32  49  75 103 131 164 206 254 297
#     4   9  17  31  54  79 101 129 164 207 255 298
#     4   9  17  31  53  79 104 128 161 208 256 299
#     4  10  21  34  51  74 104 138 166 202 252 299
#     4  10  19  30  49  74 100 131 167 207 248 293
#
# _framework density 16.699415999999999
#
# number of rings (size 3 to 8) (size 9 to 14) (size 15 to 20)
#    0.000    2.333    1.667    3.000    0.000    0.000 
#    0.000    3.333    0.000    8.000    0.000    0.000 
#    0.000    0.000    0.000    0.000    0.000    0.000 
#
# Total GULP energy -297660.398480 kJ/mol
# GULP energy per Si atom -12402.516603 kJ/mol
# Density = 1.666141 g / cm^3
# Si number density = 16.699416 Si / 1000 Ang^3
#
#
#
# Elastic Constant Matrix: (Units=GPa)
#
#
# Indices 1 2 3 4 5 6 
#
# 1 69.6187 28.1489 27.7269 0.0001 -7.6009 0.0001
# 2 28.1489 79.4785 21.2896 0.0002 -10.3826 0.0002
# 3 27.7269 21.2896 82.3982 -0.0002 -7.4670 0.0000
# 4 0.0001 0.0002 -0.0002 16.7057 -0.0001 0.0977
# 5 -7.6009 -10.3826 -7.4670 -0.0001 19.4053 0.0000
# 6 0.0001 0.0002 0.0000 0.0977 0.0000 25.3590
#
#
#
# Elastic Compliance Matrix: (Units=1/GPa)
#
#
# Indices 1 2 3 4 5 6 
#
# 1 0.018543 -0.004939 -0.004709 0.000000 0.002809 0.000000
# 2 -0.004939 0.015568 -0.001845 0.000000 0.005685 0.000000
# 3 -0.004709 -0.001845 0.014445 0.000000 0.002726 0.000000
# 4 0.000000 0.000000 0.000000 0.059861 0.000000 -0.000231
# 5 0.002809 0.005685 0.002726 0.000000 0.056723 0.000000
# 6 0.000000 0.000000 0.000000 -0.000231 0.000000 0.039435
#
#
# Mechanical properties :
#
#
# Convention : Reuss Voigt Hill
#
# Bulk Modulus (GPa) = 39.10973 42.86955 40.98964
# Shear Modulus (GPa) = 21.17883 22.58267 21.88075
#
# Velocity S-wave (km/s) = 3.56510 3.68136 3.62369
# Velocity P-wave (km/s) = 6.35745 6.61792 6.48899
#
# Compressibility (1/GPa) = 0.02556909
#
# Stress axis : x y z
#
# Youngs Moduli (GPa) = 53.92844 64.23333 69.22992
#
# Poissons Ratio (x) = 0.31726 0.32601
# Poissons Ratio (y) = 0.26636 0.12775
# Poissons Ratio (z) = 0.25395 0.11853
#
# Static dielectric constant tensor:
#      x y z
#    x 2.998640 0.000000 0.037720 
#    y 0.000000 3.009350 0.000000 
#    z 0.037720 0.000000 3.132590 
# 
# 
# High freq. dielectric constant tensor:
#      x y z
#    x 1.630840 0.000000 0.001750 
#    y 0.000000 1.641700 0.000000 
#    z 0.001750 0.000000 1.639190 
# 
# From -- ./inp_files/94524.got.cif
#   From: 2010.06.25/outbox.cif.g09.slc.cpg/sg12_48_cif.got.tgz:94524.got - 2010.06.28 00:19:55.
