data_PCOD8085029
_publ_section_title
;
Structure prediction by ZEFSAII (Michael W. Deem and Ramdas Pophale) SiO2 
 PCOD8085029
Probable space group: C 2/M
;
_chemical_formula_sum "Si O2"
_cell_formula_units_Z 64
_cell_length_a 20.379392
_cell_length_b 9.001429
_cell_length_c 24.189737
_cell_angle_alpha 90.000000
_cell_angle_beta 55.886936
_cell_angle_gamma 90.000000
_cell_volume 3673.912015
_symmetry_space_group_name_H-M "C 2/M"
_symmetry_group_IT_number 12
_symmetry_cell_setting 'monoclinic'
loop_
_space_group_symop_operation_xyz
x,y,z
-x,y,-z
-x,-y,-z
x,-y,z
1/2+x,1/2+y,z
1/2-x,1/2+y,-z
1/2-x,1/2-y,-z
1/2+x,1/2-y,z
loop_
_atom_site_type_symbol
_atom_site_label
_atom_site_fract_x
_atom_site_fract_y
_atom_site_fract_z
Si Si1 0.833948 0.673962 0.466184
Si Si2 0.871461 0.826243 0.675198
Si Si3 0.530501 0.325342 0.664990
Si Si4 0.791470 0.332319 0.060897
Si Si5 0.589931 0.827497 0.452121
Si Si6 0.871154 0.832155 0.929536
Si Si7 0.212165 0.667201 0.191435
Si Si8 0.549834 0.167777 0.201189
O O1 0.827504 0.500000 0.456915
O O2 0.750000 0.750000 0.500000
O O3 0.891874 0.746040 0.394257
O O4 0.865194 0.705402 0.512614
O O5 0.865603 0.764831 0.616087
O O6 0.802644 0.749959 0.743733
O O7 0.957725 0.787392 0.658848
O O8 0.855029 0.000000 0.683371
O O9 0.545395 0.500000 0.662519
O O10 0.513902 0.261284 0.733797
O O11 0.820046 0.500000 0.058041
O O12 0.709869 0.331233 0.066159
O O13 0.780501 0.251546 0.124976
O O14 0.858768 0.247364 0.994264
O O15 0.500000 0.770540 0.500000
O O16 0.591361 0.000000 0.434799
O O17 0.938924 0.745065 0.863626
O O18 0.899925 0.000000 0.926277
O O19 0.240695 0.500000 0.189969
O O20 0.132550 0.667375 0.193747
O O21 0.518903 0.000000 0.207299
#
# Coordination Sequence:
#
# PCOD8085029 Si02
#       8
#     8   8   8   8   8   8   8   8
#     4  11  23  38  55  74  99 129 161 200 246 297
#     4  10  19  29  46  70  94 119 154 200 242 283
#     4  10  19  31  47  68  93 121 155 196 242 289
#     4   9  15  22  32  47  72 106 146 188 230 277
#     4  10  20  35  54  74  97 126 161 200 244 292
#     4   9  15  22  32  48  72 105 146 188 230 277
#     4   9  16  25  37  54  80 113 149 188 233 283
#     4   9  16  25  38  56  79 110 149 191 234 278
#
# _framework density 17.420123
#
# number of rings (size 3 to 8) (size 9 to 14) (size 15 to 20)
#    0.000    2.375    1.250    2.625    0.000    8.250 
#    0.000    0.000    0.000    0.000    0.000    0.000 
#    0.000    0.000    0.000    1.125    0.000   21.250 
#
# Total GULP energy -396840.723156 kJ/mol
# GULP energy per Si atom -12401.272599 kJ/mol
# Density = 1.738047 g / cm^3
# Si number density = 17.420123 Si / 1000 Ang^3
#
#
#
# Elastic Constant Matrix: (Units=GPa)
#
#
# Indices 1 2 3 4 5 6 
#
# 1 35.6062 31.6907 31.3653 0.0003 -1.3098 0.0015
# 2 31.6907 141.5806 90.4478 0.0004 2.5320 0.0019
# 3 31.3653 90.4478 178.1086 0.0001 9.8004 -0.0003
# 4 0.0003 0.0004 0.0001 42.8944 -0.0001 1.8522
# 5 -1.3098 2.5320 9.8004 -0.0001 9.8281 0.0004
# 6 0.0015 0.0019 -0.0003 1.8522 0.0004 14.6058
#
#
#
# Elastic Compliance Matrix: (Units=1/GPa)
#
#
# Indices 1 2 3 4 5 6 
#
# 1 0.037406 -0.005892 -0.004183 0.000000 0.010674 -0.000003
# 2 -0.005892 0.011454 -0.004839 0.000000 0.001089 -0.000001
# 3 -0.004183 -0.004839 0.009280 0.000000 -0.008564 0.000001
# 4 0.000000 0.000000 0.000000 0.023441 0.000000 -0.002973
# 5 0.010674 0.001089 -0.008564 0.000000 0.111432 -0.000004
# 6 -0.000003 -0.000001 0.000001 -0.002973 -0.000004 0.068843
#
#
# Mechanical properties :
#
#
# Convention : Reuss Voigt Hill
#
# Bulk Modulus (GPa) = 35.31951 73.58923 54.45437
# Shear Modulus (GPa) = 16.60472 26.91842 21.76157
#
# Velocity S-wave (km/s) = 3.09073 3.93523 3.53827
# Velocity P-wave (km/s) = 5.74943 7.93622 6.92963
#
# Compressibility (1/GPa) = 0.02831297
#
# Stress axis : x y z
#
# Youngs Moduli (GPa) = 26.73375 87.30856 107.76246
#
# Poissons Ratio (x) = 0.51438 0.45074
# Poissons Ratio (y) = 0.15750 0.52145
# Poissons Ratio (z) = 0.11182 0.42247
#
# Static dielectric constant tensor:
#      x y z
#    x 2.285610 0.000000 0.098750 
#    y 0.000000 3.425900 0.000000 
#    z 0.098750 0.000000 3.424720 
# 
# 
# High freq. dielectric constant tensor:
#      x y z
#    x 1.586660 0.000000 0.010840 
#    y 0.000000 1.692760 0.000000 
#    z 0.010840 0.000000 1.693270 
# 
# From -- ./inp_files/346083.got.cif
#   From: 2010.06.25/outbox.cif.g09.slc.cpg/sg12_174_cif.got.tgz:346083.got - 2010.06.28 00:19:55.
