data_PCOD8085558
_publ_section_title
;
Structure prediction by ZEFSAII (Michael W. Deem and Ramdas Pophale) SiO2 
 PCOD8085558
Probable space group: C 2/M
;
_chemical_formula_sum "Si O2"
_cell_formula_units_Z 40
_cell_length_a 27.718833
_cell_length_b 9.112504
_cell_length_c 17.377257
_cell_angle_alpha 90.000000
_cell_angle_beta 35.639795
_cell_angle_gamma 90.000000
_cell_volume 2557.582509
_symmetry_space_group_name_H-M "C 2/M"
_symmetry_group_IT_number 12
_symmetry_cell_setting 'monoclinic'
loop_
_space_group_symop_operation_xyz
x,y,z
-x,y,-z
-x,-y,-z
x,-y,z
1/2+x,1/2+y,z
1/2-x,1/2+y,-z
1/2-x,1/2-y,-z
1/2+x,1/2-y,z
loop_
_atom_site_type_symbol
_atom_site_label
_atom_site_fract_x
_atom_site_fract_y
_atom_site_fract_z
Si Si1 0.633641 0.668468 0.839966
Si Si2 0.035907 0.166108 0.532445
Si Si3 0.799764 0.165290 0.609084
Si Si4 0.062346 0.673629 0.643591
Si Si5 0.485402 0.330807 0.143782
O O1 0.661406 0.500000 0.805243
O O2 0.713575 0.768031 0.747397
O O3 0.589459 0.705995 0.816879
O O4 0.572114 0.701729 0.989881
O O5 0.136872 0.165918 0.399969
O O6 0.007695 0.265213 0.642177
O O7 0.000000 0.233955 0.500000
O O8 0.002092 0.000000 0.587271
O O9 0.844079 0.259167 0.483239
O O10 0.785342 0.000000 0.597535
O O11 0.066763 0.500000 0.634813
O O12 0.019524 0.724379 0.777357
O O13 0.480493 0.500000 0.176539
#
# Coordination Sequence:
#
# PCOD8085558 Si02
#       5
#     8   8   8   8   8
#     4   9  18  32  50  69  93 127 162 195 230 276
#     4   8  16  32  51  70  93 122 153 189 239 286
#     4   9  18  31  48  71  95 123 156 194 237 279
#     4  10  19  30  47  73  97 122 158 197 232 271
#     4   9  18  33  49  67  95 130 161 189 233 281
#
# _framework density 15.639768
#
# number of rings (size 3 to 8) (size 9 to 14) (size 15 to 20)
#    1.200    1.800    0.000    3.000    0.000    2.800 
#    0.000    2.000    0.000    1.200    0.000    0.000 
#    0.000    0.000    0.000    0.000    0.000    0.000 
#
# Total GULP energy -247804.377893 kJ/mol
# GULP energy per Si atom -12390.218895 kJ/mol
# Density = 1.560417 g / cm^3
# Si number density = 15.639768 Si / 1000 Ang^3
#
#
#
# Elastic Constant Matrix: (Units=GPa)
#
#
# Indices 1 2 3 4 5 6 
#
# 1 81.5988 53.4489 47.7752 -0.0053 16.3640 0.0022
# 2 53.4489 116.5280 54.7841 -0.0101 14.8316 0.0036
# 3 47.7752 54.7841 75.6786 -0.0148 14.6449 0.0044
# 4 -0.0053 -0.0101 -0.0148 31.1290 0.0075 -2.3182
# 5 16.3640 14.8316 14.6449 0.0075 10.7441 0.0000
# 6 0.0022 0.0036 0.0044 -2.3182 0.0000 13.6563
#
#
#
# Elastic Compliance Matrix: (Units=1/GPa)
#
#
# Indices 1 2 3 4 5 6 
#
# 1 0.023813 -0.004806 -0.007904 0.000003 -0.018861 0.000001
# 2 -0.004806 0.014373 -0.006721 0.000001 -0.003361 -0.000001
# 3 -0.007904 -0.006721 0.025731 0.000012 -0.013757 -0.000003
# 4 0.000003 0.000001 0.000012 0.032536 -0.000046 0.005523
# 5 -0.018861 -0.003361 -0.013757 -0.000046 0.145193 0.000001
# 6 0.000001 -0.000001 -0.000003 0.005523 0.000001 0.074164
#
#
# Mechanical properties :
#
#
# Convention : Reuss Voigt Hill
#
# Bulk Modulus (GPa) = 39.91030 65.09131 52.50081
# Shear Modulus (GPa) = 13.77319 18.95901 16.36610
#
# Velocity S-wave (km/s) = 2.97080 3.48549 3.23838
# Velocity P-wave (km/s) = 6.11076 7.60971 6.90105
#
# Compressibility (1/GPa) = 0.02505619
#
# Stress axis : x y z
#
# Youngs Moduli (GPa) = 41.99313 69.57283 38.86383
#
# Poissons Ratio (x) = 0.33437 0.30719
# Poissons Ratio (y) = 0.20182 0.26119
# Poissons Ratio (z) = 0.33192 0.46757
#
# Static dielectric constant tensor:
#      x y z
#    x 2.826160 -0.000010 0.017670 
#    y -0.000010 2.912550 0.000010 
#    z 0.017670 0.000010 2.757400 
# 
# 
# High freq. dielectric constant tensor:
#      x y z
#    x 1.580470 0.000000 0.003480 
#    y 0.000000 1.605110 0.000000 
#    z 0.003480 0.000000 1.581610 
# 
# From -- ./inp_files/228877.got.cif
#   From: 2010.06.25/outbox.cif.g09.slc.cpg/sg12_115_cif.got.tgz:228877.got - 2010.06.28 00:19:55.
