data_PCOD8085399
_publ_section_title
;
Structure prediction by ZEFSAII (Michael W. Deem and Ramdas Pophale) SiO2 
 PCOD8085399
Probable space group: C 2/M
;
_chemical_formula_sum "Si O2"
_cell_formula_units_Z 56
_cell_length_a 28.586184
_cell_length_b 8.918914
_cell_length_c 14.081858
_cell_angle_alpha 90.000000
_cell_angle_beta 59.696175
_cell_angle_gamma 90.000000
_cell_volume 3099.709430
_symmetry_space_group_name_H-M "C 2/M"
_symmetry_group_IT_number 12
_symmetry_cell_setting 'monoclinic'
loop_
_space_group_symop_operation_xyz
x,y,z
-x,y,-z
-x,-y,-z
x,-y,z
1/2+x,1/2+y,z
1/2-x,1/2+y,-z
1/2-x,1/2-y,-z
1/2+x,1/2-y,z
loop_
_atom_site_type_symbol
_atom_site_label
_atom_site_fract_x
_atom_site_fract_y
_atom_site_fract_z
Si Si1 0.726975 0.672559 0.431817
Si Si2 0.683787 0.825627 0.157201
Si Si3 0.465804 0.322496 0.401082
Si Si4 0.203331 0.326356 0.924171
Si Si5 0.877784 0.172312 0.358014
Si Si6 0.079667 0.822721 0.351903
Si Si7 0.815461 0.177901 0.239063
O O1 0.744745 0.500000 0.407906
O O2 0.750000 0.750000 0.500000
O O3 0.662233 0.688140 0.509334
O O4 0.753537 0.761139 0.316425
O O5 0.735915 0.735997 0.138257
O O6 0.631827 0.767338 0.265918
O O7 0.693291 0.000000 0.169348
O O8 0.674549 0.798317 0.054401
O O9 0.459378 0.500000 0.408693
O O10 0.434524 0.257689 0.338995
O O11 0.529289 0.280435 0.333594
O O12 0.437072 0.265076 0.526618
O O13 0.206085 0.500000 0.894957
O O14 0.166900 0.240871 0.881822
O O15 0.854404 0.244292 0.283785
O O16 0.886060 0.000000 0.323114
O O17 0.091776 0.000000 0.336631
O O18 0.814947 0.000000 0.240083
#
# Coordination Sequence:
#
# PCOD8085399 Si02
#       7
#     8   8   8   8   8   8   8
#     4   9  16  26  41  63  93 132 168 200 240 288
#     4  10  21  36  53  74 100 126 159 206 254 298
#     4   8  15  29  48  75 103 131 169 202 235 289
#     4  10  21  36  53  72  96 130 166 201 247 303
#     4   8  15  27  44  67  99 133 164 200 240 284
#     4   9  17  30  53  77  99 130 167 204 242 290
#     4  10  19  30  46  70  99 130 164 207 250 294
#
# _framework density 18.066210000000002
#
# number of rings (size 3 to 8) (size 9 to 14) (size 15 to 20)
#    0.000    2.857    0.000    3.429    2.000    1.714 
#    0.000    1.429    0.000    6.857    0.000    6.000 
#    0.000    0.000    0.000    0.000    0.000    0.000 
#
# Total GULP energy -346865.762005 kJ/mol
# GULP energy per Si atom -12388.062929 kJ/mol
# Density = 1.802509 g / cm^3
# Si number density = 18.066210 Si / 1000 Ang^3
#
#
#
# Elastic Constant Matrix: (Units=GPa)
#
#
# Indices 1 2 3 4 5 6 
#
# 1 85.0584 17.3896 14.8357 0.0000 11.5499 0.0000
# 2 17.3896 56.5186 14.7380 0.0000 4.7287 0.0000
# 3 14.8357 14.7380 49.3307 0.0000 2.5022 0.0000
# 4 0.0000 0.0000 0.0000 27.5331 0.0000 3.7938
# 5 11.5499 4.7287 2.5022 0.0000 26.7863 0.0000
# 6 0.0000 0.0000 0.0000 3.7938 0.0000 17.2913
#
#
#
# Elastic Compliance Matrix: (Units=1/GPa)
#
#
# Indices 1 2 3 4 5 6 
#
# 1 0.013564 -0.002987 -0.002931 0.000000 -0.005048 0.000000
# 2 -0.002987 0.020067 -0.005006 0.000000 -0.001787 0.000000
# 3 -0.002931 -0.005006 0.022647 0.000000 0.000032 0.000000
# 4 0.000000 0.000000 0.000000 0.037452 0.000000 -0.008217
# 5 -0.005048 -0.001787 0.000032 0.000000 0.039821 0.000000
# 6 0.000000 0.000000 0.000000 -0.008217 0.000000 0.059635
#
#
# Mechanical properties :
#
#
# Convention : Reuss Voigt Hill
#
# Bulk Modulus (GPa) = 29.04448 31.64828 30.34638
# Shear Modulus (GPa) = 22.07392 23.91842 22.99617
#
# Velocity S-wave (km/s) = 3.49927 3.64253 3.57162
# Velocity P-wave (km/s) = 5.69544 5.93689 5.81742
#
# Compressibility (1/GPa) = 0.03442996
#
# Stress axis : x y z
#
# Youngs Moduli (GPa) = 73.72549 49.83243 44.15624
#
# Poissons Ratio (x) = 0.14884 0.12942
# Poissons Ratio (y) = 0.22020 0.22106
# Poissons Ratio (z) = 0.21608 0.24948
#
# Static dielectric constant tensor:
#      x y z
#    x 3.737300 0.000000 0.086320 
#    y 0.000000 3.201990 0.000000 
#    z 0.086320 0.000000 3.484100 
# 
# 
# High freq. dielectric constant tensor:
#      x y z
#    x 1.700230 0.000000 0.016690 
#    y 0.000000 1.678640 0.000000 
#    z 0.016690 0.000000 1.675680 
# 
# From -- ./inp_files/248919.got.cif
#   From: 2010.06.25/outbox.cif.g09.slc.cpg/sg12_125_cif.got.tgz:248919.got - 2010.06.28 00:19:55.
