data_PCOD8085137
_publ_section_title
;
Structure prediction by ZEFSAII (Michael W. Deem and Ramdas Pophale) SiO2 
 PCOD8085137
Probable space group: C 2/M
;
_chemical_formula_sum "Si O2"
_cell_formula_units_Z 52
_cell_length_a 22.436946
_cell_length_b 12.829903
_cell_length_c 12.286326
_cell_angle_alpha 90.000000
_cell_angle_beta 75.300149
_cell_angle_gamma 90.000000
_cell_volume 3421.024274
_symmetry_space_group_name_H-M "C 2/M"
_symmetry_group_IT_number 12
_symmetry_cell_setting 'monoclinic'
loop_
_space_group_symop_operation_xyz
x,y,z
-x,y,-z
-x,-y,-z
x,-y,z
1/2+x,1/2+y,z
1/2-x,1/2+y,-z
1/2-x,1/2-y,-z
1/2+x,1/2-y,z
loop_
_atom_site_type_symbol
_atom_site_label
_atom_site_fract_x
_atom_site_fract_y
_atom_site_fract_z
Si Si1 0.612789 0.880073 0.037598
Si Si2 0.088564 0.878923 0.824023
Si Si3 0.806185 0.242086 0.139872
Si Si4 0.800818 0.619408 0.554103
Si Si5 0.174432 0.224052 0.634557
Si Si6 0.811534 0.618795 0.796270
Si Si7 0.500000 0.248385 0.000000
O O1 0.626929 0.865763 0.159937
O O2 0.605293 0.000000 0.009128
O O3 0.672429 0.835951 0.946544
O O4 0.550573 0.822941 0.034173
O O5 0.143264 0.852419 0.884950
O O6 0.111379 0.838984 0.693504
O O7 0.073551 0.000000 0.827606
O O8 0.027338 0.819008 0.890649
O O9 0.802480 0.284242 0.266635
O O10 0.740809 0.196097 0.132697
O O11 0.812672 0.500000 0.516338
O O12 0.839001 0.692998 0.454145
O O13 0.727890 0.642454 0.576030
O O14 0.825979 0.643312 0.663585
O O15 0.787202 0.500000 0.817311
#
# Coordination Sequence:
#
# PCOD8085137 Si02
#       7
#     8   8   8   8   8   8   4
#     4  10  19  30  43  62  90 124 152 183 227 268
#     4   9  16  29  48  69  89 111 147 189 228 265
#     4   8  16  27  44  68  92 111 146 180 230 270
#     4   9  15  26  43  67  96 121 147 178 215 271
#     4   8  16  26  42  69  93 115 144 175 229 264
#     4   9  16  27  46  66  90 121 149 182 225 267
#     4  10  20  32  44  66  88 120 158 192 220 260
#
# _framework density 15.200125999999999
#
# number of rings (size 3 to 8) (size 9 to 14) (size 15 to 20)
#    0.923    2.154    0.000    1.846    0.000    0.615 
#    0.000    0.000    0.000    1.846    0.000    4.308 
#    0.000    0.000    0.000    0.000    0.000    0.000 
#
# Total GULP energy -322118.154715 kJ/mol
# GULP energy per Si atom -12389.159797 kJ/mol
# Density = 1.516553 g / cm^3
# Si number density = 15.200126 Si / 1000 Ang^3
#
#
#
# Elastic Constant Matrix: (Units=GPa)
#
#
# Indices 1 2 3 4 5 6 
#
# 1 67.8173 47.2277 39.8190 0.0000 0.6404 0.0000
# 2 47.2277 113.1650 60.0546 0.0000 -1.0254 0.0000
# 3 39.8190 60.0546 80.5706 0.0000 -0.9489 0.0000
# 4 0.0000 0.0000 0.0000 26.4227 0.0000 -1.4748
# 5 0.6404 -1.0254 -0.9489 0.0000 21.4489 0.0000
# 6 0.0000 0.0000 0.0000 -1.4748 0.0000 15.4621
#
#
#
# Elastic Compliance Matrix: (Units=1/GPa)
#
#
# Indices 1 2 3 4 5 6 
#
# 1 0.022951 -0.005894 -0.006965 0.000000 -0.001275 0.000000
# 2 -0.005894 0.016134 -0.009106 0.000000 0.000544 0.000000
# 3 -0.006965 -0.009106 0.022650 0.000000 0.000775 0.000000
# 4 0.000000 0.000000 0.000000 0.038049 0.000000 0.003629
# 5 -0.001275 0.000544 0.000775 0.000000 0.046721 0.000000
# 6 0.000000 0.000000 0.000000 0.003629 0.000000 0.065021
#
#
# Mechanical properties :
#
#
# Convention : Reuss Voigt Hill
#
# Bulk Modulus (GPa) = 56.16267 61.75061 58.95664
# Shear Modulus (GPa) = 19.12841 20.29683 19.71262
#
# Velocity S-wave (km/s) = 3.55129 3.65815 3.60512
# Velocity P-wave (km/s) = 7.33789 7.65219 7.49669
#
# Compressibility (1/GPa) = 0.01780542
#
# Stress axis : x y z
#
# Youngs Moduli (GPa) = 43.57028 61.98112 44.14950
#
# Poissons Ratio (x) = 0.36531 0.30749
# Poissons Ratio (y) = 0.25680 0.40204
# Poissons Ratio (z) = 0.30346 0.56443
#
# Static dielectric constant tensor:
#      x y z
#    x 2.652500 0.000000 -0.034060 
#    y 0.000000 2.802740 0.000000 
#    z -0.034060 0.000000 2.929560 
# 
# 
# High freq. dielectric constant tensor:
#      x y z
#    x 1.552030 0.000000 -0.003880 
#    y 0.000000 1.578070 0.000000 
#    z -0.003880 0.000000 1.576280 
# 
# From -- ./inp_files/231421.got.cif
#   From: 2010.06.25/outbox.cif.g09.slc.cpg/sg12_116_cif.got.tgz:231421.got - 2010.06.28 00:19:55.
