data_PCOD8085903
_publ_section_title
;
Structure prediction by ZEFSAII (Michael W. Deem and Ramdas Pophale) SiO2 
 PCOD8085903
Probable space group: C 2/M
;
_chemical_formula_sum "Si O2"
_cell_formula_units_Z 64
_cell_length_a 20.070109
_cell_length_b 8.720695
_cell_length_c 20.834287
_cell_angle_alpha 90.000000
_cell_angle_beta 63.774921
_cell_angle_gamma 90.000000
_cell_volume 3271.172142
_symmetry_space_group_name_H-M "C 2/M"
_symmetry_group_IT_number 12
_symmetry_cell_setting 'monoclinic'
loop_
_space_group_symop_operation_xyz
x,y,z
-x,y,-z
-x,-y,-z
x,-y,z
1/2+x,1/2+y,z
1/2-x,1/2+y,-z
1/2-x,1/2-y,-z
1/2+x,1/2-y,z
loop_
_atom_site_type_symbol
_atom_site_label
_atom_site_fract_x
_atom_site_fract_y
_atom_site_fract_z
Si Si1 0.172644 0.680488 0.554039
Si Si2 0.265435 0.678168 0.088036
Si Si3 0.746303 0.181159 0.238411
Si Si4 0.360460 0.319252 0.294810
Si Si5 0.866651 0.823967 0.931383
Si Si6 0.965672 0.820817 0.447368
Si Si7 0.488449 0.174647 0.803912
Si Si8 0.079019 0.676579 0.304544
O O1 0.179787 0.500000 0.551130
O O2 0.250000 0.750000 0.500000
O O3 0.148104 0.735305 0.634280
O O4 0.110921 0.730003 0.528858
O O5 0.240358 0.500000 0.095393
O O6 0.279030 0.732005 0.155409
O O7 0.200460 0.780345 0.086736
O O8 0.341421 0.704216 0.015820
O O9 0.797680 0.246872 0.273307
O O10 0.661852 0.238645 0.283294
O O11 0.747036 0.000000 0.241833
O O12 0.352457 0.500000 0.309150
O O13 0.440224 0.282937 0.230885
O O14 0.939833 0.724027 0.886097
O O15 0.886989 0.000000 0.910440
O O16 0.000000 0.767600 0.500000
O O17 0.022561 0.783087 0.366635
O O18 0.947652 0.000000 0.453926
O O19 0.436215 0.194491 0.764226
O O20 0.515069 0.000000 0.800594
O O21 0.068698 0.500000 0.330577
#
# Coordination Sequence:
#
# PCOD8085903 Si02
#       8
#     8   8   8   8   8   8   8   8
#     4  12  26  45  66  89 121 162 201 241 296 359
#     4   9  17  34  55  81 118 154 193 241 294 355
#     4   9  19  37  60  86 115 153 197 241 292 350
#     4  11  23  40  63  89 118 153 197 247 294 352
#     4  10  19  30  54  87 116 151 195 245 296 346
#     4  11  25  43  63  93 126 155 194 249 299 344
#     4  11  21  37  60  84 116 158 197 242 293 351
#     4  10  20  37  62  87 114 155 201 242 292 350
#
# _framework density 19.564851000000001
#
# number of rings (size 3 to 8) (size 9 to 14) (size 15 to 20)
#    0.000    1.625    2.500    2.625    1.750    2.000 
#    0.000    2.500    0.000    3.750    0.000    0.000 
#    0.000    0.000    0.000    0.000    0.000    0.000 
#
# Total GULP energy -396896.474903 kJ/mol
# GULP energy per Si atom -12403.014841 kJ/mol
# Density = 1.952032 g / cm^3
# Si number density = 19.564851 Si / 1000 Ang^3
#
#
#
# Elastic Constant Matrix: (Units=GPa)
#
#
# Indices 1 2 3 4 5 6 
#
# 1 125.4139 37.3442 41.0536 -0.0001 -9.1687 0.0000
# 2 37.3442 82.1639 33.1072 -0.0002 -1.4183 0.0005
# 3 41.0536 33.1072 92.9416 0.0000 -16.4054 0.0000
# 4 -0.0001 -0.0002 0.0000 29.6239 0.0000 -5.7927
# 5 -9.1687 -1.4183 -16.4054 0.0000 32.0067 -0.0001
# 6 0.0000 0.0005 0.0000 -5.7927 -0.0001 25.5524
#
#
#
# Elastic Compliance Matrix: (Units=1/GPa)
#
#
# Indices 1 2 3 4 5 6 
#
# 1 0.010045 -0.003317 -0.003049 0.000000 0.001167 0.000000
# 2 -0.003317 0.015443 -0.004489 0.000000 -0.002567 0.000000
# 3 -0.003049 -0.004489 0.014861 0.000000 0.006545 0.000000
# 4 0.000000 0.000000 0.000000 0.035322 0.000000 0.008008
# 5 0.001167 -0.002567 0.006545 0.000000 0.034819 0.000000
# 6 0.000000 0.000000 0.000000 0.008008 0.000000 0.040951
#
#
# Mechanical properties :
#
#
# Convention : Reuss Voigt Hill
#
# Bulk Modulus (GPa) = 53.65339 58.16994 55.91167
# Shear Modulus (GPa) = 27.87655 30.03757 28.95706
#
# Velocity S-wave (km/s) = 3.77878 3.92252 3.85132
# Velocity P-wave (km/s) = 6.82069 7.09304 6.95820
#
# Compressibility (1/GPa) = 0.01863815
#
# Stress axis : x y z
#
# Youngs Moduli (GPa) = 99.55493 64.75557 67.29170
#
# Poissons Ratio (x) = 0.21476 0.20520
# Poissons Ratio (y) = 0.33018 0.30207
# Poissons Ratio (z) = 0.30358 0.29069
#
# Static dielectric constant tensor:
#      x y z
#    x 3.546070 0.000000 0.118830 
#    y 0.000000 3.525310 0.000000 
#    z 0.118830 0.000000 3.710380 
# 
# 
# High freq. dielectric constant tensor:
#      x y z
#    x 1.754050 0.000000 -0.008500 
#    y 0.000000 1.755720 0.000000 
#    z -0.008500 0.000000 1.772110 
# 
# From -- ./inp_files/319895.got.cif
#   From: 2010.06.25/outbox.cif.g09.slc.cpg/sg12_160_cif.got.tgz:319895.got - 2010.06.28 00:19:55.
