data_PCOD8085613
_publ_section_title
;
Structure prediction by ZEFSAII (Michael W. Deem and Ramdas Pophale) SiO2 
 PCOD8085613
Probable space group: C 2/M
;
_chemical_formula_sum "Si O2"
_cell_formula_units_Z 48
_cell_length_a 22.825267
_cell_length_b 8.800754
_cell_length_c 14.138242
_cell_angle_alpha 90.000000
_cell_angle_beta 102.531727
_cell_angle_gamma 90.000000
_cell_volume 2772.421690
_symmetry_space_group_name_H-M "C 2/M"
_symmetry_group_IT_number 12
_symmetry_cell_setting 'monoclinic'
loop_
_space_group_symop_operation_xyz
x,y,z
-x,y,-z
-x,-y,-z
x,-y,z
1/2+x,1/2+y,z
1/2-x,1/2+y,-z
1/2-x,1/2-y,-z
1/2+x,1/2-y,z
loop_
_atom_site_type_symbol
_atom_site_label
_atom_site_fract_x
_atom_site_fract_y
_atom_site_fract_z
Si Si1 0.647437 0.177226 0.310331
Si Si2 0.202836 0.178011 0.912851
Si Si3 0.808591 0.324662 0.481971
Si Si4 0.043434 0.678862 0.136472
Si Si5 0.076271 0.820766 0.953769
Si Si6 0.767275 0.678444 0.274229
O O1 0.639776 0.211522 0.421616
O O2 0.584527 0.220978 0.240569
O O3 0.700361 0.275216 0.282351
O O4 0.662539 0.000000 0.298372
O O5 0.136080 0.225935 0.919637
O O6 0.213065 0.231803 0.810554
O O7 0.211924 0.000000 0.921109
O O8 0.250000 0.250000 0.000000
O O9 0.794247 0.500000 0.474655
O O10 0.750000 0.250000 0.500000
O O11 0.816184 0.276027 0.374327
O O12 0.031737 0.500000 0.124092
O O13 0.980276 0.764551 0.127952
O O14 0.076915 0.735802 0.054228
O O15 0.071556 0.000000 0.969740
O O16 0.767520 0.500000 0.251474
#
# Coordination Sequence:
#
# PCOD8085613 Si02
#       6
#     8   8   8   8   8   8
#     4   9  17  30  49  73 100 127 158 197 237 279
#     4  11  23  36  51  71  96 127 160 194 235 283
#     4   8  15  28  45  68  97 126 157 193 234 278
#     4  10  19  31  51  74  94 121 156 195 236 277
#     4  10  21  35  49  67  94 126 157 192 235 281
#     4  10  19  30  48  73 100 130 160 193 236 283
#
# _framework density 17.313383000000002
#
# number of rings (size 3 to 8) (size 9 to 14) (size 15 to 20)
#    0.000    2.333    0.000    4.000    0.000    7.333 
#    0.000    0.000    0.000    1.000    0.000    7.000 
#    0.000    0.000    0.000    0.000    0.000    0.000 
#
# Total GULP energy -297376.419107 kJ/mol
# GULP energy per Si atom -12390.684129 kJ/mol
# Density = 1.727398 g / cm^3
# Si number density = 17.313383 Si / 1000 Ang^3
#
#
#
# Elastic Constant Matrix: (Units=GPa)
#
#
# Indices 1 2 3 4 5 6 
#
# 1 93.8567 33.5712 71.4423 0.0000 6.0117 0.0000
# 2 33.5712 47.0461 34.2875 0.0000 1.1845 0.0000
# 3 71.4423 34.2875 160.5673 0.0000 18.4721 0.0000
# 4 0.0000 0.0000 0.0000 24.0627 0.0000 -0.7941
# 5 6.0117 1.1845 18.4721 0.0000 29.0636 0.0000
# 6 0.0000 0.0000 0.0000 -0.7941 0.0000 23.8513
#
#
#
# Elastic Compliance Matrix: (Units=1/GPa)
#
#
# Indices 1 2 3 4 5 6 
#
# 1 0.018659 -0.008558 -0.006550 0.000000 0.000652 0.000000
# 2 -0.008558 0.029279 -0.002709 0.000000 0.002299 0.000000
# 3 -0.006550 -0.002709 0.010306 0.000000 -0.005085 0.000000
# 4 0.000000 0.000000 0.000000 0.041604 0.000000 0.001385
# 5 0.000652 0.002299 -0.005085 0.000000 0.037411 0.000000
# 6 0.000000 0.000000 0.000000 0.001385 0.000000 0.041973
#
#
# Mechanical properties :
#
#
# Convention : Reuss Voigt Hill
#
# Bulk Modulus (GPa) = 44.22694 64.45244 54.33969
# Shear Modulus (GPa) = 22.48191 26.20679 24.34435
#
# Velocity S-wave (km/s) = 3.60742 3.89482 3.75387
# Velocity P-wave (km/s) = 6.55375 7.58511 7.08821
#
# Compressibility (1/GPa) = 0.02261065
#
# Stress axis : x y z
#
# Youngs Moduli (GPa) = 53.59214 34.15431 97.03447
#
# Poissons Ratio (x) = 0.29229 0.63556
# Poissons Ratio (y) = 0.45864 0.26286
# Poissons Ratio (z) = 0.35102 0.09252
#
# Static dielectric constant tensor:
#      x y z
#    x 3.080550 0.000000 0.268570 
#    y 0.000000 3.363850 0.000000 
#    z 0.268570 0.000000 3.909770 
# 
# 
# High freq. dielectric constant tensor:
#      x y z
#    x 1.634690 0.000000 0.017750 
#    y 0.000000 1.681500 0.000000 
#    z 0.017750 0.000000 1.684660 
# 
# From -- ./inp_files/172392.got.cif
#   From: 2010.06.25/outbox.cif.g09.slc.cpg/sg12_87_cif.got.tgz:172392.got - 2010.06.28 00:19:55.
