data_PCOD8085202
_publ_section_title
;
Structure prediction by ZEFSAII (Michael W. Deem and Ramdas Pophale) SiO2 
 PCOD8085202
Probable space group: C 2/M
;
_chemical_formula_sum "Si O2"
_cell_formula_units_Z 56
_cell_length_a 22.869383
_cell_length_b 9.069167
_cell_length_c 21.323601
_cell_angle_alpha 90.000000
_cell_angle_beta 130.739506
_cell_angle_gamma 90.000000
_cell_volume 3350.972111
_symmetry_space_group_name_H-M "C 2/M"
_symmetry_group_IT_number 12
_symmetry_cell_setting 'monoclinic'
loop_
_space_group_symop_operation_xyz
x,y,z
-x,y,-z
-x,-y,-z
x,-y,z
1/2+x,1/2+y,z
1/2-x,1/2+y,-z
1/2-x,1/2-y,-z
1/2+x,1/2-y,z
loop_
_atom_site_type_symbol
_atom_site_label
_atom_site_fract_x
_atom_site_fract_y
_atom_site_fract_z
Si Si1 0.263007 0.832054 0.092773
Si Si2 0.627330 0.331862 0.920456
Si Si3 0.416016 0.674512 0.424145
Si Si4 0.620539 0.833700 0.726856
Si Si5 0.508006 0.828949 0.763951
Si Si6 0.699729 0.672596 0.550340
Si Si7 0.351189 0.672438 0.623841
O O1 0.306408 0.708953 0.082799
O O2 0.292107 0.813187 0.184954
O O3 0.286119 0.000000 0.087370
O O4 0.169896 0.811248 0.018509
O O5 0.601089 0.500000 0.891839
O O6 0.552843 0.228742 0.857645
O O7 0.500000 0.740175 0.500000
O O8 0.419261 0.500000 0.427443
O O9 0.390600 0.723248 0.337732
O O10 0.355053 0.731727 0.432698
O O11 0.559675 0.795631 0.739086
O O12 0.607548 0.000000 0.693660
O O13 0.428471 0.743660 0.703605
O O14 0.490416 0.000000 0.760074
O O15 0.717782 0.500000 0.568829
O O16 0.656681 0.708696 0.455218
O O17 0.779542 0.759977 0.611577
O O18 0.353639 0.500000 0.638693
#
# Coordination Sequence:
#
# PCOD8085202 Si02
#       7
#     8   8   8   8   8   8   8
#     4   8  15  27  40  59  90 122 150 185 228 269
#     4   9  15  24  41  63  88 119 153 186 222 270
#     4  10  20  33  48  67  93 123 153 186 223 264
#     4   9  18  30  44  65  93 124 155 186 223 267
#     4  10  19  30  44  66  97 125 150 187 233 272
#     4   9  19  34  49  67  93 121 149 187 232 269
#     4  10  19  32  51  70  88 116 155 192 226 271
#
# _framework density 16.711569999999998
#
# number of rings (size 3 to 8) (size 9 to 14) (size 15 to 20)
#    0.000    2.714    0.000    3.000    0.000    6.000 
#    0.000    0.000    0.000    0.000    0.000    1.000 
#    0.000    8.000    0.000    0.000    0.000    0.000 
#
# Total GULP energy -347034.730356 kJ/mol
# GULP energy per Si atom -12394.097513 kJ/mol
# Density = 1.667353 g / cm^3
# Si number density = 16.711570 Si / 1000 Ang^3
#
#
#
# Elastic Constant Matrix: (Units=GPa)
#
#
# Indices 1 2 3 4 5 6 
#
# 1 78.8672 33.0732 53.7380 0.0000 14.1900 0.0000
# 2 33.0732 47.4818 36.2062 0.0000 11.4836 0.0000
# 3 53.7380 36.2062 128.3009 0.0000 24.4631 0.0000
# 4 0.0000 0.0000 0.0000 29.3528 0.0000 2.5812
# 5 14.1900 11.4836 24.4631 0.0000 24.0881 0.0000
# 6 0.0000 0.0000 0.0000 2.5812 0.0000 19.7717
#
#
#
# Elastic Compliance Matrix: (Units=1/GPa)
#
#
# Indices 1 2 3 4 5 6 
#
# 1 0.021012 -0.009859 -0.005648 0.000000 -0.001941 0.000000
# 2 -0.009859 0.032262 -0.003906 0.000000 -0.005606 0.000000
# 3 -0.005648 -0.003906 0.012740 0.000000 -0.007748 0.000000
# 4 0.000000 0.000000 0.000000 0.034464 0.000000 -0.004499
# 5 -0.001941 -0.005606 -0.007748 0.000000 0.053199 0.000000
# 6 0.000000 0.000000 0.000000 -0.004499 0.000000 0.051165
#
#
# Mechanical properties :
#
#
# Convention : Reuss Voigt Hill
#
# Bulk Modulus (GPa) = 36.78260 55.63164 46.20712
# Shear Modulus (GPa) = 19.78385 23.41803 21.60094
#
# Velocity S-wave (km/s) = 3.44443 3.74746 3.59914
# Velocity P-wave (km/s) = 6.15442 7.21708 6.70683
#
# Compressibility (1/GPa) = 0.02718677
#
# Stress axis : x y z
#
# Youngs Moduli (GPa) = 47.59195 30.99586 78.49549
#
# Poissons Ratio (x) = 0.30560 0.44337
# Poissons Ratio (y) = 0.46922 0.30660
# Poissons Ratio (z) = 0.26881 0.12107
#
# Static dielectric constant tensor:
#      x y z
#    x 2.853370 0.000000 0.214570 
#    y 0.000000 3.157330 0.000000 
#    z 0.214570 0.000000 3.419380 
# 
# 
# High freq. dielectric constant tensor:
#      x y z
#    x 1.592790 0.000000 0.023740 
#    y 0.000000 1.651490 0.000000 
#    z 0.023740 0.000000 1.655570 
# 
# From -- ./inp_files/287869.got.cif
#   From: 2010.06.25/outbox.cif.g09.slc.cpg/sg12_144_cif.got.tgz:287869.got - 2010.06.28 00:19:55.
