data_PCOD8085940
_publ_section_title
;
Structure prediction by ZEFSAII (Michael W. Deem and Ramdas Pophale) SiO2 
 PCOD8085940
Probable space group: C 2/M
;
_chemical_formula_sum "Si O2"
_cell_formula_units_Z 64
_cell_length_a 19.066214
_cell_length_b 8.922796
_cell_length_c 21.460193
_cell_angle_alpha 90.000000
_cell_angle_beta 91.789278
_cell_angle_gamma 90.000000
_cell_volume 3649.112445
_symmetry_space_group_name_H-M "C 2/M"
_symmetry_group_IT_number 12
_symmetry_cell_setting 'monoclinic'
loop_
_space_group_symop_operation_xyz
x,y,z
-x,y,-z
-x,-y,-z
x,-y,z
1/2+x,1/2+y,z
1/2-x,1/2+y,-z
1/2-x,1/2-y,-z
1/2+x,1/2-y,z
loop_
_atom_site_type_symbol
_atom_site_label
_atom_site_fract_x
_atom_site_fract_y
_atom_site_fract_z
Si Si1 0.277774 0.825838 0.634014
Si Si2 0.515894 0.671714 0.358735
Si Si3 0.174910 0.320742 0.010755
Si Si4 0.409792 0.820937 0.872448
Si Si5 0.870460 0.827052 0.408421
Si Si6 0.543159 0.163309 0.938297
Si Si7 0.111202 0.678482 0.266746
Si Si8 0.892710 0.674704 0.538977
O O1 0.199804 0.758155 0.625210
O O2 0.320573 0.758130 0.694237
O O3 0.319143 0.792921 0.571327
O O4 0.270656 0.000000 0.646947
O O5 0.539881 0.500000 0.354483
O O6 0.431817 0.686744 0.359223
O O7 0.541725 0.759594 0.298451
O O8 0.545757 0.739640 0.423444
O O9 0.179992 0.500000 0.007509
O O10 0.147817 0.268736 0.078359
O O11 0.250000 0.250000 0.000000
O O12 0.118201 0.259079 0.957339
O O13 0.488628 0.753644 0.889429
O O14 0.385556 0.763092 0.804103
O O15 0.415851 0.000000 0.874723
O O16 0.888875 0.731194 0.469047
O O17 0.859182 0.000000 0.428500
O O18 0.561476 0.000000 0.911019
O O19 0.500000 0.142319 0.000000
O O20 0.107403 0.500000 0.269870
O O21 0.911322 0.500000 0.540234
#
# Coordination Sequence:
#
# PCOD8085940 Si02
#       8
#     8   8   8   8   8   8   8   8
#     4   8  16  30  46  65  88 115 147 183 223 267
#     4  10  20  32  46  65  91 121 148 179 225 277
#     4   9  16  27  45  71 100 124 148 183 227 269
#     4   8  14  27  49  70  86 116 160 193 217 256
#     4  10  19  31  46  64  89 118 145 177 226 283
#     4   7  11  22  42  66  89 116 152 186 213 251
#     4   9  17  32  52  68  84 113 156 197 224 254
#     4  10  19  31  49  70  89 112 148 191 227 262
#
# _framework density 17.538511
#
# number of rings (size 3 to 8) (size 9 to 14) (size 15 to 20)
#    0.000    3.125    0.000    3.750    0.000    2.500 
#    0.000    4.375    0.000    5.625    0.000    0.000 
#    0.000    0.000    0.000    0.000    0.000    0.000 
#
# Total GULP energy -396452.306261 kJ/mol
# GULP energy per Si atom -12389.134571 kJ/mol
# Density = 1.749859 g / cm^3
# Si number density = 17.538511 Si / 1000 Ang^3
#
#
#
# Elastic Constant Matrix: (Units=GPa)
#
#
# Indices 1 2 3 4 5 6 
#
# 1 130.7282 23.2632 50.5007 0.0000 -1.5924 0.0000
# 2 23.2632 30.6803 19.0889 0.0000 0.3861 0.0000
# 3 50.5007 19.0889 110.5399 0.0000 2.0240 0.0000
# 4 0.0000 0.0000 0.0000 13.8827 0.0000 -3.9584
# 5 -1.5924 0.3861 2.0240 0.0000 12.0925 0.0000
# 6 0.0000 0.0000 0.0000 -3.9584 0.0000 21.2767
#
#
#
# Elastic Compliance Matrix: (Units=1/GPa)
#
#
# Indices 1 2 3 4 5 6 
#
# 1 0.010060 -0.005345 -0.003712 0.000000 0.002117 0.000000
# 2 -0.005345 0.039358 -0.004332 0.000000 -0.001236 0.000000
# 3 -0.003712 -0.004332 0.011532 0.000000 -0.002281 0.000000
# 4 0.000000 0.000000 0.000000 0.076067 0.000000 0.014152
# 5 0.002117 -0.001236 -0.002281 0.000000 0.083395 0.000000
# 6 0.000000 0.000000 0.000000 0.014152 0.000000 0.049633
#
#
# Mechanical properties :
#
#
# Convention : Reuss Voigt Hill
#
# Bulk Modulus (GPa) = 29.26353 50.85045 40.05699
# Shear Modulus (GPa) = 16.22243 21.39010 18.80627
#
# Velocity S-wave (km/s) = 3.04462 3.49608 3.27813
# Velocity P-wave (km/s) = 5.39269 6.73448 6.10059
#
# Compressibility (1/GPa) = 0.03417223
#
# Stress axis : x y z
#
# Youngs Moduli (GPa) = 99.40026 25.40770 86.71454
#
# Poissons Ratio (x) = 0.13581 0.32187
# Poissons Ratio (y) = 0.53134 0.37565
# Poissons Ratio (z) = 0.36895 0.11007
#
# Static dielectric constant tensor:
#      x y z
#    x 3.638210 0.000000 0.331270 
#    y 0.000000 2.913470 0.000000 
#    z 0.331270 0.000000 3.346910 
# 
# 
# High freq. dielectric constant tensor:
#      x y z
#    x 1.685550 0.000000 0.011930 
#    y 0.000000 1.639400 0.000000 
#    z 0.011930 0.000000 1.660140 
# 
# From -- ./inp_files/341986.got.cif
#   From: 2010.06.25/outbox.cif.g09.slc.cpg/sg12_171_cif.got.tgz:341986.got - 2010.06.28 00:19:55.
