data_PCOD8085138
_publ_section_title
;
Structure prediction by ZEFSAII (Michael W. Deem and Ramdas Pophale) SiO2 
 PCOD8085138
Probable space group: C 2/M
;
_chemical_formula_sum "Si O2"
_cell_formula_units_Z 56
_cell_length_a 29.156785
_cell_length_b 8.743874
_cell_length_c 13.694997
_cell_angle_alpha 90.000000
_cell_angle_beta 122.641677
_cell_angle_gamma 90.000000
_cell_volume 2940.008896
_symmetry_space_group_name_H-M "C 2/M"
_symmetry_group_IT_number 12
_symmetry_cell_setting 'monoclinic'
loop_
_space_group_symop_operation_xyz
x,y,z
-x,y,-z
-x,-y,-z
x,-y,z
1/2+x,1/2+y,z
1/2-x,1/2+y,-z
1/2-x,1/2-y,-z
1/2+x,1/2-y,z
loop_
_atom_site_type_symbol
_atom_site_label
_atom_site_fract_x
_atom_site_fract_y
_atom_site_fract_z
Si Si1 0.200242 0.320152 0.723227
Si Si2 0.090649 0.675003 0.065995
Si Si3 0.627267 0.818082 0.807324
Si Si4 0.700368 0.182637 0.504046
Si Si5 0.803485 0.674815 0.931074
Si Si6 0.472399 0.817722 0.190651
Si Si7 0.089594 0.682086 0.280158
O O1 0.196082 0.500000 0.708093
O O2 0.147204 0.260015 0.723606
O O3 0.202310 0.250697 0.616766
O O4 0.253065 0.280207 0.846205
O O5 0.073073 0.500000 0.057305
O O6 0.153090 0.689738 0.105848
O O7 0.085079 0.753248 0.165914
O O8 0.050666 0.749283 0.938805
O O9 0.566307 0.757503 0.764865
O O10 0.626831 0.000000 0.810550
O O11 0.670310 0.762220 0.938626
O O12 0.750000 0.250000 0.500000
O O13 0.643525 0.244916 0.394671
O O14 0.704033 0.000000 0.505302
O O15 0.783815 0.500000 0.918915
O O16 0.535163 0.766622 0.277228
O O17 0.467602 0.000000 0.180960
O O18 0.093554 0.500000 0.279983
#
# Coordination Sequence:
#
# PCOD8085138 Si02
#       7
#     8   8   8   8   8   8   8
#     4  10  19  30  43  62  91 121 146 178 221 260
#     4   8  13  21  37  62  87 108 135 178 224 257
#     4   8  15  27  42  63  91 117 142 178 222 263
#     4  10  21  34  47  65  89 117 148 182 218 257
#     4   9  16  27  45  67  89 116 149 180 213 258
#     4   8  13  22  38  61  87 112 137 172 221 265
#     4   9  15  24  39  60  86 113 143 178 214 255
#
# _framework density 19.047561999999999
#
# number of rings (size 3 to 8) (size 9 to 14) (size 15 to 20)
#    0.000    3.143    0.000    3.429    0.000    3.429 
#    0.000    0.714    0.000    4.286    0.000    5.000 
#    0.000   17.143    0.000    0.000    0.000    0.000 
#
# Total GULP energy -346901.926479 kJ/mol
# GULP energy per Si atom -12389.354517 kJ/mol
# Density = 1.900421 g / cm^3
# Si number density = 19.047562 Si / 1000 Ang^3
#
#
#
# Elastic Constant Matrix: (Units=GPa)
#
#
# Indices 1 2 3 4 5 6 
#
# 1 178.2875 11.1510 95.0770 0.0000 -6.1693 0.0000
# 2 11.1510 3.9090 9.4130 0.0000 -2.6456 0.0000
# 3 95.0770 9.4130 94.2041 0.0000 -4.7827 0.0000
# 4 0.0000 0.0000 0.0000 13.6446 0.0000 1.8463
# 5 -6.1693 -2.6456 -4.7827 0.0000 37.2175 0.0000
# 6 0.0000 0.0000 0.0000 1.8463 0.0000 16.4269
#
#
#
# Elastic Compliance Matrix: (Units=1/GPa)
#
#
# Indices 1 2 3 4 5 6 
#
# 1 0.012283 -0.006796 -0.011716 0.000000 0.000047 0.000000
# 2 -0.006796 0.355707 -0.027637 0.000000 0.020607 0.000000
# 3 -0.011716 -0.027637 0.025167 0.000000 -0.000673 0.000000
# 4 0.000000 0.000000 0.000000 0.074421 0.000000 -0.008365
# 5 0.000047 0.020607 -0.000673 0.000000 0.028255 0.000000
# 6 0.000000 0.000000 0.000000 -0.008365 0.000000 0.061816
#
#
# Mechanical properties :
#
#
# Convention : Reuss Voigt Hill
#
# Bulk Modulus (GPa) = 3.32382 56.40920 29.86651
# Shear Modulus (GPa) = 6.66459 24.17511 15.41985
#
# Velocity S-wave (km/s) = 1.87257 3.56644 2.84834
# Velocity P-wave (km/s) = 2.53459 6.82924 5.15086
#
# Compressibility (1/GPa) = 0.30085843
#
# Stress axis : x y z
#
# Youngs Moduli (GPa) = 81.41093 2.81130 39.73469
#
# Poissons Ratio (x) = 0.01911 0.46552
# Poissons Ratio (y) = 0.55329 1.09817
# Poissons Ratio (z) = 0.95378 0.07770
#
# Static dielectric constant tensor:
#      x y z
#    x 3.953100 0.000000 -0.189680 
#    y 0.000000 2.774270 0.000000 
#    z -0.189680 0.000000 3.604350 
# 
# 
# High freq. dielectric constant tensor:
#      x y z
#    x 1.762570 0.000000 -0.006080 
#    y 0.000000 1.662500 0.000000 
#    z -0.006080 0.000000 1.725700 
# 
# From -- ./inp_files/182215.got.cif
#   From: 2010.06.25/outbox.cif.g09.slc.cpg/sg12_92_cif.got.tgz:182215.got - 2010.06.28 00:19:55.
