data_PCOD8085790
_publ_section_title
;
Structure prediction by ZEFSAII (Michael W. Deem and Ramdas Pophale) SiO2 
 PCOD8085790
Probable space group: C 2/M
;
_chemical_formula_sum "Si O2"
_cell_formula_units_Z 48
_cell_length_a 8.532381
_cell_length_b 18.421316
_cell_length_c 21.524889
_cell_angle_alpha 90.000000
_cell_angle_beta 130.920090
_cell_angle_gamma 90.000000
_cell_volume 2556.450973
_symmetry_space_group_name_H-M "C 2/M"
_symmetry_group_IT_number 12
_symmetry_cell_setting 'monoclinic'
loop_
_space_group_symop_operation_xyz
x,y,z
-x,y,-z
-x,-y,-z
x,-y,z
1/2+x,1/2+y,z
1/2-x,1/2+y,-z
1/2-x,1/2-y,-z
1/2+x,1/2-y,z
loop_
_atom_site_type_symbol
_atom_site_label
_atom_site_fract_x
_atom_site_fract_y
_atom_site_fract_z
Si Si1 0.715150 0.692463 0.660155
Si Si2 0.892860 0.306322 0.573401
Si Si3 0.045531 0.322698 0.151556
Si Si4 0.392206 0.418638 0.538968
Si Si5 0.733119 0.806411 0.076114
Si Si6 0.798142 0.084678 0.986270
O O1 0.848520 0.681811 0.633928
O O2 0.625690 0.775193 0.631117
O O3 0.864686 0.682502 0.756740
O O4 0.532989 0.632310 0.619697
O O5 0.750000 0.250000 0.500000
O O6 0.841136 0.384052 0.527382
O O7 0.234711 0.322607 0.150789
O O8 0.891955 0.255892 0.098659
O O9 0.906753 0.394850 0.106889
O O10 0.500000 0.419067 0.500000
O O11 0.374924 0.500000 0.561854
O O12 0.795753 0.877280 0.053073
O O13 0.500000 0.781129 0.000000
O O14 0.796265 0.000000 0.999326
O O15 0.000000 0.108251 0.000000
#
# Coordination Sequence:
#
# PCOD8085790 Si02
#       6
#     8   8   8   8   8   8
#     4  10  19  30  50  77 101 127 163 211 256 295
#     4   9  17  31  50  71  97 132 168 203 244 298
#     4  11  20  32  52  78 105 133 168 219 266 301
#     4   8  15  29  48  69  94 127 165 200 237 290
#     4  10  20  34  53  74 101 137 175 210 252 311
#     4  10  21  37  55  74 100 136 175 211 253 312
#
# _framework density 18.776029999999999
#
# number of rings (size 3 to 8) (size 9 to 14) (size 15 to 20)
#    0.000    2.333    0.000    6.000    0.000    3.667 
#    0.000    0.000    0.000    9.000    0.000    0.000 
#    0.000    0.000    0.000    0.000    0.000    0.000 
#
# Total GULP energy -297379.424447 kJ/mol
# GULP energy per Si atom -12390.809352 kJ/mol
# Density = 1.873329 g / cm^3
# Si number density = 18.776030 Si / 1000 Ang^3
#
#
#
# Elastic Constant Matrix: (Units=GPa)
#
#
# Indices 1 2 3 4 5 6 
#
# 1 72.4685 27.9601 24.3601 0.0000 -5.7041 0.0000
# 2 27.9601 99.4471 27.3315 0.0000 8.3116 0.0000
# 3 24.3601 27.3315 93.7371 0.0001 -12.9410 0.0000
# 4 0.0000 0.0000 0.0001 11.4235 0.0000 1.2759
# 5 -5.7041 8.3116 -12.9410 0.0000 23.5868 0.0000
# 6 0.0000 0.0000 0.0000 1.2759 0.0000 28.4736
#
#
#
# Elastic Compliance Matrix: (Units=1/GPa)
#
#
# Indices 1 2 3 4 5 6 
#
# 1 0.016640 -0.004348 -0.002477 0.000000 0.004197 0.000000
# 2 -0.004348 0.012932 -0.003695 0.000000 -0.007636 0.000000
# 3 -0.002477 -0.003695 0.013509 0.000000 0.008115 0.000000
# 4 0.000000 0.000000 0.000000 0.087979 0.000000 -0.003942
# 5 0.004197 -0.007636 0.008115 0.000000 0.050555 0.000000
# 6 0.000000 0.000000 0.000000 -0.003942 0.000000 0.035297
#
#
# Mechanical properties :
#
#
# Convention : Reuss Voigt Hill
#
# Bulk Modulus (GPa) = 45.37013 47.21734 46.29373
# Shear Modulus (GPa) = 20.38329 25.09684 22.74006
#
# Velocity S-wave (km/s) = 3.29842 3.65998 3.48389
# Velocity P-wave (km/s) = 6.22273 6.56223 6.39474
#
# Compressibility (1/GPa) = 0.02204093
#
# Stress axis : x y z
#
# Youngs Moduli (GPa) = 60.09678 77.32874 74.02229
#
# Poissons Ratio (x) = 0.33626 0.18335
# Poissons Ratio (y) = 0.26133 0.27349
# Poissons Ratio (z) = 0.14885 0.28571
#
# Static dielectric constant tensor:
#      x y z
#    x 5.073720 0.000000 0.003110 
#    y 0.000000 3.627630 0.000000 
#    z 0.003110 0.000000 3.391480 
# 
# 
# High freq. dielectric constant tensor:
#      x y z
#    x 1.723220 0.000000 -0.010080 
#    y 0.000000 1.720190 0.000000 
#    z -0.010080 0.000000 1.718470 
# 
# From -- ./inp_files/256207.got.cif
#   From: 2010.06.25/outbox.cif.g09.slc.cpg/sg12_129_cif.got.tgz:256207.got - 2010.06.28 00:19:55.
