data_PCOD8085823
_publ_section_title
;
Structure prediction by ZEFSAII (Michael W. Deem and Ramdas Pophale) SiO2 
 PCOD8085823
Probable space group: C 2/M
;
_chemical_formula_sum "Si O2"
_cell_formula_units_Z 64
_cell_length_a 14.988009
_cell_length_b 18.528055
_cell_length_c 12.167383
_cell_angle_alpha 90.000000
_cell_angle_beta 91.620369
_cell_angle_gamma 90.000000
_cell_volume 3377.514773
_symmetry_space_group_name_H-M "C 2/M"
_symmetry_group_IT_number 12
_symmetry_cell_setting 'monoclinic'
loop_
_space_group_symop_operation_xyz
x,y,z
-x,y,-z
-x,-y,-z
x,-y,z
1/2+x,1/2+y,z
1/2-x,1/2+y,-z
1/2-x,1/2-y,-z
1/2+x,1/2-y,z
loop_
_atom_site_type_symbol
_atom_site_label
_atom_site_fract_x
_atom_site_fract_y
_atom_site_fract_z
Si Si1 0.737359 0.084398 0.423731
Si Si2 0.951409 0.347711 0.208200
Si Si3 0.094862 0.329365 0.558874
Si Si4 0.172818 0.649973 0.984595
Si Si5 0.366684 0.311139 0.960149
Si Si6 0.139367 0.581505 0.201418
Si Si7 0.532032 0.680307 0.823979
Si Si8 0.919416 0.838877 0.415812
O O1 0.673421 0.132938 0.495695
O O2 0.712102 0.100169 0.296342
O O3 0.838535 0.108954 0.445697
O O4 0.726873 0.000000 0.453473
O O5 0.906185 0.367599 0.322280
O O6 0.946804 0.263002 0.193922
O O7 0.053489 0.369453 0.211889
O O8 0.895371 0.383785 0.107024
O O9 0.112107 0.243719 0.569488
O O10 0.000000 0.344446 0.500000
O O11 0.134260 0.724584 0.031104
O O12 0.184137 0.594484 0.084863
O O13 0.268436 0.659890 0.929723
O O14 0.430224 0.332663 0.860416
O O15 0.402114 0.346089 0.075903
O O16 0.106625 0.500000 0.211023
O O17 0.549790 0.641644 0.708078
O O18 0.000000 0.857423 0.500000
#
# Coordination Sequence:
#
# PCOD8085823 Si02
#       8
#     8   8   8   8   8   8   8   8
#     4  11  24  40  59  81 112 157 196 228 281 351
#     4  10  19  33  50  78 109 140 178 226 278 329
#     4  10  20  38  60  85 115 144 187 239 286 343
#     4  10  19  30  50  80 109 139 181 225 275 331
#     4   9  17  30  53  78 107 143 174 225 282 330
#     4  11  22  35  53  75 111 154 184 218 266 336
#     4   9  17  33  53  79 110 138 178 226 285 338
#     4  10  22  37  60  88 113 144 188 247 292 323
#
# _framework density 18.948843
#
# number of rings (size 3 to 8) (size 9 to 14) (size 15 to 20)
#    0.000    2.000    2.500    1.500    0.000    4.000 
#    0.000    0.000    0.000    0.750    0.000    3.500 
#    0.000    0.000    0.000    0.000    0.000    0.000 
#
# Total GULP energy -396756.932254 kJ/mol
# GULP energy per Si atom -12398.654133 kJ/mol
# Density = 1.890571 g / cm^3
# Si number density = 18.948843 Si / 1000 Ang^3
#
#
#
# Elastic Constant Matrix: (Units=GPa)
#
#
# Indices 1 2 3 4 5 6 
#
# 1 110.6802 30.6874 41.7880 0.0000 0.4681 0.0000
# 2 30.6874 32.5941 29.1094 0.0000 1.5959 0.0000
# 3 41.7880 29.1094 119.4943 0.0000 -5.0110 0.0000
# 4 0.0000 0.0000 0.0000 16.6353 0.0000 3.0953
# 5 0.4681 1.5959 -5.0110 0.0000 31.4079 0.0000
# 6 0.0000 0.0000 0.0000 3.0953 0.0000 4.2252
#
#
#
# Elastic Compliance Matrix: (Units=1/GPa)
#
#
# Indices 1 2 3 4 5 6 
#
# 1 0.012567 -0.010107 -0.001932 0.000000 0.000018 0.000000
# 2 -0.010107 0.047735 -0.008245 0.000000 -0.003590 0.000000
# 3 -0.001932 -0.008245 0.011146 0.000000 0.002226 0.000000
# 4 0.000000 0.000000 0.000000 0.069600 0.000000 -0.050987
# 5 0.000018 -0.003590 0.002226 0.000000 0.032376 0.000000
# 6 0.000000 0.000000 0.000000 -0.050987 0.000000 0.274026
#
#
# Mechanical properties :
#
#
# Convention : Reuss Voigt Hill
#
# Bulk Modulus (GPa) = 32.38250 51.77091 42.07670
# Shear Modulus (GPa) = 10.03389 21.19926 15.61658
#
# Velocity S-wave (km/s) = 2.30364 3.34842 2.87391
# Velocity P-wave (km/s) = 4.91957 6.50615 5.76767
#
# Compressibility (1/GPa) = 0.03088088
#
# Stress axis : x y z
#
# Youngs Moduli (GPa) = 79.57571 20.94883 89.71905
#
# Poissons Ratio (x) = 0.21173 0.17331
# Poissons Ratio (y) = 0.80429 0.73970
# Poissons Ratio (z) = 0.15372 0.17271
#
# Static dielectric constant tensor:
#      x y z
#    x 3.392970 0.000000 0.087200 
#    y 0.000000 3.111660 0.000000 
#    z 0.087200 0.000000 3.868850 
# 
# 
# High freq. dielectric constant tensor:
#      x y z
#    x 1.741710 0.000000 0.000560 
#    y 0.000000 1.693040 0.000000 
#    z 0.000560 0.000000 1.748520 
# 
# From -- ./inp_files/146125.got.cif
#   From: 2010.06.25/outbox.cif.g09.slc.cpg/sg12_74_cif.got.tgz:146125.got - 2010.06.28 00:19:55.
