data_PCOD8085089
_publ_section_title
;
Structure prediction by ZEFSAII (Michael W. Deem and Ramdas Pophale) SiO2 
 PCOD8085089
Probable space group: C 2/M
;
_chemical_formula_sum "Si O2"
_cell_formula_units_Z 48
_cell_length_a 28.152045
_cell_length_b 8.737253
_cell_length_c 20.054090
_cell_angle_alpha 90.000000
_cell_angle_beta 146.477386
_cell_angle_gamma 90.000000
_cell_volume 2724.182378
_symmetry_space_group_name_H-M "C 2/M"
_symmetry_group_IT_number 12
_symmetry_cell_setting 'monoclinic'
loop_
_space_group_symop_operation_xyz
x,y,z
-x,y,-z
-x,-y,-z
x,-y,z
1/2+x,1/2+y,z
1/2-x,1/2+y,-z
1/2-x,1/2-y,-z
1/2+x,1/2-y,z
loop_
_atom_site_type_symbol
_atom_site_label
_atom_site_fract_x
_atom_site_fract_y
_atom_site_fract_z
Si Si1 0.062474 0.830805 0.135896
Si Si2 0.844141 0.182329 0.102686
Si Si3 0.805379 0.323931 0.794250
Si Si4 0.943460 0.317988 0.341345
Si Si5 0.611880 0.320887 0.588446
Si Si6 0.405971 0.318920 0.030558
O O1 0.144854 0.727577 0.214671
O O2 0.003359 0.761334 0.126561
O O3 0.096655 0.000000 0.194278
O O4 0.000000 0.839516 0.000000
O O5 0.906909 0.254880 0.229979
O O6 0.881199 0.236182 0.074964
O O7 0.841340 0.000000 0.106589
O O8 0.750000 0.250000 0.000000
O O9 0.824367 0.500000 0.828745
O O10 0.704841 0.291038 0.665136
O O11 0.835552 0.239192 0.896013
O O12 0.935082 0.500000 0.334770
O O13 0.889183 0.244253 0.337870
O O14 0.042987 0.268583 0.462775
O O15 0.588754 0.500000 0.563224
O O16 0.405211 0.500000 0.023621
#
# Coordination Sequence:
#
# PCOD8085089 Si02
#       6
#     8   8   8   8   8   8
#     4   8  15  29  47  68  96 129 163 198 241 290
#     4  11  22  36  53  74 102 133 166 202 243 293
#     4  10  19  29  48  77 102 126 160 203 247 288
#     4  11  22  35  52  75 100 129 167 205 246 292
#     4  10  20  35  53  73 100 132 165 203 247 292
#     4   9  19  33  49  70  99 135 166 196 240 293
#
# _framework density 17.619966000000002
#
# number of rings (size 3 to 8) (size 9 to 14) (size 15 to 20)
#    0.000    2.167    0.000    6.000    0.000    9.667 
#    0.000    0.000    0.000    1.000    0.000    0.000 
#    0.000    0.000    0.000    0.000    0.000    0.000 
#
# Total GULP energy -297544.052531 kJ/mol
# GULP energy per Si atom -12397.668855 kJ/mol
# Density = 1.757986 g / cm^3
# Si number density = 17.619966 Si / 1000 Ang^3
#
#
#
# Elastic Constant Matrix: (Units=GPa)
#
#
# Indices 1 2 3 4 5 6 
#
# 1 139.1020 35.3664 62.6182 0.0000 18.5071 0.0000
# 2 35.3664 49.1749 19.3791 0.0000 6.8066 0.0000
# 3 62.6182 19.3791 75.3507 0.0000 10.2716 0.0000
# 4 0.0000 0.0000 0.0000 29.1815 0.0000 3.5391
# 5 18.5071 6.8066 10.2716 0.0000 31.1296 0.0000
# 6 0.0000 0.0000 0.0000 3.5391 0.0000 26.1451
#
#
#
# Elastic Compliance Matrix: (Units=1/GPa)
#
#
# Indices 1 2 3 4 5 6 
#
# 1 0.013089 -0.005362 -0.009002 0.000000 -0.003639 0.000000
# 2 -0.005362 0.025129 -0.001772 0.000000 -0.001722 0.000000
# 3 -0.009002 -0.001772 0.021387 0.000000 -0.001318 0.000000
# 4 0.000000 0.000000 0.000000 0.034840 0.000000 -0.004716
# 5 -0.003639 -0.001722 -0.001318 0.000000 0.035098 0.000000
# 6 0.000000 0.000000 0.000000 -0.004716 0.000000 0.038887
#
#
# Mechanical properties :
#
#
# Convention : Reuss Voigt Hill
#
# Bulk Modulus (GPa) = 36.58614 55.37280 45.97947
# Shear Modulus (GPa) = 23.83073 27.04215 25.43644
#
# Velocity S-wave (km/s) = 3.68160 3.92183 3.80361
# Velocity P-wave (km/s) = 6.23549 7.21125 6.74105
#
# Compressibility (1/GPa) = 0.02733275
#
# Stress axis : x y z
#
# Youngs Moduli (GPa) = 76.40150 39.79523 46.75633
#
# Poissons Ratio (x) = 0.21339 0.42090
# Poissons Ratio (y) = 0.40968 0.08285
# Poissons Ratio (z) = 0.68776 0.07051
#
# Static dielectric constant tensor:
#      x y z
#    x 3.710210 0.000000 0.236810 
#    y 0.000000 3.369990 0.000000 
#    z 0.236810 0.000000 3.130630 
# 
# 
# High freq. dielectric constant tensor:
#      x y z
#    x 1.681590 0.000000 0.022550 
#    y 0.000000 1.690390 0.000000 
#    z 0.022550 0.000000 1.661570 
# 
# From -- ./inp_files/327307.got.cif
#   From: 2010.06.25/outbox.cif.g09.slc.cpg/sg12_164_cif.got.tgz:327307.got - 2010.06.28 00:19:55.
