data_PCOD8085570
_publ_section_title
;
Structure prediction by ZEFSAII (Michael W. Deem and Ramdas Pophale) SiO2 
 PCOD8085570
Probable space group: C 2/M
;
_chemical_formula_sum "Si O2"
_cell_formula_units_Z 64
_cell_length_a 29.118590
_cell_length_b 8.929080
_cell_length_c 15.473556
_cell_angle_alpha 90.000000
_cell_angle_beta 118.919751
_cell_angle_gamma 90.000000
_cell_volume 3521.462452
_symmetry_space_group_name_H-M "C 2/M"
_symmetry_group_IT_number 12
_symmetry_cell_setting 'monoclinic'
loop_
_space_group_symop_operation_xyz
x,y,z
-x,y,-z
-x,-y,-z
x,-y,z
1/2+x,1/2+y,z
1/2-x,1/2+y,-z
1/2-x,1/2-y,-z
1/2+x,1/2-y,z
loop_
_atom_site_type_symbol
_atom_site_label
_atom_site_fract_x
_atom_site_fract_y
_atom_site_fract_z
Si Si1 0.212248 0.826530 0.282126
Si Si2 0.590843 0.174544 0.562315
Si Si3 0.127257 0.828426 0.340054
Si Si4 0.533310 0.826322 0.331644
Si Si5 0.314650 0.325933 0.432824
Si Si6 0.280416 0.672738 0.908797
Si Si7 0.830090 0.673303 0.110636
Si Si8 0.430616 0.676992 0.281633
O O1 0.156330 0.794828 0.276309
O O2 0.255217 0.726501 0.368931
O O3 0.207232 0.780815 0.177837
O O4 0.228442 0.000000 0.307027
O O5 0.556027 0.208432 0.447037
O O6 0.649486 0.236252 0.602542
O O7 0.563636 0.256127 0.617428
O O8 0.594458 0.000000 0.587146
O O9 0.075431 0.726591 0.298572
O O10 0.167644 0.789924 0.453709
O O11 0.109041 0.000000 0.330006
O O12 0.479635 0.735418 0.269883
O O13 0.521660 0.000000 0.307249
O O14 0.319420 0.500000 0.414933
O O15 0.294422 0.500000 0.940002
O O16 0.219291 0.703091 0.871907
O O17 0.316583 0.776419 0.001285
O O18 0.846446 0.500000 0.125164
O O19 0.877351 0.771652 0.188545
O O20 0.431964 0.500000 0.287760
#
# Coordination Sequence:
#
# PCOD8085570 Si02
#       8
#     8   8   8   8   8   8   8   8
#     4  10  19  32  52  75 103 139 175 212 257 308
#     4  10  20  34  51  73 104 139 174 210 252 303
#     4   9  19  34  50  72 103 139 177 216 257 299
#     4  10  21  36  53  73 101 138 176 214 255 299
#     4  10  19  30  47  74 107 139 175 215 252 298
#     4   9  19  35  54  77 104 134 167 205 252 305
#     4  10  20  35  55  78 106 136 166 204 251 305
#     4  12  23  34  53  78 104 134 170 211 254 304
#
# _framework density 18.174268000000001
#
# number of rings (size 3 to 8) (size 9 to 14) (size 15 to 20)
#    0.000    2.000    0.000    4.125    0.000    6.000 
#    0.000    0.000    0.000    0.750    0.000    5.250 
#    0.000    0.000    0.000    0.000    0.000    0.000 
#
# Total GULP energy -396959.275832 kJ/mol
# GULP energy per Si atom -12404.977370 kJ/mol
# Density = 1.813290 g / cm^3
# Si number density = 18.174268 Si / 1000 Ang^3
#
#
#
# Elastic Constant Matrix: (Units=GPa)
#
#
# Indices 1 2 3 4 5 6 
#
# 1 110.3491 51.7276 47.1180 0.0000 -9.8827 0.0000
# 2 51.7276 99.8220 35.1192 0.0000 1.0193 0.0000
# 3 47.1180 35.1192 63.2186 0.0000 -11.8508 0.0000
# 4 0.0000 0.0000 0.0000 27.8924 0.0000 3.1278
# 5 -9.8827 1.0193 -11.8508 0.0000 25.0886 0.0000
# 6 0.0000 0.0000 0.0000 3.1278 0.0000 32.4871
#
#
#
# Elastic Compliance Matrix: (Units=1/GPa)
#
#
# Indices 1 2 3 4 5 6 
#
# 1 0.015025 -0.005003 -0.007978 0.000000 0.002353 0.000000
# 2 -0.005003 0.014522 -0.005286 0.000000 -0.005058 0.000000
# 3 -0.007978 -0.005286 0.026498 0.000000 0.009589 0.000000
# 4 0.000000 0.000000 0.000000 0.036243 0.000000 -0.003489
# 5 0.002353 -0.005058 0.009589 0.000000 0.045521 0.000000
# 6 0.000000 0.000000 0.000000 -0.003489 0.000000 0.031117
#
#
# Mechanical properties :
#
#
# Convention : Reuss Voigt Hill
#
# Bulk Modulus (GPa) = 51.25470 60.14658 55.70064
# Shear Modulus (GPa) = 23.58893 26.38862 24.98878
#
# Velocity S-wave (km/s) = 3.60659 3.81462 3.71206
# Velocity P-wave (km/s) = 6.75325 7.25037 7.00622
#
# Compressibility (1/GPa) = 0.01951040
#
# Stress axis : x y z
#
# Youngs Moduli (GPa) = 66.55787 68.86136 37.73834
#
# Poissons Ratio (x) = 0.34452 0.30106
# Poissons Ratio (y) = 0.33299 0.19950
# Poissons Ratio (z) = 0.53097 0.36403
#
# Static dielectric constant tensor:
#      x y z
#    x 3.400960 0.000000 -0.085450 
#    y 0.000000 3.395400 0.000000 
#    z -0.085450 0.000000 3.140630 
# 
# 
# High freq. dielectric constant tensor:
#      x y z
#    x 1.705760 0.000000 -0.002470 
#    y 0.000000 1.712900 0.000000 
#    z -0.002470 0.000000 1.678130 
# 
# From -- ./inp_files/244160.got.cif
#   From: 2010.06.25/outbox.cif.g09.slc.cpg/sg12_123_cif.got.tgz:244160.got - 2010.06.28 00:19:55.
