data_PCOD8085716
_publ_section_title
;
Structure prediction by ZEFSAII (Michael W. Deem and Ramdas Pophale) SiO2 
 PCOD8085716
Probable space group: C 2/M
;
_chemical_formula_sum "Si O2"
_cell_formula_units_Z 56
_cell_length_a 22.940137
_cell_length_b 9.012455
_cell_length_c 18.925067
_cell_angle_alpha 90.000000
_cell_angle_beta 52.594861
_cell_angle_gamma 90.000000
_cell_volume 3108.092862
_symmetry_space_group_name_H-M "C 2/M"
_symmetry_group_IT_number 12
_symmetry_cell_setting 'monoclinic'
loop_
_space_group_symop_operation_xyz
x,y,z
-x,y,-z
-x,-y,-z
x,-y,z
1/2+x,1/2+y,z
1/2-x,1/2+y,-z
1/2-x,1/2-y,-z
1/2+x,1/2-y,z
loop_
_atom_site_type_symbol
_atom_site_label
_atom_site_fract_x
_atom_site_fract_y
_atom_site_fract_z
Si Si1 0.851851 0.174046 0.027954
Si Si2 0.433826 0.824885 0.249124
Si Si3 0.205722 0.172255 0.183498
Si Si4 0.578289 0.673362 0.170324
Si Si5 0.285544 0.676650 0.406168
Si Si6 0.765040 0.662935 0.704555
Si Si7 0.094836 0.163832 0.866129
O O1 0.774231 0.252729 0.094934
O O2 0.910861 0.213683 0.047180
O O3 0.835348 0.000000 0.040919
O O4 0.885252 0.226787 0.929621
O O5 0.505853 0.770320 0.237398
O O6 0.365598 0.744645 0.335773
O O7 0.442418 0.779163 0.160079
O O8 0.424178 0.000000 0.262473
O O9 0.132671 0.209710 0.194182
O O10 0.192837 0.226915 0.273569
O O11 0.222715 0.000000 0.172897
O O12 0.557881 0.500000 0.182263
O O13 0.293194 0.500000 0.409198
O O14 0.250000 0.750000 0.500000
O O15 0.232475 0.716600 0.378814
O O16 0.801015 0.500000 0.685182
O O17 0.680759 0.654427 0.788322
O O18 0.059200 0.000000 0.880677
#
# Coordination Sequence:
#
# PCOD8085716 Si02
#       7
#     8   8   8   8   8   8   8
#     4   9  18  32  50  69  94 133 177 215 255 298
#     4  11  22  34  50  74 102 133 166 204 252 301
#     4  10  19  30  49  74 100 132 173 217 252 283
#     4  10  21  35  48  67  99 139 176 211 252 297
#     4  10  20  36  59  84 106 128 155 194 243 299
#     4   8  16  31  51  74 101 132 162 193 240 297
#     4   8  15  30  49  68  94 131 169 207 251 300
#
# _framework density 18.017479999999999
#
# number of rings (size 3 to 8) (size 9 to 14) (size 15 to 20)
#    0.000    2.571    0.000    4.286    0.000    8.000 
#    0.000    2.857    0.000    0.857    0.000    6.000 
#    0.000    0.000    0.000    0.000    0.000    0.000 
#
# Total GULP energy -347112.351497 kJ/mol
# GULP energy per Si atom -12396.869696 kJ/mol
# Density = 1.797647 g / cm^3
# Si number density = 18.017480 Si / 1000 Ang^3
#
#
#
# Elastic Constant Matrix: (Units=GPa)
#
#
# Indices 1 2 3 4 5 6 
#
# 1 113.1046 61.2239 54.5827 0.0010 8.0909 -0.0008
# 2 61.2239 98.6779 48.4160 0.0015 0.6678 -0.0012
# 3 54.5827 48.4160 86.1661 0.0003 18.7457 -0.0003
# 4 0.0010 0.0015 0.0003 25.7148 0.0000 1.0542
# 5 8.0909 0.6678 18.7457 0.0000 24.4297 0.0000
# 6 -0.0008 -0.0012 -0.0003 1.0542 0.0000 30.9811
#
#
#
# Elastic Compliance Matrix: (Units=1/GPa)
#
#
# Indices 1 2 3 4 5 6 
#
# 1 0.015277 -0.006579 -0.005905 0.000000 -0.000349 0.000000
# 2 -0.006579 0.017828 -0.007464 -0.000001 0.007419 0.000000
# 3 -0.005905 -0.007464 0.022891 0.000000 -0.015406 0.000000
# 4 0.000000 -0.000001 0.000000 0.038942 0.000000 -0.001325
# 5 -0.000349 0.007419 -0.015406 0.000000 0.052668 0.000000
# 6 0.000000 0.000000 0.000000 -0.001325 0.000000 0.032323
#
#
# Mechanical properties :
#
#
# Convention : Reuss Voigt Hill
#
# Bulk Modulus (GPa) = 62.10775 69.59932 65.85353
# Shear Modulus (GPa) = 22.20334 25.14018 23.67176
#
# Velocity S-wave (km/s) = 3.51425 3.73945 3.62860
# Velocity P-wave (km/s) = 7.14229 7.57346 7.36103
#
# Compressibility (1/GPa) = 0.01610105
#
# Stress axis : x y z
#
# Youngs Moduli (GPa) = 65.45701 56.09254 43.68468
#
# Poissons Ratio (x) = 0.36903 0.25795
# Poissons Ratio (y) = 0.43064 0.32605
# Poissons Ratio (z) = 0.38652 0.41865
#
# Static dielectric constant tensor:
#      x y z
#    x 3.538980 0.000000 0.352920 
#    y 0.000000 3.326720 0.000000 
#    z 0.352920 0.000000 3.248680 
# 
# 
# High freq. dielectric constant tensor:
#      x y z
#    x 1.699340 0.000000 0.015550 
#    y 0.000000 1.695200 0.000000 
#    z 0.015550 0.000000 1.669690 
# 
# From -- ./inp_files/319638.got.cif
#   From: 2010.06.25/outbox.cif.g09.slc.cpg/sg12_160_cif.got.tgz:319638.got - 2010.06.28 00:19:55.
