data_PCOD8085388
_publ_section_title
;
Structure prediction by ZEFSAII (Michael W. Deem and Ramdas Pophale) SiO2 
 PCOD8085388
Probable space group: C 2/M
;
_chemical_formula_sum "Si O2"
_cell_formula_units_Z 64
_cell_length_a 7.563415
_cell_length_b 25.448861
_cell_length_c 24.547847
_cell_angle_alpha 90.000000
_cell_angle_beta 126.041756
_cell_angle_gamma 90.000000
_cell_volume 3820.561561
_symmetry_space_group_name_H-M "C 2/M"
_symmetry_group_IT_number 12
_symmetry_cell_setting 'monoclinic'
loop_
_space_group_symop_operation_xyz
x,y,z
-x,y,-z
-x,-y,-z
x,-y,z
1/2+x,1/2+y,z
1/2-x,1/2+y,-z
1/2-x,1/2-y,-z
1/2+x,1/2-y,z
loop_
_atom_site_type_symbol
_atom_site_label
_atom_site_fract_x
_atom_site_fract_y
_atom_site_fract_z
Si Si1 0.400365 0.302620 0.853490
Si Si2 0.003251 0.685757 0.139833
Si Si3 0.255954 0.558184 0.054715
Si Si4 0.184827 0.839561 0.992986
Si Si5 0.326501 0.437423 0.671092
Si Si6 0.099756 0.882408 0.812692
Si Si7 0.339213 0.937534 0.575103
Si Si8 0.445724 0.437522 0.574766
O O1 0.380524 0.242130 0.833087
O O2 0.430268 0.339128 0.805956
O O3 0.189016 0.321772 0.850175
O O4 0.632688 0.307834 0.928102
O O5 0.195028 0.643362 0.182045
O O6 0.915076 0.676666 0.061703
O O7 0.359322 0.500000 0.064878
O O8 0.315313 0.578287 0.125495
O O9 0.341396 0.598322 0.024247
O O10 0.000000 0.555168 0.000000
O O11 0.000000 0.821202 0.000000
O O12 0.333015 0.500000 0.674140
O O13 0.469853 0.416215 0.745839
O O14 0.418407 0.415287 0.630517
O O15 0.079491 0.415547 0.631239
O O16 0.250879 0.917758 0.500236
O O17 0.177136 0.917318 0.593133
O O18 0.344028 0.000000 0.575183
O O19 0.441082 0.500000 0.575130
#
# Coordination Sequence:
#
# PCOD8085388 Si02
#       8
#     8   8   8   8   8   8   8   8
#     4  10  21  33  53  72  92 118 153 206 271 309
#     4  11  19  35  51  72  93 118 153 210 263 311
#     4  10  19  33  50  65  92 133 171 204 237 279
#     4   9  19  32  50  75  92 112 156 207 259 307
#     4  10  19  30  46  70 105 143 173 197 230 283
#     4  11  22  34  49  71 101 132 167 204 246 301
#     4   8  14  26  46  71 102 133 167 205 238 275
#     4   8  14  26  46  72  99 134 170 202 239 275
#
# _framework density 16.751463000000001
#
# number of rings (size 3 to 8) (size 9 to 14) (size 15 to 20)
#    0.000    2.375    2.500    1.875    0.000    2.750 
#    0.000    0.000    0.000    1.500    0.000    0.000 
#    0.000    4.000    0.000    0.000    0.000    0.000 
#
# Total GULP energy -396559.245944 kJ/mol
# GULP energy per Si atom -12392.476436 kJ/mol
# Density = 1.671334 g / cm^3
# Si number density = 16.751463 Si / 1000 Ang^3
#
#
#
# Elastic Constant Matrix: (Units=GPa)
#
#
# Indices 1 2 3 4 5 6 
#
# 1 92.8061 14.7605 46.3211 0.0000 1.6183 0.0000
# 2 14.7605 54.7792 21.6440 0.0000 1.0811 0.0000
# 3 46.3211 21.6440 96.4249 0.0000 3.5720 0.0000
# 4 0.0000 0.0000 0.0000 -32.2394 0.0000 13.4824
# 5 1.6183 1.0811 3.5720 0.0000 16.2043 0.0000
# 6 0.0000 0.0000 0.0000 13.4824 0.0000 17.5648
#
#
#
# Elastic Compliance Matrix: (Units=1/GPa)
#
#
# Indices 1 2 3 4 5 6 
#
# 1 0.014251 -0.001246 -0.006570 0.000000 0.000108 0.000000
# 2 -0.001246 0.020143 -0.003909 0.000000 -0.000358 0.000000
# 3 -0.006570 -0.003909 0.014489 0.000000 -0.002277 0.000000
# 4 0.000000 0.000000 0.000000 -0.023481 0.000000 0.018023
# 5 0.000108 -0.000358 -0.002277 0.000000 0.062227 0.000000
# 6 0.000000 0.000000 0.000000 0.018023 0.000000 0.043098
#
#
# Mechanical properties :
#
#
# Convention : Reuss Voigt Hill
#
# Bulk Modulus (GPa) = 39.32240 45.49570 42.40905
# Shear Modulus (GPa) = 30.74006 11.05826 20.89916
#
# Velocity S-wave (km/s) = 4.28842 2.57210 3.53597
# Velocity P-wave (km/s) = 6.93150 6.00326 6.48401
#
# Compressibility (1/GPa) = 0.02543080
#
# Stress axis : x y z
#
# Youngs Moduli (GPa) = 70.17193 49.64598 69.01869
#
# Poissons Ratio (x) = 0.06186 0.45346
# Poissons Ratio (y) = 0.08744 0.26982
# Poissons Ratio (z) = 0.46104 0.19409
#
# Static dielectric constant tensor:
#      x y z
#    x 3.307130 0.000000 -0.027710 
#    y 0.000000 3.007420 0.000000 
#    z -0.027710 0.000000 3.113630 
# 
# 
# High freq. dielectric constant tensor:
#      x y z
#    x 1.653320 0.000000 -0.001890 
#    y 0.000000 1.608520 0.000000 
#    z -0.001890 0.000000 1.628880 
# 
# From -- ./inp_files/302657.got.cif
#   From: 2010.06.25/outbox.cif.g09.slc.cpg/sg12_152_cif.got.tgz:302657.got - 2010.06.28 00:19:55.
