data_PCOD8085840
_publ_section_title
;
Structure prediction by ZEFSAII (Michael W. Deem and Ramdas Pophale) SiO2 
 PCOD8085840
Probable space group: C 2/M
;
_chemical_formula_sum "Si O2"
_cell_formula_units_Z 40
_cell_length_a 12.080026
_cell_length_b 14.153451
_cell_length_c 17.813222
_cell_angle_alpha 90.000000
_cell_angle_beta 41.630573
_cell_angle_gamma 90.000000
_cell_volume 2023.267869
_symmetry_space_group_name_H-M "C 2/M"
_symmetry_group_IT_number 12
_symmetry_cell_setting 'monoclinic'
loop_
_space_group_symop_operation_xyz
x,y,z
-x,y,-z
-x,-y,-z
x,-y,z
1/2+x,1/2+y,z
1/2-x,1/2+y,-z
1/2-x,1/2-y,-z
1/2+x,1/2-y,z
loop_
_atom_site_type_symbol
_atom_site_label
_atom_site_fract_x
_atom_site_fract_y
_atom_site_fract_z
Si Si1 0.747288 0.651032 0.462934
Si Si2 0.394984 0.107946 0.126479
Si Si3 0.931843 0.603835 0.617435
Si Si4 0.171193 0.252714 0.720688
Si Si5 0.510501 0.603609 0.291603
O O1 0.750000 0.750000 0.500000
O O2 0.735183 0.669340 0.379647
O O3 0.587505 0.598031 0.578739
O O4 0.920375 0.599889 0.396589
O O5 0.443679 0.185010 0.165174
O O6 0.201382 0.125178 0.209993
O O7 0.431229 0.000000 0.134167
O O8 0.500000 0.132651 0.000000
O O9 0.845515 0.500000 0.662478
O O10 0.801828 0.687863 0.701150
O O11 0.000000 0.625173 0.500000
O O12 0.056497 0.183337 0.730184
O O13 0.491692 0.500000 0.263206
#
# Coordination Sequence:
#
# PCOD8085840 Si02
#       5
#     8   8   8   8   8
#     4  10  19  30  50  86 118 143 177 215 264 329
#     4  10  24  43  58  76 105 145 192 240 285 320
#     4  11  20  32  53  84 123 153 173 212 272 335
#     4  11  21  35  60  82 112 146 187 225 268 334
#     4  10  20  35  56  82 113 144 178 221 275 337
#
# _framework density 19.769997
#
# number of rings (size 3 to 8) (size 9 to 14) (size 15 to 20)
#    0.000    1.600    4.000    3.600    0.000    2.400 
#    0.000    2.000    0.000    2.400    0.000    0.000 
#    0.000    0.000    0.000    0.000    0.000    0.000 
#
# Total GULP energy -247829.892011 kJ/mol
# GULP energy per Si atom -12391.494601 kJ/mol
# Density = 1.972500 g / cm^3
# Si number density = 19.769997 Si / 1000 Ang^3
#
#
#
# Elastic Constant Matrix: (Units=GPa)
#
#
# Indices 1 2 3 4 5 6 
#
# 1 55.0238 29.3297 31.6777 -0.0001 1.7634 0.0000
# 2 29.3297 121.5482 42.3150 -0.0002 25.2400 0.0002
# 3 31.6777 42.3150 74.0703 -0.0008 22.1413 0.0006
# 4 -0.0001 -0.0002 -0.0008 20.6295 0.0003 -7.3123
# 5 1.7634 25.2400 22.1413 0.0003 21.6842 -0.0002
# 6 0.0000 0.0002 0.0006 -7.3123 -0.0002 17.2742
#
#
#
# Elastic Compliance Matrix: (Units=1/GPa)
#
#
# Indices 1 2 3 4 5 6 
#
# 1 0.029465 -0.005996 -0.015179 -0.000001 0.020082 0.000000
# 2 -0.005996 0.012734 -0.000613 0.000000 -0.013709 0.000000
# 3 -0.015179 -0.000613 0.028441 0.000001 -0.027093 -0.000001
# 4 -0.000001 0.000000 0.000001 0.057032 -0.000002 0.024142
# 5 0.020082 -0.013709 -0.027093 -0.000002 0.088105 0.000001
# 6 0.000000 0.000000 -0.000001 0.024142 0.000001 0.068109
#
#
# Mechanical properties :
#
#
# Convention : Reuss Voigt Hill
#
# Bulk Modulus (GPa) = 36.94731 50.80970 43.87850
# Shear Modulus (GPa) = 14.85965 21.73891 18.29928
#
# Velocity S-wave (km/s) = 2.74455 3.31961 3.04568
# Velocity P-wave (km/s) = 5.36401 6.35997 5.88310
#
# Compressibility (1/GPa) = 0.02706557
#
# Stress axis : x y z
#
# Youngs Moduli (GPa) = 33.93866 78.53030 35.16052
#
# Poissons Ratio (x) = 0.47084 0.53370
# Poissons Ratio (y) = 0.20348 0.02154
# Poissons Ratio (z) = 0.51515 0.04810
#
# Static dielectric constant tensor:
#      x y z
#    x 3.118950 0.000000 -0.046240 
#    y 0.000000 4.165520 0.000000 
#    z -0.046240 0.000000 3.807940 
# 
# 
# High freq. dielectric constant tensor:
#      x y z
#    x 1.753280 0.000000 -0.006600 
#    y 0.000000 1.794390 0.000000 
#    z -0.006600 0.000000 1.731630 
# 
# From -- ./inp_files/129134.got.cif
#   From: 2010.06.25/outbox.cif.g09.slc.cpg/sg12_65_cif.got.tgz:129134.got - 2010.06.28 00:19:55.
