data_PCOD8085386
_publ_section_title
;
Structure prediction by ZEFSAII (Michael W. Deem and Ramdas Pophale) SiO2 
 PCOD8085386
Probable space group: C 2/M
;
_chemical_formula_sum "Si O2"
_cell_formula_units_Z 64
_cell_length_a 32.546278
_cell_length_b 9.317829
_cell_length_c 15.107836
_cell_angle_alpha 90.000000
_cell_angle_beta 132.906300
_cell_angle_gamma 90.000000
_cell_volume 3355.884540
_symmetry_space_group_name_H-M "C 2/M"
_symmetry_group_IT_number 12
_symmetry_cell_setting 'monoclinic'
loop_
_space_group_symop_operation_xyz
x,y,z
-x,y,-z
-x,-y,-z
x,-y,z
1/2+x,1/2+y,z
1/2-x,1/2+y,-z
1/2-x,1/2-y,-z
1/2+x,1/2-y,z
loop_
_atom_site_type_symbol
_atom_site_label
_atom_site_fract_x
_atom_site_fract_y
_atom_site_fract_z
Si Si1 0.417956 0.168079 0.640941
Si Si2 0.404756 0.339132 0.798118
Si Si3 0.106507 0.665854 0.038863
Si Si4 0.275715 0.346721 0.609344
Si Si5 0.732070 0.159651 0.238999
Si Si6 0.643957 0.334947 0.598899
Si Si7 0.559812 0.668507 0.625846
Si Si8 0.457109 0.164915 0.227438
O O1 0.427619 0.243391 0.750534
O O2 0.369757 0.242973 0.510036
O O3 0.476158 0.186180 0.674061
O O4 0.403182 0.000000 0.633846
O O5 0.432653 0.500000 0.842596
O O6 0.411849 0.258117 0.902435
O O7 0.340320 0.360884 0.683762
O O8 0.094016 0.500000 0.043657
O O9 0.171983 0.684499 0.103041
O O10 0.068755 0.721077 0.902764
O O11 0.245673 0.500000 0.561019
O O12 0.250000 0.250000 0.500000
O O13 0.262429 0.283563 0.683493
O O14 0.790786 0.176506 0.271837
O O15 0.730783 0.000000 0.280239
O O16 0.628658 0.500000 0.553704
O O17 0.607203 0.279149 0.626887
O O18 0.500000 0.715922 0.500000
O O19 0.562809 0.500000 0.647532
O O20 0.570796 0.745871 0.734714
O O21 0.440337 0.000000 0.216567
#
# Coordination Sequence:
#
# PCOD8085386 Si02
#       8
#     8   8   8   8   8   8   8   8
#     4  11  22  34  52  80 110 142 178 220 269 317
#     4  10  21  35  51  75 107 143 180 221 263 310
#     4   9  19  38  58  76 104 144 184 219 260 310
#     4  10  19  30  46  70 102 137 176 217 260 310
#     4   9  18  33  54  75 100 137 176 216 261 308
#     4  10  20  35  55  82 111 137 174 222 268 318
#     4  10  20  36  58  82 109 141 173 213 269 323
#     4  10  22  38  57  80 107 140 179 222 265 316
#
# _framework density 19.070978
#
# number of rings (size 3 to 8) (size 9 to 14) (size 15 to 20)
#    0.000    2.125    1.250    1.875    0.000    7.250 
#    0.000    3.125    0.000    0.000    0.000    0.000 
#    0.000    0.000    0.000    0.000    0.000    0.000 
#
# Total GULP energy -396533.203566 kJ/mol
# GULP energy per Si atom -12391.662611 kJ/mol
# Density = 1.902757 g / cm^3
# Si number density = 19.070978 Si / 1000 Ang^3
#
#
#
# Elastic Constant Matrix: (Units=GPa)
#
#
# Indices 1 2 3 4 5 6 
#
# 1 78.1587 33.4835 17.6141 0.0000 -5.8699 0.0000
# 2 33.4835 98.2231 27.9814 0.0000 -19.5617 0.0000
# 3 17.6141 27.9814 64.7138 0.0000 -18.7077 0.0000
# 4 0.0000 0.0000 0.0000 32.4219 0.0000 -16.2103
# 5 -5.8699 -19.5617 -18.7077 0.0000 24.4403 0.0000
# 6 0.0000 0.0000 0.0000 -16.2103 0.0000 42.6175
#
#
#
# Elastic Compliance Matrix: (Units=1/GPa)
#
#
# Indices 1 2 3 4 5 6 
#
# 1 0.015340 -0.004919 -0.002724 0.000000 -0.002338 0.000000
# 2 -0.004919 0.014202 -0.002385 0.000000 0.008360 0.000000
# 3 -0.002724 -0.002385 0.021169 0.000000 0.013640 0.000000
# 4 0.000000 0.000000 0.000000 0.038087 0.000000 0.014487
# 5 -0.002338 0.008360 0.013640 0.000000 0.057486 0.000000
# 6 0.000000 0.000000 0.000000 0.014487 0.000000 0.028975
#
#
# Mechanical properties :
#
#
# Convention : Reuss Voigt Hill
#
# Bulk Modulus (GPa) = 32.62221 44.36151 38.49186
# Shear Modulus (GPa) = 24.32691 30.69706 27.51198
#
# Velocity S-wave (km/s) = 3.57543 4.01636 3.80229
# Velocity P-wave (km/s) = 5.84703 6.69477 6.28521
#
# Compressibility (1/GPa) = 0.03065397
#
# Stress axis : x y z
#
# Youngs Moduli (GPa) = 65.18849 70.41182 47.23974
#
# Poissons Ratio (x) = 0.34635 0.12870
# Poissons Ratio (y) = 0.32065 0.11268
# Poissons Ratio (z) = 0.17760 0.16795
#
# Static dielectric constant tensor:
#      x y z
#    x 3.511210 0.000000 0.172790 
#    y 0.000000 3.630090 0.000000 
#    z 0.172790 0.000000 3.235430 
# 
# 
# High freq. dielectric constant tensor:
#      x y z
#    x 1.735710 0.000000 0.012100 
#    y 0.000000 1.748780 0.000000 
#    z 0.012100 0.000000 1.726820 
# 
# From -- ./inp_files/250010.got.cif
#   From: 2010.06.25/outbox.cif.g09.slc.cpg/sg12_126_cif.got.tgz:250010.got - 2010.06.28 00:19:55.
