data_PCOD8085637
_publ_section_title
;
Structure prediction by ZEFSAII (Michael W. Deem and Ramdas Pophale) SiO2 
 PCOD8085637
Probable space group: C 2/M
;
_chemical_formula_sum "Si O2"
_cell_formula_units_Z 56
_cell_length_a 19.139164
_cell_length_b 8.694788
_cell_length_c 18.300777
_cell_angle_alpha 90.000000
_cell_angle_beta 86.739329
_cell_angle_gamma 90.000000
_cell_volume 3040.519820
_symmetry_space_group_name_H-M "C 2/M"
_symmetry_group_IT_number 12
_symmetry_cell_setting 'monoclinic'
loop_
_space_group_symop_operation_xyz
x,y,z
-x,y,-z
-x,-y,-z
x,-y,z
1/2+x,1/2+y,z
1/2-x,1/2+y,-z
1/2-x,1/2-y,-z
1/2+x,1/2-y,z
loop_
_atom_site_type_symbol
_atom_site_label
_atom_site_fract_x
_atom_site_fract_y
_atom_site_fract_z
Si Si1 0.577328 0.820584 0.640776
Si Si2 0.008572 0.823478 0.079678
Si Si3 0.827697 0.182525 0.488713
Si Si4 0.901510 0.818901 0.204212
Si Si5 0.454000 0.330452 0.574663
Si Si6 0.659847 0.324368 0.045647
Si Si7 0.803450 0.679424 0.102215
O O1 0.634758 0.737143 0.587328
O O2 0.592961 0.774033 0.722027
O O3 0.496087 0.778730 0.627792
O O4 0.587461 0.000000 0.628817
O O5 0.089691 0.806892 0.097784
O O6 0.961274 0.750492 0.146103
O O7 0.983925 0.000000 0.074439
O O8 0.000000 0.745868 0.000000
O O9 0.750000 0.250000 0.500000
O O10 0.876750 0.232433 0.555445
O O11 0.822271 0.000000 0.486285
O O12 0.827917 0.778624 0.170290
O O13 0.908465 0.000000 0.219439
O O14 0.500000 0.344147 0.500000
O O15 0.446594 0.500000 0.611013
O O16 0.671292 0.500000 0.019133
O O17 0.723148 0.271533 0.093420
O O18 0.652928 0.222393 0.973045
O O19 0.812282 0.500000 0.118913
#
# Coordination Sequence:
#
# PCOD8085637 Si02
#       7
#     8   8   8   8   8   8   8
#     4  11  22  36  55  81 113 146 184 227 274 327
#     4   9  16  30  53  76  94 126 179 224 258 313
#     4  10  20  36  60  89 117 146 183 223 265 318
#     4  11  21  35  55  74 102 141 180 224 276 329
#     4   8  16  33  56  81 110 144 181 217 259 318
#     4   9  17  32  51  71  96 129 171 217 266 323
#     4  10  19  30  48  74 102 131 168 217 270 324
#
# _framework density 18.417904
#
# number of rings (size 3 to 8) (size 9 to 14) (size 15 to 20)
#    0.000    2.286    1.429    3.429    0.000    3.714 
#    0.000    3.571    0.000    6.857    0.000    0.000 
#    0.000    0.000    0.000    0.000    0.000    0.000 
#
# Total GULP energy -347042.277125 kJ/mol
# GULP energy per Si atom -12394.367040 kJ/mol
# Density = 1.837598 g / cm^3
# Si number density = 18.417904 Si / 1000 Ang^3
#
#
#
# Elastic Constant Matrix: (Units=GPa)
#
#
# Indices 1 2 3 4 5 6 
#
# 1 125.9461 31.2267 56.5871 0.0000 15.3727 0.0000
# 2 31.2267 58.3740 23.9957 0.0000 6.8373 0.0000
# 3 56.5871 23.9957 94.7255 0.0000 13.4331 0.0000
# 4 0.0000 0.0000 0.0000 26.1271 0.0000 4.4125
# 5 15.3727 6.8373 13.4331 0.0000 26.6190 0.0000
# 6 0.0000 0.0000 0.0000 4.4125 0.0000 28.4342
#
#
#
# Elastic Compliance Matrix: (Units=1/GPa)
#
#
# Indices 1 2 3 4 5 6 
#
# 1 0.011751 -0.003599 -0.005684 0.000000 -0.002994 0.000000
# 2 -0.003599 0.020401 -0.002767 0.000000 -0.001765 0.000000
# 3 -0.005684 -0.002767 0.015173 0.000000 -0.003664 0.000000
# 4 0.000000 0.000000 0.000000 0.039305 0.000000 -0.006099
# 5 -0.002994 -0.001765 -0.003664 0.000000 0.041598 0.000000
# 6 0.000000 0.000000 0.000000 -0.006099 0.000000 0.036115
#
#
# Mechanical properties :
#
#
# Convention : Reuss Voigt Hill
#
# Bulk Modulus (GPa) = 43.05914 55.85162 49.45538
# Shear Modulus (GPa) = 25.48613 27.38513 26.43563
#
# Velocity S-wave (km/s) = 3.72394 3.86019 3.79267
# Velocity P-wave (km/s) = 6.47457 7.08932 6.78891
#
# Compressibility (1/GPa) = 0.02322388
#
# Stress axis : x y z
#
# Youngs Moduli (GPa) = 85.09632 49.01812 65.90768
#
# Poissons Ratio (x) = 0.17643 0.37460
# Poissons Ratio (y) = 0.30628 0.18240
# Poissons Ratio (z) = 0.48366 0.13566
#
# Static dielectric constant tensor:
#      x y z
#    x 3.729220 0.000000 0.211490 
#    y 0.000000 3.292940 0.000000 
#    z 0.211490 0.000000 3.195620 
# 
# 
# High freq. dielectric constant tensor:
#      x y z
#    x 1.723700 0.000000 0.018730 
#    y 0.000000 1.703190 0.000000 
#    z 0.018730 0.000000 1.686090 
# 
# From -- ./inp_files/280328.got.cif
#   From: 2010.06.25/outbox.cif.g09.slc.cpg/sg12_141_cif.got.tgz:280328.got - 2010.06.28 00:19:55.
