data_PCOD8085592
_publ_section_title
;
Structure prediction by ZEFSAII (Michael W. Deem and Ramdas Pophale) SiO2 
 PCOD8085592
Probable space group: C 2/M
;
_chemical_formula_sum "Si O2"
_cell_formula_units_Z 64
_cell_length_a 24.708880
_cell_length_b 9.380757
_cell_length_c 17.780623
_cell_angle_alpha 90.000000
_cell_angle_beta 77.448603
_cell_angle_gamma 90.000000
_cell_volume 4022.841128
_symmetry_space_group_name_H-M "C 2/M"
_symmetry_group_IT_number 12
_symmetry_cell_setting 'monoclinic'
loop_
_space_group_symop_operation_xyz
x,y,z
-x,y,-z
-x,-y,-z
x,-y,z
1/2+x,1/2+y,z
1/2-x,1/2+y,-z
1/2-x,1/2-y,-z
1/2+x,1/2-y,z
loop_
_atom_site_type_symbol
_atom_site_label
_atom_site_fract_x
_atom_site_fract_y
_atom_site_fract_z
Si Si1 0.199961 0.833419 0.674106
Si Si2 0.097548 0.834879 0.323245
Si Si3 0.018556 0.836025 0.578850
Si Si4 0.167715 0.165633 0.164739
Si Si5 0.304137 0.663695 0.000745
Si Si6 0.177029 0.335347 0.407605
Si Si7 0.278186 0.335087 0.166662
Si Si8 0.627504 0.166340 0.581851
O O1 0.261181 0.783930 0.630551
O O2 0.191237 0.797170 0.764961
O O3 0.154473 0.741892 0.645126
O O4 0.190743 0.000000 0.659260
O O5 0.115779 0.791972 0.232923
O O6 0.132415 0.750349 0.373815
O O7 0.032629 0.800636 0.350422
O O8 0.108631 0.000000 0.337222
O O9 0.067314 0.731282 0.586646
O O10 0.000000 0.803200 0.500000
O O11 0.038028 0.000000 0.581074
O O12 0.221573 0.248649 0.176426
O O13 0.181658 0.000000 0.170614
O O14 0.152724 0.199768 0.080543
O O15 0.287426 0.500000 0.999876
O O16 0.320573 0.697225 0.083059
O O17 0.250000 0.750000 0.000000
O O18 0.169268 0.500000 0.388952
O O19 0.166780 0.306404 0.498483
O O20 0.260476 0.500000 0.173565
O O21 0.620628 0.000000 0.601121
#
# Coordination Sequence:
#
# PCOD8085592 Si02
#       8
#     8   8   8   8   8   8   8   8
#     4  10  20  33  48  67  94 127 158 187 224 275
#     4  10  19  30  48  71  93 123 157 188 229 274
#     4  10  20  35  52  68  89 121 157 193 235 279
#     4   9  16  26  42  67  96 121 149 187 225 265
#     4   8  14  24  39  62  92 122 149 179 218 266
#     4  10  20  33  48  68  94 123 154 189 230 274
#     4   9  16  27  44  65  92 126 155 179 219 274
#     4  11  23  35  49  69  91 120 158 199 237 269
#
# _framework density 15.909153
#
# number of rings (size 3 to 8) (size 9 to 14) (size 15 to 20)
#    0.000    2.375    2.500    0.750    0.000    2.250 
#    0.000    0.000    0.000    0.000    0.000    0.875 
#    0.000    7.000    0.000    0.000    0.000    0.000 
#
# Total GULP energy -396538.996799 kJ/mol
# GULP energy per Si atom -12391.843650 kJ/mol
# Density = 1.587294 g / cm^3
# Si number density = 15.909153 Si / 1000 Ang^3
#
#
#
# Elastic Constant Matrix: (Units=GPa)
#
#
# Indices 1 2 3 4 5 6 
#
# 1 63.7643 36.5360 43.8504 0.0000 7.3850 0.0000
# 2 36.5360 52.2629 42.0900 0.0000 6.1487 0.0000
# 3 43.8504 42.0900 139.4426 0.0000 1.9915 0.0000
# 4 0.0000 0.0000 0.0000 15.3083 0.0000 1.9022
# 5 7.3850 6.1487 1.9915 0.0000 17.4437 0.0000
# 6 0.0000 0.0000 0.0000 1.9022 0.0000 23.9048
#
#
#
# Elastic Compliance Matrix: (Units=1/GPa)
#
#
# Indices 1 2 3 4 5 6 
#
# 1 0.028155 -0.015755 -0.004014 0.000000 -0.005908 0.000000
# 2 -0.015755 0.035277 -0.005621 0.000000 -0.005123 0.000000
# 3 -0.004014 -0.005621 0.010094 0.000000 0.002528 0.000000
# 4 0.000000 0.000000 0.000000 0.065977 0.000000 -0.005250
# 5 -0.005908 -0.005123 0.002528 0.000000 0.061346 0.000000
# 6 0.000000 0.000000 0.000000 -0.005250 0.000000 0.042250
#
#
# Mechanical properties :
#
#
# Convention : Reuss Voigt Hill
#
# Bulk Modulus (GPa) = 43.96113 55.60251 49.78182
# Shear Modulus (GPa) = 16.58597 20.19758 18.39177
#
# Velocity S-wave (km/s) = 3.23235 3.56695 3.40376
# Velocity P-wave (km/s) = 6.45161 7.21041 6.84154
#
# Compressibility (1/GPa) = 0.02274737
#
# Stress axis : x y z
#
# Youngs Moduli (GPa) = 35.51826 28.34693 99.06741
#
# Poissons Ratio (x) = 0.44659 0.39765
# Poissons Ratio (y) = 0.55958 0.55683
# Poissons Ratio (z) = 0.14257 0.15933
#
# Static dielectric constant tensor:
#      x y z
#    x 2.606110 0.000000 -0.158250 
#    y 0.000000 2.644280 0.000000 
#    z -0.158250 0.000000 3.728640 
# 
# 
# High freq. dielectric constant tensor:
#      x y z
#    x 1.565460 0.000000 -0.006790 
#    y 0.000000 1.615570 0.000000 
#    z -0.006790 0.000000 1.630530 
# 
# From -- ./inp_files/287606.got.cif
#   From: 2010.06.25/outbox.cif.g09.slc.cpg/sg12_144_cif.got.tgz:287606.got - 2010.06.28 00:19:55.
