data_PCOD8085473
_publ_section_title
;
Structure prediction by ZEFSAII (Michael W. Deem and Ramdas Pophale) SiO2 
 PCOD8085473
Probable space group: C 2/M
;
_chemical_formula_sum "Si O2"
_cell_formula_units_Z 56
_cell_length_a 30.703306
_cell_length_b 13.833240
_cell_length_c 14.686146
_cell_angle_alpha 90.000000
_cell_angle_beta 32.798566
_cell_angle_gamma 90.000000
_cell_volume 3378.823028
_symmetry_space_group_name_H-M "C 2/M"
_symmetry_group_IT_number 12
_symmetry_cell_setting 'monoclinic'
loop_
_space_group_symop_operation_xyz
x,y,z
-x,y,-z
-x,-y,-z
x,-y,z
1/2+x,1/2+y,z
1/2-x,1/2+y,-z
1/2-x,1/2-y,-z
1/2+x,1/2-y,z
loop_
_atom_site_type_symbol
_atom_site_label
_atom_site_fract_x
_atom_site_fract_y
_atom_site_fract_z
Si Si1 0.405521 0.111739 0.660951
Si Si2 0.590837 0.393664 0.130153
Si Si3 0.088243 0.887382 0.607438
Si Si4 0.682918 0.773430 0.046637
Si Si5 0.793578 0.107939 0.244648
Si Si6 0.086063 0.114884 0.816998
Si Si7 0.690015 0.758829 0.317341
O O1 0.500000 0.133609 0.500000
O O2 0.367781 0.134832 0.827358
O O3 0.363390 0.178548 0.659033
O O4 0.388505 0.000000 0.667055
O O5 0.589013 0.500000 0.179599
O O6 0.503758 0.362301 0.249658
O O7 0.622316 0.317468 0.148503
O O8 0.647552 0.396581 0.943891
O O9 0.106862 0.853847 0.677687
O O10 0.140396 0.829879 0.443227
O O11 0.107234 0.000000 0.560928
O O12 0.750000 0.750000 0.000000
O O13 0.729598 0.788611 0.869228
O O14 0.842207 0.153631 0.244450
O O15 0.716813 0.173329 0.354420
O O16 0.762568 0.000000 0.322754
O O17 0.081074 0.000000 0.835308
O O18 0.000000 0.158608 0.000000
#
# Coordination Sequence:
#
# PCOD8085473 Si02
#       7
#     8   8   8   8   8   8   8
#     4  10  20  35  53  68  87 121 164 202 232 271
#     4   9  16  29  49  70  92 122 159 196 234 275
#     4  10  19  30  47  71 100 129 155 190 235 284
#     4   9  19  32  47  68  93 120 151 194 239 281
#     4   9  16  28  48  71  96 125 159 198 233 269
#     4   9  15  27  47  72  98 125 159 194 230 273
#     4  10  20  32  47  72 101 124 153 193 240 291
#
# _framework density 16.573817999999999
#
# number of rings (size 3 to 8) (size 9 to 14) (size 15 to 20)
#    0.000    2.571    1.429    1.286    0.000    4.571 
#    0.000    2.143    0.000    7.714    0.000    0.000 
#    0.000    1.714    0.000    0.000    0.000    0.000 
#
# Total GULP energy -347037.987272 kJ/mol
# GULP energy per Si atom -12394.213831 kJ/mol
# Density = 1.653610 g / cm^3
# Si number density = 16.573818 Si / 1000 Ang^3
#
#
#
# Elastic Constant Matrix: (Units=GPa)
#
#
# Indices 1 2 3 4 5 6 
#
# 1 97.1121 40.4351 11.6633 0.0000 -9.8935 0.0000
# 2 40.4351 61.0053 30.4074 0.0000 -1.2895 0.0000
# 3 11.6633 30.4074 35.4932 0.0000 -5.0303 0.0000
# 4 0.0000 0.0000 0.0000 21.1929 0.0000 -0.0061
# 5 -9.8935 -1.2895 -5.0303 0.0000 22.3853 0.0000
# 6 0.0000 0.0000 0.0000 -0.0061 0.0000 18.7423
#
#
#
# Elastic Compliance Matrix: (Units=1/GPa)
#
#
# Indices 1 2 3 4 5 6 
#
# 1 0.016327 -0.014936 0.008605 0.000000 0.008290 0.000000
# 2 -0.014936 0.042620 -0.033252 0.000000 -0.011618 0.000000
# 3 0.008605 -0.033252 0.055881 0.000000 0.014445 0.000000
# 4 0.000000 0.000000 0.000000 0.047186 0.000000 0.000015
# 5 0.008290 -0.011618 0.014445 0.000000 0.050913 0.000000
# 6 0.000000 0.000000 0.000000 0.000015 0.000000 0.053355
#
#
# Mechanical properties :
#
#
# Convention : Reuss Voigt Hill
#
# Bulk Modulus (GPa) = 28.03959 39.84692 33.94326
# Shear Modulus (GPa) = 13.99250 19.87108 16.93179
#
# Velocity S-wave (km/s) = 2.90876 3.46633 3.19971
# Velocity P-wave (km/s) = 5.31374 6.33363 5.84597
#
# Compressibility (1/GPa) = 0.03566386
#
# Stress axis : x y z
#
# Youngs Moduli (GPa) = 61.24677 23.46309 17.89523
#
# Poissons Ratio (x) = 0.35045 -0.15400
# Poissons Ratio (y) = 0.91479 0.59505
# Poissons Ratio (z) = -0.52706 0.78019
#
# Static dielectric constant tensor:
#      x y z
#    x 3.302920 0.000000 -0.048700 
#    y 0.000000 3.015640 0.000000 
#    z -0.048700 0.000000 3.249430 
# 
# 
# High freq. dielectric constant tensor:
#      x y z
#    x 1.644680 0.000000 -0.010750 
#    y 0.000000 1.612760 0.000000 
#    z -0.010750 0.000000 1.630540 
# 
# From -- ./inp_files/214195.got.cif
#   From: 2010.06.25/outbox.cif.g09.slc.cpg/sg12_108_cif.got.tgz:214195.got - 2010.06.28 00:19:55.
