data_PCOD8085767
_publ_section_title
;
Structure prediction by ZEFSAII (Michael W. Deem and Ramdas Pophale) SiO2 
 PCOD8085767
Probable space group: C 2/M
;
_chemical_formula_sum "Si O2"
_cell_formula_units_Z 56
_cell_length_a 20.049722
_cell_length_b 9.109847
_cell_length_c 15.729397
_cell_angle_alpha 90.000000
_cell_angle_beta 108.996470
_cell_angle_gamma 90.000000
_cell_volume 2716.506758
_symmetry_space_group_name_H-M "C 2/M"
_symmetry_group_IT_number 12
_symmetry_cell_setting 'monoclinic'
loop_
_space_group_symop_operation_xyz
x,y,z
-x,y,-z
-x,-y,-z
x,-y,z
1/2+x,1/2+y,z
1/2-x,1/2+y,-z
1/2-x,1/2-y,-z
1/2+x,1/2-y,z
loop_
_atom_site_type_symbol
_atom_site_label
_atom_site_fract_x
_atom_site_fract_y
_atom_site_fract_z
Si Si1 0.948401 0.330454 0.659810
Si Si2 0.040193 0.666280 0.135411
Si Si3 0.909659 0.826537 0.287983
Si Si4 0.776775 0.331807 0.279221
Si Si5 0.835304 0.167321 0.899172
Si Si6 0.404084 0.332129 0.093750
Si Si7 0.195422 0.827511 0.415899
O O1 0.946453 0.500000 0.629259
O O2 0.948913 0.315340 0.760422
O O3 0.880118 0.245634 0.597035
O O4 0.018499 0.252178 0.651982
O O5 0.030945 0.500000 0.103622
O O6 0.107717 0.728113 0.117643
O O7 0.969095 0.747636 0.077323
O O8 0.845318 0.770319 0.319665
O O9 0.889062 0.777047 0.183049
O O10 0.918514 0.000000 0.302287
O O11 0.802205 0.500000 0.293266
O O12 0.740532 0.294663 0.172983
O O13 0.720244 0.298794 0.329551
O O14 0.854892 0.000000 0.883436
O O15 0.836546 0.189007 0.002729
O O16 0.427632 0.500000 0.108950
O O17 0.250000 0.750000 0.500000
O O18 0.190764 0.000000 0.434094
#
# Coordination Sequence:
#
# PCOD8085767 Si02
#       7
#     8   8   8   8   8   8   8
#     4  10  20  37  61  87 117 154 193 236 287 342
#     4  10  19  30  49  79 113 147 191 243 288 330
#     4  10  21  37  58  84 118 158 199 239 283 337
#     4  10  22  39  59  84 116 154 192 235 290 345
#     4  10  19  33  52  75 110 154 197 238 284 339
#     4   9  19  33  50  75 110 155 199 237 281 334
#     4  11  23  41  66  94 120 147 184 233 289 349
#
# _framework density 20.614711
#
# number of rings (size 3 to 8) (size 9 to 14) (size 15 to 20)
#    0.000    2.000    1.429    2.143    0.000    6.286 
#    0.000    0.714    0.000    4.286    0.000    0.000 
#    0.000    0.000    0.000    0.000    0.000    0.000 
#
# Total GULP energy -347171.112410 kJ/mol
# GULP energy per Si atom -12398.968300 kJ/mol
# Density = 2.056779 g / cm^3
# Si number density = 20.614711 Si / 1000 Ang^3
#
#
#
# Elastic Constant Matrix: (Units=GPa)
#
#
# Indices 1 2 3 4 5 6 
#
# 1 86.8471 40.9450 23.5329 0.0000 23.9636 0.0000
# 2 40.9450 97.2340 35.7948 0.0000 17.0182 0.0000
# 3 23.5329 35.7948 64.7957 0.0000 29.6121 0.0000
# 4 0.0000 0.0000 0.0000 25.3827 0.0000 3.6139
# 5 23.9636 17.0182 29.6121 0.0000 27.0813 0.0000
# 6 0.0000 0.0000 0.0000 3.6139 0.0000 35.4526
#
#
#
# Elastic Compliance Matrix: (Units=1/GPa)
#
#
# Indices 1 2 3 4 5 6 
#
# 1 0.017923 -0.006320 0.004827 0.000000 -0.017166 0.000000
# 2 -0.006320 0.015144 -0.008549 0.000000 0.005424 0.000000
# 3 0.004827 -0.008549 0.035779 0.000000 -0.038021 0.000000
# 4 0.000000 0.000000 0.000000 0.039977 0.000000 -0.004075
# 5 -0.017166 0.005424 -0.038021 0.000000 0.090281 0.000000
# 6 0.000000 0.000000 0.000000 -0.004075 0.000000 0.028622
#
#
# Mechanical properties :
#
#
# Convention : Reuss Voigt Hill
#
# Bulk Modulus (GPa) = 20.50829 49.93580 35.22204
# Shear Modulus (GPa) = 18.93485 27.49025 23.21255
#
# Velocity S-wave (km/s) = 3.03398 3.65571 3.35926
# Velocity P-wave (km/s) = 4.71629 6.48806 5.67178
#
# Compressibility (1/GPa) = 0.04876077
#
# Stress axis : x y z
#
# Youngs Moduli (GPa) = 55.79565 66.03457 27.94943
#
# Poissons Ratio (x) = 0.41731 -0.13490
# Poissons Ratio (y) = 0.35261 0.23895
# Poissons Ratio (z) = -0.26931 0.56455
#
# Static dielectric constant tensor:
#      x y z
#    x 3.556150 0.000000 0.105990 
#    y 0.000000 3.767890 0.000000 
#    z 0.105990 0.000000 3.824620 
# 
# 
# High freq. dielectric constant tensor:
#      x y z
#    x 1.792370 0.000000 0.013100 
#    y 0.000000 1.810770 0.000000 
#    z 0.013100 0.000000 1.798990 
# 
# From -- ./inp_files/275682.got.cif
#   From: 2010.06.25/outbox.cif.g09.slc.cpg/sg12_138_cif.got.tgz:275682.got - 2010.06.28 00:19:55.
