data_PCOD8085751
_publ_section_title
;
Structure prediction by ZEFSAII (Michael W. Deem and Ramdas Pophale) SiO2 
 PCOD8085751
Probable space group: C 2/M
;
_chemical_formula_sum "Si O2"
_cell_formula_units_Z 56
_cell_length_a 25.017359
_cell_length_b 9.072957
_cell_length_c 16.601828
_cell_angle_alpha 90.000000
_cell_angle_beta 55.547577
_cell_angle_gamma 90.000000
_cell_volume 3107.331378
_symmetry_space_group_name_H-M "C 2/M"
_symmetry_group_IT_number 12
_symmetry_cell_setting 'monoclinic'
loop_
_space_group_symop_operation_xyz
x,y,z
-x,y,-z
-x,-y,-z
x,-y,z
1/2+x,1/2+y,z
1/2-x,1/2+y,-z
1/2-x,1/2-y,-z
1/2+x,1/2-y,z
loop_
_atom_site_type_symbol
_atom_site_label
_atom_site_fract_x
_atom_site_fract_y
_atom_site_fract_z
Si Si1 0.150241 0.827380 0.586093
Si Si2 0.839652 0.825778 0.002972
Si Si3 0.229151 0.327625 0.214789
Si Si4 0.122181 0.671939 0.186896
Si Si5 0.239535 0.673644 0.385861
Si Si6 0.480182 0.832385 0.266837
Si Si7 0.963174 0.667707 0.951958
O O1 0.181085 0.749797 0.482648
O O2 0.191725 0.787970 0.630841
O O3 0.076998 0.773629 0.657137
O O4 0.150026 0.000000 0.570253
O O5 0.837277 0.753971 0.916849
O O6 0.904822 0.780899 0.993033
O O7 0.836297 0.000000 0.995315
O O8 0.780648 0.763011 0.107193
O O9 0.241957 0.500000 0.210966
O O10 0.156572 0.294606 0.243170
O O11 0.238975 0.260244 0.295581
O O12 0.125038 0.500000 0.161947
O O13 0.046897 0.721159 0.253485
O O14 0.226205 0.500000 0.398108
O O15 0.487869 0.818721 0.164464
O O16 0.463507 0.000000 0.305955
O O17 0.936994 0.500000 0.980763
O O18 0.000000 0.717570 0.000000
#
# Coordination Sequence:
#
# PCOD8085751 Si02
#       7
#     8   8   8   8   8   8   8
#     4  10  20  34  54  77 102 130 163 207 262 310
#     4  10  19  30  49  77 107 136 169 209 258 301
#     4   9  18  33  54  77 101 133 174 216 253 298
#     4   9  18  35  54  73 102 139 177 209 244 299
#     4   9  19  36  55  75 100 129 167 211 254 305
#     4   9  18  32  52  73  97 134 171 203 247 300
#     4   9  19  34  49  71 104 139 176 211 244 296
#
# _framework density 18.021894
#
# number of rings (size 3 to 8) (size 9 to 14) (size 15 to 20)
#    0.000    2.714    0.000    2.143    2.000    3.143 
#    0.000    3.571    0.000    4.286    0.000    0.000 
#    0.000    0.000    0.000    0.000    0.000    0.000 
#
# Total GULP energy -347147.003647 kJ/mol
# GULP energy per Si atom -12398.107273 kJ/mol
# Density = 1.798088 g / cm^3
# Si number density = 18.021894 Si / 1000 Ang^3
#
#
#
# Elastic Constant Matrix: (Units=GPa)
#
#
# Indices 1 2 3 4 5 6 
#
# 1 104.9147 28.3404 73.6210 0.0000 3.5158 0.0001
# 2 28.3404 43.2419 35.6855 0.0000 -3.2079 0.0001
# 3 73.6210 35.6855 102.9788 0.0000 -2.4484 0.0000
# 4 0.0000 0.0000 0.0000 25.7813 0.0000 -2.6847
# 5 3.5158 -3.2079 -2.4484 0.0000 31.2172 0.0000
# 6 0.0001 0.0001 0.0000 -2.6847 0.0000 22.5615
#
#
#
# Elastic Compliance Matrix: (Units=1/GPa)
#
#
# Indices 1 2 3 4 5 6 
#
# 1 0.019588 -0.002059 -0.013372 0.000000 -0.003466 0.000000
# 2 -0.002059 0.032793 -0.009824 0.000000 0.002831 0.000000
# 3 -0.013372 -0.009824 0.022729 0.000000 0.002279 0.000000
# 4 0.000000 0.000000 0.000000 0.039274 0.000000 0.004674
# 5 -0.003466 0.002831 0.002279 0.000000 0.032894 0.000000
# 6 0.000000 0.000000 0.000000 0.004674 0.000000 0.044880
#
#
# Mechanical properties :
#
#
# Convention : Reuss Voigt Hill
#
# Bulk Modulus (GPa) = 40.65326 58.49215 49.57271
# Shear Modulus (GPa) = 19.93073 23.47789 21.70431
#
# Velocity S-wave (km/s) = 3.32914 3.61327 3.47411
# Velocity P-wave (km/s) = 6.11427 7.06642 6.60751
#
# Compressibility (1/GPa) = 0.02459827
#
# Stress axis : x y z
#
# Youngs Moduli (GPa) = 51.05269 30.49434 43.99578
#
# Poissons Ratio (x) = 0.06279 0.58832
# Poissons Ratio (y) = 0.10513 0.43223
# Poissons Ratio (z) = 0.68269 0.29959
#
# Static dielectric constant tensor:
#      x y z
#    x 3.475570 0.000000 0.095610 
#    y 0.000000 3.150610 0.000000 
#    z 0.095610 0.000000 3.310300 
# 
# 
# High freq. dielectric constant tensor:
#      x y z
#    x 1.705210 0.000000 0.001600 
#    y 0.000000 1.681990 0.000000 
#    z 0.001600 0.000000 1.686250 
# 
# From -- ./inp_files/238338.got.cif
#   From: 2010.06.25/outbox.cif.g09.slc.cpg/sg12_120_cif.got.tgz:238338.got - 2010.06.28 00:19:55.
