data_PCOD8085996
_publ_section_title
;
Structure prediction by ZEFSAII (Michael W. Deem and Ramdas Pophale) SiO2 
 PCOD8085996
Probable space group: C 2/M
;
_chemical_formula_sum "Si O2"
_cell_formula_units_Z 56
_cell_length_a 17.888880
_cell_length_b 9.289435
_cell_length_c 19.081122
_cell_angle_alpha 90.000000
_cell_angle_beta 75.336379
_cell_angle_gamma 90.000000
_cell_volume 3067.575894
_symmetry_space_group_name_H-M "C 2/M"
_symmetry_group_IT_number 12
_symmetry_cell_setting 'monoclinic'
loop_
_space_group_symop_operation_xyz
x,y,z
-x,y,-z
-x,-y,-z
x,-y,z
1/2+x,1/2+y,z
1/2-x,1/2+y,-z
1/2-x,1/2-y,-z
1/2+x,1/2-y,z
loop_
_atom_site_type_symbol
_atom_site_label
_atom_site_fract_x
_atom_site_fract_y
_atom_site_fract_z
Si Si1 0.417786 0.670888 0.001162
Si Si2 0.979883 0.164616 0.428004
Si Si3 0.837343 0.337198 0.292903
Si Si4 0.983667 0.338402 0.710397
Si Si5 0.302018 0.666340 0.433019
Si Si6 0.448993 0.338018 0.846210
Si Si7 0.871060 0.162280 0.156814
O O1 0.426919 0.500000 0.999920
O O2 0.396815 0.715848 0.925706
O O3 0.500000 0.743104 0.000000
O O4 0.358363 0.713640 0.078196
O O5 0.028113 0.255457 0.359879
O O6 0.889255 0.180240 0.437889
O O7 0.000000 0.225261 0.500000
O O8 0.006948 0.000000 0.414049
O O9 0.805039 0.500000 0.301017
O O10 0.927204 0.335092 0.289784
O O11 0.791090 0.241602 0.360171
O O12 0.824260 0.268529 0.219140
O O13 0.953128 0.500000 0.708240
O O14 0.933241 0.263828 0.783478
O O15 0.276334 0.500000 0.433602
O O16 0.250000 0.750000 0.500000
O O17 0.426183 0.500000 0.829595
O O18 0.538172 0.334089 0.847878
O O19 0.839841 0.000000 0.175462
#
# Coordination Sequence:
#
# PCOD8085996 Si02
#       7
#     8   8   8   8   8   8   8
#     4   7  10  16  27  43  62  88 125 164 197 232
#     4   9  18  32  48  64  82 108 142 175 207 247
#     4   9  16  25  36  52  75 102 133 166 201 244
#     4   9  16  24  35  53  76 101 130 166 206 245
#     4  10  19  31  47  65  85 109 138 173 211 250
#     4   8  12  19  31  45  64  94 130 164 197 237
#     4   8  12  19  31  46  65  92 128 166 201 237
#
# _framework density 18.255455999999999
#
# number of rings (size 3 to 8) (size 9 to 14) (size 15 to 20)
#    0.000    3.429    0.000    3.000    0.000    4.286 
#    0.000    0.714    0.000    4.286    0.000    0.000 
#    0.000    0.000    0.000    1.286    0.000   15.714 
#
# Total GULP energy -346888.480207 kJ/mol
# GULP energy per Si atom -12388.874293 kJ/mol
# Density = 1.821391 g / cm^3
# Si number density = 18.255456 Si / 1000 Ang^3
#
#
#
# Elastic Constant Matrix: (Units=GPa)
#
#
# Indices 1 2 3 4 5 6 
#
# 1 2.5492 9.9583 13.0715 0.0000 -1.5656 0.0000
# 2 9.9583 128.3377 101.2754 0.0000 -6.2303 0.0000
# 3 13.0715 101.2754 222.0733 0.0000 -7.8788 0.0000
# 4 0.0000 0.0000 0.0000 28.6885 0.0000 -5.0244
# 5 -1.5656 -6.2303 -7.8788 0.0000 14.1586 0.0000
# 6 0.0000 0.0000 0.0000 -5.0244 0.0000 8.4755
#
#
#
# Elastic Compliance Matrix: (Units=1/GPa)
#
#
# Indices 1 2 3 4 5 6 
#
# 1 0.659369 -0.030588 -0.023211 0.000000 0.046535 0.000000
# 2 -0.030588 0.013666 -0.004426 0.000000 0.000168 0.000000
# 3 -0.023211 -0.004426 0.007883 0.000000 -0.000127 0.000000
# 4 0.000000 0.000000 0.000000 0.038895 0.000000 0.023058
# 5 0.046535 0.000168 -0.000127 0.000000 0.075777 0.000000
# 6 0.000000 0.000000 0.000000 0.023058 0.000000 0.131655
#
#
# Mechanical properties :
#
#
# Convention : Reuss Voigt Hill
#
# Bulk Modulus (GPa) = 1.77158 66.84116 34.30637
# Shear Modulus (GPa) = 4.05893 25.50820 14.78357
#
# Velocity S-wave (km/s) = 1.49273 3.74209 2.84881
# Velocity P-wave (km/s) = 1.98583 7.44076 5.44557
#
# Compressibility (1/GPa) = 0.56446946
#
# Stress axis : x y z
#
# Youngs Moduli (GPa) = 1.51660 73.17281 126.85232
#
# Poissons Ratio (x) = 2.23819 2.94435
# Poissons Ratio (y) = 0.04639 0.56145
# Poissons Ratio (z) = 0.03520 0.32387
#
# Static dielectric constant tensor:
#      x y z
#    x 2.588640 0.000000 -0.035330 
#    y 0.000000 3.374550 0.000000 
#    z -0.035330 0.000000 3.947260 
# 
# 
# High freq. dielectric constant tensor:
#      x y z
#    x 1.612610 0.000000 -0.007120 
#    y 0.000000 1.696340 0.000000 
#    z -0.007120 0.000000 1.737530 
# 
# From -- ./inp_files/287027.got.cif
#   From: 2010.06.25/outbox.cif.g09.slc.cpg/sg12_144_cif.got.tgz:287027.got - 2010.06.28 00:19:55.
