data_PCOD8085032
_publ_section_title
;
Structure prediction by ZEFSAII (Michael W. Deem and Ramdas Pophale) SiO2 
 PCOD8085032
Probable space group: C 2/M
;
_chemical_formula_sum "Si O2"
_cell_formula_units_Z 56
_cell_length_a 20.408062
_cell_length_b 9.045460
_cell_length_c 22.115313
_cell_angle_alpha 90.000000
_cell_angle_beta 127.999586
_cell_angle_gamma 90.000000
_cell_volume 3217.067021
_symmetry_space_group_name_H-M "C 2/M"
_symmetry_group_IT_number 12
_symmetry_cell_setting 'monoclinic'
loop_
_space_group_symop_operation_xyz
x,y,z
-x,y,-z
-x,-y,-z
x,-y,z
1/2+x,1/2+y,z
1/2-x,1/2+y,-z
1/2-x,1/2-y,-z
1/2+x,1/2-y,z
loop_
_atom_site_type_symbol
_atom_site_label
_atom_site_fract_x
_atom_site_fract_y
_atom_site_fract_z
Si Si1 0.983850 0.671712 0.186314
Si Si2 0.095060 0.827994 0.055397
Si Si3 0.146189 0.326884 0.201476
Si Si4 0.163352 0.827069 0.962329
Si Si5 0.241986 0.167141 0.353754
Si Si6 0.181003 0.173218 0.500921
Si Si7 0.926309 0.835857 0.665859
O O1 0.961691 0.500000 0.173468
O O2 0.903454 0.762961 0.122050
O O3 0.058275 0.710967 0.182825
O O4 0.009659 0.718809 0.269134
O O5 0.145415 0.734887 0.133311
O O6 0.099991 0.000000 0.075633
O O7 0.136094 0.792533 0.014851
O O8 0.000000 0.773955 0.000000
O O9 0.163474 0.500000 0.210567
O O10 0.222208 0.249473 0.279736
O O11 0.171723 0.000000 0.955047
O O12 0.250000 0.750000 0.000000
O O13 0.317203 0.251533 0.431607
O O14 0.160870 0.172174 0.349090
O O15 0.270086 0.000000 0.355895
O O16 0.250000 0.250000 0.500000
O O17 0.092435 0.197512 0.415935
O O18 0.201539 0.000000 0.518747
O O19 0.964425 0.000000 0.694806
#
# Coordination Sequence:
#
# PCOD8085032 Si02
#       7
#     8   8   8   8   8   8   8
#     4  10  19  30  46  69  95 124 162 204 246 292
#     4  10  20  35  54  74  97 129 166 204 249 300
#     4  10  19  29  46  71  97 125 161 207 246 289
#     4  11  23  38  55  73  99 131 164 206 252 301
#     4   9  16  25  38  57  87 124 159 197 241 292
#     4   9  15  23  35  54  83 120 159 196 239 291
#     4   8  15  25  38  57  84 121 159 196 239 288
#
# _framework density 17.407160000000001
#
# number of rings (size 3 to 8) (size 9 to 14) (size 15 to 20)
#    0.000    2.429    1.429    3.000    0.000    6.571 
#    0.000    0.000    0.000    0.000    0.000    0.000 
#    0.000    1.143    0.000   12.000    0.000    8.143 
#
# Total GULP energy -347121.685824 kJ/mol
# GULP energy per Si atom -12397.203065 kJ/mol
# Density = 1.736754 g / cm^3
# Si number density = 17.407160 Si / 1000 Ang^3
#
#
#
# Elastic Constant Matrix: (Units=GPa)
#
#
# Indices 1 2 3 4 5 6 
#
# 1 44.9959 35.3337 32.5266 0.0000 1.8972 0.0000
# 2 35.3337 113.9871 79.7210 0.0000 2.6795 0.0000
# 3 32.5266 79.7210 161.5404 0.0000 -0.8384 0.0000
# 4 0.0000 0.0000 0.0000 41.0116 0.0000 0.5110
# 5 1.8972 2.6795 -0.8384 0.0000 9.3894 0.0000
# 6 0.0000 0.0000 0.0000 0.5110 0.0000 16.9118
#
#
#
# Elastic Compliance Matrix: (Units=1/GPa)
#
#
# Indices 1 2 3 4 5 6 
#
# 1 0.030037 -0.007589 -0.002324 0.000000 -0.004111 0.000000
# 2 -0.007589 0.015500 -0.006139 0.000000 -0.003438 0.000000
# 3 -0.002324 -0.006139 0.009704 0.000000 0.003088 0.000000
# 4 0.000000 0.000000 0.000000 0.024393 0.000000 -0.000737
# 5 -0.004111 -0.003438 0.003088 0.000000 0.108591 0.000000
# 6 0.000000 0.000000 0.000000 -0.000737 0.000000 0.059153
#
#
# Mechanical properties :
#
#
# Convention : Reuss Voigt Hill
#
# Bulk Modulus (GPa) = 43.22135 68.40954 55.81544
# Shear Modulus (GPa) = 17.40992 24.99204 21.20098
#
# Velocity S-wave (km/s) = 3.16596 3.79322 3.49369
# Velocity P-wave (km/s) = 6.18449 7.65308 6.95764
#
# Compressibility (1/GPa) = 0.02313671
#
# Stress axis : x y z
#
# Youngs Moduli (GPa) = 33.29242 64.51803 103.04983
#
# Poissons Ratio (x) = 0.48960 0.23952
# Poissons Ratio (y) = 0.25264 0.63262
# Poissons Ratio (z) = 0.07738 0.39607
#
# Static dielectric constant tensor:
#      x y z
#    x 2.653650 0.000000 -0.020850 
#    y 0.000000 3.359130 0.000000 
#    z -0.020850 0.000000 3.804000 
# 
# 
# High freq. dielectric constant tensor:
#      x y z
#    x 1.590180 0.000000 -0.002580 
#    y 0.000000 1.687040 0.000000 
#    z -0.002580 0.000000 1.697050 
# 
# From -- ./inp_files/287410.got.cif
#   From: 2010.06.25/outbox.cif.g09.slc.cpg/sg12_144_cif.got.tgz:287410.got - 2010.06.28 00:19:55.
