data_PCOD8085781
_publ_section_title
;
Structure prediction by ZEFSAII (Michael W. Deem and Ramdas Pophale) SiO2 
 PCOD8085781
Probable space group: C 2/M
;
_chemical_formula_sum "Si O2"
_cell_formula_units_Z 64
_cell_length_a 23.081544
_cell_length_b 18.007283
_cell_length_c 12.674941
_cell_angle_alpha 90.000000
_cell_angle_beta 135.718990
_cell_angle_gamma 90.000000
_cell_volume 3678.113930
_symmetry_space_group_name_H-M "C 2/M"
_symmetry_group_IT_number 12
_symmetry_cell_setting 'monoclinic'
loop_
_space_group_symop_operation_xyz
x,y,z
-x,y,-z
-x,-y,-z
x,-y,z
1/2+x,1/2+y,z
1/2-x,1/2+y,-z
1/2-x,1/2-y,-z
1/2+x,1/2-y,z
loop_
_atom_site_type_symbol
_atom_site_label
_atom_site_fract_x
_atom_site_fract_y
_atom_site_fract_z
Si Si1 0.657890 0.585713 0.083596
Si Si2 0.490107 0.660463 0.803860
Si Si3 0.672776 0.414554 0.337089
Si Si4 0.280841 0.586932 0.054996
Si Si5 0.464543 0.412529 0.343767
Si Si6 0.824426 0.586865 0.679256
Si Si7 0.649042 0.087089 0.046467
Si Si8 0.513115 0.176238 0.138334
O O1 0.631721 0.500000 0.029693
O O2 0.703254 0.595642 0.255252
O O3 0.573777 0.633398 0.970489
O O4 0.721599 0.609998 0.072571
O O5 0.410050 0.633112 0.762468
O O6 0.483242 0.629059 0.677238
O O7 0.487443 0.749254 0.794101
O O8 0.651408 0.500000 0.333312
O O9 0.743372 0.386277 0.509359
O O10 0.270139 0.500000 0.054906
O O11 0.369151 0.612303 0.215686
O O12 0.208586 0.622549 0.033242
O O13 0.500000 0.385076 0.500000
O O14 0.475865 0.500000 0.341526
O O15 0.841640 0.500000 0.682083
O O16 0.901509 0.632298 0.733611
O O17 0.811524 0.603443 0.786738
O O18 0.560166 0.124085 0.916339
O O19 0.635463 0.000000 0.013974
O O20 0.500000 0.198135 0.000000
#
# Coordination Sequence:
#
# PCOD8085781 Si02
#       8
#     8   8   8   8   8   8   8   8
#     4   9  17  31  48  71 102 131 160 195 238 290
#     4  11  20  31  49  72 103 134 167 194 238 304
#     4  10  19  30  50  75 101 130 162 202 245 297
#     4   8  15  28  49  74  95 122 164 207 243 286
#     4   9  18  31  50  74 105 135 162 204 250 287
#     4   9  19  33  51  76  99 122 164 217 262 294
#     4   9  17  32  55  75  94 124 171 217 251 295
#     4  10  20  34  51  71  98 133 166 208 256 295
#
# _framework density 17.400221999999999
#
# number of rings (size 3 to 8) (size 9 to 14) (size 15 to 20)
#    0.000    2.625    0.000    3.375    1.750    3.000 
#    0.000    2.500    2.750    0.000    0.000    4.375 
#    0.000    0.000    0.000    0.000    0.000    0.000 
#
# Total GULP energy -396711.025879 kJ/mol
# GULP energy per Si atom -12397.219559 kJ/mol
# Density = 1.736062 g / cm^3
# Si number density = 17.400222 Si / 1000 Ang^3
#
#
#
# Elastic Constant Matrix: (Units=GPa)
#
#
# Indices 1 2 3 4 5 6 
#
# 1 131.9019 37.0060 48.7090 0.0000 -5.1673 0.0000
# 2 37.0060 56.5455 25.0081 0.0000 -1.3447 0.0000
# 3 48.7090 25.0081 77.1311 0.0000 -10.1251 0.0000
# 4 0.0000 0.0000 0.0000 12.4063 0.0000 -3.9274
# 5 -5.1673 -1.3447 -10.1251 0.0000 21.8060 0.0000
# 6 0.0000 0.0000 0.0000 -3.9274 0.0000 7.2908
#
#
#
# Elastic Compliance Matrix: (Units=1/GPa)
#
#
# Indices 1 2 3 4 5 6 
#
# 1 0.010888 -0.004760 -0.005359 0.000000 -0.000202 0.000000
# 2 -0.004760 0.022805 -0.004634 0.000000 -0.001873 0.000000
# 3 -0.005359 -0.004634 0.018793 0.000000 0.007170 0.000000
# 4 0.000000 0.000000 0.000000 0.097175 0.000000 0.052346
# 5 -0.000202 -0.001873 0.007170 0.000000 0.049025 0.000000
# 6 0.000000 0.000000 0.000000 0.052346 0.000000 0.165356
#
#
# Mechanical properties :
#
#
# Convention : Reuss Voigt Hill
#
# Bulk Modulus (GPa) = 43.51643 54.11385 48.81514
# Shear Modulus (GPa) = 12.46235 18.62431 15.54333
#
# Velocity S-wave (km/s) = 2.67913 3.27517 2.99203
# Velocity P-wave (km/s) = 5.88504 6.74310 6.32863
#
# Compressibility (1/GPa) = 0.02297983
#
# Stress axis : x y z
#
# Youngs Moduli (GPa) = 91.84436 43.84993 53.21185
#
# Poissons Ratio (x) = 0.20874 0.28516
# Poissons Ratio (y) = 0.43721 0.24657
# Poissons Ratio (z) = 0.49219 0.20319
#
# Static dielectric constant tensor:
#      x y z
#    x 3.475980 0.000000 -0.157190 
#    y 0.000000 2.993420 0.000000 
#    z -0.157190 0.000000 3.192810 
# 
# 
# High freq. dielectric constant tensor:
#      x y z
#    x 1.675870 0.000000 -0.007910 
#    y 0.000000 1.647690 0.000000 
#    z -0.007910 0.000000 1.660620 
# 
# From -- ./inp_files/168760.got.cif
#   From: 2010.06.25/outbox.cif.g09.slc.cpg/sg12_85_cif.got.tgz:168760.got - 2010.06.28 00:19:55.
