data_PCOD8085272
_publ_section_title
;
Structure prediction by ZEFSAII (Michael W. Deem and Ramdas Pophale) SiO2 
 PCOD8085272
Probable space group: C 2/M
;
_chemical_formula_sum "Si O2"
_cell_formula_units_Z 48
_cell_length_a 25.280926
_cell_length_b 8.959626
_cell_length_c 14.671936
_cell_angle_alpha 90.000000
_cell_angle_beta 54.524421
_cell_angle_gamma 90.000000
_cell_volume 2706.376991
_symmetry_space_group_name_H-M "C 2/M"
_symmetry_group_IT_number 12
_symmetry_cell_setting 'monoclinic'
loop_
_space_group_symop_operation_xyz
x,y,z
-x,y,-z
-x,-y,-z
x,-y,z
1/2+x,1/2+y,z
1/2-x,1/2+y,-z
1/2-x,1/2-y,-z
1/2+x,1/2-y,z
loop_
_atom_site_type_symbol
_atom_site_label
_atom_site_fract_x
_atom_site_fract_y
_atom_site_fract_z
Si Si1 0.561482 0.677513 0.382638
Si Si2 0.317125 0.677199 0.242315
Si Si3 0.317125 0.677199 0.623434
Si Si4 0.480364 0.322287 0.769636
Si Si5 0.373271 0.677194 0.376729
Si Si6 0.061482 0.177513 0.994399
O O1 0.500000 0.741448 0.500000
O O2 0.559300 0.500000 0.388796
O O3 0.628026 0.734859 0.361229
O O4 0.557409 0.735141 0.282425
O O5 0.310548 0.500000 0.246387
O O6 0.250000 0.750000 0.278290
O O7 0.335611 0.734334 0.325004
O O8 0.371974 0.734859 0.117281
O O9 0.310548 0.500000 0.632517
O O10 0.335611 0.734334 0.503774
O O11 0.483583 0.500000 0.766417
O O12 0.553635 0.258173 0.696365
O O13 0.442591 0.264858 0.897244
O O14 0.377218 0.500000 0.372782
O O15 0.059300 0.000000 0.992605
O O16 0.000000 0.241448 0.000000
#
# Coordination Sequence:
#
# PCOD8085272 Si02
#       6
#     8   8   8   8   8   8
#     4   9  15  25  43  66  90 115 148 189 226 259
#     4  10  19  30  45  68  95 121 148 181 225 272
#     4  10  19  30  45  68  95 121 148 181 225 272
#     4   9  14  23  42  69  91 108 145 198 232 250
#     4   9  15  25  44  69  93 114 143 188 231 264
#     4   9  15  25  43  66  90 115 148 189 226 259
#
# _framework density 17.735889
#
# number of rings (size 3 to 8) (size 9 to 14) (size 15 to 20)
#    0.000    2.667    3.333    0.500    0.000    0.000 
#    0.000    0.833    0.000    1.000    0.000    0.000 
#    0.000    0.000    0.000    0.000    0.000    0.000 
#
# Total GULP energy -297517.862070 kJ/mol
# GULP energy per Si atom -12396.577586 kJ/mol
# Density = 1.769552 g / cm^3
# Si number density = 17.735889 Si / 1000 Ang^3
#
#
#
# Elastic Constant Matrix: (Units=GPa)
#
#
# Indices 1 2 3 4 5 6 
#
# 1 164.0061 15.3203 95.4656 0.0000 -3.5760 0.0000
# 2 15.3203 8.2868 14.7154 0.0000 -3.2181 0.0000
# 3 95.4656 14.7154 162.8196 0.0000 -2.7357 0.0000
# 4 0.0000 0.0000 0.0000 13.5120 0.0000 -8.1225
# 5 -3.5760 -3.2181 -2.7357 0.0000 38.4045 0.0000
# 6 0.0000 0.0000 0.0000 -8.1225 0.0000 15.0388
#
#
#
# Elastic Compliance Matrix: (Units=1/GPa)
#
#
# Indices 1 2 3 4 5 6 
#
# 1 0.009845 -0.009571 -0.004911 0.000000 -0.000235 0.000000
# 2 -0.009571 0.157966 -0.008468 0.000000 0.011742 0.000000
# 3 -0.004911 -0.008468 0.009779 0.000000 -0.000470 0.000000
# 4 0.000000 0.000000 0.000000 0.109589 0.000000 0.059189
# 5 -0.000235 0.011742 -0.000470 0.000000 0.026967 0.000000
# 6 0.000000 0.000000 0.000000 0.059189 0.000000 0.098463
#
#
# Mechanical properties :
#
#
# Convention : Reuss Voigt Hill
#
# Bulk Modulus (GPa) = 7.59364 65.12390 36.35877
# Shear Modulus (GPa) = 9.95214 27.36515 18.65865
#
# Velocity S-wave (km/s) = 2.37139 3.93227 3.24702
# Velocity P-wave (km/s) = 3.43348 7.57730 5.88235
#
# Compressibility (1/GPa) = 0.13168922
#
# Stress axis : x y z
#
# Youngs Moduli (GPa) = 101.57310 6.33049 102.26153
#
# Poissons Ratio (x) = 0.06059 0.50225
# Poissons Ratio (y) = 0.97217 0.86591
# Poissons Ratio (z) = 0.49887 0.05360
#
# Static dielectric constant tensor:
#      x y z
#    x 3.482090 0.000000 0.138580 
#    y 0.000000 2.533380 0.000000 
#    z 0.138580 0.000000 3.508140 
# 
# 
# High freq. dielectric constant tensor:
#      x y z
#    x 1.692440 0.000000 0.003220 
#    y 0.000000 1.608380 0.000000 
#    z 0.003220 0.000000 1.693040 
# 
# From -- ./inp_files/231358.got.cif
#   From: 2010.06.25/outbox.cif.g09.slc.cpg/sg12_116_cif.got.tgz:231358.got - 2010.06.28 00:19:55.
