data_PCOD8085882
_publ_section_title
;
Structure prediction by ZEFSAII (Michael W. Deem and Ramdas Pophale) SiO2 
 PCOD8085882
Probable space group: C 2/M
;
_chemical_formula_sum "Si O2"
_cell_formula_units_Z 64
_cell_length_a 20.268985
_cell_length_b 8.644090
_cell_length_c 21.249138
_cell_angle_alpha 90.000000
_cell_angle_beta 63.551619
_cell_angle_gamma 90.000000
_cell_volume 3333.332520
_symmetry_space_group_name_H-M "C 2/M"
_symmetry_group_IT_number 12
_symmetry_cell_setting 'monoclinic'
loop_
_space_group_symop_operation_xyz
x,y,z
-x,y,-z
-x,-y,-z
x,-y,z
1/2+x,1/2+y,z
1/2-x,1/2+y,-z
1/2-x,1/2-y,-z
1/2+x,1/2-y,z
loop_
_atom_site_type_symbol
_atom_site_label
_atom_site_fract_x
_atom_site_fract_y
_atom_site_fract_z
Si Si1 0.174010 0.682736 0.557150
Si Si2 0.268298 0.680032 0.084693
Si Si3 0.751617 0.182899 0.231515
Si Si4 0.359316 0.317578 0.292810
Si Si5 0.865918 0.821423 0.929478
Si Si6 0.974255 0.684313 0.443703
Si Si7 0.487046 0.819692 0.802522
Si Si8 0.088080 0.683149 0.294021
O O1 0.179798 0.500000 0.554198
O O2 0.250000 0.750000 0.500000
O O3 0.155759 0.735287 0.635077
O O4 0.108377 0.739219 0.538629
O O5 0.245088 0.500000 0.089775
O O6 0.286142 0.727792 0.148932
O O7 0.199605 0.778861 0.090044
O O8 0.340415 0.714287 0.011884
O O9 0.800972 0.249463 0.266957
O O10 0.669181 0.252330 0.272379
O O11 0.748534 0.000000 0.239129
O O12 0.351204 0.500000 0.305869
O O13 0.438878 0.278765 0.231178
O O14 0.939676 0.722968 0.884490
O O15 0.885574 0.000000 0.912056
O O16 0.977280 0.500000 0.442406
O O17 0.000000 0.750960 0.500000
O O18 0.030686 0.753373 0.368435
O O19 0.437231 0.769727 0.764612
O O20 0.507285 0.000000 0.793225
O O21 0.090006 0.500000 0.299870
#
# Coordination Sequence:
#
# PCOD8085882 Si02
#       8
#     8   8   8   8   8   8   8   8
#     4  11  23  40  60  84 115 151 187 225 280 339
#     4   9  17  33  54  79 112 149 188 232 282 340
#     4   9  18  33  56  83 109 145 192 234 276 332
#     4  11  23  38  59  85 114 146 188 236 279 333
#     4  10  19  30  52  85 115 142 183 238 290 334
#     4   9  18  32  55  84 109 137 184 232 264 315
#     4  11  20  36  59  80 110 152 190 228 278 340
#     4   9  16  30  55  81 103 137 188 232 266 318
#
# _framework density 19.200005999999998
#
# number of rings (size 3 to 8) (size 9 to 14) (size 15 to 20)
#    0.000    2.125    2.500    1.500    1.750    0.500 
#    0.000    1.875    0.000    6.750    0.000    0.000 
#    0.000    0.000    0.000    0.000    0.000    0.000 
#
# Total GULP energy -396762.492216 kJ/mol
# GULP energy per Si atom -12398.827882 kJ/mol
# Density = 1.915631 g / cm^3
# Si number density = 19.200006 Si / 1000 Ang^3
#
#
#
# Elastic Constant Matrix: (Units=GPa)
#
#
# Indices 1 2 3 4 5 6 
#
# 1 149.5326 25.3526 72.9939 -0.0002 -3.0086 -0.0003
# 2 25.3526 35.3708 23.6315 -0.0004 0.7919 -0.0001
# 3 72.9939 23.6315 134.3761 0.0000 -13.6768 0.0000
# 4 -0.0002 -0.0004 0.0000 28.3904 0.0000 -4.8836
# 5 -3.0086 0.7919 -13.6768 0.0000 34.9771 -0.0001
# 6 -0.0003 -0.0001 0.0000 -4.8836 -0.0001 22.9204
#
#
#
# Elastic Compliance Matrix: (Units=1/GPa)
#
#
# Indices 1 2 3 4 5 6 
#
# 1 0.009563 -0.003742 -0.004629 0.000000 -0.000903 0.000000
# 2 -0.003742 0.033816 -0.004192 0.000001 -0.002727 0.000000
# 3 -0.004629 -0.004192 0.011104 0.000000 0.004039 0.000000
# 4 0.000000 0.000001 0.000000 0.036563 0.000000 0.007790
# 5 -0.000903 -0.002727 0.004039 0.000000 0.030153 0.000000
# 6 0.000000 0.000000 0.000000 0.007790 0.000000 0.045289
#
#
# Mechanical properties :
#
#
# Convention : Reuss Voigt Hill
#
# Bulk Modulus (GPa) = 34.06161 62.58173 48.32167
# Shear Modulus (GPa) = 24.82626 30.41101 27.61864
#
# Velocity S-wave (km/s) = 3.59978 3.98415 3.79683
# Velocity P-wave (km/s) = 5.92088 7.33689 6.66659
#
# Compressibility (1/GPa) = 0.02935857
#
# Stress axis : x y z
#
# Youngs Moduli (GPa) = 104.56727 29.57219 90.05511
#
# Poissons Ratio (x) = 0.11066 0.41683
# Poissons Ratio (y) = 0.39129 0.37748
# Poissons Ratio (z) = 0.48400 0.12396
#
# Static dielectric constant tensor:
#      x y z
#    x 3.665790 0.000000 -0.065910 
#    y 0.000000 3.199210 0.000000 
#    z -0.065910 0.000000 3.872940 
# 
# 
# High freq. dielectric constant tensor:
#      x y z
#    x 1.739510 0.000000 -0.008000 
#    y 0.000000 1.714410 0.000000 
#    z -0.008000 0.000000 1.762490 
# 
# From -- ./inp_files/319894.got.cif
#   From: 2010.06.25/outbox.cif.g09.slc.cpg/sg12_160_cif.got.tgz:319894.got - 2010.06.28 00:19:55.
