data_PCOD8085867
_publ_section_title
;
Structure prediction by ZEFSAII (Michael W. Deem and Ramdas Pophale) SiO2 
 PCOD8085867
Probable space group: C 2/M
;
_chemical_formula_sum "Si O2"
_cell_formula_units_Z 64
_cell_length_a 20.231568
_cell_length_b 8.848352
_cell_length_c 20.932481
_cell_angle_alpha 90.000000
_cell_angle_beta 63.943889
_cell_angle_gamma 90.000000
_cell_volume 3366.395437
_symmetry_space_group_name_H-M "C 2/M"
_symmetry_group_IT_number 12
_symmetry_cell_setting 'monoclinic'
loop_
_space_group_symop_operation_xyz
x,y,z
-x,y,-z
-x,-y,-z
x,-y,z
1/2+x,1/2+y,z
1/2-x,1/2+y,-z
1/2-x,1/2-y,-z
1/2+x,1/2-y,z
loop_
_atom_site_type_symbol
_atom_site_label
_atom_site_fract_x
_atom_site_fract_y
_atom_site_fract_z
Si Si1 0.173024 0.820790 0.552261
Si Si2 0.264548 0.674977 0.087716
Si Si3 0.744850 0.178193 0.238114
Si Si4 0.361019 0.320674 0.289624
Si Si5 0.865219 0.825274 0.931385
Si Si6 0.965465 0.678053 0.446847
Si Si7 0.486811 0.822479 0.807350
Si Si8 0.082234 0.679056 0.295777
O O1 0.250000 0.750000 0.500000
O O2 0.151442 0.765129 0.632653
O O3 0.111844 0.762846 0.528596
O O4 0.179297 0.000000 0.546302
O O5 0.239773 0.500000 0.092363
O O6 0.280796 0.718903 0.154187
O O7 0.197738 0.774970 0.090889
O O8 0.338131 0.705808 0.015381
O O9 0.794430 0.243671 0.274278
O O10 0.662555 0.247495 0.277735
O O11 0.739372 0.000000 0.248351
O O12 0.365529 0.500000 0.284456
O O13 0.434479 0.254874 0.228098
O O14 0.940694 0.733426 0.888336
O O15 0.881961 0.000000 0.912656
O O16 0.951196 0.500000 0.445535
O O17 0.000000 0.718758 0.500000
O O18 0.022124 0.742772 0.370414
O O19 0.440269 0.771127 0.765431
O O20 0.498769 0.000000 0.805527
O O21 0.084685 0.500000 0.300666
#
# Coordination Sequence:
#
# PCOD8085867 Si02
#       8
#     8   8   8   8   8   8   8   8
#     4  11  24  40  59  83 116 152 188 230 282 340
#     4   9  17  32  53  79 109 144 183 228 279 330
#     4   9  17  33  57  82 107 140 186 230 272 323
#     4  10  22  38  59  83 110 143 185 234 274 322
#     4  10  19  30  51  82 113 141 180 230 279 329
#     4  10  21  37  61  88 114 146 188 232 276 333
#     4  11  20  35  58  80 109 148 186 224 273 334
#     4   9  17  31  56  83 105 138 184 229 267 316
#
# _framework density 19.011431999999999
#
# number of rings (size 3 to 8) (size 9 to 14) (size 15 to 20)
#    0.000    2.125    2.500    1.125    1.750    1.250 
#    0.000    1.250    0.000    3.750    0.000    0.000 
#    0.000    0.000    0.000    0.000    0.000    0.000 
#
# Total GULP energy -396805.255274 kJ/mol
# GULP energy per Si atom -12400.164227 kJ/mol
# Density = 1.896816 g / cm^3
# Si number density = 19.011432 Si / 1000 Ang^3
#
#
#
# Elastic Constant Matrix: (Units=GPa)
#
#
# Indices 1 2 3 4 5 6 
#
# 1 136.6308 29.1426 52.8629 0.0000 -13.1416 0.0002
# 2 29.1426 32.7635 27.0788 0.0000 -1.5922 0.0009
# 3 52.8629 27.0788 108.2879 0.0000 -17.6602 0.0000
# 4 0.0000 0.0000 0.0000 24.3396 0.0000 -6.1617
# 5 -13.1416 -1.5922 -17.6602 0.0000 35.2672 0.0000
# 6 0.0002 0.0009 0.0000 -6.1617 0.0000 26.4940
#
#
#
# Elastic Compliance Matrix: (Units=1/GPa)
#
#
# Indices 1 2 3 4 5 6 
#
# 1 0.010015 -0.006347 -0.002983 0.000000 0.001951 0.000000
# 2 -0.006347 0.042864 -0.008374 0.000000 -0.004623 -0.000001
# 3 -0.002983 -0.008374 0.013658 0.000000 0.005349 0.000000
# 4 0.000000 0.000000 0.000000 0.043656 0.000000 0.010153
# 5 0.001951 -0.004623 0.005349 0.000000 0.031552 0.000000
# 6 0.000000 -0.000001 0.000000 0.010153 0.000000 0.040106
#
#
# Mechanical properties :
#
#
# Convention : Reuss Voigt Hill
#
# Bulk Modulus (GPa) = 32.12697 55.09454 43.61076
# Shear Modulus (GPa) = 21.96497 28.46003 25.21250
#
# Velocity S-wave (km/s) = 3.40274 3.87330 3.64562
# Velocity P-wave (km/s) = 5.68978 7.00328 6.38042
#
# Compressibility (1/GPa) = 0.03112650
#
# Stress axis : x y z
#
# Youngs Moduli (GPa) = 99.85157 23.32952 73.21964
#
# Poissons Ratio (x) = 0.14808 0.21845
# Poissons Ratio (y) = 0.63380 0.61315
# Poissons Ratio (z) = 0.29791 0.19536
#
# Static dielectric constant tensor:
#      x y z
#    x 3.548130 0.000000 -0.045930 
#    y 0.000000 3.221980 0.000000 
#    z -0.045930 0.000000 3.746370 
# 
# 
# High freq. dielectric constant tensor:
#      x y z
#    x 1.731600 0.000000 -0.010000 
#    y 0.000000 1.712610 0.000000 
#    z -0.010000 0.000000 1.752200 
# 
# From -- ./inp_files/319893.got.cif
#   From: 2010.06.25/outbox.cif.g09.slc.cpg/sg12_160_cif.got.tgz:319893.got - 2010.06.28 00:19:55.
