data_PCOD8085231
_publ_section_title
;
Structure prediction by ZEFSAII (Michael W. Deem and Ramdas Pophale) SiO2 
 PCOD8085231
Probable space group: C 2/M
;
_chemical_formula_sum "Si O2"
_cell_formula_units_Z 56
_cell_length_a 26.371817
_cell_length_b 17.731613
_cell_length_c 25.376616
_cell_angle_alpha 90.000000
_cell_angle_beta 162.898592
_cell_angle_gamma 90.000000
_cell_volume 3489.503110
_symmetry_space_group_name_H-M "C 2/M"
_symmetry_group_IT_number 12
_symmetry_cell_setting 'monoclinic'
loop_
_space_group_symop_operation_xyz
x,y,z
-x,y,-z
-x,-y,-z
x,-y,z
1/2+x,1/2+y,z
1/2-x,1/2+y,-z
1/2-x,1/2-y,-z
1/2+x,1/2-y,z
loop_
_atom_site_type_symbol
_atom_site_label
_atom_site_fract_x
_atom_site_fract_y
_atom_site_fract_z
Si Si1 0.150944 0.585741 0.418098
Si Si2 0.043007 0.585468 0.601841
Si Si3 0.679004 0.276858 0.984582
Si Si4 0.493363 0.584676 0.825854
Si Si5 0.053626 0.914792 0.998616
Si Si6 0.690756 0.787754 0.386860
Si Si7 0.981742 0.694623 0.631998
O O1 0.085670 0.500000 0.345439
O O2 0.316412 0.588741 0.619537
O O3 0.190851 0.622129 0.399803
O O4 0.014108 0.638412 0.312840
O O5 0.974777 0.500000 0.545160
O O6 0.952043 0.644912 0.550249
O O7 0.000000 0.610040 0.500000
O O8 0.244841 0.589760 0.811379
O O9 0.634984 0.365643 0.936447
O O10 0.500757 0.234708 0.822885
O O11 0.750000 0.250000 0.000000
O O12 0.829511 0.264899 0.178153
O O13 0.567570 0.500000 0.902361
O O14 0.464732 0.617720 0.857149
O O15 0.986145 0.000000 0.937606
O O16 0.000000 0.871958 0.000000
O O17 0.750000 0.750000 0.500000
O O18 0.832509 0.759305 0.485153
#
# Coordination Sequence:
#
# PCOD8085231 Si02
#       7
#     8   8   8   8   8   8   8
#     4  10  19  31  48  68  92 121 157 197 238 282
#     4  10  21  32  44  67  95 127 167 203 233 267
#     4  12  19  32  48  65  91 123 159 200 237 280
#     4  10  19  30  45  66  89 120 164 199 230 276
#     4   9  18  30  42  60  87 119 157 200 236 265
#     4  10  19  33  46  68  91 119 158 196 238 283
#     4  11  20  32  51  65  93 131 164 194 235 282
#
# _framework density 16.04813
#
# number of rings (size 3 to 8) (size 9 to 14) (size 15 to 20)
#    0.000    1.714    7.143    0.429    2.000    0.571 
#    0.000    0.000    0.000    0.000    0.000    0.000 
#    0.000    0.571    0.000    1.286    0.000    0.286 
#
# Total GULP energy -346885.636934 kJ/mol
# GULP energy per Si atom -12388.772748 kJ/mol
# Density = 1.601160 g / cm^3
# Si number density = 16.048130 Si / 1000 Ang^3
#
#
#
# Elastic Constant Matrix: (Units=GPa)
#
#
# Indices 1 2 3 4 5 6 
#
# 1 78.0331 44.6158 22.2288 0.0064 -4.2581 -0.0062
# 2 44.6158 70.0146 25.4194 -0.0078 -3.8683 -0.0102
# 3 22.2288 25.4194 86.1711 -0.0238 1.3227 -0.0076
# 4 0.0064 -0.0078 -0.0238 18.4285 -0.0106 2.6248
# 5 -4.2581 -3.8683 1.3227 -0.0106 17.7674 -0.0010
# 6 -0.0062 -0.0102 -0.0076 2.6248 -0.0010 28.3192
#
#
#
# Elastic Compliance Matrix: (Units=1/GPa)
#
#
# Indices 1 2 3 4 5 6 
#
# 1 0.020450 -0.012290 -0.001686 -0.000013 0.002351 0.000001
# 2 -0.012290 0.023647 -0.003844 0.000010 0.002489 0.000004
# 3 -0.001686 -0.003844 0.013208 0.000015 -0.002224 0.000000
# 4 -0.000013 0.000010 0.000015 0.054990 0.000030 -0.005097
# 5 0.002351 0.002489 -0.002224 0.000030 0.057554 0.000000
# 6 0.000001 0.000004 0.000000 -0.005097 0.000000 0.035784
#
#
# Mechanical properties :
#
#
# Convention : Reuss Voigt Hill
#
# Bulk Modulus (GPa) = 46.15438 46.52744 46.34091
# Shear Modulus (GPa) = 20.12121 22.36666 21.24394
#
# Velocity S-wave (km/s) = 3.54475 3.73731 3.64230
# Velocity P-wave (km/s) = 6.75101 6.90498 6.82843
#
# Compressibility (1/GPa) = 0.02166642
#
# Stress axis : x y z
#
# Youngs Moduli (GPa) = 48.89886 42.28843 75.71318
#
# Poissons Ratio (x) = 0.51971 0.12767
# Poissons Ratio (y) = 0.60095 0.29101
# Poissons Ratio (z) = 0.08245 0.16254
#
# Static dielectric constant tensor:
#      x y z
#    x 3.240150 -0.000290 0.159890 
#    y -0.000290 3.295290 -0.000240 
#    z 0.159890 -0.000240 3.345570 
# 
# 
# High freq. dielectric constant tensor:
#      x y z
#    x 1.588390 0.000000 0.006660 
#    y 0.000000 1.579420 -0.000010 
#    z 0.006660 -0.000010 1.633460 
# 
# From -- ./inp_files/349956.got.cif
#   From: 2010.06.25/outbox.cif.g09.slc.cpg/sg12_175_cif.got.tgz:349956.got - 2010.06.28 00:19:55.
