data_PCOD8085936
_publ_section_title
;
Structure prediction by ZEFSAII (Michael W. Deem and Ramdas Pophale) SiO2 
 PCOD8085936
Probable space group: C 2/M
;
_chemical_formula_sum "Si O2"
_cell_formula_units_Z 56
_cell_length_a 22.924001
_cell_length_b 9.362269
_cell_length_c 16.578968
_cell_angle_alpha 90.000000
_cell_angle_beta 100.159755
_cell_angle_gamma 90.000000
_cell_volume 3502.395827
_symmetry_space_group_name_H-M "C 2/M"
_symmetry_group_IT_number 12
_symmetry_cell_setting 'monoclinic'
loop_
_space_group_symop_operation_xyz
x,y,z
-x,y,-z
-x,-y,-z
x,-y,z
1/2+x,1/2+y,z
1/2-x,1/2+y,-z
1/2-x,1/2-y,-z
1/2+x,1/2-y,z
loop_
_atom_site_type_symbol
_atom_site_label
_atom_site_fract_x
_atom_site_fract_y
_atom_site_fract_z
Si Si1 0.212161 0.163739 0.106800
Si Si2 0.454859 0.168982 0.374735
Si Si3 0.180285 0.162207 0.931145
Si Si4 0.240644 0.666229 0.259056
Si Si5 0.626234 0.338343 0.758296
Si Si6 0.580811 0.831119 0.459703
Si Si7 0.793087 0.330511 0.570341
O O1 0.272857 0.217993 0.082062
O O2 0.198064 0.253729 0.183961
O O3 0.218819 0.000000 0.134740
O O4 0.163212 0.181578 0.022196
O O5 0.424236 0.238498 0.290063
O O6 0.421994 0.222334 0.448306
O O7 0.523303 0.221216 0.395650
O O8 0.450455 0.000000 0.363779
O O9 0.124992 0.179181 0.855892
O O10 0.206290 0.000000 0.925225
O O11 0.228607 0.500000 0.245057
O O12 0.309045 0.706235 0.259645
O O13 0.222836 0.717719 0.343428
O O14 0.612189 0.500000 0.728963
O O15 0.640358 0.776298 0.431672
O O16 0.578858 0.000000 0.461449
O O17 0.786167 0.500000 0.556492
O O18 0.750000 0.250000 0.500000
#
# Coordination Sequence:
#
# PCOD8085936 Si02
#       7
#     8   8   8   8   8   8   8
#     4   9  15  24  40  59  80 110 144 172 200 243
#     4   9  16  28  45  62  80 105 139 174 204 240
#     4   8  15  26  38  56  85 114 136 166 210 251
#     4   9  18  29  40  58  87 117 139 166 209 252
#     4   9  16  26  39  59  87 111 131 162 206 248
#     4   8  16  30  45  60  81 109 138 170 208 243
#     4  10  19  31  46  63  85 113 141 170 207 249
#
# _framework density 15.989053999999999
#
# number of rings (size 3 to 8) (size 9 to 14) (size 15 to 20)
#    0.000    3.143    0.000    3.000    0.000    3.429 
#    0.000    2.143    0.000    0.000    0.000    1.000 
#    0.000    8.000    0.000    0.000    0.000    0.000 
#
# Total GULP energy -346910.618944 kJ/mol
# GULP energy per Si atom -12389.664962 kJ/mol
# Density = 1.595266 g / cm^3
# Si number density = 15.989054 Si / 1000 Ang^3
#
#
#
# Elastic Constant Matrix: (Units=GPa)
#
#
# Indices 1 2 3 4 5 6 
#
# 1 70.8072 25.7840 57.5719 0.0000 7.4476 0.0000
# 2 25.7840 46.8866 51.5877 0.0000 6.5736 0.0000
# 3 57.5719 51.5877 163.1063 0.0000 12.3066 0.0000
# 4 0.0000 0.0000 0.0000 30.2724 0.0000 5.9649
# 5 7.4476 6.5736 12.3066 0.0000 20.7155 0.0000
# 6 0.0000 0.0000 0.0000 5.9649 0.0000 14.6436
#
#
#
# Elastic Compliance Matrix: (Units=1/GPa)
#
#
# Indices 1 2 3 4 5 6 
#
# 1 0.020702 -0.004903 -0.005562 0.000000 -0.002583 0.000000
# 2 -0.004903 0.034266 -0.008815 0.000000 -0.003874 0.000000
# 3 -0.005562 -0.008815 0.011014 0.000000 -0.001746 0.000000
# 4 0.000000 0.000000 0.000000 0.035916 0.000000 -0.014630
# 5 -0.002583 -0.003874 -0.001746 0.000000 0.051468 0.000000
# 6 0.000000 0.000000 0.000000 -0.014630 0.000000 0.074248
#
#
# Mechanical properties :
#
#
# Convention : Reuss Voigt Hill
#
# Bulk Modulus (GPa) = 36.46594 61.18749 48.82671
# Shear Modulus (GPa) = 18.16103 22.85008 20.50556
#
# Velocity S-wave (km/s) = 3.37388 3.78446 3.58505
# Velocity P-wave (km/s) = 6.16715 7.57942 6.90946
#
# Compressibility (1/GPa) = 0.02742285
#
# Stress axis : x y z
#
# Youngs Moduli (GPa) = 48.30461 29.18331 90.79546
#
# Poissons Ratio (x) = 0.14309 0.50496
# Poissons Ratio (y) = 0.23685 0.80034
# Poissons Ratio (z) = 0.26865 0.25724
#
# Static dielectric constant tensor:
#      x y z
#    x 2.915530 0.000000 0.002800 
#    y 0.000000 2.918800 0.000000 
#    z 0.002800 0.000000 3.439040 
# 
# 
# High freq. dielectric constant tensor:
#      x y z
#    x 1.561300 0.000000 0.011310 
#    y 0.000000 1.605460 0.000000 
#    z 0.011310 0.000000 1.631480 
# 
# From -- ./inp_files/287026.got.cif
#   From: 2010.06.25/outbox.cif.g09.slc.cpg/sg12_144_cif.got.tgz:287026.got - 2010.06.28 00:19:55.
