data_PCOD8085843
_publ_section_title
;
Structure prediction by ZEFSAII (Michael W. Deem and Ramdas Pophale) SiO2 
 PCOD8085843
Probable space group: C 2/M
;
_chemical_formula_sum "Si O2"
_cell_formula_units_Z 64
_cell_length_a 14.179298
_cell_length_b 28.913608
_cell_length_c 9.165224
_cell_angle_alpha 90.000000
_cell_angle_beta 82.706277
_cell_angle_gamma 90.000000
_cell_volume 3727.105205
_symmetry_space_group_name_H-M "C 2/M"
_symmetry_group_IT_number 12
_symmetry_cell_setting 'monoclinic'
loop_
_space_group_symop_operation_xyz
x,y,z
-x,y,-z
-x,-y,-z
x,-y,z
1/2+x,1/2+y,z
1/2-x,1/2+y,-z
1/2-x,1/2-y,-z
1/2+x,1/2-y,z
loop_
_atom_site_type_symbol
_atom_site_label
_atom_site_fract_x
_atom_site_fract_y
_atom_site_fract_z
Si Si1 0.066585 0.671861 0.794066
Si Si2 0.625632 0.136471 0.090288
Si Si3 0.775407 0.644243 0.435818
Si Si4 0.254647 0.312009 0.257985
Si Si5 0.564021 0.729599 0.703046
Si Si6 0.639994 0.052389 0.577957
Si Si7 0.360159 0.277511 0.630447
Si Si8 0.564067 0.947842 0.267916
O O1 0.120318 0.659005 0.636867
O O2 0.070404 0.727018 0.810312
O O3 0.956372 0.660144 0.796229
O O4 0.111512 0.644707 0.922126
O O5 0.723145 0.161956 0.116753
O O6 0.618858 0.082470 0.134339
O O7 0.774793 0.654215 0.606318
O O8 0.773008 0.588475 0.407613
O O9 0.693858 0.672898 0.366227
O O10 0.369673 0.308693 0.231945
O O11 0.207712 0.260915 0.283387
O O12 0.612255 0.740370 0.536082
O O13 0.455206 0.713257 0.706356
O O14 0.548644 0.064109 0.698161
O O15 0.611060 0.058315 0.415905
O O16 0.675379 0.000000 0.601361
O O17 0.576264 0.000000 0.210254
#
# Coordination Sequence:
#
# PCOD8085843 Si02
#       8
#     8   8   8   8   8   8   8   8
#     4  11  21  31  45  68 105 130 163 199 236 283
#     4  11  22  31  45  74  97 136 165 193 248 283
#     4  11  18  32  51  71  94 128 165 201 238 289
#     4  11  19  31  52  71  89 130 171 197 241 285
#     4  10  19  33  46  71  99 123 166 203 232 291
#     4   9  17  28  50  76  95 122 163 208 246 285
#     4  10  19  30  51  74  93 126 165 203 249 276
#     4   9  17  31  48  71 100 128 162 202 243 293
#
# _framework density 17.171503000000001
#
# number of rings (size 3 to 8) (size 9 to 14) (size 15 to 20)
#    0.000    1.750    6.250    1.500    0.000    1.000 
#    0.000    1.875    0.000    0.000    0.000    7.875 
#    0.000    0.000    0.000    2.250    0.000    0.000 
#
# Total GULP energy -396548.727843 kJ/mol
# GULP energy per Si atom -12392.147745 kJ/mol
# Density = 1.713242 g / cm^3
# Si number density = 17.171503 Si / 1000 Ang^3
#
#
#
# Elastic Constant Matrix: (Units=GPa)
#
#
# Indices 1 2 3 4 5 6 
#
# 1 76.1585 40.7974 7.5126 0.0000 10.9937 0.0000
# 2 40.7974 124.4190 16.2593 0.0000 8.3814 0.0000
# 3 7.5126 16.2593 18.3747 0.0000 7.5785 0.0000
# 4 0.0000 0.0000 0.0000 20.4276 0.0000 1.7371
# 5 10.9937 8.3814 7.5785 0.0000 18.8462 0.0000
# 6 0.0000 0.0000 0.0000 1.7371 0.0000 24.9976
#
#
#
# Elastic Compliance Matrix: (Units=1/GPa)
#
#
# Indices 1 2 3 4 5 6 
#
# 1 0.016943 -0.005137 0.000902 0.000000 -0.007962 0.000000
# 2 -0.005137 0.010661 -0.007929 0.000000 0.001444 0.000000
# 3 0.000902 -0.007929 0.071729 0.000000 -0.025844 0.000000
# 4 0.000000 0.000000 0.000000 0.049244 0.000000 -0.003422
# 5 -0.007962 0.001444 -0.025844 0.000000 0.067456 0.000000
# 6 0.000000 0.000000 0.000000 -0.003422 0.000000 0.040242
#
#
# Mechanical properties :
#
#
# Convention : Reuss Voigt Hill
#
# Bulk Modulus (GPa) = 13.33234 38.67675 26.00454
# Shear Modulus (GPa) = 16.36110 23.14647 19.75379
#
# Velocity S-wave (km/s) = 3.09010 3.67544 3.39541
# Velocity P-wave (km/s) = 4.52910 6.37060 5.52708
#
# Compressibility (1/GPa) = 0.07500560
#
# Stress axis : x y z
#
# Youngs Moduli (GPa) = 59.02240 93.80240 13.94136
#
# Poissons Ratio (x) = 0.48188 -0.01258
# Poissons Ratio (y) = 0.30321 0.11054
# Poissons Ratio (z) = -0.05326 0.74372
#
# Static dielectric constant tensor:
#      x y z
#    x 3.196800 0.000000 0.014220 
#    y 0.000000 3.327680 0.000000 
#    z 0.014220 0.000000 2.896290 
# 
# 
# High freq. dielectric constant tensor:
#      x y z
#    x 1.636640 0.000000 0.007240 
#    y 0.000000 1.656240 0.000000 
#    z 0.007240 0.000000 1.641280 
# 
# From -- ./inp_files/67840.got.cif
#   From: 2010.06.25/outbox.cif.g09.slc.cpg/sg12_34_cif.got.tgz:67840.got - 2010.06.28 00:19:55.
