data_PCOD8085000
_publ_section_title
;
Structure prediction by ZEFSAII (Michael W. Deem and Ramdas Pophale) SiO2 
 PCOD8085000
Probable space group: C 2/M
;
_chemical_formula_sum "Si O2"
_cell_formula_units_Z 48
_cell_length_a 27.303928
_cell_length_b 8.989354
_cell_length_c 23.963867
_cell_angle_alpha 90.000000
_cell_angle_beta 29.653974
_cell_angle_gamma 90.000000
_cell_volume 2910.085424
_symmetry_space_group_name_H-M "C 2/M"
_symmetry_group_IT_number 12
_symmetry_cell_setting 'monoclinic'
loop_
_space_group_symop_operation_xyz
x,y,z
-x,y,-z
-x,-y,-z
x,-y,z
1/2+x,1/2+y,z
1/2-x,1/2+y,-z
1/2-x,1/2-y,-z
1/2+x,1/2-y,z
loop_
_atom_site_type_symbol
_atom_site_label
_atom_site_fract_x
_atom_site_fract_y
_atom_site_fract_z
Si Si1 0.883089 0.323710 0.053515
Si Si2 0.606265 0.824755 0.833577
Si Si3 0.097854 0.826757 0.630457
Si Si4 0.399290 0.173622 0.833609
Si Si5 0.796053 0.673574 0.374807
Si Si6 0.700841 0.673748 0.966870
O O1 0.869957 0.500000 0.058601
O O2 0.855587 0.269894 0.143667
O O3 0.809570 0.239359 0.084645
O O4 0.995239 0.269458 0.930051
O O5 0.681510 0.773361 0.710583
O O6 0.599673 0.000000 0.843989
O O7 0.133913 0.767368 0.654282
O O8 0.181053 0.794437 0.501272
O O9 0.999030 0.742393 0.709131
O O10 0.074896 0.000000 0.658801
O O11 0.312185 0.208239 0.876316
O O12 0.413752 0.000000 0.829548
O O13 0.377360 0.247471 0.914978
O O14 0.821390 0.500000 0.358480
O O15 0.677687 0.500000 0.990217
#
# Coordination Sequence:
#
# PCOD8085000 Si02
#       6
#     8   8   8   8   8   8
#     4   9  16  28  48  70  92 120 151 182 221 270
#     4   8  15  28  46  68  92 121 154 181 214 269
#     4  10  19  29  45  70  95 120 154 192 226 265
#     4  10  20  33  48  65  90 123 152 183 227 275
#     4   9  17  30  47  67  95 127 154 184 225 270
#     4  10  20  32  47  69  93 116 148 188 229 274
#
# _framework density 16.494361000000001
#
# number of rings (size 3 to 8) (size 9 to 14) (size 15 to 20)
#    0.000    2.667    0.000    3.500    0.000    4.000 
#    0.000    2.500    0.000    1.000    0.000    7.000 
#    0.000    0.000    0.000    0.000    0.000    0.000 
#
# Total GULP energy -297576.694853 kJ/mol
# GULP energy per Si atom -12399.028952 kJ/mol
# Density = 1.645682 g / cm^3
# Si number density = 16.494361 Si / 1000 Ang^3
#
#
#
# Elastic Constant Matrix: (Units=GPa)
#
#
# Indices 1 2 3 4 5 6 
#
# 1 114.2929 46.1356 63.6189 -0.0016 12.1103 -0.0002
# 2 46.1356 68.9387 44.5759 -0.0133 -1.5816 0.0079
# 3 63.6189 44.5759 116.9151 -0.0079 9.1900 0.0061
# 4 -0.0016 -0.0133 -0.0079 24.0454 0.0022 -3.3059
# 5 12.1103 -1.5816 9.1900 0.0022 26.7950 -0.0011
# 6 -0.0002 0.0079 0.0061 -3.3059 -0.0011 28.0900
#
#
#
# Elastic Compliance Matrix: (Units=1/GPa)
#
#
# Indices 1 2 3 4 5 6 
#
# 1 0.014901 -0.006804 -0.005090 -0.000004 -0.005390 0.000002
# 2 -0.006804 0.022734 -0.005459 0.000009 0.006290 -0.000004
# 3 -0.005090 -0.005459 0.013616 0.000001 -0.002692 -0.000001
# 4 -0.000004 0.000009 0.000001 0.042272 -0.000001 0.004975
# 5 -0.005390 0.006290 -0.002692 -0.000001 0.041051 0.000000
# 6 0.000002 -0.000004 -0.000001 0.004975 0.000000 0.036185
#
#
# Mechanical properties :
#
#
# Convention : Reuss Voigt Hill
#
# Bulk Modulus (GPa) = 60.45012 67.64529 64.04770
# Shear Modulus (GPa) = 23.69888 25.50716 24.60302
#
# Velocity S-wave (km/s) = 3.79461 3.93672 3.86632
# Velocity P-wave (km/s) = 7.47845 7.85900 7.67109
#
# Compressibility (1/GPa) = 0.01654256
#
# Stress axis : x y z
#
# Youngs Moduli (GPa) = 67.11181 43.98776 73.44243
#
# Poissons Ratio (x) = 0.29930 0.37383
# Poissons Ratio (y) = 0.45664 0.40096
# Poissons Ratio (z) = 0.34161 0.24015
#
# Static dielectric constant tensor:
#      x y z
#    x 3.109040 0.000000 0.115940 
#    y 0.000000 3.009510 0.000010 
#    z 0.115940 0.000010 3.218540 
# 
# 
# High freq. dielectric constant tensor:
#      x y z
#    x 1.624740 0.000000 0.002340 
#    y 0.000000 1.628890 0.000000 
#    z 0.002340 0.000000 1.627100 
# 
# From -- ./inp_files/179730.got.cif
#   From: 2010.06.25/outbox.cif.g09.slc.cpg/sg12_90_cif.got.tgz:179730.got - 2010.06.28 00:19:55.
