data_PCOD8085254
_publ_section_title
;
Structure prediction by ZEFSAII (Michael W. Deem and Ramdas Pophale) SiO2 
 PCOD8085254
Probable space group: C 2/M
;
_chemical_formula_sum "Si O2"
_cell_formula_units_Z 64
_cell_length_a 20.496063
_cell_length_b 9.214468
_cell_length_c 23.857501
_cell_angle_alpha 90.000000
_cell_angle_beta 123.557727
_cell_angle_gamma 90.000000
_cell_volume 3754.761190
_symmetry_space_group_name_H-M "C 2/M"
_symmetry_group_IT_number 12
_symmetry_cell_setting 'monoclinic'
loop_
_space_group_symop_operation_xyz
x,y,z
-x,y,-z
-x,-y,-z
x,-y,z
1/2+x,1/2+y,z
1/2-x,1/2+y,-z
1/2-x,1/2-y,-z
1/2+x,1/2-y,z
loop_
_atom_site_type_symbol
_atom_site_label
_atom_site_fract_x
_atom_site_fract_y
_atom_site_fract_z
Si Si1 0.940457 0.827699 0.680477
Si Si2 0.875509 0.828365 0.425347
Si Si3 0.831068 0.827724 0.031655
Si Si4 0.214115 0.171525 0.327972
Si Si5 0.019812 0.172023 0.422410
Si Si6 0.378530 0.672087 0.821286
Si Si7 0.912019 0.827471 0.957635
Si Si8 0.472032 0.672262 0.171576
O O1 0.854808 0.779562 0.661942
O O2 0.959709 0.759363 0.628663
O O3 0.008186 0.773851 0.755899
O O4 0.942130 0.000000 0.677633
O O5 0.793044 0.750635 0.381822
O O6 0.914458 0.777523 0.502241
O O7 0.933420 0.779263 0.402254
O O8 0.862127 0.000000 0.417808
O O9 0.887353 0.775920 0.109467
O O10 0.819656 0.000000 0.026174
O O11 0.750000 0.750000 0.000000
O O12 0.866323 0.770168 0.989938
O O13 0.190842 0.221404 0.253586
O O14 0.227404 0.000000 0.337624
O O15 0.020850 0.000000 0.419818
O O16 0.382859 0.500000 0.821811
O O17 0.366847 0.726550 0.879698
O O18 0.461414 0.733745 0.838491
O O19 0.915908 0.000000 0.961138
O O20 0.000000 0.764600 0.000000
O O21 0.475285 0.500000 0.171136
#
# Coordination Sequence:
#
# PCOD8085254 Si02
#       8
#     8   8   8   8   8   8   8   8
#     4   8  14  26  46  68  86 110 148 186 217 252
#     4   9  17  30  47  65  88 117 148 180 212 254
#     4  10  19  30  45  67  93 117 144 181 222 259
#     4   9  17  28  45  69  93 112 137 182 230 260
#     4   8  15  29  46  62  84 119 155 178 204 254
#     4   8  13  24  43  67  88 108 144 188 219 248
#     4   9  14  24  46  69  84 109 153 191 211 242
#     4   8  13  24  43  65  86 110 145 187 218 247
#
# _framework density 17.045024999999999
#
# number of rings (size 3 to 8) (size 9 to 14) (size 15 to 20)
#    0.000    3.375    1.250    2.250    0.000    0.500 
#    2.250    1.250    0.000    4.125    0.000    0.000 
#    0.000    0.000    0.000    0.000    0.000    0.000 
#
# Total GULP energy -396460.059120 kJ/mol
# GULP energy per Si atom -12389.376848 kJ/mol
# Density = 1.700623 g / cm^3
# Si number density = 17.045025 Si / 1000 Ang^3
#
#
#
# Elastic Constant Matrix: (Units=GPa)
#
#
# Indices 1 2 3 4 5 6 
#
# 1 137.6574 22.7656 103.2341 0.0000 -4.9061 0.0000
# 2 22.7656 15.4235 24.5020 0.0000 4.1214 0.0000
# 3 103.2341 24.5020 160.1297 0.0000 -2.7406 0.0000
# 4 0.0000 0.0000 0.0000 17.8312 0.0000 9.3351
# 5 -4.9061 4.1214 -2.7406 0.0000 34.6311 0.0000
# 6 0.0000 0.0000 0.0000 9.3351 0.0000 17.3394
#
#
#
# Elastic Compliance Matrix: (Units=1/GPa)
#
#
# Indices 1 2 3 4 5 6 
#
# 1 0.015175 -0.010111 -0.008189 0.000000 0.002705 0.000000
# 2 -0.010111 0.097004 -0.008558 0.000000 -0.013654 0.000000
# 3 -0.008189 -0.008558 0.012849 0.000000 0.000875 0.000000
# 4 0.000000 0.000000 0.000000 0.078092 0.000000 -0.042042
# 5 0.002705 -0.013654 0.000875 0.000000 0.030953 0.000000
# 6 0.000000 0.000000 0.000000 -0.042042 0.000000 0.080307
#
#
# Mechanical properties :
#
#
# Convention : Reuss Voigt Hill
#
# Bulk Modulus (GPa) = 14.02313 68.24599 41.13456
# Shear Modulus (GPa) = 12.75943 24.80760 18.78352
#
# Velocity S-wave (km/s) = 2.73897 3.81913 3.32323
# Velocity P-wave (km/s) = 4.27172 7.71837 6.23782
#
# Compressibility (1/GPa) = 0.07131075
#
# Stress axis : x y z
#
# Youngs Moduli (GPa) = 65.89994 10.30881 77.82630
#
# Poissons Ratio (x) = 0.10423 0.63736
# Poissons Ratio (y) = 0.66631 0.66606
# Poissons Ratio (z) = 0.53969 0.08823
#
# Static dielectric constant tensor:
#      x y z
#    x 3.392540 0.000000 -0.336850 
#    y 0.000000 2.531070 0.000000 
#    z -0.336850 0.000000 3.654580 
# 
# 
# High freq. dielectric constant tensor:
#      x y z
#    x 1.652790 0.000000 -0.007500 
#    y 0.000000 1.587500 0.000000 
#    z -0.007500 0.000000 1.673390 
# 
# From -- ./inp_files/343088.got.cif
#   From: 2010.06.25/outbox.cif.g09.slc.cpg/sg12_172_cif.got.tgz:343088.got - 2010.06.28 00:19:55.
