data_PCOD8085082
_publ_section_title
;
Structure prediction by ZEFSAII (Michael W. Deem and Ramdas Pophale) SiO2 
 PCOD8085082
Probable space group: C 2/M
;
_chemical_formula_sum "Si O2"
_cell_formula_units_Z 56
_cell_length_a 21.623180
_cell_length_b 13.916396
_cell_length_c 25.206738
_cell_angle_alpha 90.000000
_cell_angle_beta 23.218892
_cell_angle_gamma 90.000000
_cell_volume 2990.398946
_symmetry_space_group_name_H-M "C 2/M"
_symmetry_group_IT_number 12
_symmetry_cell_setting 'monoclinic'
loop_
_space_group_symop_operation_xyz
x,y,z
-x,y,-z
-x,-y,-z
x,-y,z
1/2+x,1/2+y,z
1/2-x,1/2+y,-z
1/2-x,1/2-y,-z
1/2+x,1/2-y,z
loop_
_atom_site_type_symbol
_atom_site_label
_atom_site_fract_x
_atom_site_fract_y
_atom_site_fract_z
Si Si1 0.125950 0.888243 0.213057
Si Si2 0.122995 0.282246 0.750559
Si Si3 0.631727 0.891368 0.582533
Si Si4 0.109885 0.608192 0.140873
Si Si5 0.132908 0.203170 0.522792
Si Si6 0.017637 0.388272 0.047149
Si Si7 0.044351 0.888004 0.158119
O O1 0.051750 0.856991 0.214772
O O2 0.043980 0.832586 0.327092
O O3 0.101893 0.000000 0.242357
O O4 0.309010 0.862767 0.069053
O O5 0.297836 0.309827 0.591300
O O6 0.985202 0.327133 0.824270
O O7 0.106679 0.321679 0.823048
O O8 0.091364 0.168295 0.767276
O O9 0.459985 0.883643 0.744775
O O10 0.762523 0.863384 0.521905
O O11 0.643551 0.817354 0.524953
O O12 0.663755 0.000000 0.536874
O O13 0.095906 0.500000 0.129581
O O14 0.291004 0.638461 0.999592
O O15 0.976601 0.500000 0.088913
O O16 0.000000 0.360438 0.000000
O O17 0.004903 0.000000 0.184497
#
# Coordination Sequence:
#
# PCOD8085082 Si02
#       7
#     8   8   8   8   8   8   8
#     4  10  19  33  52  75 106 135 163 205 249 301
#     4  11  20  31  51  73 104 136 166 208 251 295
#     4   9  17  28  42  66 109 145 166 195 240 301
#     4   9  16  26  43  71 101 133 168 203 243 292
#     4  10  20  29  44  73 101 138 171 198 247 300
#     4  10  22  39  57  75  96 129 172 214 257 299
#     4  10  19  29  47  79 109 136 168 201 249 300
#
# _framework density 18.726597000000002
#
# number of rings (size 3 to 8) (size 9 to 14) (size 15 to 20)
#    0.000    2.143    1.429    3.857    2.000    3.429 
#    0.000    0.714    0.000    3.000    0.000    0.000 
#    0.000    2.286    0.000    0.000    0.000    0.000 
#
# Total GULP energy -347068.295088 kJ/mol
# GULP energy per Si atom -12395.296253 kJ/mol
# Density = 1.868397 g / cm^3
# Si number density = 18.726597 Si / 1000 Ang^3
#
#
#
# Elastic Constant Matrix: (Units=GPa)
#
#
# Indices 1 2 3 4 5 6 
#
# 1 50.6973 28.2080 18.2789 0.0020 23.0882 -0.0003
# 2 28.2080 81.6472 38.0240 0.0093 15.8271 0.0000
# 3 18.2789 38.0240 101.7531 0.0215 31.9667 -0.0013
# 4 0.0020 0.0093 0.0215 28.0568 -0.0006 3.6910
# 5 23.0882 15.8271 31.9667 -0.0006 22.5330 -0.0011
# 6 -0.0003 0.0000 -0.0013 3.6910 -0.0011 17.9725
#
#
#
# Elastic Compliance Matrix: (Units=1/GPa)
#
#
# Indices 1 2 3 4 5 6 
#
# 1 0.051371 -0.012400 0.016607 -0.000014 -0.067487 0.000001
# 2 -0.012400 0.018092 -0.008177 0.000001 0.011598 0.000000
# 3 0.016607 -0.008177 0.024249 -0.000018 -0.045674 0.000003
# 4 -0.000014 0.000001 -0.000018 0.036632 0.000040 -0.007523
# 5 -0.067487 0.011598 -0.045674 0.000040 0.170178 -0.000002
# 6 0.000001 0.000000 0.000003 -0.007523 -0.000002 0.057186
#
#
# Mechanical properties :
#
#
# Convention : Reuss Voigt Hill
#
# Bulk Modulus (GPa) = 11.65878 44.79103 28.22491
# Shear Modulus (GPa) = 12.68274 23.68492 18.18383
#
# Velocity S-wave (km/s) = 2.60524 3.56022 3.11949
# Velocity P-wave (km/s) = 3.91012 6.39301 5.29904
#
# Compressibility (1/GPa) = 0.08577230
#
# Stress axis : x y z
#
# Youngs Moduli (GPa) = 19.46624 55.27443 41.23916
#
# Poissons Ratio (x) = 0.68540 -0.68486
# Poissons Ratio (y) = 0.24138 0.33720
# Poissons Ratio (z) = -0.32328 0.45196
#
# Static dielectric constant tensor:
#      x y z
#    x 2.866230 -0.000020 0.283670 
#    y -0.000020 3.624540 0.000030 
#    z 0.283670 0.000030 3.806570 
# 
# 
# High freq. dielectric constant tensor:
#      x y z
#    x 1.640160 0.000000 0.025450 
#    y 0.000000 1.736260 0.000000 
#    z 0.025450 0.000000 1.749290 
# 
# From -- ./inp_files/368063.got.cif
#   From: 2010.06.25/outbox.cif.g09.slc.cpg/sg12_185_cif.got.tgz:368063.got - 2010.06.28 00:19:55.
