data_PCOD8085770
_publ_section_title
;
Structure prediction by ZEFSAII (Michael W. Deem and Ramdas Pophale) SiO2 
 PCOD8085770
Probable space group: C 2/M
;
_chemical_formula_sum "Si O2"
_cell_formula_units_Z 48
_cell_length_a 29.472040
_cell_length_b 9.325259
_cell_length_c 19.424602
_cell_angle_alpha 90.000000
_cell_angle_beta 31.490660
_cell_angle_gamma 90.000000
_cell_volume 2788.642115
_symmetry_space_group_name_H-M "C 2/M"
_symmetry_group_IT_number 12
_symmetry_cell_setting 'monoclinic'
loop_
_space_group_symop_operation_xyz
x,y,z
-x,y,-z
-x,-y,-z
x,-y,z
1/2+x,1/2+y,z
1/2-x,1/2+y,-z
1/2-x,1/2-y,-z
1/2+x,1/2-y,z
loop_
_atom_site_type_symbol
_atom_site_label
_atom_site_fract_x
_atom_site_fract_y
_atom_site_fract_z
Si Si1 0.900713 0.834420 0.942259
Si Si2 0.274524 0.165353 0.900868
Si Si3 0.520401 0.165489 0.688686
Si Si4 0.338906 0.835150 0.385139
Si Si5 0.995350 0.331780 0.085549
Si Si6 0.539043 0.168181 0.380705
O O1 0.927214 0.753377 0.977685
O O2 0.947435 0.765302 0.816105
O O3 0.928469 0.000000 0.911906
O O4 0.797616 0.817460 0.065300
O O5 0.364653 0.230351 0.755951
O O6 0.285642 0.000000 0.907982
O O7 0.250000 0.250000 0.000000
O O8 0.613379 0.195161 0.603754
O O9 0.523964 0.201049 0.602831
O O10 0.493256 0.000000 0.736477
O O11 0.250000 0.750000 0.500000
O O12 0.402849 0.788457 0.239654
O O13 0.313768 0.000000 0.409475
O O14 0.011864 0.500000 0.074916
O O15 0.000000 0.287578 0.000000
O O16 0.500000 0.241393 0.500000
O O17 0.547450 0.000000 0.382226
#
# Coordination Sequence:
#
# PCOD8085770 Si02
#       6
#     8   8   8   8   8   8
#     4  10  19  30  49  80 106 127 162 210 259 296
#     4  10  19  31  51  77 101 130 169 208 246 296
#     4   9  17  32  53  73  95 134 176 203 240 300
#     4   9  18  32  51  75  97 126 167 205 244 293
#     4   9  19  37  57  74  98 134 173 205 243 303
#     4   9  17  31  51  73  99 132 169 206 243 289
#
# _framework density 17.212679000000001
#
# number of rings (size 3 to 8) (size 9 to 14) (size 15 to 20)
#    0.000    2.667    1.667    1.500    0.000    3.667 
#    3.000    0.000    0.000    2.000    0.000    0.000 
#    0.000    0.000    0.000    0.000    0.000    0.000 
#
# Total GULP energy -297524.510302 kJ/mol
# GULP energy per Si atom -12396.854596 kJ/mol
# Density = 1.717350 g / cm^3
# Si number density = 17.212679 Si / 1000 Ang^3
#
#
#
# Elastic Constant Matrix: (Units=GPa)
#
#
# Indices 1 2 3 4 5 6 
#
# 1 147.5625 46.5653 86.5589 0.0000 9.5712 -0.0005
# 2 46.5653 52.8101 39.5115 -0.0032 -2.7933 0.0014
# 3 86.5589 39.5115 126.4708 -0.0034 0.6464 0.0008
# 4 0.0000 -0.0032 -0.0034 22.3410 0.0008 -3.2421
# 5 9.5712 -2.7933 0.6464 0.0008 33.6111 0.0003
# 6 -0.0005 0.0014 0.0008 -3.2421 0.0003 23.0430
#
#
#
# Elastic Compliance Matrix: (Units=1/GPa)
#
#
# Indices 1 2 3 4 5 6 
#
# 1 0.013236 -0.006696 -0.006946 -0.000002 -0.004192 0.000001
# 2 -0.006696 0.028264 -0.004269 0.000003 0.004338 -0.000001
# 3 -0.006946 -0.004269 0.013988 0.000001 0.001354 0.000000
# 4 -0.000002 0.000003 0.000001 0.045694 0.000000 0.006429
# 5 -0.004192 0.004338 0.001354 0.000000 0.031280 -0.000001
# 6 0.000001 -0.000001 0.000000 0.006429 -0.000001 0.044302
#
#
# Mechanical properties :
#
#
# Convention : Reuss Voigt Hill
#
# Bulk Modulus (GPa) = 50.85092 74.67944 62.76518
# Shear Modulus (GPa) = 22.81654 26.07954 24.44804
#
# Velocity S-wave (km/s) = 3.64478 3.89670 3.77284
# Velocity P-wave (km/s) = 6.87891 7.98287 7.45136
#
# Compressibility (1/GPa) = 0.01966533
#
# Stress axis : x y z
#
# Youngs Moduli (GPa) = 75.55223 35.38121 71.49239
#
# Poissons Ratio (x) = 0.23691 0.49655
# Poissons Ratio (y) = 0.50589 0.30523
# Poissons Ratio (z) = 0.52475 0.15105
#
# Static dielectric constant tensor:
#      x y z
#    x 3.416980 0.000000 0.019190 
#    y 0.000000 3.079170 0.000000 
#    z 0.019190 0.000000 3.314170 
# 
# 
# High freq. dielectric constant tensor:
#      x y z
#    x 1.673660 0.000000 -0.006270 
#    y 0.000000 1.647630 0.000000 
#    z -0.006270 0.000000 1.649960 
# 
# From -- ./inp_files/319371.got.cif
#   From: 2010.06.25/outbox.cif.g09.slc.cpg/sg12_160_cif.got.tgz:319371.got - 2010.06.28 00:19:55.
