data_PCOD8085444
_publ_section_title
;
Structure prediction by ZEFSAII (Michael W. Deem and Ramdas Pophale) SiO2 
 PCOD8085444
Probable space group: C 2/M
;
_chemical_formula_sum "Si O2"
_cell_formula_units_Z 64
_cell_length_a 16.967686
_cell_length_b 22.699546
_cell_length_c 23.286075
_cell_angle_alpha 90.000000
_cell_angle_beta 155.564350
_cell_angle_gamma 90.000000
_cell_volume 3710.147224
_symmetry_space_group_name_H-M "C 2/M"
_symmetry_group_IT_number 12
_symmetry_cell_setting 'monoclinic'
loop_
_space_group_symop_operation_xyz
x,y,z
-x,y,-z
-x,-y,-z
x,-y,z
1/2+x,1/2+y,z
1/2-x,1/2+y,-z
1/2-x,1/2-y,-z
1/2+x,1/2-y,z
loop_
_atom_site_type_symbol
_atom_site_label
_atom_site_fract_x
_atom_site_fract_y
_atom_site_fract_z
Si Si1 0.076441 0.568093 0.397064
Si Si2 0.875898 0.679810 0.642338
Si Si3 0.923272 0.267776 0.885060
Si Si4 0.858385 0.067202 0.859798
Si Si5 0.977080 0.152320 0.847305
Si Si6 0.363298 0.810982 0.074418
Si Si7 0.641064 0.861180 0.546130
Si Si8 0.004518 0.251617 0.387585
O O1 0.129559 0.500000 0.418525
O O2 0.132230 0.611036 0.381678
O O3 0.184008 0.589577 0.526196
O O4 0.853360 0.576711 0.258931
O O5 0.984448 0.722154 0.669410
O O6 0.659175 0.701523 0.503159
O O7 0.980981 0.685174 0.772430
O O8 0.697849 0.279186 0.736723
O O9 0.967664 0.204271 0.887549
O O10 0.025413 0.317103 0.912477
O O11 0.000000 0.272165 0.000000
O O12 0.892943 0.094304 0.820513
O O13 0.913344 0.000000 0.888553
O O14 0.000000 0.097128 0.000000
O O15 0.842605 0.163390 0.703040
O O16 0.195413 0.140682 0.971286
O O17 0.250000 0.750000 0.000000
O O18 0.500000 0.889399 0.500000
O O19 0.526641 0.805772 0.445442
#
# Coordination Sequence:
#
# PCOD8085444 Si02
#       8
#     8   8   8   8   8   8   8   8
#     4  10  21  35  51  75 105 140 180 218 255 307
#     4  10  20  34  52  76 105 141 173 216 268 309
#     4  11  21  32  50  74 103 137 168 206 256 313
#     4  10  19  30  47  69  95 131 170 206 245 298
#     4  11  19  32  49  69 105 136 168 203 251 307
#     4  10  21  32  49  75 102 135 170 211 257 316
#     4  11  19  31  49  75 104 140 171 209 257 307
#     4  10  19  32  51  74 106 136 173 209 259 324
#
# _framework density 17.249988999999999
#
# number of rings (size 3 to 8) (size 9 to 14) (size 15 to 20)
#    0.000    1.625    2.500    4.875    0.000    2.750 
#    0.000    0.000    0.000    0.000    0.000    2.625 
#    0.000    3.500    0.000    0.000    0.000    0.000 
#
# Total GULP energy -396727.252126 kJ/mol
# GULP energy per Si atom -12397.726629 kJ/mol
# Density = 1.721073 g / cm^3
# Si number density = 17.249989 Si / 1000 Ang^3
#
#
#
# Elastic Constant Matrix: (Units=GPa)
#
#
# Indices 1 2 3 4 5 6 
#
# 1 90.6772 27.8490 59.1789 -0.0195 -5.4635 -0.0070
# 2 27.8490 73.3324 28.5104 0.0258 -0.1818 0.0017
# 3 59.1789 28.5104 119.9720 0.1051 -5.0558 0.0029
# 4 -0.0195 0.0258 0.1051 17.4610 0.0048 1.9796
# 5 -5.4635 -0.1818 -5.0558 0.0048 39.0103 -0.0089
# 6 -0.0070 0.0017 0.0029 1.9796 -0.0089 17.6104
#
#
#
# Elastic Compliance Matrix: (Units=1/GPa)
#
#
# Indices 1 2 3 4 5 6 
#
# 1 0.017132 -0.003570 -0.007543 0.000069 0.001405 0.000001
# 2 -0.003570 0.015775 -0.002017 -0.000015 -0.000688 -0.000001
# 3 -0.007543 -0.002017 0.012559 -0.000082 0.000562 0.000005
# 4 0.000069 -0.000015 -0.000082 0.058010 -0.000010 -0.006521
# 5 0.001405 -0.000688 0.000562 -0.000010 0.025901 0.000015
# 6 0.000001 -0.000001 0.000005 -0.006521 0.000015 0.057518
#
#
# Mechanical properties :
#
#
# Convention : Reuss Voigt Hill
#
# Bulk Modulus (GPa) = 52.06709 57.22871 54.64790
# Shear Modulus (GPa) = 22.77315 26.04591 24.40953
#
# Velocity S-wave (km/s) = 3.63737 3.88997 3.76579
# Velocity P-wave (km/s) = 6.92026 7.30917 7.11737
#
# Compressibility (1/GPa) = 0.01920599
#
# Stress axis : x y z
#
# Youngs Moduli (GPa) = 58.36940 63.39274 79.62296
#
# Poissons Ratio (x) = 0.22631 0.60062
# Poissons Ratio (y) = 0.20838 0.16058
# Poissons Ratio (z) = 0.44030 0.12784
#
# Static dielectric constant tensor:
#      x y z
#    x 3.628600 0.000020 0.138890 
#    y 0.000020 3.067440 -0.000080 
#    z 0.138890 -0.000080 3.620420 
# 
# 
# High freq. dielectric constant tensor:
#      x y z
#    x 1.658620 0.000000 -0.009570 
#    y 0.000000 1.624580 -0.000010 
#    z -0.009570 -0.000010 1.684300 
# 
# From -- ./inp_files/345151.got.cif
#   From: 2010.06.25/outbox.cif.g09.slc.cpg/sg12_173_cif.got.tgz:345151.got - 2010.06.28 00:19:55.
