data_PCOD8085419
_publ_section_title
;
Structure prediction by ZEFSAII (Michael W. Deem and Ramdas Pophale) SiO2 
 PCOD8085419
Probable space group: C 2/M
;
_chemical_formula_sum "Si O2"
_cell_formula_units_Z 64
_cell_length_a 7.758538
_cell_length_b 26.387901
_cell_length_c 21.636939
_cell_angle_alpha 90.000000
_cell_angle_beta 57.271519
_cell_angle_gamma 90.000000
_cell_volume 3726.503843
_symmetry_space_group_name_H-M "C 2/M"
_symmetry_group_IT_number 12
_symmetry_cell_setting 'monoclinic'
loop_
_space_group_symop_operation_xyz
x,y,z
-x,y,-z
-x,-y,-z
x,-y,z
1/2+x,1/2+y,z
1/2-x,1/2+y,-z
1/2-x,1/2-y,-z
1/2+x,1/2-y,z
loop_
_atom_site_type_symbol
_atom_site_label
_atom_site_fract_x
_atom_site_fract_y
_atom_site_fract_z
Si Si1 0.201556 0.692378 0.499447
Si Si2 0.409346 0.199046 0.765584
Si Si3 0.623537 0.440718 0.414149
Si Si4 0.917721 0.317217 0.075544
Si Si5 0.187049 0.205891 0.926447
Si Si6 0.506435 0.870397 0.635808
Si Si7 0.314991 0.685366 0.764614
Si Si8 0.118474 0.877460 0.630155
O O1 0.250000 0.750000 0.500000
O O2 0.168810 0.667435 0.572456
O O3 0.375299 0.664055 0.426305
O O4 0.000000 0.686298 0.500000
O O5 0.210695 0.190316 0.849384
O O6 0.387241 0.161085 0.712045
O O7 0.411891 0.258294 0.746693
O O8 0.621890 0.185777 0.756898
O O9 0.500000 0.425304 0.500000
O O10 0.664147 0.500000 0.404022
O O11 0.851011 0.415749 0.366675
O O12 0.486600 0.426459 0.380579
O O13 0.830743 0.266013 0.062030
O O14 0.740547 0.336962 0.155788
O O15 0.103525 0.309011 0.084384
O O16 0.000000 0.350507 0.000000
O O17 0.000000 0.178880 0.000000
O O18 0.338200 0.891232 0.618846
O O19 0.478825 0.645128 0.710608
#
# Coordination Sequence:
#
# PCOD8085419 Si02
#       8
#     8   8   8   8   8   8   8   8
#     4  10  22  32  48  75 103 140 176 204 243 300
#     4  10  19  30  46  72 106 146 182 215 258 309
#     4  11  24  42  64  80 100 135 172 222 274 309
#     4   9  16  25  39  60  93 137 182 217 246 292
#     4   9  16  25  39  60  93 137 182 217 246 292
#     4  11  22  37  54  78 107 135 173 218 261 311
#     4  10  19  30  46  72 106 146 182 215 258 309
#     4  11  22  37  54  78 107 135 173 218 261 311
#
# _framework density 17.174272999999999
#
# number of rings (size 3 to 8) (size 9 to 14) (size 15 to 20)
#    0.000    1.875    2.500    3.000    1.750    5.500 
#    0.000    1.250    0.000    0.000    0.000    0.000 
#    0.000    1.000    0.500    0.000    0.000    0.000 
#
# Total GULP energy -396433.034032 kJ/mol
# GULP energy per Si atom -12388.532313 kJ/mol
# Density = 1.713518 g / cm^3
# Si number density = 17.174273 Si / 1000 Ang^3
#
#
#
# Elastic Constant Matrix: (Units=GPa)
#
#
# Indices 1 2 3 4 5 6 
#
# 1 59.2677 17.3817 13.5996 0.0000 2.6804 0.0000
# 2 17.3817 54.5494 31.3808 0.0000 1.4698 0.0000
# 3 13.5996 31.3808 130.6465 0.0000 4.3960 0.0000
# 4 0.0000 0.0000 0.0000 9.4090 0.0000 -0.3077
# 5 2.6804 1.4698 4.3960 0.0000 25.0612 0.0000
# 6 0.0000 0.0000 0.0000 -0.3077 0.0000 19.8907
#
#
#
# Elastic Compliance Matrix: (Units=1/GPa)
#
#
# Indices 1 2 3 4 5 6 
#
# 1 0.018714 -0.005605 -0.000549 0.000000 -0.001577 0.000000
# 2 -0.005605 0.022953 -0.004934 0.000000 0.000119 0.000000
# 3 -0.000549 -0.004934 0.008937 0.000000 -0.001220 0.000000
# 4 0.000000 0.000000 0.000000 0.106335 0.000000 0.001645
# 5 -0.001577 0.000119 -0.001220 0.000000 0.040278 0.000000
# 6 0.000000 0.000000 0.000000 0.001645 0.000000 0.050300
#
#
# Mechanical properties :
#
#
# Convention : Reuss Voigt Hill
#
# Bulk Modulus (GPa) = 35.17474 41.02086 38.09780
# Shear Modulus (GPa) = 17.91034 23.01227 20.46131
#
# Velocity S-wave (km/s) = 3.23284 3.66447 3.45540
# Velocity P-wave (km/s) = 5.87031 6.46849 6.17665
#
# Compressibility (1/GPa) = 0.02842949
#
# Stress axis : x y z
#
# Youngs Moduli (GPa) = 53.43730 43.56730 111.88842
#
# Poissons Ratio (x) = 0.24418 0.06139
# Poissons Ratio (y) = 0.29950 0.55203
# Poissons Ratio (z) = 0.02932 0.21495
#
# Static dielectric constant tensor:
#      x y z
#    x 3.479780 0.000000 -0.051580 
#    y 0.000000 2.400660 0.000000 
#    z -0.051580 0.000000 4.072440 
# 
# 
# High freq. dielectric constant tensor:
#      x y z
#    x 1.677820 0.000000 0.001170 
#    y 0.000000 1.588500 0.000000 
#    z 0.001170 0.000000 1.685230 
# 
# From -- ./inp_files/333981.got.cif
#   From: 2010.06.25/outbox.cif.g09.slc.cpg/sg12_167_cif.got.tgz:333981.got - 2010.06.28 00:19:55.
