data_PCOD8085918
_publ_section_title
;
Structure prediction by ZEFSAII (Michael W. Deem and Ramdas Pophale) SiO2 
 PCOD8085918
Probable space group: C 2/M
;
_chemical_formula_sum "Si O2"
_cell_formula_units_Z 56
_cell_length_a 28.192456
_cell_length_b 9.317662
_cell_length_c 28.488087
_cell_angle_alpha 90.000000
_cell_angle_beta 150.767999
_cell_angle_gamma 90.000000
_cell_volume 3654.532178
_symmetry_space_group_name_H-M "C 2/M"
_symmetry_group_IT_number 12
_symmetry_cell_setting 'monoclinic'
loop_
_space_group_symop_operation_xyz
x,y,z
-x,y,-z
-x,-y,-z
x,-y,z
1/2+x,1/2+y,z
1/2-x,1/2+y,-z
1/2-x,1/2-y,-z
1/2+x,1/2-y,z
loop_
_atom_site_type_symbol
_atom_site_label
_atom_site_fract_x
_atom_site_fract_y
_atom_site_fract_z
Si Si1 0.588472 0.334750 0.480835
Si Si2 0.322211 0.332595 0.028198
Si Si3 0.720001 0.332060 0.868639
Si Si4 0.541136 0.334506 0.775154
Si Si5 0.844026 0.831683 0.564373
Si Si6 0.866375 0.165039 0.303288
Si Si7 0.614644 0.162136 0.591819
O O1 0.602552 0.500000 0.506725
O O2 0.638706 0.297521 0.475240
O O3 0.474420 0.297167 0.378649
O O4 0.641586 0.241218 0.566690
O O5 0.294572 0.500000 0.000843
O O6 0.429342 0.314509 0.144325
O O7 0.250000 0.250000 0.000000
O O8 0.313021 0.257262 0.969054
O O9 0.736052 0.500000 0.893212
O O10 0.624445 0.271263 0.812902
O O11 0.708911 0.302809 0.803761
O O12 0.532986 0.500000 0.753742
O O13 0.435496 0.267906 0.673156
O O14 0.750000 0.750000 0.500000
O O15 0.829005 0.000000 0.560248
O O16 0.834395 0.260378 0.320050
O O17 0.861185 0.000000 0.314441
O O18 0.500000 0.170244 0.500000
O O19 0.653051 0.000000 0.622404
#
# Coordination Sequence:
#
# PCOD8085918 Si02
#       7
#     8   8   8   8   8   8   8
#     4   9  16  28  44  56  74 109 146 172 199 245
#     4   9  16  25  39  57  78 106 137 168 202 245
#     4   9  15  25  41  60  82 108 138 169 199 240
#     4   8  14  27  42  54  76 109 140 168 203 244
#     4  10  19  31  45  61  80 107 145 183 212 241
#     4   9  15  25  42  60  79 110 144 165 192 245
#     4   9  17  26  37  57  84 107 131 170 211 242
#
# _framework density 15.323437999999999
#
# number of rings (size 3 to 8) (size 9 to 14) (size 15 to 20)
#    0.000    3.000    1.429    1.714    0.000    2.857 
#    0.000    3.571    0.000    0.000    0.000    0.000 
#    0.000    1.143    0.000   12.857    0.000    5.714 
#
# Total GULP energy -346990.913519 kJ/mol
# GULP energy per Si atom -12392.532626 kJ/mol
# Density = 1.528856 g / cm^3
# Si number density = 15.323438 Si / 1000 Ang^3
#
#
#
# Elastic Constant Matrix: (Units=GPa)
#
#
# Indices 1 2 3 4 5 6 
#
# 1 64.5832 43.7596 48.6356 0.0000 -19.4081 0.0000
# 2 43.7596 79.9069 50.3425 0.0000 -21.0446 0.0000
# 3 48.6356 50.3425 96.0431 0.0000 -25.9135 0.0000
# 4 0.0000 0.0000 0.0000 23.4712 0.0000 -6.7884
# 5 -19.4081 -21.0446 -25.9135 0.0000 25.7060 0.0000
# 6 0.0000 0.0000 0.0000 -6.7884 0.0000 22.4525
#
#
#
# Elastic Compliance Matrix: (Units=1/GPa)
#
#
# Indices 1 2 3 4 5 6 
#
# 1 0.030368 -0.009469 -0.008681 0.000000 0.006424 0.000000
# 2 -0.009469 0.022737 -0.005535 0.000000 0.005885 0.000000
# 3 -0.008681 -0.005535 0.020217 0.000000 0.009295 0.000000
# 4 0.000000 0.000000 0.000000 0.046688 0.000000 0.014116
# 5 0.006424 0.005885 0.009295 0.000000 0.057940 0.000000
# 6 0.000000 0.000000 0.000000 0.014116 0.000000 0.048806
#
#
# Mechanical properties :
#
#
# Convention : Reuss Voigt Hill
#
# Bulk Modulus (GPa) = 38.53355 58.44539 48.48947
# Shear Modulus (GPa) = 17.68165 20.84565 19.26365
#
# Velocity S-wave (km/s) = 3.40059 3.69233 3.54946
# Velocity P-wave (km/s) = 6.37339 7.51011 6.96498
#
# Compressibility (1/GPa) = 0.02595141
#
# Stress axis : x y z
#
# Youngs Moduli (GPa) = 32.92904 43.98052 49.46253
#
# Poissons Ratio (x) = 0.41646 0.42941
# Poissons Ratio (y) = 0.31181 0.27378
# Poissons Ratio (z) = 0.28587 0.24344
#
# Static dielectric constant tensor:
#      x y z
#    x 2.665260 0.000000 -0.407590 
#    y 0.000000 2.952240 0.000000 
#    z -0.407590 0.000000 3.159460 
# 
# 
# High freq. dielectric constant tensor:
#      x y z
#    x 1.544810 0.000000 -0.042680 
#    y 0.000000 1.581030 0.000000 
#    z -0.042680 0.000000 1.574490 
# 
# From -- ./inp_files/247712.got.cif
#   From: 2010.06.25/outbox.cif.g09.slc.cpg/sg12_124_cif.got.tgz:247712.got - 2010.06.28 00:19:55.
