data_PCOD8085902
_publ_section_title
;
Structure prediction by ZEFSAII (Michael W. Deem and Ramdas Pophale) SiO2 
 PCOD8085902
Probable space group: C 2/M
;
_chemical_formula_sum "Si O2"
_cell_formula_units_Z 56
_cell_length_a 22.900397
_cell_length_b 20.727234
_cell_length_c 13.568963
_cell_angle_alpha 90.000000
_cell_angle_beta 24.179112
_cell_angle_gamma 90.000000
_cell_volume 2638.036948
_symmetry_space_group_name_H-M "C 2/M"
_symmetry_group_IT_number 12
_symmetry_cell_setting 'monoclinic'
loop_
_space_group_symop_operation_xyz
x,y,z
-x,y,-z
-x,-y,-z
x,-y,z
1/2+x,1/2+y,z
1/2-x,1/2+y,-z
1/2-x,1/2-y,-z
1/2+x,1/2-y,z
loop_
_atom_site_type_symbol
_atom_site_label
_atom_site_fract_x
_atom_site_fract_y
_atom_site_fract_z
Si Si1 0.578614 0.629479 0.164662
Si Si2 0.442428 0.853124 0.360292
Si Si3 0.367027 0.660016 0.142940
Si Si4 0.284318 0.927332 0.007072
Si Si5 0.140937 0.303525 0.897483
Si Si6 0.790717 0.071868 0.656035
Si Si7 0.430134 0.735452 0.506454
O O1 0.452805 0.576652 0.367669
O O2 0.511992 0.698344 0.294022
O O3 0.627962 0.635663 0.976681
O O4 0.711812 0.614423 0.031841
O O5 0.278114 0.871762 0.588629
O O6 0.549992 0.909717 0.225198
O O7 0.429998 0.809522 0.476889
O O8 0.497094 0.814725 0.179774
O O9 0.369346 0.738947 0.153646
O O10 0.500000 0.632065 0.000000
O O11 0.283741 0.000000 0.969024
O O12 0.199749 0.920193 0.239910
O O13 0.186588 0.371313 0.771202
O O14 0.271170 0.290307 0.771113
O O15 0.732177 0.000000 0.718702
O O16 0.500000 0.721309 0.500000
#
# Coordination Sequence:
#
# PCOD8085902 Si02
#       7
#     8   8   8   8   8   8   8
#     4  11  20  35  58  92 123 155 196 241 293 357
#     4  10  21  37  57  84 121 155 192 242 297 361
#     4  11  25  41  58  84 118 163 204 248 297 349
#     4  10  21  36  62  93 122 154 188 243 304 357
#     4   9  19  37  55  89 116 155 199 243 298 344
#     4   9  18  36  62  93 126 155 191 239 297 361
#     4  10  19  30  54  86 123 153 183 237 306 364
#
# _framework density 21.227905
#
# number of rings (size 3 to 8) (size 9 to 14) (size 15 to 20)
#    0.000    2.000    1.429    3.429    4.000    2.857 
#    0.000    2.143    0.000    4.286    0.000    0.000 
#    0.000    0.000    0.000    0.000    0.000    0.000 
#
# Total GULP energy -346867.831027 kJ/mol
# GULP energy per Si atom -12388.136822 kJ/mol
# Density = 2.117959 g / cm^3
# Si number density = 21.227905 Si / 1000 Ang^3
#
#
#
# Elastic Constant Matrix: (Units=GPa)
#
#
# Indices 1 2 3 4 5 6 
#
# 1 28.3203 4.9706 25.2963 0.0012 -26.0499 -0.0010
# 2 4.9706 77.6871 15.3614 -0.0004 -0.1441 -0.0007
# 3 25.2963 15.3614 150.5153 0.0016 -20.8819 -0.0012
# 4 0.0012 -0.0004 0.0016 17.2329 -0.0008 4.2259
# 5 -26.0499 -0.1441 -20.8819 -0.0008 21.2030 0.0013
# 6 -0.0010 -0.0007 -0.0012 4.2259 0.0013 5.9422
#
#
#
# Elastic Compliance Matrix: (Units=1/GPa)
#
#
# Indices 1 2 3 4 5 6 
#
# 1 -0.250396 0.015952 -0.002560 -0.000003 -0.310049 0.000027
# 2 0.015952 0.012158 -0.001380 0.000000 0.018322 0.000000
# 3 -0.002560 -0.001380 0.007850 0.000000 0.004576 0.000000
# 4 -0.000003 0.000000 0.000000 0.070286 0.000002 -0.049986
# 5 -0.310049 0.018322 0.004576 0.000002 -0.329131 0.000019
# 6 0.000027 0.000000 0.000000 -0.049986 0.000019 0.203836
#
#
# Mechanical properties :
#
#
# Convention : Reuss Voigt Hill
#
# Bulk Modulus (GPa) = -4.84580 38.64216 16.89818
# Shear Modulus (GPa) = -13.22022 22.93524 4.85751
#
# Velocity S-wave (km/s) = -2.49825 3.29055 1.51434
# Velocity P-wave (km/s) = 3.25721 5.71664 3.32194
#
# Compressibility (1/GPa) = -0.20636413
#
# Stress axis : x y z
#
# Youngs Moduli (GPa) = -3.99367 82.24815 127.39141
#
# Poissons Ratio (x) = -1.31203 0.32616
# Poissons Ratio (y) = 0.06371 0.17578
# Poissons Ratio (z) = -0.01023 0.11349
#
# Static dielectric constant tensor:
#      x y z
#    x 3.364260 0.000000 -0.104000 
#    y 0.000000 3.973850 0.000000 
#    z -0.104000 0.000000 4.063520 
# 
# 
# High freq. dielectric constant tensor:
#      x y z
#    x 1.793230 0.000000 -0.004880 
#    y 0.000000 1.820620 0.000000 
#    z -0.004880 0.000000 1.842270 
# 
# From -- ./inp_files/242128.got.cif
#   From: 2010.06.25/outbox.cif.g09.slc.cpg/sg12_122_cif.got.tgz:242128.got - 2010.06.28 00:19:55.
