data_PCOD8085423
_publ_section_title
;
Structure prediction by ZEFSAII (Michael W. Deem and Ramdas Pophale) SiO2 
 PCOD8085423
Probable space group: C 2/M
;
_chemical_formula_sum "Si O2"
_cell_formula_units_Z 56
_cell_length_a 26.620626
_cell_length_b 9.068850
_cell_length_c 13.333221
_cell_angle_alpha 90.000000
_cell_angle_beta 62.235920
_cell_angle_gamma 90.000000
_cell_volume 2848.305687
_symmetry_space_group_name_H-M "C 2/M"
_symmetry_group_IT_number 12
_symmetry_cell_setting 'monoclinic'
loop_
_space_group_symop_operation_xyz
x,y,z
-x,y,-z
-x,-y,-z
x,-y,z
1/2+x,1/2+y,z
1/2-x,1/2+y,-z
1/2-x,1/2-y,-z
1/2+x,1/2-y,z
loop_
_atom_site_type_symbol
_atom_site_label
_atom_site_fract_x
_atom_site_fract_y
_atom_site_fract_z
Si Si1 0.810108 0.175053 0.433122
Si Si2 0.982979 0.329579 0.374250
Si Si3 0.116271 0.173602 0.441842
Si Si4 0.484207 0.667578 0.179498
Si Si5 0.626701 0.670892 0.821371
Si Si6 0.884871 0.828180 0.952072
Si Si7 0.884096 0.671455 0.752138
O O1 0.750000 0.250000 0.500000
O O2 0.847659 0.219548 0.494372
O O3 0.838425 0.240075 0.304272
O O4 0.803233 0.000000 0.434696
O O5 0.969416 0.500000 0.405142
O O6 0.947483 0.239050 0.489684
O O7 0.962029 0.278266 0.285112
O O8 0.049345 0.295586 0.319238
O O9 0.144872 0.246195 0.315668
O O10 0.113025 0.000000 0.429361
O O11 0.477319 0.500000 0.226730
O O12 0.441332 0.694439 0.127196
O O13 0.548542 0.699735 0.090248
O O14 0.640967 0.500000 0.808042
O O15 0.644076 0.730013 0.916705
O O16 0.861455 0.737114 0.878867
O O17 0.872361 0.000000 0.944016
O O18 0.868664 0.500000 0.763762
#
# Coordination Sequence:
#
# PCOD8085423 Si02
#       7
#     8   8   8   8   8   8   8
#     4  10  22  39  58  81 106 132 171 225 274 316
#     4  10  19  30  46  73 109 146 177 211 258 312
#     4  11  21  35  55  76 101 136 180 225 263 308
#     4   9  15  27  47  74 106 140 177 214 252 306
#     4   9  16  31  53  77 105 135 173 221 264 306
#     4   9  17  29  51  78 105 142 179 209 251 310
#     4  10  21  34  48  74 113 147 175 211 256 311
#
# _framework density 19.660812
#
# number of rings (size 3 to 8) (size 9 to 14) (size 15 to 20)
#    0.000    2.286    1.429    2.143    0.000    6.286 
#    0.000    1.429    0.000    4.286    0.000    0.000 
#    0.000    0.000    0.000    0.000    0.000    0.000 
#
# Total GULP energy -346987.338261 kJ/mol
# GULP energy per Si atom -12392.404938 kJ/mol
# Density = 1.961606 g / cm^3
# Si number density = 19.660812 Si / 1000 Ang^3
#
#
#
# Elastic Constant Matrix: (Units=GPa)
#
#
# Indices 1 2 3 4 5 6 
#
# 1 39.8736 26.1489 47.8722 0.0000 15.7398 0.0000
# 2 26.1489 62.6990 48.8793 0.0000 17.7704 0.0000
# 3 47.8722 48.8793 141.7449 0.0000 45.1653 0.0000
# 4 0.0000 0.0000 0.0000 18.2747 0.0000 -3.6733
# 5 15.7398 17.7704 45.1653 0.0000 35.6680 0.0000
# 6 0.0000 0.0000 0.0000 -3.6733 0.0000 17.1213
#
#
#
# Elastic Compliance Matrix: (Units=1/GPa)
#
#
# Indices 1 2 3 4 5 6 
#
# 1 0.046129 -0.009698 -0.012218 0.000000 -0.000053 0.000000
# 2 -0.009698 0.023961 -0.004270 0.000000 -0.002251 0.000000
# 3 -0.012218 -0.004270 0.017197 0.000000 -0.014256 0.000000
# 4 0.000000 0.000000 0.000000 0.057187 0.000000 0.012269
# 5 -0.000053 -0.002251 -0.014256 0.000000 0.047234 0.000000
# 6 0.000000 0.000000 0.000000 0.012269 0.000000 0.061039
#
#
# Mechanical properties :
#
#
# Convention : Reuss Voigt Hill
#
# Bulk Modulus (GPa) = 28.64218 54.45759 41.54988
# Shear Modulus (GPa) = 15.78497 22.30727 19.04612
#
# Velocity S-wave (km/s) = 2.83656 3.37205 3.11583
# Velocity P-wave (km/s) = 5.03268 6.55130 5.84155
#
# Compressibility (1/GPa) = 0.03491355
#
# Stress axis : x y z
#
# Youngs Moduli (GPa) = 21.67810 41.73510 58.15114
#
# Poissons Ratio (x) = 0.40476 0.71052
# Poissons Ratio (y) = 0.21024 0.24830
# Poissons Ratio (z) = 0.26487 0.17820
#
# Static dielectric constant tensor:
#      x y z
#    x 3.323770 0.000000 0.376240 
#    y 0.000000 3.360730 0.000000 
#    z 0.376240 0.000000 3.987030 
# 
# 
# High freq. dielectric constant tensor:
#      x y z
#    x 1.732510 0.000000 0.032570 
#    y 0.000000 1.743340 0.000000 
#    z 0.032570 0.000000 1.772900 
# 
# From -- ./inp_files/243689.got.cif
#   From: 2010.06.25/outbox.cif.g09.slc.cpg/sg12_122_cif.got.tgz:243689.got - 2010.06.28 00:19:55.
