data_PCOD8085550
_publ_section_title
;
Structure prediction by ZEFSAII (Michael W. Deem and Ramdas Pophale) SiO2 
 PCOD8085550
Probable space group: C 2/M
;
_chemical_formula_sum "Si O2"
_cell_formula_units_Z 40
_cell_length_a 5.076896
_cell_length_b 25.545992
_cell_length_c 18.316549
_cell_angle_alpha 90.000000
_cell_angle_beta 106.829978
_cell_angle_gamma 90.000000
_cell_volume 2273.803474
_symmetry_space_group_name_H-M "C 2/M"
_symmetry_group_IT_number 12
_symmetry_cell_setting 'monoclinic'
loop_
_space_group_symop_operation_xyz
x,y,z
-x,y,-z
-x,-y,-z
x,-y,z
1/2+x,1/2+y,z
1/2-x,1/2+y,-z
1/2-x,1/2-y,-z
1/2+x,1/2-y,z
loop_
_atom_site_type_symbol
_atom_site_label
_atom_site_fract_x
_atom_site_fract_y
_atom_site_fract_z
Si Si1 0.280515 0.561327 0.321038
Si Si2 0.463542 0.561153 0.914107
Si Si3 0.385799 0.215987 0.913153
Si Si4 0.891492 0.438986 0.415827
Si Si5 0.612351 0.892602 0.158997
O O1 0.241425 0.500000 0.298426
O O2 0.570572 0.572045 0.382607
O O3 0.265954 0.595017 0.246530
O O4 0.051633 0.583392 0.358368
O O5 0.405854 0.500000 0.903458
O O6 0.741568 0.575377 0.894039
O O7 0.204924 0.590925 0.858852
O O8 0.500000 0.579567 0.000000
O O9 0.579959 0.261651 0.897959
O O10 0.369877 0.168984 0.854588
O O11 0.500000 0.195074 0.000000
O O12 0.962648 0.500000 0.423853
O O13 0.000000 0.413045 0.500000
#
# Coordination Sequence:
#
# PCOD8085550 Si02
#       5
#     8   8   8   8   8
#     4  10  19  30  47  73 103 133 163 198 244 297
#     4  11  22  34  49  71 101 139 175 202 239 301
#     4  10  21  37  55  73  94 126 172 222 267 307
#     4   9  17  30  47  68  99 137 169 195 229 284
#     4  12  22  35  53  74 103 133 169 216 265 301
#
# _framework density 17.591669
#
# number of rings (size 3 to 8) (size 9 to 14) (size 15 to 20)
#    0.000    1.600    0.000    6.600    0.000    7.200 
#    0.000    0.000    0.000    0.000    0.000    0.000 
#    0.000   16.000    0.000    0.000    0.000    0.000 
#
# Total GULP energy -248100.860300 kJ/mol
# GULP energy per Si atom -12405.043015 kJ/mol
# Density = 1.755163 g / cm^3
# Si number density = 17.591669 Si / 1000 Ang^3
#
#
#
# Elastic Constant Matrix: (Units=GPa)
#
#
# Indices 1 2 3 4 5 6 
#
# 1 70.9151 7.1102 7.3529 0.0000 -8.1934 0.0000
# 2 7.1102 55.7484 34.9371 0.0000 0.6746 0.0000
# 3 7.3529 34.9371 95.6377 0.0000 -3.9211 0.0000
# 4 0.0000 0.0000 0.0000 12.2916 0.0000 -5.1356
# 5 -8.1934 0.6746 -3.9211 0.0000 28.2260 0.0000
# 6 0.0000 0.0000 0.0000 -5.1356 0.0000 16.4364
#
#
#
# Elastic Compliance Matrix: (Units=1/GPa)
#
#
# Indices 1 2 3 4 5 6 
#
# 1 0.014805 -0.001734 -0.000329 0.000000 0.004293 0.000000
# 2 -0.001734 0.023553 -0.008563 0.000000 -0.002256 0.000000
# 3 -0.000329 -0.008563 0.013692 0.000000 0.002011 0.000000
# 4 0.000000 0.000000 0.000000 0.093572 0.000000 0.029237
# 5 0.004293 -0.002256 0.002011 0.000000 0.037008 0.000000
# 6 0.000000 0.000000 0.000000 0.029237 0.000000 0.069976
#
#
# Mechanical properties :
#
#
# Convention : Reuss Voigt Hill
#
# Bulk Modulus (GPa) = 32.46968 35.67794 34.07381
# Shear Modulus (GPa) = 17.59795 22.91753 20.25774
#
# Velocity S-wave (km/s) = 3.16627 3.61328 3.39714
# Velocity P-wave (km/s) = 5.64487 6.14271 5.89904
#
# Compressibility (1/GPa) = 0.03079796
#
# Stress axis : x y z
#
# Youngs Moduli (GPa) = 67.54301 42.45803 73.03523
#
# Poissons Ratio (x) = 0.07363 0.02401
# Poissons Ratio (y) = 0.11714 0.62541
# Poissons Ratio (z) = 0.02220 0.36357
#
# Static dielectric constant tensor:
#      x y z
#    x 3.407920 0.000000 -0.102110 
#    y 0.000000 2.887950 0.000000 
#    z -0.102110 0.000000 3.285700 
# 
# 
# High freq. dielectric constant tensor:
#      x y z
#    x 1.704080 0.000000 -0.003930 
#    y 0.000000 1.632300 0.000000 
#    z -0.003930 0.000000 1.676190 
# 
# From -- ./inp_files/191471.got.cif
#   From: 2010.06.25/outbox.cif.g09.slc.cpg/sg12_96_cif.got.tgz:191471.got - 2010.06.28 00:19:55.
