data_PCOD8085768
_publ_section_title
;
Structure prediction by ZEFSAII (Michael W. Deem and Ramdas Pophale) SiO2 
 PCOD8085768
Probable space group: C 2/M
;
_chemical_formula_sum "Si O2"
_cell_formula_units_Z 56
_cell_length_a 25.054506
_cell_length_b 8.535955
_cell_length_c 12.717154
_cell_angle_alpha 90.000000
_cell_angle_beta 67.819804
_cell_angle_gamma 90.000000
_cell_volume 2518.485225
_symmetry_space_group_name_H-M "C 2/M"
_symmetry_group_IT_number 12
_symmetry_cell_setting 'monoclinic'
loop_
_space_group_symop_operation_xyz
x,y,z
-x,y,-z
-x,-y,-z
x,-y,z
1/2+x,1/2+y,z
1/2-x,1/2+y,-z
1/2-x,1/2-y,-z
1/2+x,1/2-y,z
loop_
_atom_site_type_symbol
_atom_site_label
_atom_site_fract_x
_atom_site_fract_y
_atom_site_fract_z
Si Si1 0.568485 0.683810 0.762885
Si Si2 0.359051 0.813315 0.110436
Si Si3 0.908632 0.327461 0.475910
Si Si4 0.551248 0.816132 0.131677
Si Si5 0.733848 0.321899 0.200618
Si Si6 0.607300 0.684871 0.291446
Si Si7 0.274950 0.172701 0.581709
O O1 0.561240 0.500000 0.780975
O O2 0.624219 0.740491 0.788171
O O3 0.570559 0.723417 0.637479
O O4 0.513202 0.770911 0.854717
O O5 0.295711 0.752262 0.114713
O O6 0.357303 0.000000 0.125514
O O7 0.405299 0.757212 0.990528
O O8 0.938304 0.500000 0.449049
O O9 0.921332 0.249666 0.580013
O O10 0.841581 0.349232 0.514122
O O11 0.564765 0.727488 0.229732
O O12 0.557391 0.000000 0.144898
O O13 0.730943 0.500000 0.166811
O O14 0.671899 0.242321 0.216089
O O15 0.739123 0.301841 0.320997
O O16 0.613626 0.500000 0.300747
O O17 0.250000 0.250000 0.500000
O O18 0.247892 0.000000 0.626291
#
# Coordination Sequence:
#
# PCOD8085768 Si02
#       7
#     8   8   8   8   8   8   8
#     4  12  25  40  61  90 120 152 197 251 303 349
#     4  10  22  41  63  88 119 158 201 241 290 353
#     4  10  21  38  59  84 117 156 196 238 290 354
#     4  11  24  42  63  85 116 160 204 245 291 350
#     4   9  19  36  58  84 117 154 190 235 289 345
#     4  10  21  39  62  91 124 155 194 243 294 346
#     4  10  19  30  49  79 114 151 190 234 285 345
#
# _framework density 22.235589000000001
#
# number of rings (size 3 to 8) (size 9 to 14) (size 15 to 20)
#    0.000    1.714    0.000    4.286    0.000   10.286 
#    0.000    2.857    0.000    0.000    0.000    0.000 
#    0.000    0.000    0.000    0.000    0.000    0.000 
#
# Total GULP energy -346963.980384 kJ/mol
# GULP energy per Si atom -12391.570728 kJ/mol
# Density = 2.218498 g / cm^3
# Si number density = 22.235589 Si / 1000 Ang^3
#
#
#
# Elastic Constant Matrix: (Units=GPa)
#
#
# Indices 1 2 3 4 5 6 
#
# 1 31.9336 11.5472 -2.2670 0.0000 0.0928 0.0000
# 2 11.5472 59.4670 16.1335 0.0000 0.1766 0.0000
# 3 -2.2670 16.1335 70.5858 0.0000 -4.7298 0.0000
# 4 0.0000 0.0000 0.0000 27.0608 0.0000 -0.2112
# 5 0.0928 0.1766 -4.7298 0.0000 38.8031 0.0000
# 6 0.0000 0.0000 0.0000 -0.2112 0.0000 15.5922
#
#
#
# Elastic Compliance Matrix: (Units=1/GPa)
#
#
# Indices 1 2 3 4 5 6 
#
# 1 0.034190 -0.007402 0.002810 0.000000 0.000294 0.000000
# 2 -0.007402 0.019544 -0.004748 0.000000 -0.000650 0.000000
# 3 0.002810 -0.004748 0.015470 0.000000 0.001901 0.000000
# 4 0.000000 0.000000 0.000000 0.036958 0.000000 0.000501
# 5 0.000294 -0.000650 0.001901 0.000000 0.026005 0.000000
# 6 0.000000 0.000000 0.000000 0.000501 0.000000 0.064141
#
#
# Mechanical properties :
#
#
# Convention : Reuss Voigt Hill
#
# Bulk Modulus (GPa) = 19.79321 23.64597 21.71959
# Shear Modulus (GPa) = 21.56752 25.39609 23.48180
#
# Velocity S-wave (km/s) = 3.11779 3.38322 3.25321
# Velocity P-wave (km/s) = 4.67779 5.09106 4.88880
#
# Compressibility (1/GPa) = 0.05052237
#
# Stress axis : x y z
#
# Youngs Moduli (GPa) = 29.24811 51.16784 64.64108
#
# Poissons Ratio (x) = 0.37875 -0.18162
# Poissons Ratio (y) = 0.21650 0.30693
# Poissons Ratio (z) = -0.08218 0.24296
#
# Static dielectric constant tensor:
#      x y z
#    x 4.232990 0.000000 -0.248290 
#    y 0.000000 3.950820 0.000000 
#    z -0.248290 0.000000 3.930520 
# 
# 
# High freq. dielectric constant tensor:
#      x y z
#    x 1.887120 0.000000 -0.007870 
#    y 0.000000 1.865330 0.000000 
#    z -0.007870 0.000000 1.868250 
# 
# From -- ./inp_files/180807.got.cif
#   From: 2010.06.25/outbox.cif.g09.slc.cpg/sg12_91_cif.got.tgz:180807.got - 2010.06.28 00:19:55.
