data_PCOD8085062
_publ_section_title
;
Structure prediction by ZEFSAII (Michael W. Deem and Ramdas Pophale) SiO2 
 PCOD8085062
Probable space group: C 2/M
;
_chemical_formula_sum "Si O2"
_cell_formula_units_Z 64
_cell_length_a 30.566797
_cell_length_b 9.151946
_cell_length_c 14.911586
_cell_angle_alpha 90.000000
_cell_angle_beta 48.101695
_cell_angle_gamma 90.000000
_cell_volume 3104.942077
_symmetry_space_group_name_H-M "C 2/M"
_symmetry_group_IT_number 12
_symmetry_cell_setting 'monoclinic'
loop_
_space_group_symop_operation_xyz
x,y,z
-x,y,-z
-x,-y,-z
x,-y,z
1/2+x,1/2+y,z
1/2-x,1/2+y,-z
1/2-x,1/2-y,-z
1/2+x,1/2-y,z
loop_
_atom_site_type_symbol
_atom_site_label
_atom_site_fract_x
_atom_site_fract_y
_atom_site_fract_z
Si Si1 0.116656 0.334775 0.202025
Si Si2 0.424150 0.672722 0.350043
Si Si3 0.172660 0.674174 0.765774
Si Si4 0.299255 0.672208 0.570491
Si Si5 0.820100 0.832105 0.739037
Si Si6 0.549246 0.173336 0.860268
Si Si7 0.310669 0.831108 0.058740
Si Si8 0.512779 0.166228 0.583385
O O1 0.139345 0.500000 0.182272
O O2 0.129921 0.253631 0.276538
O O3 0.047561 0.328986 0.277954
O O4 0.149659 0.257117 0.073057
O O5 0.434928 0.500000 0.332026
O O6 0.354176 0.711808 0.430568
O O7 0.462265 0.750647 0.220073
O O8 0.442278 0.730855 0.423854
O O9 0.170157 0.500000 0.769713
O O10 0.233398 0.727941 0.631581
O O11 0.113138 0.733597 0.802838
O O12 0.174963 0.737700 0.863774
O O13 0.293734 0.500000 0.589825
O O14 0.314933 0.735648 0.646932
O O15 0.757417 0.811310 0.874014
O O16 0.839359 0.000000 0.709679
O O17 0.547575 0.000000 0.848826
O O18 0.500000 0.221504 0.000000
O O19 0.328284 0.000000 0.040896
O O20 0.500000 0.223958 0.500000
O O21 0.537422 0.000000 0.545204
#
# Coordination Sequence:
#
# PCOD8085062 Si02
#       8
#     8   8   8   8   8   8   8   8
#     4  10  19  29  47  72 102 138 178 224 273 323
#     4  11  23  38  58  83 113 150 188 230 282 338
#     4   8  15  31  55  80 106 138 181 227 273 325
#     4   8  16  32  54  79 106 141 182 223 271 331
#     4   9  16  29  49  73 103 136 176 221 267 324
#     4  10  22  38  61  88 112 145 189 234 278 332
#     4   8  15  27  47  74 100 134 176 221 269 321
#     4  10  22  38  55  79 112 148 189 236 279 326
#
# _framework density 20.612300999999999
#
# number of rings (size 3 to 8) (size 9 to 14) (size 15 to 20)
#    0.000    2.750    0.000    3.000    1.750    1.500 
#    0.000    0.625    0.000    3.750    0.000    0.000 
#    0.000    0.000    0.000    0.000    0.000    0.000 
#
# Total GULP energy -396515.406922 kJ/mol
# GULP energy per Si atom -12391.106466 kJ/mol
# Density = 2.056539 g / cm^3
# Si number density = 20.612301 Si / 1000 Ang^3
#
#
#
# Elastic Constant Matrix: (Units=GPa)
#
#
# Indices 1 2 3 4 5 6 
#
# 1 91.4049 27.8862 30.6193 0.0000 -7.4815 0.0000
# 2 27.8862 41.9248 25.8045 0.0001 -2.1480 0.0000
# 3 30.6193 25.8045 114.1094 0.0000 -6.1038 0.0000
# 4 0.0000 0.0001 0.0000 21.1276 0.0000 2.9984
# 5 -7.4815 -2.1480 -6.1038 0.0000 25.7745 0.0000
# 6 0.0000 0.0000 0.0000 2.9984 0.0000 21.4402
#
#
#
# Elastic Compliance Matrix: (Units=1/GPa)
#
#
# Indices 1 2 3 4 5 6 
#
# 1 0.014313 -0.008249 -0.001813 0.000000 0.003038 0.000000
# 2 -0.008249 0.032481 -0.005181 0.000000 -0.000914 0.000000
# 3 -0.001813 -0.005181 0.010503 0.000000 0.001529 0.000000
# 4 0.000000 0.000000 0.000000 0.048290 0.000000 -0.006753
# 5 0.003038 -0.000914 0.001529 0.000000 0.039966 0.000000
# 6 0.000000 0.000000 0.000000 -0.006753 0.000000 0.047586
#
#
# Mechanical properties :
#
#
# Convention : Reuss Voigt Hill
#
# Bulk Modulus (GPa) = 37.29602 46.22879 41.76241
# Shear Modulus (GPa) = 21.49986 24.54375 23.02180
#
# Velocity S-wave (km/s) = 3.23315 3.45444 3.34563
# Velocity P-wave (km/s) = 5.66313 6.19575 5.93542
#
# Compressibility (1/GPa) = 0.02681251
#
# Stress axis : x y z
#
# Youngs Moduli (GPa) = 69.86769 30.78757 95.20829
#
# Poissons Ratio (x) = 0.25396 0.17259
# Poissons Ratio (y) = 0.57632 0.49324
# Poissons Ratio (z) = 0.12665 0.15950
#
# Static dielectric constant tensor:
#      x y z
#    x 3.744630 0.000000 -0.145490 
#    y 0.000000 3.168510 0.000000 
#    z -0.145490 0.000000 4.002550 
# 
# 
# High freq. dielectric constant tensor:
#      x y z
#    x 1.801870 0.000000 -0.008520 
#    y 0.000000 1.748960 0.000000 
#    z -0.008520 0.000000 1.821770 
# 
# From -- ./inp_files/249691.got.cif
#   From: 2010.06.25/outbox.cif.g09.slc.cpg/sg12_125_cif.got.tgz:249691.got - 2010.06.28 00:19:55.
