data_PCOD8085198
_publ_section_title
;
Structure prediction by ZEFSAII (Michael W. Deem and Ramdas Pophale) SiO2 
 PCOD8085198
Probable space group: C 2/M
;
_chemical_formula_sum "Si O2"
_cell_formula_units_Z 64
_cell_length_a 28.899979
_cell_length_b 8.995365
_cell_length_c 14.089404
_cell_angle_alpha 90.000000
_cell_angle_beta 73.054543
_cell_angle_gamma 90.000000
_cell_volume 3503.736505
_symmetry_space_group_name_H-M "C 2/M"
_symmetry_group_IT_number 12
_symmetry_cell_setting 'monoclinic'
loop_
_space_group_symop_operation_xyz
x,y,z
-x,y,-z
-x,-y,-z
x,-y,z
1/2+x,1/2+y,z
1/2-x,1/2+y,-z
1/2-x,1/2-y,-z
1/2+x,1/2-y,z
loop_
_atom_site_type_symbol
_atom_site_label
_atom_site_fract_x
_atom_site_fract_y
_atom_site_fract_z
Si Si1 0.546432 0.171178 0.596028
Si Si2 0.223561 0.169285 0.296002
Si Si3 0.799215 0.167996 0.485569
Si Si4 0.698240 0.825218 0.008823
Si Si5 0.854562 0.822243 0.798485
Si Si6 0.065179 0.671973 0.373349
Si Si7 0.326672 0.172740 0.193211
Si Si8 0.614515 0.676015 0.693030
O O1 0.569280 0.224421 0.481247
O O2 0.489313 0.194769 0.628676
O O3 0.565471 0.262968 0.675595
O O4 0.559680 0.000000 0.603852
O O5 0.190229 0.180896 0.408866
O O6 0.191963 0.239841 0.231509
O O7 0.277575 0.237733 0.273609
O O8 0.233840 0.000000 0.260340
O O9 0.750000 0.250000 0.500000
O O10 0.843604 0.237842 0.402180
O O11 0.791893 0.000000 0.456439
O O12 0.653830 0.753936 0.094905
O O13 0.703280 0.000000 0.026193
O O14 0.750000 0.750000 0.000000
O O15 0.680528 0.794131 0.912903
O O16 0.902704 0.770325 0.716252
O O17 0.856172 0.000000 0.806504
O O18 0.080547 0.500000 0.355838
O O19 0.372833 0.260173 0.209875
O O20 0.335888 0.000000 0.208484
O O21 0.610712 0.500000 0.701021
#
# Coordination Sequence:
#
# PCOD8085198 Si02
#       8
#     8   8   8   8   8   8   8   8
#     4   9  19  37  60  82 112 149 184 222 271 330
#     4   9  17  31  48  69 102 141 178 212 255 318
#     4  10  19  30  44  66 100 138 173 211 250 303
#     4  11  22  37  56  79 108 145 191 237 280 330
#     4  11  21  35  56  82 111 144 180 227 286 334
#     4   9  19  37  59  86 112 142 186 229 269 325
#     4  10  20  36  54  71 101 147 187 221 267 321
#     4  11  22  33  50  80 111 142 184 227 272 325
#
# _framework density 18.266211999999999
#
# number of rings (size 3 to 8) (size 9 to 14) (size 15 to 20)
#    0.000    2.000    2.500    2.625    0.000    3.500 
#    0.000    2.500    0.000    0.750    0.000    5.250 
#    0.000    0.000    0.000    0.000    0.000    0.000 
#
# Total GULP energy -396599.676257 kJ/mol
# GULP energy per Si atom -12393.739883 kJ/mol
# Density = 1.822464 g / cm^3
# Si number density = 18.266212 Si / 1000 Ang^3
#
#
#
# Elastic Constant Matrix: (Units=GPa)
#
#
# Indices 1 2 3 4 5 6 
#
# 1 86.9154 44.7100 41.2856 0.0000 19.8740 0.0000
# 2 44.7100 82.8468 47.9411 0.0000 9.6520 0.0000
# 3 41.2856 47.9411 88.0590 0.0000 4.5097 0.0000
# 4 0.0000 0.0000 0.0000 27.7077 0.0000 -0.4786
# 5 19.8740 9.6520 4.5097 0.0000 29.7011 0.0000
# 6 0.0000 0.0000 0.0000 -0.4786 0.0000 29.3500
#
#
#
# Elastic Compliance Matrix: (Units=1/GPa)
#
#
# Indices 1 2 3 4 5 6 
#
# 1 0.019595 -0.006377 -0.005190 0.000000 -0.010251 0.000000
# 2 -0.006377 0.020261 -0.007984 0.000000 -0.001105 0.000000
# 3 -0.005190 -0.007984 0.017965 0.000000 0.003340 0.000000
# 4 0.000000 0.000000 0.000000 0.036101 0.000000 0.000589
# 5 -0.010251 -0.001105 0.003340 0.000000 0.040380 0.000000
# 6 0.000000 0.000000 0.000000 0.000589 0.000000 0.034081
#
#
# Mechanical properties :
#
#
# Convention : Reuss Voigt Hill
#
# Bulk Modulus (GPa) = 53.42324 58.41050 55.91687
# Shear Modulus (GPa) = 23.39439 25.61072 24.50256
#
# Velocity S-wave (km/s) = 3.58263 3.74850 3.66651
# Velocity P-wave (km/s) = 6.81353 7.12613 6.97158
#
# Compressibility (1/GPa) = 0.01871845
#
# Stress axis : x y z
#
# Youngs Moduli (GPa) = 51.03220 49.35611 55.66392
#
# Poissons Ratio (x) = 0.31476 0.28891
# Poissons Ratio (y) = 0.32545 0.44442
# Poissons Ratio (z) = 0.26487 0.39406
#
# Static dielectric constant tensor:
#      x y z
#    x 3.263000 0.000000 0.069580 
#    y 0.000000 3.216480 0.000000 
#    z 0.069580 0.000000 3.510340 
# 
# 
# High freq. dielectric constant tensor:
#      x y z
#    x 1.697550 0.000000 0.011700 
#    y 0.000000 1.699000 0.000000 
#    z 0.011700 0.000000 1.702070 
# 
# From -- ./inp_files/243751.got.cif
#   From: 2010.06.25/outbox.cif.g09.slc.cpg/sg12_122_cif.got.tgz:243751.got - 2010.06.28 00:19:55.
