data_PCOD8085017
_publ_section_title
;
Structure prediction by ZEFSAII (Michael W. Deem and Ramdas Pophale) SiO2 
 PCOD8085017
Probable space group: C 2/M
;
_chemical_formula_sum "Si O2"
_cell_formula_units_Z 56
_cell_length_a 25.573990
_cell_length_b 9.525782
_cell_length_c 14.346617
_cell_angle_alpha 90.000000
_cell_angle_beta 55.876683
_cell_angle_gamma 90.000000
_cell_volume 2893.282907
_symmetry_space_group_name_H-M "C 2/M"
_symmetry_group_IT_number 12
_symmetry_cell_setting 'monoclinic'
loop_
_space_group_symop_operation_xyz
x,y,z
-x,y,-z
-x,-y,-z
x,-y,z
1/2+x,1/2+y,z
1/2-x,1/2+y,-z
1/2-x,1/2-y,-z
1/2+x,1/2-y,z
loop_
_atom_site_type_symbol
_atom_site_label
_atom_site_fract_x
_atom_site_fract_y
_atom_site_fract_z
Si Si1 0.759474 0.162973 0.740509
Si Si2 0.572049 0.340980 0.757989
Si Si3 0.634314 0.661657 0.505536
Si Si4 0.428715 0.849703 0.571279
Si Si5 0.118549 0.668418 0.881451
Si Si6 0.134319 0.838345 0.225851
Si Si7 0.572064 0.340981 0.097908
O O1 0.797509 0.204993 0.607476
O O2 0.690059 0.231095 0.809924
O O3 0.797506 0.204984 0.797480
O O4 0.746607 0.000000 0.753371
O O5 0.580602 0.500000 0.787560
O O6 0.625041 0.313657 0.624908
O O7 0.583269 0.227547 0.826572
O O8 0.499993 0.322467 0.792459
O O9 0.620377 0.500000 0.493907
O O10 0.583581 0.760120 0.508294
O O11 0.500000 0.891368 0.500000
O O12 0.416414 0.760128 0.675452
O O13 0.391080 0.000000 0.608910
O O14 0.114067 0.500000 0.885932
O O15 0.083291 0.727541 0.006885
O O16 0.125052 0.813666 0.125017
O O17 0.120377 0.000000 0.265361
O O18 0.580617 0.500000 0.051227
#
# Coordination Sequence:
#
# PCOD8085017 Si02
#       7
#     8   8   8   8   8   8   8
#     4   8  17  35  56  81 110 137 173 218 262 316
#     4  10  21  37  57  81 106 136 181 230 267 306
#     4   9  18  35  58  78 101 138 180 221 264 312
#     4  10  19  29  45  76 115 144 168 210 266 320
#     4  11  23  37  54  77 109 147 179 215 268 323
#     4   9  18  35  58  78 101 138 180 221 264 312
#     4  10  21  37  57  81 106 136 181 230 267 306
#
# _framework density 19.355177000000001
#
# number of rings (size 3 to 8) (size 9 to 14) (size 15 to 20)
#    0.000    2.429    0.000    3.000    0.000    6.857 
#    0.000    5.714    0.000    0.000    0.000    0.000 
#    0.000    0.000    0.000    0.000    0.000    0.000 
#
# Total GULP energy -346886.552614 kJ/mol
# GULP energy per Si atom -12388.805450 kJ/mol
# Density = 1.931112 g / cm^3
# Si number density = 19.355177 Si / 1000 Ang^3
#
#
#
# Elastic Constant Matrix: (Units=GPa)
#
#
# Indices 1 2 3 4 5 6 
#
# 1 76.9151 29.0425 43.7882 0.0000 -0.3516 0.0000
# 2 29.0425 94.4163 39.3448 0.0000 12.7163 0.0000
# 3 43.7882 39.3448 86.2964 0.0000 11.8495 0.0000
# 4 0.0000 0.0000 0.0000 125.6109 0.0000 71.2240
# 5 -0.3516 12.7163 11.8495 0.0000 31.5344 0.0000
# 6 0.0000 0.0000 0.0000 71.2240 0.0000 68.0533
#
#
#
# Elastic Compliance Matrix: (Units=1/GPa)
#
#
# Indices 1 2 3 4 5 6 
#
# 1 0.019295 -0.002747 -0.009194 0.000000 0.004778 0.000000
# 2 -0.002747 0.013780 -0.004346 0.000000 -0.003954 0.000000
# 3 -0.009194 -0.004346 0.018988 0.000000 -0.005485 0.000000
# 4 0.000000 0.000000 0.000000 0.019582 0.000000 -0.020494
# 5 0.004778 -0.003954 -0.005485 0.000000 0.035420 0.000000
# 6 0.000000 0.000000 0.000000 -0.020494 0.000000 0.036143
#
#
# Mechanical properties :
#
#
# Convention : Reuss Voigt Hill
#
# Bulk Modulus (GPa) = 51.31222 53.55321 52.43271
# Shear Modulus (GPa) = 27.43080 54.73656 41.08368
#
# Velocity S-wave (km/s) = 3.76870 5.32367 4.61219
# Velocity P-wave (km/s) = 6.74580 8.09428 7.45061
#
# Compressibility (1/GPa) = 0.01948854
#
# Stress axis : x y z
#
# Youngs Moduli (GPa) = 51.82774 72.56921 52.66611
#
# Poissons Ratio (x) = 0.19937 0.48421
# Poissons Ratio (y) = 0.14239 0.22887
# Poissons Ratio (z) = 0.47650 0.31536
#
# Static dielectric constant tensor:
#      x y z
#    x 3.640200 0.000000 0.015610 
#    y 0.000000 3.437570 0.000000 
#    z 0.015610 0.000000 3.652770 
# 
# 
# High freq. dielectric constant tensor:
#      x y z
#    x 1.744960 0.000000 -0.000390 
#    y 0.000000 1.749560 0.000000 
#    z -0.000390 0.000000 1.744650 
# 
# From -- ./inp_files/238265.got.cif
#   From: 2010.06.25/outbox.cif.g09.slc.cpg/sg12_120_cif.got.tgz:238265.got - 2010.06.28 00:19:55.
