data_PCOD8085954
_publ_section_title
;
Structure prediction by ZEFSAII (Michael W. Deem and Ramdas Pophale) SiO2 
 PCOD8085954
Probable space group: C 2/M
;
_chemical_formula_sum "Si O2"
_cell_formula_units_Z 56
_cell_length_a 19.079286
_cell_length_b 9.287006
_cell_length_c 21.350409
_cell_angle_alpha 90.000000
_cell_angle_beta 120.483409
_cell_angle_gamma 90.000000
_cell_volume 3260.156769
_symmetry_space_group_name_H-M "C 2/M"
_symmetry_group_IT_number 12
_symmetry_cell_setting 'monoclinic'
loop_
_space_group_symop_operation_xyz
x,y,z
-x,y,-z
-x,-y,-z
x,-y,z
1/2+x,1/2+y,z
1/2-x,1/2+y,-z
1/2-x,1/2-y,-z
1/2+x,1/2-y,z
loop_
_atom_site_type_symbol
_atom_site_label
_atom_site_fract_x
_atom_site_fract_y
_atom_site_fract_z
Si Si1 0.915738 0.329230 0.496081
Si Si2 0.964478 0.336273 0.917331
Si Si3 0.751726 0.333819 0.355869
Si Si4 0.134873 0.663131 0.954107
Si Si5 0.689574 0.331652 0.198068
Si Si6 0.830075 0.831453 0.557671
Si Si7 0.241791 0.833208 0.090447
O O1 0.912176 0.500000 0.507138
O O2 0.838504 0.272585 0.420152
O O3 0.907873 0.246405 0.559943
O O4 0.000000 0.286384 0.500000
O O5 0.932110 0.500000 0.908704
O O6 0.896083 0.235898 0.858368
O O7 0.038487 0.324399 0.901316
O O8 0.000000 0.283548 0.000000
O O9 0.769096 0.500000 0.351584
O O10 0.726924 0.261407 0.278295
O O11 0.675251 0.313553 0.369103
O O12 0.161216 0.500000 0.979589
O O13 0.177545 0.719458 0.909647
O O14 0.163422 0.751377 0.027877
O O15 0.673951 0.500000 0.201174
O O16 0.751859 0.301002 0.168975
O O17 0.750000 0.750000 0.500000
O O18 0.828325 0.000000 0.538247
O O19 0.224558 0.000000 0.071712
#
# Coordination Sequence:
#
# PCOD8085954 Si02
#       7
#     8   8   8   8   8   8   8
#     4   9  17  31  52  77 102 128 161 198 240 287
#     4  10  19  31  46  65  91 122 153 193 244 287
#     4   8  16  31  48  68  96 128 156 192 240 284
#     4   9  17  30  45  62  87 115 147 189 238 281
#     4  10  19  31  48  68  92 122 159 198 238 283
#     4   9  16  29  50  72  97 129 164 197 236 285
#     4   9  17  28  45  66  84 111 152 192 227 274
#
# _framework density 17.177087
#
# number of rings (size 3 to 8) (size 9 to 14) (size 15 to 20)
#    0.000    2.857    1.429    1.286    0.000    1.143 
#    0.000    5.000    0.000    3.429    0.000    0.000 
#    0.000    0.000    0.000    0.000    0.000    0.000 
#
# Total GULP energy -346892.944843 kJ/mol
# GULP energy per Si atom -12389.033744 kJ/mol
# Density = 1.713799 g / cm^3
# Si number density = 17.177087 Si / 1000 Ang^3
#
#
#
# Elastic Constant Matrix: (Units=GPa)
#
#
# Indices 1 2 3 4 5 6 
#
# 1 116.2661 32.8474 52.2445 0.0000 -14.1847 0.0000
# 2 32.8474 41.6328 27.4349 0.0000 -9.6667 0.0000
# 3 52.2445 27.4349 105.4256 0.0000 -16.3938 0.0000
# 4 0.0000 0.0000 0.0000 16.2635 0.0000 -2.7826
# 5 -14.1847 -9.6667 -16.3938 0.0000 23.2109 0.0000
# 6 0.0000 0.0000 0.0000 -2.7826 0.0000 25.6879
#
#
#
# Elastic Compliance Matrix: (Units=1/GPa)
#
#
# Indices 1 2 3 4 5 6 
#
# 1 0.012632 -0.006746 -0.004202 0.000000 0.001942 0.000000
# 2 -0.006746 0.033831 -0.004393 0.000000 0.006864 0.000000
# 3 -0.004202 -0.004393 0.013511 0.000000 0.005145 0.000000
# 4 0.000000 0.000000 0.000000 0.062649 0.000000 0.006786
# 5 0.001942 0.006864 0.005145 0.000000 0.050763 0.000000
# 6 0.000000 0.000000 0.000000 0.006786 0.000000 0.039664
#
#
# Mechanical properties :
#
#
# Convention : Reuss Voigt Hill
#
# Bulk Modulus (GPa) = 34.14090 54.26424 44.20257
# Shear Modulus (GPa) = 19.72408 23.08564 21.40486
#
# Velocity S-wave (km/s) = 3.39230 3.67001 3.53388
# Velocity P-wave (km/s) = 5.93823 7.04402 6.51463
#
# Compressibility (1/GPa) = 0.02929038
#
# Stress axis : x y z
#
# Youngs Moduli (GPa) = 79.16264 29.55861 74.01248
#
# Poissons Ratio (x) = 0.19941 0.31103
# Poissons Ratio (y) = 0.53406 0.32516
# Poissons Ratio (z) = 0.33267 0.12986
#
# Static dielectric constant tensor:
#      x y z
#    x 3.610210 0.000000 -0.378910 
#    y 0.000000 3.127410 0.000000 
#    z -0.378910 0.000000 3.267080 
# 
# 
# High freq. dielectric constant tensor:
#      x y z
#    x 1.671910 0.000000 -0.024380 
#    y 0.000000 1.648550 0.000000 
#    z -0.024380 0.000000 1.632680 
# 
# From -- ./inp_files/319340.got.cif
#   From: 2010.06.25/outbox.cif.g09.slc.cpg/sg12_160_cif.got.tgz:319340.got - 2010.06.28 00:19:55.
