data_PCOD8085942
_publ_section_title
;
Structure prediction by ZEFSAII (Michael W. Deem and Ramdas Pophale) SiO2 
 PCOD8085942
Probable space group: C 2/M
;
_chemical_formula_sum "Si O2"
_cell_formula_units_Z 40
_cell_length_a 24.625058
_cell_length_b 9.671415
_cell_length_c 11.981707
_cell_angle_alpha 90.000000
_cell_angle_beta 62.744669
_cell_angle_gamma 90.000000
_cell_volume 2536.736147
_symmetry_space_group_name_H-M "C 2/M"
_symmetry_group_IT_number 12
_symmetry_cell_setting 'monoclinic'
loop_
_space_group_symop_operation_xyz
x,y,z
-x,y,-z
-x,-y,-z
x,-y,z
1/2+x,1/2+y,z
1/2-x,1/2+y,-z
1/2-x,1/2-y,-z
1/2+x,1/2-y,z
loop_
_atom_site_type_symbol
_atom_site_label
_atom_site_fract_x
_atom_site_fract_y
_atom_site_fract_z
Si Si1 0.214498 0.337550 0.443035
Si Si2 0.581366 0.836179 0.516258
Si Si3 0.840158 0.340425 0.935956
Si Si4 0.451329 0.163947 0.695208
Si Si5 0.239345 0.842568 0.845807
O O1 0.219110 0.500000 0.466665
O O2 0.250000 0.250000 0.500000
O O3 0.144284 0.283495 0.511439
O O4 0.243087 0.304104 0.296112
O O5 0.572529 0.774409 0.400151
O O6 0.522375 0.792376 0.647062
O O7 0.585397 0.000000 0.502094
O O8 0.840662 0.500000 0.972163
O O9 0.907939 0.286180 0.837496
O O10 0.797876 0.316087 0.868028
O O11 0.817052 0.252750 0.062922
O O12 0.445763 0.000000 0.692878
O O13 0.217324 0.000000 0.876044
#
# Coordination Sequence:
#
# PCOD8085942 Si02
#       5
#     8   8   8   8   8
#     4  10  19  31  46  64  89 119 150 180 211 254
#     4   8  13  23  41  65  89 111 139 177 222 261
#     4   9  15  25  44  68  90 110 137 177 219 262
#     4   8  12  21  42  68  89 108 135 178 225 263
#     4   9  17  28  41  62  91 118 142 171 214 262
#
# _framework density 15.768293999999999
#
# number of rings (size 3 to 8) (size 9 to 14) (size 15 to 20)
#    0.000    3.200    2.000    1.200    0.000    0.800 
#    0.000    0.000    0.000    2.400    0.000   11.200 
#    0.000    0.000    0.000    0.000    0.000    0.000 
#
# Total GULP energy -247822.101464 kJ/mol
# GULP energy per Si atom -12391.105073 kJ/mol
# Density = 1.573240 g / cm^3
# Si number density = 15.768294 Si / 1000 Ang^3
#
#
#
# Elastic Constant Matrix: (Units=GPa)
#
#
# Indices 1 2 3 4 5 6 
#
# 1 110.5791 36.0901 66.9038 0.0000 -22.0703 0.0000
# 2 36.0901 40.8909 48.2016 0.0000 -8.5056 0.0000
# 3 66.9038 48.2016 115.8954 0.0000 -29.1107 0.0000
# 4 0.0000 0.0000 0.0000 24.3067 0.0000 1.5970
# 5 -22.0703 -8.5056 -29.1107 0.0000 31.9771 0.0000
# 6 0.0000 0.0000 0.0000 1.5970 0.0000 18.7269
#
#
#
# Elastic Compliance Matrix: (Units=1/GPa)
#
#
# Indices 1 2 3 4 5 6 
#
# 1 0.014966 -0.006654 -0.004826 0.000000 0.004167 0.000000
# 2 -0.006654 0.052177 -0.020130 0.000000 -0.009040 0.000000
# 3 -0.004826 -0.020130 0.022824 0.000000 0.012093 0.000000
# 4 0.000000 0.000000 0.000000 0.041373 0.000000 -0.003528
# 5 0.004167 -0.009040 0.012093 0.000000 0.042753 0.000000
# 6 0.000000 0.000000 0.000000 -0.003528 0.000000 0.053700
#
#
# Mechanical properties :
#
#
# Convention : Reuss Voigt Hill
#
# Bulk Modulus (GPa) = 37.38654 63.30628 50.34641
# Shear Modulus (GPa) = 16.67069 22.74680 19.70875
#
# Velocity S-wave (km/s) = 3.25503 3.80223 3.53922
# Velocity P-wave (km/s) = 6.15536 7.71433 6.97852
#
# Compressibility (1/GPa) = 0.02674759
#
# Stress axis : x y z
#
# Youngs Moduli (GPa) = 66.81687 19.16561 43.81362
#
# Poissons Ratio (x) = 0.12753 0.21143
# Poissons Ratio (y) = 0.44460 0.88197
# Poissons Ratio (z) = 0.32244 0.38580
#
# Static dielectric constant tensor:
#      x y z
#    x 3.039530 0.000000 -0.391380 
#    y 0.000000 2.660650 0.000000 
#    z -0.391380 0.000000 3.136720 
# 
# 
# High freq. dielectric constant tensor:
#      x y z
#    x 1.586050 0.000000 -0.028440 
#    y 0.000000 1.562580 0.000000 
#    z -0.028440 0.000000 1.605010 
# 
# From -- ./inp_files/83571.got.cif
#   From: 2010.06.25/outbox.cif.g09.slc.cpg/sg12_42_cif.got.tgz:83571.got - 2010.06.28 00:19:55.
