data_PCOD8085796
_publ_section_title
;
Structure prediction by ZEFSAII (Michael W. Deem and Ramdas Pophale) SiO2 
 PCOD8085796
Probable space group: C 2/M
;
_chemical_formula_sum "Si O2"
_cell_formula_units_Z 32
_cell_length_a 12.573552
_cell_length_b 29.231008
_cell_length_c 9.818394
_cell_angle_alpha 90.000000
_cell_angle_beta 156.828267
_cell_angle_gamma 90.000000
_cell_volume 1419.953650
_symmetry_space_group_name_H-M "C 2/M"
_symmetry_group_IT_number 12
_symmetry_cell_setting 'monoclinic'
loop_
_space_group_symop_operation_xyz
x,y,z
-x,y,-z
-x,-y,-z
x,-y,z
1/2+x,1/2+y,z
1/2-x,1/2+y,-z
1/2-x,1/2-y,-z
1/2+x,1/2-y,z
loop_
_atom_site_type_symbol
_atom_site_label
_atom_site_fract_x
_atom_site_fract_y
_atom_site_fract_z
Si Si1 0.071854 0.098190 0.736762
Si Si2 0.484314 0.774426 0.631040
Si Si3 0.771539 0.317949 0.633153
Si Si4 0.423006 0.948341 0.751594
O O1 0.005487 0.152294 0.683713
O O2 0.884475 0.070069 0.622495
O O3 0.000000 0.083135 0.500000
O O4 0.387385 0.084184 0.121478
O O5 0.500000 0.797032 0.500000
O O6 0.268536 0.733449 0.361230
O O7 0.379685 0.814955 0.605725
O O8 0.750000 0.750000 0.000000
O O9 0.000000 0.341400 0.000000
O O10 0.443175 0.000000 0.720111
O O11 0.500000 0.945628 0.000000
#
# Coordination Sequence:
#
# PCOD8085796 Si02
#       4
#     8   8   8   8
#     4  10  19  30  50  77 110 152 193 234 283 346
#     4  11  23  39  59  81 114 153 194 245 292 344
#     4  11  22  35  56  83 112 154 199 239 289 349
#     4   9  17  29  46  73 111 152 189 229 285 348
#
# _framework density 22.535945999999999
#
# number of rings (size 3 to 8) (size 9 to 14) (size 15 to 20)
#    0.000    1.750    2.500    3.750    3.500    3.000 
#    0.000    0.000    0.000    0.000    0.000    0.000 
#    0.000    6.000    0.000    0.000    0.000    0.000 
#
# Total GULP energy -198276.899328 kJ/mol
# GULP energy per Si atom -12392.306208 kJ/mol
# Density = 2.248465 g / cm^3
# Si number density = 22.535946 Si / 1000 Ang^3
#
#
#
# Elastic Constant Matrix: (Units=GPa)
#
#
# Indices 1 2 3 4 5 6 
#
# 1 161.7190 56.6721 51.1632 0.0000 23.1242 0.0000
# 2 56.6721 119.7113 11.7084 0.0000 14.9649 0.0000
# 3 51.1632 11.7084 48.9495 0.0000 14.5361 0.0000
# 4 0.0000 0.0000 0.0000 17.3876 0.0000 21.5913
# 5 23.1242 14.9649 14.5361 0.0000 42.8647 0.0000
# 6 0.0000 0.0000 0.0000 21.5913 0.0000 42.2745
#
#
#
# Elastic Compliance Matrix: (Units=1/GPa)
#
#
# Indices 1 2 3 4 5 6 
#
# 1 0.010987 -0.004073 -0.010199 0.000000 -0.001047 0.000000
# 2 -0.004073 0.010322 0.002453 0.000000 -0.002238 0.000000
# 3 -0.010199 0.002453 0.032384 0.000000 -0.006336 0.000000
# 4 0.000000 0.000000 0.000000 0.157230 0.000000 -0.080304
# 5 -0.001047 -0.002238 -0.006336 0.000000 0.026824 0.000000
# 6 0.000000 0.000000 0.000000 -0.080304 0.000000 0.064669
#
#
# Mechanical properties :
#
#
# Convention : Reuss Voigt Hill
#
# Bulk Modulus (GPa) = 33.27236 63.27413 48.27325
# Shear Modulus (GPa) = 14.87770 34.56110 24.71940
#
# Velocity S-wave (km/s) = 2.57218 3.92037 3.31552
# Velocity P-wave (km/s) = 4.85980 6.97354 6.01032
#
# Compressibility (1/GPa) = 0.03005497
#
# Stress axis : x y z
#
# Youngs Moduli (GPa) = 91.01434 96.88511 30.87902
#
# Poissons Ratio (x) = 0.39462 0.31494
# Poissons Ratio (y) = 0.37071 -0.07575
# Poissons Ratio (z) = 0.92826 -0.23767
#
# Static dielectric constant tensor:
#      x y z
#    x 4.389010 0.000000 0.621410 
#    y 0.000000 3.984860 0.000000 
#    z 0.621410 0.000000 3.718140 
# 
# 
# High freq. dielectric constant tensor:
#      x y z
#    x 1.883400 0.000000 0.055780 
#    y 0.000000 1.878340 0.000000 
#    z 0.055780 0.000000 1.835710 
# 
# From -- ./inp_files/53949.got.cif
#   From: 2010.06.25/outbox.cif.g09.slc.cpg/sg12_27_cif.got.tgz:53949.got - 2010.06.28 00:19:55.
