data_PCOD8085357
_publ_section_title
;
Structure prediction by ZEFSAII (Michael W. Deem and Ramdas Pophale) SiO2 
 PCOD8085357
Probable space group: C 2/M
;
_chemical_formula_sum "Si O2"
_cell_formula_units_Z 56
_cell_length_a 27.710947
_cell_length_b 8.959963
_cell_length_c 18.242457
_cell_angle_alpha 90.000000
_cell_angle_beta 132.185091
_cell_angle_gamma 90.000000
_cell_volume 3356.193765
_symmetry_space_group_name_H-M "C 2/M"
_symmetry_group_IT_number 12
_symmetry_cell_setting 'monoclinic'
loop_
_space_group_symop_operation_xyz
x,y,z
-x,y,-z
-x,-y,-z
x,-y,z
1/2+x,1/2+y,z
1/2-x,1/2+y,-z
1/2-x,1/2-y,-z
1/2+x,1/2-y,z
loop_
_atom_site_type_symbol
_atom_site_label
_atom_site_fract_x
_atom_site_fract_y
_atom_site_fract_z
Si Si1 0.756128 0.173527 0.928410
Si Si2 0.570288 0.663842 0.535839
Si Si3 0.069274 0.168227 0.109394
Si Si4 0.873258 0.674192 0.964075
Si Si5 0.009995 0.325930 0.179895
Si Si6 0.999413 0.176628 0.323101
Si Si7 0.882114 0.328157 0.283687
O O1 0.814315 0.246417 0.943597
O O2 0.690806 0.200163 0.816330
O O3 0.770823 0.000000 0.955103
O O4 0.750000 0.250000 0.000000
O O5 0.500000 0.651520 0.500000
O O6 0.603649 0.500000 0.571171
O O7 0.557775 0.717431 0.439545
O O8 0.614094 0.778173 0.627104
O O9 0.119896 0.257017 0.110066
O O10 0.063192 0.251378 0.180802
O O11 0.094751 0.000000 0.147801
O O12 0.000000 0.167484 0.000000
O O13 0.858761 0.500000 0.941518
O O14 0.937306 0.704543 0.077405
O O15 0.025247 0.500000 0.199753
O O16 0.018864 0.253590 0.267801
O O17 0.929888 0.234843 0.280522
O O18 0.993070 0.000000 0.306054
O O19 0.902595 0.500000 0.298399
#
# Coordination Sequence:
#
# PCOD8085357 Si02
#       7
#     8   8   8   8   8   8   8
#     4  11  23  35  47  67  94 125 161 195 227 268
#     4   8  16  30  46  65  89 118 152 188 228 276
#     4   9  17  30  48  68  91 121 154 188 230 276
#     4  10  20  33  48  67  93 125 159 193 228 269
#     4  10  19  30  46  70  97 122 152 191 232 273
#     4  10  19  30  46  69  95 122 153 189 231 278
#     4  10  20  32  46  66  92 122 157 194 230 271
#
# _framework density 16.685569000000001
#
# number of rings (size 3 to 8) (size 9 to 14) (size 15 to 20)
#    0.000    2.286    0.000    4.286    0.000   12.286 
#    0.000    0.000    0.000    0.000    0.000    1.000 
#    0.000    0.000    0.000    0.000    0.000    0.000 
#
# Total GULP energy -347185.126143 kJ/mol
# GULP energy per Si atom -12399.468791 kJ/mol
# Density = 1.664759 g / cm^3
# Si number density = 16.685569 Si / 1000 Ang^3
#
#
#
# Elastic Constant Matrix: (Units=GPa)
#
#
# Indices 1 2 3 4 5 6 
#
# 1 118.2471 65.4244 54.6888 0.0000 -25.3897 0.0000
# 2 65.4244 123.7117 66.4929 0.0000 -14.9152 0.0000
# 3 54.6888 66.4929 90.5406 0.0000 -25.0671 0.0000
# 4 0.0000 0.0000 0.0000 28.0260 0.0000 -6.1168
# 5 -25.3897 -14.9152 -25.0671 0.0000 27.6120 0.0000
# 6 0.0000 0.0000 0.0000 -6.1168 0.0000 32.3906
#
#
#
# Elastic Compliance Matrix: (Units=1/GPa)
#
#
# Indices 1 2 3 4 5 6 
#
# 1 0.014220 -0.005167 -0.002601 0.000000 0.007923 0.000000
# 2 -0.005167 0.015338 -0.009571 0.000000 -0.005154 0.000000
# 3 -0.002601 -0.009571 0.023443 0.000000 0.013721 0.000000
# 4 0.000000 0.000000 0.000000 0.037215 0.000000 0.007028
# 5 0.007923 -0.005154 0.013721 0.000000 0.053174 0.000000
# 6 0.000000 0.000000 0.000000 0.007028 0.000000 0.032200
#
#
# Mechanical properties :
#
#
# Convention : Reuss Voigt Hill
#
# Bulk Modulus (GPa) = 54.57129 78.41240 66.49184
# Shear Modulus (GPa) = 23.10798 27.33196 25.21997
#
# Velocity S-wave (km/s) = 3.72547 4.05169 3.89200
# Velocity P-wave (km/s) = 7.16116 8.30568 7.75457
#
# Compressibility (1/GPa) = 0.01832466
#
# Stress axis : x y z
#
# Youngs Moduli (GPa) = 70.32462 65.19603 42.65613
#
# Poissons Ratio (x) = 0.33686 0.11095
# Poissons Ratio (y) = 0.36335 0.40824
# Poissons Ratio (z) = 0.18292 0.62396
#
# Static dielectric constant tensor:
#      x y z
#    x 3.011380 0.000000 -0.294560 
#    y 0.000000 3.360270 0.000000 
#    z -0.294560 0.000000 3.276660 
# 
# 
# High freq. dielectric constant tensor:
#      x y z
#    x 1.622800 0.000000 -0.025690 
#    y 0.000000 1.662950 0.000000 
#    z -0.025690 0.000000 1.625590 
# 
# From -- ./inp_files/291846.got.cif
#   From: 2010.06.25/outbox.cif.g09.slc.cpg/sg12_146_cif.got.tgz:291846.got - 2010.06.28 00:19:55.
