data_PCOD8085343
_publ_section_title
;
Structure prediction by ZEFSAII (Michael W. Deem and Ramdas Pophale) SiO2 
 PCOD8085343
Probable space group: C 2/M
;
_chemical_formula_sum "Si O2"
_cell_formula_units_Z 56
_cell_length_a 19.268534
_cell_length_b 9.297844
_cell_length_c 20.659949
_cell_angle_alpha 90.000000
_cell_angle_beta 123.733836
_cell_angle_gamma 90.000000
_cell_volume 3078.140199
_symmetry_space_group_name_H-M "C 2/M"
_symmetry_group_IT_number 12
_symmetry_cell_setting 'monoclinic'
loop_
_space_group_symop_operation_xyz
x,y,z
-x,y,-z
-x,-y,-z
x,-y,z
1/2+x,1/2+y,z
1/2-x,1/2+y,-z
1/2-x,1/2-y,-z
1/2+x,1/2-y,z
loop_
_atom_site_type_symbol
_atom_site_label
_atom_site_fract_x
_atom_site_fract_y
_atom_site_fract_z
Si Si1 0.022579 0.336405 0.688573
Si Si2 0.989782 0.164321 0.191185
Si Si3 0.287641 0.833377 0.206037
Si Si4 0.696378 0.670023 0.919049
Si Si5 0.440458 0.166617 0.521592
Si Si6 0.247289 0.333586 0.566503
Si Si7 0.671062 0.667722 0.260269
O O1 0.999838 0.500000 0.691587
O O2 0.998575 0.253420 0.739221
O O3 0.963415 0.266616 0.603142
O O4 0.119108 0.320166 0.717956
O O5 0.073118 0.196868 0.191889
O O6 0.900897 0.201119 0.111889
O O7 0.989072 0.000000 0.212357
O O8 0.279396 0.735967 0.137805
O O9 0.225858 0.769223 0.229362
O O10 0.266363 0.000000 0.177548
O O11 0.715621 0.500000 0.928567
O O12 0.750000 0.750000 0.000000
O O13 0.500000 0.242917 0.500000
O O14 0.345209 0.187114 0.452858
O O15 0.466221 0.000000 0.540220
O O16 0.267305 0.500000 0.561589
O O17 0.250000 0.250000 0.500000
O O18 0.305546 0.271604 0.655305
O O19 0.692423 0.500000 0.274628
#
# Coordination Sequence:
#
# PCOD8085343 Si02
#       7
#     8   8   8   8   8   8   8
#     4   9  16  27  45  68  92 121 160 201 237 274
#     4   9  18  32  50  70  93 123 156 189 228 279
#     4   9  17  31  52  74  96 126 162 199 237 277
#     4  10  20  35  55  77  99 123 152 188 233 286
#     4   9  16  26  42  65  91 121 161 204 239 273
#     4  10  19  30  46  68  96 131 167 204 244 282
#     4   9  17  31  50  71  96 128 166 201 235 281
#
# _framework density 18.192803999999999
#
# number of rings (size 3 to 8) (size 9 to 14) (size 15 to 20)
#    0.000    2.714    0.000    2.143    0.000    4.000 
#    0.000    2.143    0.000    7.714    0.000    0.000 
#    0.000    0.000    0.000    0.000    0.000    0.000 
#
# Total GULP energy -346923.278116 kJ/mol
# GULP energy per Si atom -12390.117076 kJ/mol
# Density = 1.815140 g / cm^3
# Si number density = 18.192804 Si / 1000 Ang^3
#
#
#
# Elastic Constant Matrix: (Units=GPa)
#
#
# Indices 1 2 3 4 5 6 
#
# 1 98.6368 26.2327 36.1655 0.0000 4.7371 0.0000
# 2 26.2327 41.1921 33.3033 0.0000 2.8482 0.0000
# 3 36.1655 33.3033 105.7598 0.0000 10.6477 0.0000
# 4 0.0000 0.0000 0.0000 15.5709 0.0000 0.1050
# 5 4.7371 2.8482 10.6477 0.0000 22.3155 0.0000
# 6 0.0000 0.0000 0.0000 0.1050 0.0000 17.7300
#
#
#
# Elastic Compliance Matrix: (Units=1/GPa)
#
#
# Indices 1 2 3 4 5 6 
#
# 1 0.012657 -0.006132 -0.002317 0.000000 -0.000799 0.000000
# 2 -0.006132 0.035552 -0.009215 0.000000 0.001161 0.000000
# 3 -0.002317 -0.009215 0.013637 0.000000 -0.004839 0.000000
# 4 0.000000 0.000000 0.000000 0.064225 0.000000 -0.000380
# 5 -0.000799 0.001161 -0.004839 0.000000 0.047142 0.000000
# 6 0.000000 0.000000 0.000000 -0.000380 0.000000 0.056404
#
#
# Mechanical properties :
#
#
# Convention : Reuss Voigt Hill
#
# Bulk Modulus (GPa) = 37.71125 48.55466 43.13295
# Shear Modulus (GPa) = 18.26269 21.11577 19.68923
#
# Velocity S-wave (km/s) = 3.17178 3.41055 3.29333
# Velocity P-wave (km/s) = 5.84699 6.50046 6.18237
#
# Compressibility (1/GPa) = 0.02651728
#
# Stress axis : x y z
#
# Youngs Moduli (GPa) = 79.00868 28.12816 73.33236
#
# Poissons Ratio (x) = 0.17248 0.16989
# Poissons Ratio (y) = 0.48449 0.67576
# Poissons Ratio (z) = 0.18304 0.25920
#
# Static dielectric constant tensor:
#      x y z
#    x 3.566210 0.000000 0.131000 
#    y 0.000000 3.142810 0.000000 
#    z 0.131000 0.000000 3.369510 
# 
# 
# High freq. dielectric constant tensor:
#      x y z
#    x 1.712360 0.000000 0.011070 
#    y 0.000000 1.670930 0.000000 
#    z 0.011070 0.000000 1.698740 
# 
# From -- ./inp_files/314354.got.cif
#   From: 2010.06.25/outbox.cif.g09.slc.cpg/sg12_158_cif.got.tgz:314354.got - 2010.06.28 00:19:55.
