data_PCOD8085404
_publ_section_title
;
Structure prediction by ZEFSAII (Michael W. Deem and Ramdas Pophale) SiO2 
 PCOD8085404
Probable space group: C 2/M
;
_chemical_formula_sum "Si O2"
_cell_formula_units_Z 48
_cell_length_a 18.487119
_cell_length_b 9.199400
_cell_length_c 16.012758
_cell_angle_alpha 90.000000
_cell_angle_beta 104.840671
_cell_angle_gamma 90.000000
_cell_volume 2632.451990
_symmetry_space_group_name_H-M "C 2/M"
_symmetry_group_IT_number 12
_symmetry_cell_setting 'monoclinic'
loop_
_space_group_symop_operation_xyz
x,y,z
-x,y,-z
-x,-y,-z
x,-y,z
1/2+x,1/2+y,z
1/2-x,1/2+y,-z
1/2-x,1/2-y,-z
1/2+x,1/2-y,z
loop_
_atom_site_type_symbol
_atom_site_label
_atom_site_fract_x
_atom_site_fract_y
_atom_site_fract_z
Si Si1 0.755868 0.830574 0.243548
Si Si2 0.856175 0.839179 0.571356
Si Si3 0.811526 0.337761 0.411281
Si Si4 0.394343 0.671983 0.761461
Si Si5 0.309280 0.331242 0.073895
Si Si6 0.526395 0.327368 0.918583
O O1 0.811256 0.759561 0.328017
O O2 0.675143 0.755465 0.218507
O O3 0.793801 0.804308 0.166093
O O4 0.746156 0.000000 0.261990
O O5 0.867667 0.731109 0.496805
O O6 0.770669 0.842286 0.574911
O O7 0.904301 0.788397 0.666214
O O8 0.880974 0.000000 0.549779
O O9 0.839664 0.500000 0.398267
O O10 0.378989 0.500000 0.767380
O O11 0.468769 0.724824 0.830416
O O12 0.304680 0.500000 0.049299
O O13 0.391406 0.266985 0.078124
O O14 0.250000 0.250000 0.000000
O O15 0.528132 0.500000 0.921319
O O16 0.500000 0.264609 0.000000
#
# Coordination Sequence:
#
# PCOD8085404 Si02
#       6
#     8   8   8   8   8   8
#     4  10  19  30  46  71 102 129 156 196 242 285
#     4   8  14  24  40  66  96 122 154 200 244 277
#     4   9  16  26  43  67  94 127 164 197 233 280
#     4   9  17  30  50  73  96 127 165 200 237 283
#     4  10  21  35  52  74  98 126 159 196 240 287
#     4   9  17  31  52  74  95 122 159 200 237 280
#
# _framework density 18.233951000000001
#
# number of rings (size 3 to 8) (size 9 to 14) (size 15 to 20)
#    0.000    2.833    0.000    3.000    0.000    6.667 
#    0.000    0.833    0.000    4.000    0.000    7.000 
#    0.000    0.000    0.000    0.000    0.000    0.000 
#
# Total GULP energy -297538.886642 kJ/mol
# GULP energy per Si atom -12397.453610 kJ/mol
# Density = 1.819245 g / cm^3
# Si number density = 18.233951 Si / 1000 Ang^3
#
#
#
# Elastic Constant Matrix: (Units=GPa)
#
#
# Indices 1 2 3 4 5 6 
#
# 1 93.7806 40.1077 70.7695 0.0000 6.8188 0.0000
# 2 40.1077 82.9275 64.9100 0.0000 -0.7967 0.0000
# 3 70.7695 64.9100 171.5641 0.0000 19.2080 0.0000
# 4 0.0000 0.0000 0.0000 31.2258 0.0000 1.2166
# 5 6.8188 -0.7967 19.2080 0.0000 23.0175 0.0000
# 6 0.0000 0.0000 0.0000 1.2166 0.0000 15.1870
#
#
#
# Elastic Compliance Matrix: (Units=1/GPa)
#
#
# Indices 1 2 3 4 5 6 
#
# 1 0.016256 -0.003797 -0.005201 0.000000 -0.000607 0.000000
# 2 -0.003797 0.018985 -0.006416 0.000000 0.007136 0.000000
# 3 -0.005201 -0.006416 0.011311 0.000000 -0.008120 0.000000
# 4 0.000000 0.000000 0.000000 0.032125 0.000000 -0.002573
# 5 -0.000607 0.007136 -0.008120 0.000000 0.050648 0.000000
# 6 0.000000 0.000000 0.000000 -0.002573 0.000000 0.066052
#
#
# Mechanical properties :
#
#
# Convention : Reuss Voigt Hill
#
# Bulk Modulus (GPa) = 63.59456 77.76072 70.67764
# Shear Modulus (GPa) = 21.60331 25.38508 23.49419
#
# Velocity S-wave (km/s) = 3.44580 3.73525 3.59344
# Velocity P-wave (km/s) = 7.12630 7.83208 7.48751
#
# Compressibility (1/GPa) = 0.01572461
#
# Stress axis : x y z
#
# Youngs Moduli (GPa) = 61.51562 52.67190 88.41315
#
# Poissons Ratio (x) = 0.20000 0.45984
# Poissons Ratio (y) = 0.23358 0.56723
# Poissons Ratio (z) = 0.31994 0.33793
#
# Static dielectric constant tensor:
#      x y z
#    x 3.094260 0.000000 0.120990 
#    y 0.000000 3.347750 0.000000 
#    z 0.120990 0.000000 3.782660 
# 
# 
# High freq. dielectric constant tensor:
#      x y z
#    x 1.663300 0.000000 0.004510 
#    y 0.000000 1.691710 0.000000 
#    z 0.004510 0.000000 1.727530 
# 
# From -- ./inp_files/230372.got.cif
#   From: 2010.06.25/outbox.cif.g09.slc.cpg/sg12_116_cif.got.tgz:230372.got - 2010.06.28 00:19:55.
