data_PCOD8085012
_publ_section_title
;
Structure prediction by ZEFSAII (Michael W. Deem and Ramdas Pophale) SiO2 
 PCOD8085012
Probable space group: C 2/M
;
_chemical_formula_sum "Si O2"
_cell_formula_units_Z 64
_cell_length_a 30.043403
_cell_length_b 8.861111
_cell_length_c 15.066379
_cell_angle_alpha 90.000000
_cell_angle_beta 100.241561
_cell_angle_gamma 90.000000
_cell_volume 3947.033484
_symmetry_space_group_name_H-M "C 2/M"
_symmetry_group_IT_number 12
_symmetry_cell_setting 'monoclinic'
loop_
_space_group_symop_operation_xyz
x,y,z
-x,y,-z
-x,-y,-z
x,-y,z
1/2+x,1/2+y,z
1/2-x,1/2+y,-z
1/2-x,1/2-y,-z
1/2+x,1/2-y,z
loop_
_atom_site_type_symbol
_atom_site_label
_atom_site_fract_x
_atom_site_fract_y
_atom_site_fract_z
Si Si1 0.121354 0.823093 0.744003
Si Si2 0.057100 0.321884 0.442054
Si Si3 0.312029 0.322757 0.088054
Si Si4 0.288089 0.675410 0.697691
Si Si5 0.039886 0.678281 0.632569
Si Si6 0.278721 0.326327 0.892012
Si Si7 0.193333 0.178320 0.620132
Si Si8 0.844398 0.678829 0.568526
O O1 0.144247 0.760663 0.843248
O O2 0.072064 0.748668 0.718721
O O3 0.152890 0.777547 0.672020
O O4 0.113954 0.000000 0.744788
O O5 0.054932 0.500000 0.448843
O O6 0.055905 0.259447 0.542177
O O7 0.103057 0.269277 0.410639
O O8 0.012429 0.268581 0.371749
O O9 0.311829 0.500000 0.100382
O O10 0.267157 0.266855 0.120791
O O11 0.312473 0.274966 0.984105
O O12 0.290499 0.500000 0.671127
O O13 0.302489 0.698803 0.805678
O O14 0.237660 0.734412 0.666655
O O15 0.323355 0.773117 0.654313
O O16 0.044399 0.500000 0.640641
O O17 0.265280 0.500000 0.901324
O O18 0.181631 0.233619 0.517750
O O19 0.202871 0.000000 0.622568
O O20 0.839422 0.500000 0.552062
#
# Coordination Sequence:
#
# PCOD8085012 Si02
#       8
#     8   8   8   8   8   8   8   8
#     4  10  19  29  45  71  99 123 148 183 232 276
#     4   8  16  30  48  68  88 117 154 191 227 270
#     4   9  17  31  48  67  93 121 150 188 232 276
#     4  11  22  34  47  67  93 124 162 197 229 267
#     4   9  16  30  50  68  90 118 152 188 226 276
#     4   9  18  31  48  67  89 120 156 192 229 270
#     4  11  21  33  46  66  96 129 160 190 223 266
#     4  11  21  34  50  67  90 125 162 194 229 269
#
# _framework density 16.214708999999999
#
# number of rings (size 3 to 8) (size 9 to 14) (size 15 to 20)
#    0.000    2.250    2.500    2.250    0.000    1.500 
#    0.000    2.500    0.000    0.000    0.000    0.875 
#    0.000    7.000    0.000    0.000    0.000    0.000 
#
# Total GULP energy -396653.588400 kJ/mol
# GULP energy per Si atom -12395.424637 kJ/mol
# Density = 1.617780 g / cm^3
# Si number density = 16.214709 Si / 1000 Ang^3
#
#
#
# Elastic Constant Matrix: (Units=GPa)
#
#
# Indices 1 2 3 4 5 6 
#
# 1 77.6652 17.2387 45.9687 0.0000 18.4309 0.0000
# 2 17.2387 24.9430 17.7120 0.0000 5.3482 0.0000
# 3 45.9687 17.7120 104.7208 0.0000 18.4284 0.0000
# 4 0.0000 0.0000 0.0000 18.3748 0.0000 2.0688
# 5 18.4309 5.3482 18.4284 0.0000 26.4629 0.0000
# 6 0.0000 0.0000 0.0000 2.0688 0.0000 21.5009
#
#
#
# Elastic Compliance Matrix: (Units=1/GPa)
#
#
# Indices 1 2 3 4 5 6 
#
# 1 0.020170 -0.007861 -0.006076 0.000000 -0.008228 0.000000
# 2 -0.007861 0.049077 -0.004636 0.000000 -0.001215 0.000000
# 3 -0.006076 -0.004636 0.013780 0.000000 -0.004427 0.000000
# 4 0.000000 0.000000 0.000000 0.055018 0.000000 -0.005294
# 5 -0.008228 -0.001215 -0.004427 0.000000 0.046848 0.000000
# 6 0.000000 0.000000 0.000000 -0.005294 0.000000 0.047019
#
#
# Mechanical properties :
#
#
# Convention : Reuss Voigt Hill
#
# Bulk Modulus (GPa) = 21.79626 41.01866 31.40746
# Shear Modulus (GPa) = 17.58392 21.69502 19.63947
#
# Velocity S-wave (km/s) = 3.29666 3.66181 3.48402
# Velocity P-wave (km/s) = 5.28792 6.57500 5.96627
#
# Compressibility (1/GPa) = 0.04587943
#
# Stress axis : x y z
#
# Youngs Moduli (GPa) = 49.57977 20.37622 72.57063
#
# Poissons Ratio (x) = 0.16017 0.44096
# Poissons Ratio (y) = 0.38973 0.33645
# Poissons Ratio (z) = 0.30126 0.09447
#
# Static dielectric constant tensor:
#      x y z
#    x 3.166260 0.000000 0.204850 
#    y 0.000000 2.977010 0.000000 
#    z 0.204850 0.000000 3.269530 
# 
# 
# High freq. dielectric constant tensor:
#      x y z
#    x 1.605010 0.000000 0.015460 
#    y 0.000000 1.618860 0.000000 
#    z 0.015460 0.000000 1.615260 
# 
# From -- ./inp_files/248531.got.cif
#   From: 2010.06.25/outbox.cif.g09.slc.cpg/sg12_125_cif.got.tgz:248531.got - 2010.06.28 00:19:55.
