data_PCOD8085724
_publ_section_title
;
Structure prediction by ZEFSAII (Michael W. Deem and Ramdas Pophale) SiO2 
 PCOD8085724
Probable space group: C 2/M
;
_chemical_formula_sum "Si O2"
_cell_formula_units_Z 40
_cell_length_a 29.029540
_cell_length_b 9.071775
_cell_length_c 7.954949
_cell_angle_alpha 90.000000
_cell_angle_beta 89.162988
_cell_angle_gamma 90.000000
_cell_volume 2094.707948
_symmetry_space_group_name_H-M "C 2/M"
_symmetry_group_IT_number 12
_symmetry_cell_setting 'monoclinic'
loop_
_space_group_symop_operation_xyz
x,y,z
-x,y,-z
-x,-y,-z
x,-y,z
1/2+x,1/2+y,z
1/2-x,1/2+y,-z
1/2-x,1/2-y,-z
1/2+x,1/2-y,z
loop_
_atom_site_type_symbol
_atom_site_label
_atom_site_fract_x
_atom_site_fract_y
_atom_site_fract_z
Si Si1 0.302554 0.830088 0.182243
Si Si2 0.394290 0.328499 0.676785
Si Si3 0.887989 0.824836 0.309962
Si Si4 0.947976 0.823971 0.993753
Si Si5 0.200139 0.831140 0.162536
O O1 0.336559 0.737954 0.297488
O O2 0.249827 0.804499 0.246419
O O3 0.316723 0.000000 0.191393
O O4 0.307324 0.778107 0.990911
O O5 0.404852 0.500000 0.685426
O O6 0.408275 0.271003 0.489882
O O7 0.424435 0.256970 0.826013
O O8 0.339940 0.296547 0.702259
O O9 0.884193 0.000000 0.305802
O O10 0.920538 0.765127 0.158850
O O11 0.946795 0.000000 0.993821
O O12 0.000000 0.764453 0.000000
O O13 0.196377 0.000000 0.096612
#
# Coordination Sequence:
#
# PCOD8085724 Si02
#       5
#     8   8   8   8   8
#     4  10  19  30  49  75 102 134 170 204 240 290
#     4   9  17  30  50  75 101 130 164 202 248 297
#     4  10  19  32  52  74 101 135 164 200 250 296
#     4   9  17  30  50  76 102 126 160 209 254 292
#     4   9  17  32  51  72 102 135 167 204 244 289
#
# _framework density 19.095741
#
# number of rings (size 3 to 8) (size 9 to 14) (size 15 to 20)
#    0.000    2.600    2.000    0.600    0.000    2.400 
#    0.000    5.000    0.000    0.600    0.000    1.400 
#    0.000    0.000    0.000    0.000    0.000    0.000 
#
# Total GULP energy -247880.928454 kJ/mol
# GULP energy per Si atom -12394.046423 kJ/mol
# Density = 1.905228 g / cm^3
# Si number density = 19.095741 Si / 1000 Ang^3
#
#
#
# Elastic Constant Matrix: (Units=GPa)
#
#
# Indices 1 2 3 4 5 6 
#
# 1 137.2775 19.5263 85.1136 0.0000 10.1212 0.0000
# 2 19.5263 20.9678 17.4694 0.0000 0.6043 0.0000
# 3 85.1136 17.4694 163.7241 0.0000 9.6391 0.0000
# 4 0.0000 0.0000 0.0000 11.7118 0.0000 3.2363
# 5 10.1212 0.6043 9.6391 0.0000 17.3924 0.0000
# 6 0.0000 0.0000 0.0000 3.2363 0.0000 19.5531
#
#
#
# Elastic Compliance Matrix: (Units=1/GPa)
#
#
# Indices 1 2 3 4 5 6 
#
# 1 0.011679 -0.006468 -0.005163 0.000000 -0.003710 0.000000
# 2 -0.006468 0.055957 -0.002807 0.000000 0.003375 0.000000
# 3 -0.005163 -0.002807 0.009209 0.000000 -0.002002 0.000000
# 4 0.000000 0.000000 0.000000 0.089477 0.000000 -0.014809
# 5 -0.003710 0.003375 -0.002002 0.000000 0.060648 0.000000
# 6 0.000000 0.000000 0.000000 -0.014809 0.000000 0.053594
#
#
# Mechanical properties :
#
#
# Convention : Reuss Voigt Hill
#
# Bulk Modulus (GPa) = 20.84649 62.90979 41.87814
# Shear Modulus (GPa) = 15.36434 23.05544 19.20989
#
# Velocity S-wave (km/s) = 2.83962 3.47848 3.17516
# Velocity P-wave (km/s) = 4.65744 7.01064 5.95150
#
# Compressibility (1/GPa) = 0.04796970
#
# Stress axis : x y z
#
# Youngs Moduli (GPa) = 85.62271 17.87094 108.58690
#
# Poissons Ratio (x) = 0.11559 0.56063
# Poissons Ratio (y) = 0.55379 0.30480
# Poissons Ratio (z) = 0.44207 0.05016
#
# Static dielectric constant tensor:
#      x y z
#    x 3.713670 0.000000 0.061670 
#    y 0.000000 3.047940 0.000000 
#    z 0.061670 0.000000 3.657220 
# 
# 
# High freq. dielectric constant tensor:
#      x y z
#    x 1.745550 0.000000 0.002600 
#    y 0.000000 1.688870 0.000000 
#    z 0.002600 0.000000 1.740070 
# 
# From -- ./inp_files/101090.got.cif
#   From: 2010.06.25/outbox.cif.g09.slc.cpg/sg12_51_cif.got.tgz:101090.got - 2010.06.28 00:19:55.
