data_PCOD8085078
_publ_section_title
;
Structure prediction by ZEFSAII (Michael W. Deem and Ramdas Pophale) SiO2 
 PCOD8085078
Probable space group: C 2/M
;
_chemical_formula_sum "Si O2"
_cell_formula_units_Z 56
_cell_length_a 23.438510
_cell_length_b 9.911357
_cell_length_c 12.713726
_cell_angle_alpha 90.000000
_cell_angle_beta 91.424454
_cell_angle_gamma 90.000000
_cell_volume 2952.580427
_symmetry_space_group_name_H-M "C 2/M"
_symmetry_group_IT_number 12
_symmetry_cell_setting 'monoclinic'
loop_
_space_group_symop_operation_xyz
x,y,z
-x,y,-z
-x,-y,-z
x,-y,z
1/2+x,1/2+y,z
1/2-x,1/2+y,-z
1/2-x,1/2-y,-z
1/2+x,1/2-y,z
loop_
_atom_site_type_symbol
_atom_site_label
_atom_site_fract_x
_atom_site_fract_y
_atom_site_fract_z
Si Si1 0.798171 0.352501 0.108447
Si Si2 0.787259 0.645449 0.870697
Si Si3 0.098177 0.346032 0.222398
Si Si4 0.620658 0.348502 0.814526
Si Si5 0.179523 0.654137 0.417265
Si Si6 0.691584 0.346424 0.609950
Si Si7 0.994350 0.846184 0.878123
O O1 0.807871 0.500000 0.161691
O O2 0.752875 0.264912 0.175890
O O3 0.856034 0.264603 0.104162
O O4 0.772867 0.373750 0.992106
O O5 0.773733 0.500000 0.812532
O O6 0.853827 0.677435 0.863858
O O7 0.075254 0.500000 0.220012
O O8 0.128332 0.311774 0.334570
O O9 0.047467 0.245771 0.192172
O O10 0.639354 0.500000 0.850009
O O11 0.648811 0.313037 0.703605
O O12 0.552769 0.336901 0.815040
O O13 0.175057 0.500000 0.456046
O O14 0.240873 0.678884 0.362439
O O15 0.171313 0.750282 0.515633
O O16 0.682427 0.500000 0.572639
O O17 0.971457 0.000000 0.878410
O O18 0.000000 0.796255 0.000000
#
# Coordination Sequence:
#
# PCOD8085078 Si02
#       7
#     8   8   8   8   8   8   8
#     4  10  19  29  47  76 103 130 168 212 257 309
#     4   9  18  32  48  70 103 137 166 203 258 320
#     4  10  20  35  55  76 102 140 179 215 262 316
#     4  10  20  35  53  72 101 140 175 212 263 315
#     4   9  18  33  54  81 108 132 166 215 265 311
#     4   9  18  34  56  79 104 137 172 207 258 322
#     4  10  22  38  55  77 105 139 181 226 265 303
#
# _framework density 18.966459
#
# number of rings (size 3 to 8) (size 9 to 14) (size 15 to 20)
#    0.000    2.429    0.000    2.143    0.000    5.429 
#    0.000    3.571    0.000    4.286    0.000    0.000 
#    0.000    0.000    0.000    0.000    0.000    0.000 
#
# Total GULP energy -346953.472623 kJ/mol
# GULP energy per Si atom -12391.195451 kJ/mol
# Density = 1.892329 g / cm^3
# Si number density = 18.966459 Si / 1000 Ang^3
#
#
#
# Elastic Constant Matrix: (Units=GPa)
#
#
# Indices 1 2 3 4 5 6 
#
# 1 109.1638 66.9507 37.1983 0.0000 4.9281 0.0000
# 2 66.9507 136.0540 38.1681 0.0000 14.1209 0.0000
# 3 37.1983 38.1681 61.4933 0.0000 1.8658 0.0000
# 4 0.0000 0.0000 0.0000 27.2837 0.0000 8.4754
# 5 4.9281 14.1209 1.8658 0.0000 32.0144 0.0000
# 6 0.0000 0.0000 0.0000 8.4754 0.0000 35.5271
#
#
#
# Elastic Compliance Matrix: (Units=1/GPa)
#
#
# Indices 1 2 3 4 5 6 
#
# 1 0.014391 -0.005686 -0.005194 0.000000 0.000596 0.000000
# 2 -0.005686 0.011583 -0.003628 0.000000 -0.004022 0.000000
# 3 -0.005194 -0.003628 0.021621 0.000000 0.001140 0.000000
# 4 0.000000 0.000000 0.000000 0.039585 0.000000 -0.009444
# 5 0.000596 -0.004022 0.001140 0.000000 0.032852 0.000000
# 6 0.000000 0.000000 0.000000 -0.009444 0.000000 0.030400
#
#
# Mechanical properties :
#
#
# Convention : Reuss Voigt Hill
#
# Bulk Modulus (GPa) = 53.82397 65.70502 59.76449
# Shear Modulus (GPa) = 26.93343 29.92464 28.42903
#
# Velocity S-wave (km/s) = 3.77245 3.97642 3.87578
# Velocity P-wave (km/s) = 6.88588 7.46997 7.18386
#
# Compressibility (1/GPa) = 0.01857908
#
# Stress axis : x y z
#
# Youngs Moduli (GPa) = 69.48767 86.32991 46.25126
#
# Poissons Ratio (x) = 0.49091 0.24023
# Poissons Ratio (y) = 0.39513 0.16779
# Poissons Ratio (z) = 0.36092 0.31319
#
# Static dielectric constant tensor:
#      x y z
#    x 3.337590 0.000000 -0.096130 
#    y 0.000000 3.892950 0.000000 
#    z -0.096130 0.000000 3.297820 
# 
# 
# High freq. dielectric constant tensor:
#      x y z
#    x 1.721030 0.000000 -0.004020 
#    y 0.000000 1.749110 0.000000 
#    z -0.004020 0.000000 1.722740 
# 
# From -- ./inp_files/230843.got.cif
#   From: 2010.06.25/outbox.cif.g09.slc.cpg/sg12_116_cif.got.tgz:230843.got - 2010.06.28 00:19:55.
