data_PCOD8085108
_publ_section_title
;
Structure prediction by ZEFSAII (Michael W. Deem and Ramdas Pophale) SiO2 
 PCOD8085108
Probable space group: C 2/M
;
_chemical_formula_sum "Si O2"
_cell_formula_units_Z 64
_cell_length_a 27.416782
_cell_length_b 8.956439
_cell_length_c 24.155001
_cell_angle_alpha 90.000000
_cell_angle_beta 43.816047
_cell_angle_gamma 90.000000
_cell_volume 4106.592924
_symmetry_space_group_name_H-M "C 2/M"
_symmetry_group_IT_number 12
_symmetry_cell_setting 'monoclinic'
loop_
_space_group_symop_operation_xyz
x,y,z
-x,y,-z
-x,-y,-z
x,-y,z
1/2+x,1/2+y,z
1/2-x,1/2+y,-z
1/2-x,1/2-y,-z
1/2+x,1/2-y,z
loop_
_atom_site_type_symbol
_atom_site_label
_atom_site_fract_x
_atom_site_fract_y
_atom_site_fract_z
Si Si1 0.888629 0.323939 0.443330
Si Si2 0.931719 0.678148 0.525304
Si Si3 0.934769 0.835178 0.012188
Si Si4 0.780980 0.332775 0.684243
Si Si5 0.737102 0.331670 0.594310
Si Si6 0.955365 0.823591 0.162601
Si Si7 0.652713 0.175144 0.832071
Si Si8 0.094232 0.674475 0.691526
O O1 0.882048 0.500000 0.456986
O O2 0.929758 0.259593 0.463404
O O3 0.807642 0.266519 0.507389
O O4 0.928289 0.284374 0.353371
O O5 0.935197 0.500000 0.521651
O O6 0.861325 0.728337 0.615896
O O7 0.000000 0.746377 0.500000
O O8 0.967954 0.782620 0.926185
O O9 0.900531 0.000000 0.034970
O O10 0.876493 0.721593 0.083290
O O11 0.000000 0.843039 0.000000
O O12 0.779533 0.500000 0.710427
O O13 0.748580 0.334482 0.650146
O O14 0.733978 0.225996 0.761606
O O15 0.717862 0.500000 0.589957
O O16 0.675508 0.216793 0.631559
O O17 0.892037 0.750141 0.180186
O O18 0.955032 0.765332 0.225841
O O19 0.942407 0.000000 0.171871
O O20 0.646680 0.000000 0.830235
O O21 0.084967 0.500000 0.711022
#
# Coordination Sequence:
#
# PCOD8085108 Si02
#       8
#     8   8   8   8   8   8   8   8
#     4   8  16  27  38  58  83 107 138 177 214 243
#     4   8  14  27  47  66  83 107 141 178 213 249
#     4   8  16  29  42  54  74 108 144 175 206 241
#     4   9  16  26  42  62  84 110 141 176 209 243
#     4   9  16  27  40  52  77 114 143 169 203 241
#     4  10  19  30  41  54  78 114 149 175 204 242
#     4  11  19  26  40  61  84 108 139 176 209 247
#     4  11  19  25  37  58  85 111 140 176 207 240
#
# _framework density 15.584695999999999
#
# number of rings (size 3 to 8) (size 9 to 14) (size 15 to 20)
#    0.000    2.750    1.250    4.500    0.000    2.750 
#    0.000    0.625    0.000    1.125    0.000    0.000 
#    0.000    1.000    0.000    2.000    0.000    2.625 
#
# Total GULP energy -396550.760626 kJ/mol
# GULP energy per Si atom -12392.211270 kJ/mol
# Density = 1.554922 g / cm^3
# Si number density = 15.584696 Si / 1000 Ang^3
#
#
#
# Elastic Constant Matrix: (Units=GPa)
#
#
# Indices 1 2 3 4 5 6 
#
# 1 52.6806 19.7265 44.4538 0.0014 -2.3839 -0.0008
# 2 19.7265 66.2483 49.1022 0.0043 -0.4763 -0.0029
# 3 44.4538 49.1022 137.2170 0.0018 8.1811 -0.0024
# 4 0.0014 0.0043 0.0018 18.1762 -0.0029 2.3571
# 5 -2.3839 -0.4763 8.1811 -0.0029 15.2276 0.0013
# 6 -0.0008 -0.0029 -0.0024 2.3571 0.0013 7.7012
#
#
#
# Elastic Compliance Matrix: (Units=1/GPa)
#
#
# Indices 1 2 3 4 5 6 
#
# 1 0.027463 -0.001523 -0.008890 0.000001 0.009028 -0.000002
# 2 -0.001523 0.020965 -0.007266 -0.000004 0.004321 0.000006
# 3 -0.008890 -0.007266 0.013290 -0.000001 -0.008759 0.000002
# 4 0.000001 -0.000004 -0.000001 0.057291 0.000013 -0.017535
# 5 0.009028 0.004321 -0.008759 0.000013 0.071925 -0.000016
# 6 -0.000002 0.000006 0.000002 -0.017535 -0.000016 0.135217
#
#
# Mechanical properties :
#
#
# Convention : Reuss Voigt Hill
#
# Bulk Modulus (GPa) = 37.93816 53.63453 45.78635
# Shear Modulus (GPa) = 13.50261 17.74521 15.62391
#
# Velocity S-wave (km/s) = 2.94666 3.37802 3.16969
# Velocity P-wave (km/s) = 5.99776 7.05013 6.54513
#
# Compressibility (1/GPa) = 0.02635868
#
# Stress axis : x y z
#
# Youngs Moduli (GPa) = 36.41228 47.69829 75.24233
#
# Poissons Ratio (x) = 0.07266 0.66893
# Poissons Ratio (y) = 0.05547 0.54674
# Poissons Ratio (z) = 0.32372 0.34659
#
# Static dielectric constant tensor:
#      x y z
#    x 2.756010 0.000000 0.087350 
#    y 0.000000 2.805490 0.000000 
#    z 0.087350 0.000000 3.417140 
# 
# 
# High freq. dielectric constant tensor:
#      x y z
#    x 1.534980 0.000000 0.008270 
#    y 0.000000 1.581350 0.000000 
#    z 0.008270 0.000000 1.609580 
# 
# From -- ./inp_files/350944.got.cif
#   From: 2010.06.25/outbox.cif.g09.slc.cpg/sg12_176_cif.got.tgz:350944.got - 2010.06.28 00:19:55.
