data_PCOD8085146
_publ_section_title
;
Structure prediction by ZEFSAII (Michael W. Deem and Ramdas Pophale) SiO2 
 PCOD8085146
Probable space group: C 2/M
;
_chemical_formula_sum "Si O2"
_cell_formula_units_Z 56
_cell_length_a 9.526771
_cell_length_b 27.664130
_cell_length_c 18.840523
_cell_angle_alpha 90.000000
_cell_angle_beta 137.767329
_cell_angle_gamma 90.000000
_cell_volume 3337.469550
_symmetry_space_group_name_H-M "C 2/M"
_symmetry_group_IT_number 12
_symmetry_cell_setting 'monoclinic'
loop_
_space_group_symop_operation_xyz
x,y,z
-x,y,-z
-x,-y,-z
x,-y,z
1/2+x,1/2+y,z
1/2-x,1/2+y,-z
1/2-x,1/2-y,-z
1/2+x,1/2-y,z
loop_
_atom_site_type_symbol
_atom_site_label
_atom_site_fract_x
_atom_site_fract_y
_atom_site_fract_z
Si Si1 0.674941 0.701091 0.876709
Si Si2 0.183533 0.556940 0.620020
Si Si3 0.388522 0.596542 0.202759
Si Si4 0.481134 0.786814 0.873917
Si Si5 0.995066 0.391010 0.837763
Si Si6 0.342799 0.055701 0.228002
Si Si7 0.634773 0.554402 0.951800
O O1 0.591761 0.647258 0.832422
O O2 0.495628 0.738748 0.831795
O O3 0.767870 0.719443 0.837128
O O4 0.838602 0.702766 0.001745
O O5 0.223069 0.500000 0.626981
O O6 0.394074 0.585165 0.676075
O O7 0.123290 0.570955 0.677901
O O8 0.000000 0.574976 0.500000
O O9 0.202919 0.592715 0.189768
O O10 0.351172 0.556258 0.128494
O O11 0.483691 0.833331 0.823645
O O12 0.994972 0.414037 0.759343
O O13 0.207514 0.407170 0.955953
O O14 0.103664 0.065866 0.113609
O O15 0.398903 0.000000 0.238557
O O16 0.696356 0.500000 0.998625
#
# Coordination Sequence:
#
# PCOD8085146 Si02
#       7
#     8   8   8   8   8   8   8
#     4   9  17  31  44  65  96 127 166 200 227 281
#     4   9  19  37  55  70  93 126 166 209 249 292
#     4  10  19  31  49  71  95 128 167 201 239 289
#     4   9  18  30  44  65  98 133 160 194 234 274
#     4  11  19  29  45  72 103 129 156 199 240 283
#     4   9  19  32  46  69  97 126 163 200 237 289
#     4  10  19  30  43  64 100 139 165 186 225 287
#
# _framework density 16.779178999999999
#
# number of rings (size 3 to 8) (size 9 to 14) (size 15 to 20)
#    0.000    2.429    1.429    2.571    0.000    6.286 
#    5.143    0.714    0.000    2.571    0.000    9.000 
#    0.000    0.000    0.000    0.000    0.000    0.000 
#
# Total GULP energy -347080.892146 kJ/mol
# GULP energy per Si atom -12395.746148 kJ/mol
# Density = 1.674099 g / cm^3
# Si number density = 16.779179 Si / 1000 Ang^3
#
#
#
# Elastic Constant Matrix: (Units=GPa)
#
#
# Indices 1 2 3 4 5 6 
#
# 1 92.3961 45.4908 17.3804 0.0002 -8.4823 0.0001
# 2 45.4908 63.0484 14.9789 -0.0001 -2.3376 0.0000
# 3 17.3804 14.9789 63.6926 0.0008 0.8386 0.0003
# 4 0.0002 -0.0001 0.0008 14.3968 0.0003 -4.8751
# 5 -8.4823 -2.3376 0.8386 0.0003 13.1756 0.0001
# 6 0.0001 0.0000 0.0003 -4.8751 0.0001 31.4807
#
#
#
# Elastic Compliance Matrix: (Units=1/GPa)
#
#
# Indices 1 2 3 4 5 6 
#
# 1 0.018130 -0.012199 -0.002205 0.000000 0.009648 0.000000
# 2 -0.012199 0.025147 -0.002542 0.000001 -0.003230 0.000000
# 3 -0.002205 -0.002542 0.016939 -0.000001 -0.002949 0.000000
# 4 0.000000 0.000001 -0.000001 0.073304 -0.000002 0.011352
# 5 0.009648 -0.003230 -0.002949 -0.000002 0.081723 -0.000001
# 6 0.000000 0.000000 0.000000 0.011352 -0.000001 0.033523
#
#
# Mechanical properties :
#
#
# Convention : Reuss Voigt Hill
#
# Bulk Modulus (GPa) = 37.99161 41.64858 39.82010
# Shear Modulus (GPa) = 17.15648 21.22976 19.19312
#
# Velocity S-wave (km/s) = 3.20110 3.56089 3.38578
# Velocity P-wave (km/s) = 6.02943 6.46390 6.25044
#
# Compressibility (1/GPa) = 0.02632160
#
# Stress axis : x y z
#
# Youngs Moduli (GPa) = 55.15774 39.76583 59.03555
#
# Poissons Ratio (x) = 0.48512 0.13019
# Poissons Ratio (y) = 0.67289 0.15010
# Poissons Ratio (z) = 0.12164 0.10110
#
# Static dielectric constant tensor:
#      x y z
#    x 3.276480 0.000000 -0.064600 
#    y 0.000000 3.162580 0.000000 
#    z -0.064600 0.000000 2.845710 
# 
# 
# High freq. dielectric constant tensor:
#      x y z
#    x 1.654950 0.000000 -0.009930 
#    y 0.000000 1.644700 0.000000 
#    z -0.009930 0.000000 1.595970 
# 
# From -- ./inp_files/259580.got.cif
#   From: 2010.06.25/outbox.cif.g09.slc.cpg/sg12_130_cif.got.tgz:259580.got - 2010.06.28 00:19:55.
