data_PCOD8085703
_publ_section_title
;
Structure prediction by ZEFSAII (Michael W. Deem and Ramdas Pophale) SiO2 
 PCOD8085703
Probable space group: C 2/M
;
_chemical_formula_sum "Si O2"
_cell_formula_units_Z 52
_cell_length_a 20.476653
_cell_length_b 17.038423
_cell_length_c 9.225199
_cell_angle_alpha 90.000000
_cell_angle_beta 63.761503
_cell_angle_gamma 90.000000
_cell_volume 2886.941089
_symmetry_space_group_name_H-M "C 2/M"
_symmetry_group_IT_number 12
_symmetry_cell_setting 'monoclinic'
loop_
_space_group_symop_operation_xyz
x,y,z
-x,y,-z
-x,-y,-z
x,-y,z
1/2+x,1/2+y,z
1/2-x,1/2+y,-z
1/2-x,1/2-y,-z
1/2+x,1/2-y,z
loop_
_atom_site_type_symbol
_atom_site_label
_atom_site_fract_x
_atom_site_fract_y
_atom_site_fract_z
Si Si1 0.641045 0.198521 0.358364
Si Si2 0.916934 0.089483 0.394181
Si Si3 0.279614 0.357796 0.694290
Si Si4 0.686272 0.087831 0.538456
Si Si5 0.669348 0.587304 0.793032
Si Si6 0.748549 0.660347 0.962847
Si Si7 0.000000 0.794428 0.500000
O O1 0.701113 0.265406 0.336503
O O2 0.628184 0.144261 0.513439
O O3 0.674201 0.144214 0.195473
O O4 0.566066 0.239148 0.384095
O O5 0.847651 0.091852 0.569632
O O6 0.894648 0.116146 0.252625
O O7 0.978863 0.149780 0.385734
O O8 0.946382 0.000000 0.365394
O O9 0.206888 0.375346 0.673597
O O10 0.261502 0.386175 0.876441
O O11 0.757362 0.086163 0.370534
O O12 0.654096 0.000000 0.589516
O O13 0.651252 0.500000 0.866288
O O14 0.680014 0.641347 0.924155
O O15 0.750000 0.750000 0.000000
#
# Coordination Sequence:
#
# PCOD8085703 Si02
#       7
#     8   8   8   8   8   8   4
#     4   9  18  31  45  66  93 123 158 191 226 275
#     4   9  17  30  48  72  97 122 152 188 228 279
#     4   9  16  27  48  73  95 116 145 192 244 284
#     4   9  16  28  46  69  91 115 149 192 238 278
#     4   8  15  27  44  66  93 119 146 184 235 281
#     4   9  17  28  45  69  95 120 147 187 236 277
#     4  10  19  30  49  68  90 128 168 192 213 258
#
# _framework density 18.012145
#
# number of rings (size 3 to 8) (size 9 to 14) (size 15 to 20)
#    0.000    3.077    0.000    2.077    0.000    4.923 
#    0.000    0.385    0.000   14.769    0.000   21.538 
#    0.000    0.000    0.000    0.000    0.000    0.000 
#
# Total GULP energy -322124.735358 kJ/mol
# GULP energy per Si atom -12389.412898 kJ/mol
# Density = 1.797115 g / cm^3
# Si number density = 18.012145 Si / 1000 Ang^3
#
#
#
# Elastic Constant Matrix: (Units=GPa)
#
#
# Indices 1 2 3 4 5 6 
#
# 1 105.0452 54.0313 52.5204 0.0000 28.4849 0.0000
# 2 54.0313 80.1213 36.1488 0.0000 20.1741 0.0000
# 3 52.5204 36.1488 95.8264 0.0000 34.8237 0.0000
# 4 0.0000 0.0000 0.0000 21.2389 0.0000 6.3475
# 5 28.4849 20.1741 34.8237 0.0000 29.0101 0.0000
# 6 0.0000 0.0000 0.0000 6.3475 0.0000 30.2736
#
#
#
# Elastic Compliance Matrix: (Units=1/GPa)
#
#
# Indices 1 2 3 4 5 6 
#
# 1 0.017696 -0.008415 -0.004145 0.000000 -0.006548 0.000000
# 2 -0.008415 0.019760 -0.001510 0.000000 -0.003667 0.000000
# 3 -0.004145 -0.001510 0.020250 0.000000 -0.019188 0.000000
# 4 0.000000 0.000000 0.000000 0.050231 0.000000 -0.010532
# 5 -0.006548 -0.003667 -0.019188 0.000000 0.066484 0.000000
# 6 0.000000 0.000000 0.000000 -0.010532 0.000000 0.035240
#
#
# Mechanical properties :
#
#
# Convention : Reuss Voigt Hill
#
# Bulk Modulus (GPa) = 33.82068 62.93266 48.37667
# Shear Modulus (GPa) = 20.18932 25.32400 22.75666
#
# Velocity S-wave (km/s) = 3.35158 3.75365 3.55830
# Velocity P-wave (km/s) = 5.81333 7.33495 6.61801
#
# Compressibility (1/GPa) = 0.02956771
#
# Stress axis : x y z
#
# Youngs Moduli (GPa) = 56.51016 50.60693 49.38344
#
# Poissons Ratio (x) = 0.42584 0.20468
# Poissons Ratio (y) = 0.47552 0.07455
# Poissons Ratio (z) = 0.23422 0.07640
#
# Static dielectric constant tensor:
#      x y z
#    x 3.242930 0.000000 0.445070 
#    y 0.000000 3.490080 0.000000 
#    z 0.445070 0.000000 3.800510 
# 
# 
# High freq. dielectric constant tensor:
#      x y z
#    x 1.664590 0.000000 0.035240 
#    y 0.000000 1.693720 0.000000 
#    z 0.035240 0.000000 1.677730 
# 
# From -- ./inp_files/87187.got.cif
#   From: 2010.06.25/outbox.cif.g09.slc.cpg/sg12_44_cif.got.tgz:87187.got - 2010.06.28 00:19:55.
