data_PCOD8085255
_publ_section_title
;
Structure prediction by ZEFSAII (Michael W. Deem and Ramdas Pophale) SiO2 
 PCOD8085255
Probable space group: C 2/M
;
_chemical_formula_sum "Si O2"
_cell_formula_units_Z 56
_cell_length_a 27.627708
_cell_length_b 8.957031
_cell_length_c 18.192384
_cell_angle_alpha 90.000000
_cell_angle_beta 130.483524
_cell_angle_gamma 90.000000
_cell_volume 3424.133558
_symmetry_space_group_name_H-M "C 2/M"
_symmetry_group_IT_number 12
_symmetry_cell_setting 'monoclinic'
loop_
_space_group_symop_operation_xyz
x,y,z
-x,y,-z
-x,-y,-z
x,-y,z
1/2+x,1/2+y,z
1/2-x,1/2+y,-z
1/2-x,1/2-y,-z
1/2+x,1/2-y,z
loop_
_atom_site_type_symbol
_atom_site_label
_atom_site_fract_x
_atom_site_fract_y
_atom_site_fract_z
Si Si1 0.068983 0.664086 0.603268
Si Si2 0.378784 0.823713 0.780205
Si Si3 0.499833 0.676213 0.170557
Si Si4 0.935777 0.664438 0.982564
Si Si5 0.500243 0.176964 0.676467
Si Si6 0.383042 0.325117 0.482037
Si Si7 0.249395 0.825167 0.577806
O O1 0.101354 0.500000 0.633044
O O2 0.111493 0.779449 0.598603
O O3 0.000000 0.652513 0.500000
O O4 0.057491 0.716933 0.675987
O O5 0.431539 0.737047 0.785462
O O6 0.382402 0.782620 0.870959
O O7 0.310127 0.771480 0.684448
O O8 0.390869 0.000000 0.781158
O O9 0.503359 0.500000 0.180831
O O10 0.480204 0.746459 0.228580
O O11 0.444376 0.720205 0.057865
O O12 0.919225 0.500000 0.998248
O O13 0.000000 0.654438 0.000000
O O14 0.432788 0.238577 0.581954
O O15 0.493087 0.000000 0.679101
O O16 0.396009 0.500000 0.502649
O O17 0.313130 0.278304 0.439259
O O18 0.250000 0.750000 0.500000
O O19 0.251791 0.000000 0.566938
#
# Coordination Sequence:
#
# PCOD8085255 Si02
#       7
#     8   8   8   8   8   8   8
#     4   8  16  30  46  63  84 115 151 181 214 263
#     4   9  18  33  48  61  86 124 158 181 208 258
#     4  11  20  28  43  69  95 114 140 184 233 267
#     4   8  15  29  47  63  82 115 152 180 214 264
#     4  10  19  31  46  64  89 120 152 181 214 264
#     4  10  19  30  45  67  93 117 146 185 226 260
#     4  10  21  33  45  65  91 121 154 184 213 250
#
# _framework density 16.354502
#
# number of rings (size 3 to 8) (size 9 to 14) (size 15 to 20)
#    0.000    2.571    0.000    4.714    0.000    9.714 
#    0.000    0.000    0.000    0.000    0.000    1.000 
#    0.000    0.000    0.000    0.000    0.000    0.000 
#
# Total GULP energy -347082.255377 kJ/mol
# GULP energy per Si atom -12395.794835 kJ/mol
# Density = 1.631728 g / cm^3
# Si number density = 16.354502 Si / 1000 Ang^3
#
#
#
# Elastic Constant Matrix: (Units=GPa)
#
#
# Indices 1 2 3 4 5 6 
#
# 1 93.5283 47.1881 58.4728 0.0000 -17.7115 0.0000
# 2 47.1881 81.8173 47.0359 0.0000 -14.0831 0.0000
# 3 58.4728 47.0359 125.2906 0.0000 -14.4246 0.0000
# 4 0.0000 0.0000 0.0000 21.9114 0.0000 -5.5389
# 5 -17.7115 -14.0831 -14.4246 0.0000 25.4171 0.0000
# 6 0.0000 0.0000 0.0000 -5.5389 0.0000 23.9164
#
#
#
# Elastic Compliance Matrix: (Units=1/GPa)
#
#
# Indices 1 2 3 4 5 6 
#
# 1 0.018596 -0.006472 -0.005531 0.000000 0.006233 0.000000
# 2 -0.006472 0.018647 -0.003541 0.000000 0.003812 0.000000
# 3 -0.005531 -0.003541 0.012007 0.000000 0.000998 0.000000
# 4 0.000000 0.000000 0.000000 0.048476 0.000000 0.011227
# 5 0.006233 0.003812 0.000998 0.000000 0.046366 0.000000
# 6 0.000000 0.000000 0.000000 0.011227 0.000000 0.044412
#
#
# Mechanical properties :
#
#
# Convention : Reuss Voigt Hill
#
# Bulk Modulus (GPa) = 55.06286 67.33664 61.19975
# Shear Modulus (GPa) = 22.15849 24.11158 23.13504
#
# Velocity S-wave (km/s) = 3.68487 3.84384 3.76519
# Velocity P-wave (km/s) = 7.20040 7.80786 7.51027
#
# Compressibility (1/GPa) = 0.01816106
#
# Stress axis : x y z
#
# Youngs Moduli (GPa) = 53.77522 53.62759 83.28462
#
# Poissons Ratio (x) = 0.34710 0.46067
# Poissons Ratio (y) = 0.34806 0.29489
# Poissons Ratio (z) = 0.29744 0.18988
#
# Static dielectric constant tensor:
#      x y z
#    x 2.981850 0.000000 -0.054130 
#    y 0.000000 3.101670 0.000000 
#    z -0.054130 0.000000 3.164960 
# 
# 
# High freq. dielectric constant tensor:
#      x y z
#    x 1.602920 0.000000 -0.022910 
#    y 0.000000 1.632790 0.000000 
#    z -0.022910 0.000000 1.620580 
# 
# From -- ./inp_files/287886.got.cif
#   From: 2010.06.25/outbox.cif.g09.slc.cpg/sg12_144_cif.got.tgz:287886.got - 2010.06.28 00:19:55.
