data_PCOD8085807
_publ_section_title
;
Structure prediction by ZEFSAII (Michael W. Deem and Ramdas Pophale) SiO2 
 PCOD8085807
Probable space group: C 2/M
;
_chemical_formula_sum "Si O2"
_cell_formula_units_Z 56
_cell_length_a 11.041334
_cell_length_b 34.465724
_cell_length_c 8.527470
_cell_angle_alpha 90.000000
_cell_angle_beta 116.024950
_cell_angle_gamma 90.000000
_cell_volume 2916.063995
_symmetry_space_group_name_H-M "C 2/M"
_symmetry_group_IT_number 12
_symmetry_cell_setting 'monoclinic'
loop_
_space_group_symop_operation_xyz
x,y,z
-x,y,-z
-x,-y,-z
x,-y,z
1/2+x,1/2+y,z
1/2-x,1/2+y,-z
1/2-x,1/2-y,-z
1/2+x,1/2-y,z
loop_
_atom_site_type_symbol
_atom_site_label
_atom_site_fract_x
_atom_site_fract_y
_atom_site_fract_z
Si Si1 0.899557 0.888233 0.213028
Si Si2 0.657280 0.956067 0.570625
Si Si3 0.147850 0.757708 0.654824
Si Si4 0.725586 0.691394 0.431438
Si Si5 0.943470 0.807255 0.135524
Si Si6 0.652025 0.456241 0.028768
Si Si7 0.805473 0.889983 0.507132
O O1 0.872812 0.849713 0.089943
O O2 0.835184 0.880507 0.344422
O O3 0.058132 0.897774 0.317559
O O4 0.823501 0.924874 0.093544
O O5 0.500000 0.947859 0.500000
O O6 0.737388 0.947579 0.775981
O O7 0.712637 0.927838 0.467286
O O8 0.683455 0.000000 0.529430
O O9 0.208906 0.713857 0.680727
O O10 0.247377 0.784557 0.605295
O O11 0.149021 0.773891 0.834807
O O12 0.000000 0.754805 0.500000
O O13 0.565625 0.686847 0.324659
O O14 0.778800 0.647231 0.474181
O O15 0.000000 0.793268 0.000000
O O16 0.671533 0.500000 0.974334
O O17 0.500000 0.450586 0.000000
#
# Coordination Sequence:
#
# PCOD8085807 Si02
#       7
#     8   8   8   8   8   8   8
#     4  10  19  32  53  85 113 137 185 241 286 328
#     4  10  22  39  57  81 116 152 186 226 280 343
#     4   9  17  33  51  72 103 141 180 221 272 332
#     4   9  18  32  51  75 102 138 184 225 269 330
#     4  10  19  30  50  78 108 138 173 226 289 331
#     4  10  19  34  56  84 114 145 185 230 277 327
#     4  10  19  33  55  82 110 143 187 238 285 329
#
# _framework density 19.203968
#
# number of rings (size 3 to 8) (size 9 to 14) (size 15 to 20)
#    0.000    2.286    2.857    0.429    2.000    1.714 
#    0.000    2.143    0.000    2.571    0.000    0.000 
#    0.000    0.000    0.000    0.000    0.000    0.000 
#
# Total GULP energy -347026.665522 kJ/mol
# GULP energy per Si atom -12393.809483 kJ/mol
# Density = 1.916026 g / cm^3
# Si number density = 19.203968 Si / 1000 Ang^3
#
#
#
# Elastic Constant Matrix: (Units=GPa)
#
#
# Indices 1 2 3 4 5 6 
#
# 1 70.6526 59.4902 28.7938 0.0000 -8.5845 0.0000
# 2 59.4902 148.5295 40.0590 0.0000 -20.6282 0.0000
# 3 28.7938 40.0590 61.6109 0.0000 -10.7031 0.0000
# 4 0.0000 0.0000 0.0000 26.9044 0.0000 -9.1509
# 5 -8.5845 -20.6282 -10.7031 0.0000 33.9611 0.0000
# 6 0.0000 0.0000 0.0000 -9.1509 0.0000 31.5058
#
#
#
# Elastic Compliance Matrix: (Units=1/GPa)
#
#
# Indices 1 2 3 4 5 6 
#
# 1 0.022938 -0.007716 -0.005829 0.000000 -0.000726 0.000000
# 2 -0.007716 0.011167 -0.002978 0.000000 0.003894 0.000000
# 3 -0.005829 -0.002978 0.021498 0.000000 0.003493 0.000000
# 4 0.000000 0.000000 0.000000 0.041243 0.000000 0.011979
# 5 -0.000726 0.003894 0.003493 0.000000 0.032728 0.000000
# 6 0.000000 0.000000 0.000000 0.011979 0.000000 0.035219
#
#
# Mechanical properties :
#
#
# Convention : Reuss Voigt Hill
#
# Bulk Modulus (GPa) = 44.33285 59.71988 52.02637
# Shear Modulus (GPa) = 24.34744 28.63761 26.49253
#
# Velocity S-wave (km/s) = 3.56453 3.86584 3.71824
# Velocity P-wave (km/s) = 6.33060 7.14783 6.75159
#
# Compressibility (1/GPa) = 0.02255663
#
# Stress axis : x y z
#
# Youngs Moduli (GPa) = 43.59547 89.54791 46.51489
#
# Poissons Ratio (x) = 0.69095 0.27115
# Poissons Ratio (y) = 0.33638 0.13854
# Poissons Ratio (z) = 0.25413 0.26670
#
# Static dielectric constant tensor:
#      x y z
#    x 3.267610 0.000000 -0.017600 
#    y 0.000000 3.779830 0.000000 
#    z -0.017600 0.000000 3.234850 
# 
# 
# High freq. dielectric constant tensor:
#      x y z
#    x 1.714850 0.000000 -0.011650 
#    y 0.000000 1.764110 0.000000 
#    z -0.011650 0.000000 1.721840 
# 
# From -- ./inp_files/54334.got.cif
#   From: 2010.06.25/outbox.cif.g09.slc.cpg/sg12_28_cif.got.tgz:54334.got - 2010.06.28 00:19:55.
