data_PCOD8085372
_publ_section_title
;
Structure prediction by ZEFSAII (Michael W. Deem and Ramdas Pophale) SiO2 
 PCOD8085372
Probable space group: C 2/M
;
_chemical_formula_sum "Si O2"
_cell_formula_units_Z 64
_cell_length_a 23.167095
_cell_length_b 9.182134
_cell_length_c 20.687957
_cell_angle_alpha 90.000000
_cell_angle_beta 58.773898
_cell_angle_gamma 90.000000
_cell_volume 3763.258292
_symmetry_space_group_name_H-M "C 2/M"
_symmetry_group_IT_number 12
_symmetry_cell_setting 'monoclinic'
loop_
_space_group_symop_operation_xyz
x,y,z
-x,y,-z
-x,-y,-z
x,-y,z
1/2+x,1/2+y,z
1/2-x,1/2+y,-z
1/2-x,1/2-y,-z
1/2+x,1/2-y,z
loop_
_atom_site_type_symbol
_atom_site_label
_atom_site_fract_x
_atom_site_fract_y
_atom_site_fract_z
Si Si1 0.817080 0.332568 0.619808
Si Si2 0.790304 0.832379 0.421459
Si Si3 0.311276 0.829480 0.769570
Si Si4 0.226707 0.335811 0.917452
Si Si5 0.557386 0.331839 0.658910
Si Si6 0.434929 0.829090 0.789523
Si Si7 0.646930 0.335508 0.061159
Si Si8 0.939936 0.167654 0.491468
O O1 0.839117 0.500000 0.608243
O O2 0.744552 0.311029 0.628042
O O3 0.814760 0.272227 0.694085
O O4 0.870944 0.249108 0.545546
O O5 0.750000 0.750000 0.500000
O O6 0.866840 0.775424 0.371276
O O7 0.791692 0.000000 0.442313
O O8 0.250157 0.743646 0.838573
O O9 0.382302 0.793937 0.762633
O O10 0.294265 0.000000 0.783427
O O11 0.203379 0.500000 0.914780
O O12 0.287499 0.338194 0.932460
O O13 0.164090 0.247367 0.984441
O O14 0.548203 0.500000 0.684960
O O15 0.507879 0.231530 0.728794
O O16 0.539452 0.310539 0.594418
O O17 0.412548 0.750882 0.868466
O O18 0.439486 0.000000 0.800243
O O19 0.623205 0.500000 0.059449
O O20 0.000000 0.233845 0.500000
O O21 0.927888 0.000000 0.515991
#
# Coordination Sequence:
#
# PCOD8085372 Si02
#       8
#     8   8   8   8   8   8   8   8
#     4  10  20  33  50  70  92 122 161 202 242 284
#     4  10  20  35  53  70  89 119 161 207 248 287
#     4   9  18  31  45  67  99 128 156 194 238 283
#     4   9  16  26  43  68  96 128 163 192 224 275
#     4  10  20  33  47  66  93 123 157 198 243 287
#     4  10  19  30  46  69  97 127 159 195 234 282
#     4   9  16  27  44  66  96 131 160 190 230 275
#     4  10  20  32  47  68  95 126 157 191 237 292
#
# _framework density 17.006540000000001
#
# number of rings (size 3 to 8) (size 9 to 14) (size 15 to 20)
#    0.000    2.375    1.250    1.875    0.000    5.250 
#    0.000    0.000    0.000    0.000    0.000    0.875 
#    0.000    7.000    0.000    0.000    0.000    0.000 
#
# Total GULP energy -396848.714109 kJ/mol
# GULP energy per Si atom -12401.522316 kJ/mol
# Density = 1.696783 g / cm^3
# Si number density = 17.006540 Si / 1000 Ang^3
#
#
#
# Elastic Constant Matrix: (Units=GPa)
#
#
# Indices 1 2 3 4 5 6 
#
# 1 62.1853 23.8325 29.1735 0.0000 -18.3225 -0.0001
# 2 23.8325 87.4649 60.0128 0.0002 -14.1726 0.0004
# 3 29.1735 60.0128 118.9979 -0.0001 -22.0754 -0.0001
# 4 0.0000 0.0002 -0.0001 33.3666 -0.0001 -6.4371
# 5 -18.3225 -14.1726 -22.0754 -0.0001 17.0081 -0.0001
# 6 -0.0001 0.0004 -0.0001 -6.4371 -0.0001 16.4040
#
#
#
# Elastic Compliance Matrix: (Units=1/GPa)
#
#
# Indices 1 2 3 4 5 6 
#
# 1 0.024114 -0.002596 -0.000243 0.000000 0.023498 0.000000
# 2 -0.002596 0.017984 -0.008129 0.000000 0.001638 -0.000001
# 3 -0.000243 -0.008129 0.014828 0.000000 0.012209 0.000000
# 4 0.000000 0.000000 0.000000 0.032425 0.000000 0.012724
# 5 0.023498 0.001638 0.012209 0.000000 0.101321 0.000001
# 6 0.000000 -0.000001 0.000000 0.012724 0.000001 0.065954
#
#
# Mechanical properties :
#
#
# Convention : Reuss Voigt Hill
#
# Bulk Modulus (GPa) = 28.58125 54.96509 41.77317
# Shear Modulus (GPa) = 17.22804 23.73103 20.47954
#
# Velocity S-wave (km/s) = 3.18626 3.73957 3.47395
# Velocity P-wave (km/s) = 5.51170 7.14394 6.38023
#
# Compressibility (1/GPa) = 0.03498798
#
# Stress axis : x y z
#
# Youngs Moduli (GPa) = 41.47046 55.60610 67.44047
#
# Poissons Ratio (x) = 0.14435 0.01641
# Poissons Ratio (y) = 0.10765 0.54824
# Poissons Ratio (z) = 0.01009 0.45204
#
# Static dielectric constant tensor:
#      x y z
#    x 3.015900 0.000000 0.013570 
#    y 0.000000 3.246200 0.000000 
#    z 0.013570 0.000000 3.194960 
# 
# 
# High freq. dielectric constant tensor:
#      x y z
#    x 1.618330 0.000000 -0.003480 
#    y 0.000000 1.661190 0.000000 
#    z -0.003480 0.000000 1.658750 
# 
# From -- ./inp_files/324124.got.cif
#   From: 2010.06.25/outbox.cif.g09.slc.cpg/sg12_163_cif.got.tgz:324124.got - 2010.06.28 00:19:55.
