data_PCOD8085611
_publ_section_title
;
Structure prediction by ZEFSAII (Michael W. Deem and Ramdas Pophale) SiO2 
 PCOD8085611
Probable space group: C 2/M
;
_chemical_formula_sum "Si O2"
_cell_formula_units_Z 48
_cell_length_a 23.889865
_cell_length_b 10.282345
_cell_length_c 11.607521
_cell_angle_alpha 90.000000
_cell_angle_beta 67.053641
_cell_angle_gamma 90.000000
_cell_volume 2625.692062
_symmetry_space_group_name_H-M "C 2/M"
_symmetry_group_IT_number 12
_symmetry_cell_setting 'monoclinic'
loop_
_space_group_symop_operation_xyz
x,y,z
-x,y,-z
-x,-y,-z
x,-y,z
1/2+x,1/2+y,z
1/2-x,1/2+y,-z
1/2-x,1/2-y,-z
1/2+x,1/2-y,z
loop_
_atom_site_type_symbol
_atom_site_label
_atom_site_fract_x
_atom_site_fract_y
_atom_site_fract_z
Si Si1 0.287941 0.859877 0.836071
Si Si2 0.677948 0.241207 0.424926
Si Si3 0.347426 0.644455 0.130231
Si Si4 0.870425 0.151173 0.869327
Si Si5 0.937525 0.849019 0.593646
Si Si6 0.809332 0.646151 0.335213
O O1 0.314439 0.859658 0.684927
O O2 0.215823 0.851637 0.886589
O O3 0.311234 0.739769 0.892871
O O4 0.306931 0.000000 0.875024
O O5 0.617117 0.323860 0.452008
O O6 0.737139 0.334172 0.380013
O O7 0.671103 0.163454 0.548758
O O8 0.358919 0.500000 0.175370
O O9 0.349669 0.753147 0.227220
O O10 0.393135 0.670539 0.984485
O O11 0.921890 0.197832 0.736934
O O12 0.852943 0.000000 0.860718
O O13 0.000000 0.779736 0.500000
O O14 0.949856 0.000000 0.588754
O O15 0.825201 0.500000 0.282766
#
# Coordination Sequence:
#
# PCOD8085611 Si02
#       6
#     8   8   8   8   8   8
#     4   9  16  26  42  64  91 122 153 186 228 280
#     4   9  18  30  46  69  99 125 152 193 238 274
#     4   9  18  29  41  63  95 126 153 186 232 280
#     4   9  17  29  44  64  92 121 151 192 236 276
#     4   9  17  30  50  73  94 120 157 198 236 276
#     4  10  19  30  48  72  98 128 159 190 228 281
#
# _framework density 18.280895000000001
#
# number of rings (size 3 to 8) (size 9 to 14) (size 15 to 20)
#    0.000    2.833    0.000    1.500    0.000    9.333 
#    0.000    0.000    0.000   13.500    0.000    5.833 
#    0.000    0.000    0.000    0.000    0.000    0.000 
#
# Total GULP energy -297331.689986 kJ/mol
# GULP energy per Si atom -12388.820416 kJ/mol
# Density = 1.823929 g / cm^3
# Si number density = 18.280895 Si / 1000 Ang^3
#
#
#
# Elastic Constant Matrix: (Units=GPa)
#
#
# Indices 1 2 3 4 5 6 
#
# 1 26.4638 -7.0356 26.6837 0.0000 -1.3329 0.0000
# 2 -7.0356 91.8603 41.5947 0.0000 11.3688 0.0000
# 3 26.6837 41.5947 94.8080 0.0000 6.0252 0.0000
# 4 0.0000 0.0000 0.0000 20.4469 0.0000 6.0000
# 5 -1.3329 11.3688 6.0252 0.0000 21.1895 0.0000
# 6 0.0000 0.0000 0.0000 6.0000 0.0000 13.2373
#
#
#
# Elastic Compliance Matrix: (Units=1/GPa)
#
#
# Indices 1 2 3 4 5 6 
#
# 1 0.070678 0.017654 -0.027821 0.000000 0.002885 0.000000
# 2 0.017654 0.018705 -0.012840 0.000000 -0.005274 0.000000
# 3 -0.027821 -0.012840 0.024120 0.000000 -0.001720 0.000000
# 4 0.000000 0.000000 0.000000 0.056410 0.000000 -0.025568
# 5 0.002885 -0.005274 -0.001720 0.000000 0.050693 0.000000
# 6 0.000000 0.000000 0.000000 -0.025568 0.000000 0.087133
#
#
# Mechanical properties :
#
#
# Convention : Reuss Voigt Hill
#
# Bulk Modulus (GPa) = 14.81718 37.29086 26.05402
# Shear Modulus (GPa) = 13.28904 21.10070 17.19487
#
# Velocity S-wave (km/s) = 2.69910 3.40111 3.07023
# Velocity P-wave (km/s) = 4.22332 5.98886 5.18184
#
# Compressibility (1/GPa) = 0.06748924
#
# Stress axis : x y z
#
# Youngs Moduli (GPa) = 14.14865 53.46224 41.45905
#
# Poissons Ratio (x) = -0.94380 1.15342
# Poissons Ratio (y) = -0.24977 0.53232
# Poissons Ratio (z) = 0.39363 0.68644
#
# Static dielectric constant tensor:
#      x y z
#    x 2.998710 0.000000 -0.173950 
#    y 0.000000 3.338420 0.000000 
#    z -0.173950 0.000000 3.775190 
# 
# 
# High freq. dielectric constant tensor:
#      x y z
#    x 1.643370 0.000000 0.003820 
#    y 0.000000 1.701140 0.000000 
#    z 0.003820 0.000000 1.728400 
# 
# From -- ./inp_files/172932.got.cif
#   From: 2010.06.25/outbox.cif.g09.slc.cpg/sg12_87_cif.got.tgz:172932.got - 2010.06.28 00:19:55.
