data_PCOD8085430
_publ_section_title
;
Structure prediction by ZEFSAII (Michael W. Deem and Ramdas Pophale) SiO2 
 PCOD8085430
Probable space group: C 2/M
;
_chemical_formula_sum "Si O2"
_cell_formula_units_Z 56
_cell_length_a 11.104248
_cell_length_b 21.191050
_cell_length_c 13.256052
_cell_angle_alpha 90.000000
_cell_angle_beta 98.927824
_cell_angle_gamma 90.000000
_cell_volume 3081.499144
_symmetry_space_group_name_H-M "C 2/M"
_symmetry_group_IT_number 12
_symmetry_cell_setting 'monoclinic'
loop_
_space_group_symop_operation_xyz
x,y,z
-x,y,-z
-x,-y,-z
x,-y,z
1/2+x,1/2+y,z
1/2-x,1/2+y,-z
1/2-x,1/2-y,-z
1/2+x,1/2-y,z
loop_
_atom_site_type_symbol
_atom_site_label
_atom_site_fract_x
_atom_site_fract_y
_atom_site_fract_z
Si Si1 0.819664 0.305916 0.408554
Si Si2 0.719810 0.170982 0.380505
Si Si3 0.012644 0.290716 0.742210
Si Si4 0.627409 0.674931 0.057294
Si Si5 0.074320 0.073416 0.610868
Si Si6 0.419078 0.343707 0.721212
Si Si7 0.117846 0.686830 0.972064
O O1 0.811351 0.229975 0.400551
O O2 0.858531 0.329151 0.525032
O O3 0.691015 0.338907 0.370991
O O4 0.916909 0.327039 0.337816
O O5 0.624349 0.179865 0.274996
O O6 0.794677 0.107258 0.374032
O O7 0.006905 0.216225 0.721038
O O8 0.088823 0.296999 0.853488
O O9 0.636012 0.652754 0.173476
O O10 0.749979 0.651239 0.012498
O O11 0.500000 0.645943 0.000000
O O12 0.626393 0.751154 0.045289
O O13 0.000000 0.089446 0.500000
O O14 0.997819 0.095483 0.699241
O O15 0.101060 0.000000 0.625529
O O16 0.000000 0.647232 0.000000
#
# Coordination Sequence:
#
# PCOD8085430 Si02
#       7
#     8   8   8   8   8   8   8
#     4  10  19  31  49  80 115 142 172 223 280 344
#     4  10  21  31  52  78 112 148 183 219 276 336
#     4  11  19  30  52  82 114 144 173 224 283 345
#     4  10  19  30  48  75 113 151 180 223 277 343
#     4  11  23  39  57  77 110 153 198 232 263 321
#     4  11  19  32  54  78 111 148 185 226 278 333
#     4  10  19  30  46  77 115 151 177 212 285 355
#
# _framework density 18.172974
#
# number of rings (size 3 to 8) (size 9 to 14) (size 15 to 20)
#    0.000    1.571    7.143    0.429    0.000    1.143 
#    0.000    0.000    0.000    3.000    0.000    0.000 
#    0.000    2.286    0.000    0.000    0.000    0.000 
#
# Total GULP energy -346942.356354 kJ/mol
# GULP energy per Si atom -12390.798441 kJ/mol
# Density = 1.813161 g / cm^3
# Si number density = 18.172974 Si / 1000 Ang^3
#
#
#
# Elastic Constant Matrix: (Units=GPa)
#
#
# Indices 1 2 3 4 5 6 
#
# 1 118.7152 32.6500 26.3189 0.0000 -14.3117 0.0000
# 2 32.6500 63.1348 14.4269 0.0000 -0.6192 0.0000
# 3 26.3189 14.4269 65.5621 0.0000 -5.6139 0.0000
# 4 0.0000 0.0000 0.0000 11.7865 0.0000 -2.4078
# 5 -14.3117 -0.6192 -5.6139 0.0000 36.7450 0.0000
# 6 0.0000 0.0000 0.0000 -2.4078 0.0000 19.5206
#
#
#
# Elastic Compliance Matrix: (Units=1/GPa)
#
#
# Indices 1 2 3 4 5 6 
#
# 1 0.010879 -0.004911 -0.002970 0.000000 0.003701 0.000000
# 2 -0.004911 0.018898 -0.002354 0.000000 -0.001954 0.000000
# 3 -0.002970 -0.002354 0.017084 0.000000 0.001414 0.000000
# 4 0.000000 0.000000 0.000000 0.087036 0.000000 0.010736
# 5 0.003701 -0.001954 0.001414 0.000000 0.028839 0.000000
# 6 0.000000 0.000000 0.000000 0.010736 0.000000 0.052552
#
#
# Mechanical properties :
#
#
# Convention : Reuss Voigt Hill
#
# Bulk Modulus (GPa) = 37.89231 43.80041 40.84636
# Shear Modulus (GPa) = 20.44538 25.21151 22.82845
#
# Velocity S-wave (km/s) = 3.35781 3.72870 3.54810
# Velocity P-wave (km/s) = 5.99411 6.53390 6.26982
#
# Compressibility (1/GPa) = 0.02639058
#
# Stress axis : x y z
#
# Youngs Moduli (GPa) = 91.92309 52.91658 58.53463
#
# Poissons Ratio (x) = 0.25987 0.17382
# Poissons Ratio (y) = 0.45144 0.13781
# Poissons Ratio (z) = 0.27297 0.12458
#
# Static dielectric constant tensor:
#      x y z
#    x 3.711220 0.000000 -0.038950 
#    y 0.000000 2.666300 0.000000 
#    z -0.038950 0.000000 3.431990 
# 
# 
# High freq. dielectric constant tensor:
#      x y z
#    x 1.728480 0.000000 -0.002980 
#    y 0.000000 1.609560 0.000000 
#    z -0.002980 0.000000 1.715400 
# 
# From -- ./inp_files/133298.got.cif
#   From: 2010.06.25/outbox.cif.g09.slc.cpg/sg12_67_cif.got.tgz:133298.got - 2010.06.28 00:19:55.
