data_PCOD8085369
_publ_section_title
;
Structure prediction by ZEFSAII (Michael W. Deem and Ramdas Pophale) SiO2 
 PCOD8085369
Probable space group: C 2/M
;
_chemical_formula_sum "Si O2"
_cell_formula_units_Z 40
_cell_length_a 27.675846
_cell_length_b 9.406856
_cell_length_c 19.742652
_cell_angle_alpha 90.000000
_cell_angle_beta 153.734516
_cell_angle_gamma 90.000000
_cell_volume 2274.545562
_symmetry_space_group_name_H-M "C 2/M"
_symmetry_group_IT_number 12
_symmetry_cell_setting 'monoclinic'
loop_
_space_group_symop_operation_xyz
x,y,z
-x,y,-z
-x,-y,-z
x,-y,z
1/2+x,1/2+y,z
1/2-x,1/2+y,-z
1/2-x,1/2-y,-z
1/2+x,1/2-y,z
loop_
_atom_site_type_symbol
_atom_site_label
_atom_site_fract_x
_atom_site_fract_y
_atom_site_fract_z
Si Si1 0.426884 0.666146 0.969655
Si Si2 0.667589 0.665445 0.775746
Si Si3 0.421173 0.837761 0.092352
Si Si4 0.822578 0.337035 0.342138
Si Si5 0.483838 0.163351 0.318248
O O1 0.445702 0.500000 0.003841
O O2 0.301339 0.703673 0.794877
O O3 0.500000 0.724463 0.000000
O O4 0.465308 0.741160 0.086961
O O5 0.638444 0.500000 0.734476
O O6 0.631301 0.739354 0.660076
O O7 0.603670 0.734418 0.757393
O O8 0.794716 0.693291 0.948956
O O9 0.489455 0.800723 0.245617
O O10 0.437952 0.000000 0.091135
O O11 0.830094 0.500000 0.326940
O O12 0.895778 0.310115 0.500348
O O13 0.446313 0.000000 0.281840
#
# Coordination Sequence:
#
# PCOD8085369 Si02
#       5
#     8   8   8   8   8
#     4   9  18  34  54  71  88 116 155 195 233 275
#     4  10  19  30  46  69  97 127 157 188 223 266
#     4   9  19  33  48  69  95 123 155 189 227 273
#     4   9  18  32  49  68  92 124 158 189 225 273
#     4  10  19  31  47  68  96 127 156 186 224 272
#
# _framework density 17.585930000000001
#
# number of rings (size 3 to 8) (size 9 to 14) (size 15 to 20)
#    0.000    2.600    0.000    1.800    0.000    5.200 
#    0.000    1.000    0.000    0.000    0.000    0.000 
#    0.000    0.000    0.000    0.000    0.000    0.000 
#
# Total GULP energy -248051.485919 kJ/mol
# GULP energy per Si atom -12402.574296 kJ/mol
# Density = 1.754590 g / cm^3
# Si number density = 17.585930 Si / 1000 Ang^3
#
#
#
# Elastic Constant Matrix: (Units=GPa)
#
#
# Indices 1 2 3 4 5 6 
#
# 1 124.8739 59.8456 49.3089 0.0000 -16.3579 0.0000
# 2 59.8456 74.9773 39.9738 0.0000 -11.4986 0.0000
# 3 49.3089 39.9738 91.3546 0.0000 -30.6884 0.0000
# 4 0.0000 0.0000 0.0000 20.5191 0.0000 -5.0393
# 5 -16.3579 -11.4986 -30.6884 0.0000 24.9278 0.0000
# 6 0.0000 0.0000 0.0000 -5.0393 0.0000 29.7853
#
#
#
# Elastic Compliance Matrix: (Units=1/GPa)
#
#
# Indices 1 2 3 4 5 6 
#
# 1 0.013755 -0.009191 -0.003060 0.000000 0.001019 0.000000
# 2 -0.009191 0.023614 -0.006376 0.000000 -0.002987 0.000000
# 3 -0.003060 -0.006376 0.023404 0.000000 0.023864 0.000000
# 4 0.000000 0.000000 0.000000 0.050848 0.000000 0.008603
# 5 0.001019 -0.002987 0.023864 0.000000 0.068785 0.000000
# 6 0.000000 0.000000 0.000000 0.008603 0.000000 0.035029
#
#
# Mechanical properties :
#
#
# Convention : Reuss Voigt Hill
#
# Bulk Modulus (GPa) = 42.51691 65.49584 54.00637
# Shear Modulus (GPa) = 19.19174 24.51827 21.85500
#
# Velocity S-wave (km/s) = 3.30709 3.73795 3.52910
# Velocity P-wave (km/s) = 6.22989 7.48023 6.88351
#
# Compressibility (1/GPa) = 0.02352005
#
# Stress axis : x y z
#
# Youngs Moduli (GPa) = 72.70248 42.34697 42.72727
#
# Poissons Ratio (x) = 0.38921 0.13075
# Poissons Ratio (y) = 0.66821 0.27241
# Poissons Ratio (z) = 0.22248 0.26999
#
# Static dielectric constant tensor:
#      x y z
#    x 3.147320 0.000000 -0.094060 
#    y 0.000000 3.298570 0.000000 
#    z -0.094060 0.000000 3.341940 
# 
# 
# High freq. dielectric constant tensor:
#      x y z
#    x 1.662380 0.000000 -0.011170 
#    y 0.000000 1.680150 0.000000 
#    z -0.011170 0.000000 1.679200 
# 
# From -- ./inp_files/151972.got.cif
#   From: 2010.06.25/outbox.cif.g09.slc.cpg/sg12_76_cif.got.tgz:151972.got - 2010.06.28 00:19:55.
