data_PCOD8085755
_publ_section_title
;
Structure prediction by ZEFSAII (Michael W. Deem and Ramdas Pophale) SiO2 
 PCOD8085755
Probable space group: C 2/M
;
_chemical_formula_sum "Si O2"
_cell_formula_units_Z 64
_cell_length_a 32.455019
_cell_length_b 10.578202
_cell_length_c 10.091662
_cell_angle_alpha 90.000000
_cell_angle_beta 77.366454
_cell_angle_gamma 90.000000
_cell_volume 3380.743970
_symmetry_space_group_name_H-M "C 2/M"
_symmetry_group_IT_number 12
_symmetry_cell_setting 'monoclinic'
loop_
_space_group_symop_operation_xyz
x,y,z
-x,y,-z
-x,-y,-z
x,-y,z
1/2+x,1/2+y,z
1/2-x,1/2+y,-z
1/2-x,1/2-y,-z
1/2+x,1/2-y,z
loop_
_atom_site_type_symbol
_atom_site_label
_atom_site_fract_x
_atom_site_fract_y
_atom_site_fract_z
Si Si1 0.450794 0.649096 0.810644
Si Si2 0.845864 0.644884 0.591659
Si Si3 0.300779 0.773991 0.124633
Si Si4 0.714607 0.860345 0.143230
Si Si5 0.721584 0.138131 0.576134
Si Si6 0.608789 0.650139 0.915126
Si Si7 0.584204 0.354619 0.447438
Si Si8 0.456941 0.644366 0.248946
O O1 0.454396 0.500000 0.821527
O O2 0.414944 0.699258 0.935876
O O3 0.438727 0.686386 0.670661
O O4 0.497136 0.707523 0.812384
O O5 0.861922 0.500000 0.612348
O O6 0.816039 0.706403 0.728179
O O7 0.822614 0.643158 0.467623
O O8 0.881661 0.748219 0.547755
O O9 0.263093 0.680290 0.112612
O O10 0.286979 0.853436 0.261494
O O11 0.305705 0.858620 0.989414
O O12 0.344234 0.703786 0.124777
O O13 0.715480 0.000000 0.198606
O O14 0.750000 0.250000 0.500000
O O15 0.743118 0.000000 0.536086
O O16 0.613497 0.500000 0.909071
O O17 0.581167 0.704241 0.810926
O O18 0.602300 0.500000 0.426355
O O19 0.550793 0.345705 0.589279
O O20 0.459065 0.500000 0.200537
#
# Coordination Sequence:
#
# PCOD8085755 Si02
#       8
#     8   8   8   8   8   8   8   8
#     4   9  17  30  49  76 110 142 175 219 276 334
#     4  10  21  38  55  77 111 151 183 219 276 329
#     4  11  21  35  55  80 106 139 188 233 269 324
#     4  10  21  37  54  74 107 147 183 224 278 329
#     4  11  23  39  58  81 109 145 188 229 276 328
#     4  10  19  30  49  77 108 142 181 226 276 325
#     4  10  19  32  53  82 108 139 182 228 270 316
#     4   9  17  30  49  75 108 142 175 219 279 336
#
# _framework density 18.930744000000001
#
# number of rings (size 3 to 8) (size 9 to 14) (size 15 to 20)
#    0.000    2.000    1.250    3.000    0.000    4.000 
#    0.000    0.625    0.000    1.500    0.000    0.000 
#    0.000   10.000    0.000    0.000    0.000    0.000 
#
# Total GULP energy -396504.117769 kJ/mol
# GULP energy per Si atom -12390.753680 kJ/mol
# Density = 1.888766 g / cm^3
# Si number density = 18.930744 Si / 1000 Ang^3
#
#
#
# Elastic Constant Matrix: (Units=GPa)
#
#
# Indices 1 2 3 4 5 6 
#
# 1 87.4335 41.1582 16.1968 0.0000 7.1174 0.0000
# 2 41.1582 74.1513 13.4611 0.0000 0.5344 0.0000
# 3 16.1968 13.4611 107.4302 0.0000 15.2867 0.0000
# 4 0.0000 0.0000 0.0000 18.0213 0.0000 1.2702
# 5 7.1174 0.5344 15.2867 0.0000 29.3666 0.0000
# 6 0.0000 0.0000 0.0000 1.2702 0.0000 21.0654
#
#
#
# Elastic Compliance Matrix: (Units=1/GPa)
#
#
# Indices 1 2 3 4 5 6 
#
# 1 0.015942 -0.008671 -0.000853 0.000000 -0.003262 0.000000
# 2 -0.008671 0.018529 -0.001367 0.000000 0.002476 0.000000
# 3 -0.000853 -0.001367 0.010341 0.000000 -0.005152 0.000000
# 4 0.000000 0.000000 0.000000 0.055727 0.000000 -0.003360
# 5 -0.003262 0.002476 -0.005152 0.000000 0.037479 0.000000
# 6 0.000000 0.000000 0.000000 -0.003360 0.000000 0.047674
#
#
# Mechanical properties :
#
#
# Convention : Reuss Voigt Hill
#
# Bulk Modulus (GPa) = 43.41794 45.62747 44.52271
# Shear Modulus (GPa) = 23.23955 26.90391 25.07173
#
# Velocity S-wave (km/s) = 3.50753 3.77394 3.64317
# Velocity P-wave (km/s) = 6.27603 6.56847 6.42392
#
# Compressibility (1/GPa) = 0.02303195
#
# Stress axis : x y z
#
# Youngs Moduli (GPa) = 62.72586 53.96974 96.70006
#
# Poissons Ratio (x) = 0.46795 0.08248
# Poissons Ratio (y) = 0.54387 0.13216
# Poissons Ratio (z) = 0.05350 0.07376
#
# Static dielectric constant tensor:
#      x y z
#    x 3.499860 0.000000 0.077980 
#    y 0.000000 3.186390 0.000000 
#    z 0.077980 0.000000 3.866530 
# 
# 
# High freq. dielectric constant tensor:
#      x y z
#    x 1.734330 0.000000 0.004590 
#    y 0.000000 1.692070 0.000000 
#    z 0.004590 0.000000 1.759410 
# 
# From -- ./inp_files/110499.got.cif
#   From: 2010.06.25/outbox.cif.g09.slc.cpg/sg12_56_cif.got.tgz:110499.got - 2010.06.28 00:19:55.
