data_PCOD8085887
_publ_section_title
;
Structure prediction by ZEFSAII (Michael W. Deem and Ramdas Pophale) SiO2 
 PCOD8085887
Probable space group: C 2/M
;
_chemical_formula_sum "Si O2"
_cell_formula_units_Z 64
_cell_length_a 20.209372
_cell_length_b 8.935549
_cell_length_c 18.901079
_cell_angle_alpha 90.000000
_cell_angle_beta 92.262994
_cell_angle_gamma 90.000000
_cell_volume 3410.529581
_symmetry_space_group_name_H-M "C 2/M"
_symmetry_group_IT_number 12
_symmetry_cell_setting 'monoclinic'
loop_
_space_group_symop_operation_xyz
x,y,z
-x,y,-z
-x,-y,-z
x,-y,z
1/2+x,1/2+y,z
1/2-x,1/2+y,-z
1/2-x,1/2-y,-z
1/2+x,1/2-y,z
loop_
_atom_site_type_symbol
_atom_site_label
_atom_site_fract_x
_atom_site_fract_y
_atom_site_fract_z
Si Si1 0.265562 0.827414 0.697581
Si Si2 0.133812 0.823560 0.766225
Si Si3 0.950743 0.177599 0.557361
Si Si4 0.007157 0.821759 0.287728
Si Si5 0.113097 0.328741 0.194883
Si Si6 0.301319 0.323655 0.554973
Si Si7 0.190837 0.827284 0.914587
Si Si8 0.170815 0.828040 0.070493
O O1 0.195222 0.764618 0.722048
O O2 0.316768 0.808983 0.763583
O O3 0.288097 0.725777 0.634035
O O4 0.261142 0.000000 0.672532
O O5 0.142053 0.779344 0.848997
O O6 0.065479 0.756221 0.733555
O O7 0.132173 0.000000 0.758416
O O8 0.971925 0.241873 0.634682
O O9 0.875638 0.226407 0.536518
O O10 0.000000 0.244561 0.500000
O O11 0.956593 0.000000 0.559178
O O12 0.057572 0.766247 0.231216
O O13 0.007828 0.000000 0.287081
O O14 0.090365 0.500000 0.191896
O O15 0.120362 0.268556 0.115330
O O16 0.293399 0.500000 0.549459
O O17 0.250000 0.250000 0.500000
O O18 0.254157 0.721942 0.913931
O O19 0.214322 0.000000 0.906748
O O20 0.152132 0.805400 0.987039
O O21 0.164455 0.000000 0.093103
#
# Coordination Sequence:
#
# PCOD8085887 Si02
#       8
#     8   8   8   8   8   8   8   8
#     4  10  20  36  59  82 108 145 185 225 272 324
#     4   9  18  34  58  83 108 144 186 229 273 329
#     4   9  19  35  56  81 108 140 179 222 265 319
#     4  10  20  36  59  82 107 141 187 228 268 328
#     4  11  21  36  57  79 112 149 184 228 279 331
#     4  11  23  38  58  84 114 142 178 228 273 323
#     4   9  17  33  52  80 115 146 183 230 283 328
#     4  10  19  30  53  82 111 146 188 232 275 329
#
# _framework density 18.765414
#
# number of rings (size 3 to 8) (size 9 to 14) (size 15 to 20)
#    0.000    2.125    2.500    1.125    1.750    1.000 
#    0.000    1.875    0.000    5.625    0.000    0.000 
#    0.000    0.000    0.000    0.000    0.000    0.000 
#
# Total GULP energy -396810.726074 kJ/mol
# GULP energy per Si atom -12400.335190 kJ/mol
# Density = 1.872270 g / cm^3
# Si number density = 18.765414 Si / 1000 Ang^3
#
#
#
# Elastic Constant Matrix: (Units=GPa)
#
#
# Indices 1 2 3 4 5 6 
#
# 1 133.8918 28.5027 60.8159 0.0000 -7.0928 0.0000
# 2 28.5027 41.3047 32.6178 0.0000 2.1416 0.0000
# 3 60.8159 32.6178 121.0861 0.0000 -14.0765 0.0000
# 4 0.0000 0.0000 0.0000 26.5185 0.0000 -2.2772
# 5 -7.0928 2.1416 -14.0765 0.0000 32.0414 0.0000
# 6 0.0000 0.0000 0.0000 -2.2772 0.0000 22.3943
#
#
#
# Elastic Compliance Matrix: (Units=1/GPa)
#
#
# Indices 1 2 3 4 5 6 
#
# 1 0.010136 -0.003919 -0.003945 0.000000 0.000772 0.000000
# 2 -0.003919 0.033403 -0.007788 0.000000 -0.006521 0.000000
# 3 -0.003945 -0.007788 0.012959 0.000000 0.005340 0.000000
# 4 0.000000 0.000000 0.000000 0.038042 0.000000 0.003868
# 5 0.000772 -0.006521 0.005340 0.000000 0.034163 0.000000
# 6 0.000000 0.000000 0.000000 0.003868 0.000000 0.045048
#
#
# Mechanical properties :
#
#
# Convention : Reuss Voigt Hill
#
# Bulk Modulus (GPa) = 39.69293 60.01728 49.85510
# Shear Modulus (GPa) = 23.42459 27.81392 25.61926
#
# Velocity S-wave (km/s) = 3.53694 3.85410 3.69892
# Velocity P-wave (km/s) = 6.15451 7.20124 6.69835
#
# Compressibility (1/GPa) = 0.02519340
#
# Stress axis : x y z
#
# Youngs Moduli (GPa) = 98.65901 29.93779 77.16749
#
# Poissons Ratio (x) = 0.11732 0.30445
# Poissons Ratio (y) = 0.38663 0.60096
# Poissons Ratio (z) = 0.38925 0.23315
#
# Static dielectric constant tensor:
#      x y z
#    x 3.581410 0.000000 0.012320 
#    y 0.000000 3.241830 0.000000 
#    z 0.012320 0.000000 3.715310 
# 
# 
# High freq. dielectric constant tensor:
#      x y z
#    x 1.721110 0.000000 -0.006820 
#    y 0.000000 1.703670 0.000000 
#    z -0.006820 0.000000 1.741890 
# 
# From -- ./inp_files/281375.got.cif
#   From: 2010.06.25/outbox.cif.g09.slc.cpg/sg12_141_cif.got.tgz:281375.got - 2010.06.28 00:19:55.
