data_PCOD8085389
_publ_section_title
;
Structure prediction by ZEFSAII (Michael W. Deem and Ramdas Pophale) SiO2 
 PCOD8085389
Probable space group: C 2/M
;
_chemical_formula_sum "Si O2"
_cell_formula_units_Z 64
_cell_length_a 27.782279
_cell_length_b 9.266153
_cell_length_c 14.540640
_cell_angle_alpha 90.000000
_cell_angle_beta 76.002771
_cell_angle_gamma 90.000000
_cell_volume 3632.120198
_symmetry_space_group_name_H-M "C 2/M"
_symmetry_group_IT_number 12
_symmetry_cell_setting 'monoclinic'
loop_
_space_group_symop_operation_xyz
x,y,z
-x,y,-z
-x,-y,-z
x,-y,z
1/2+x,1/2+y,z
1/2-x,1/2+y,-z
1/2-x,1/2-y,-z
1/2+x,1/2-y,z
loop_
_atom_site_type_symbol
_atom_site_label
_atom_site_fract_x
_atom_site_fract_y
_atom_site_fract_z
Si Si1 0.682117 0.329658 0.715303
Si Si2 0.517524 0.157499 0.888376
Si Si3 0.882359 0.332858 0.718857
Si Si4 0.055351 0.169506 0.453993
Si Si5 0.145389 0.830973 0.537889
Si Si6 0.607812 0.670911 0.901304
Si Si7 0.410573 0.168633 0.904986
Si Si8 0.707919 0.830837 0.364686
O O1 0.685311 0.500000 0.715070
O O2 0.649486 0.281160 0.642042
O O3 0.655919 0.278332 0.821403
O O4 0.737914 0.267409 0.685175
O O5 0.560623 0.276023 0.863200
O O6 0.468282 0.207712 0.856173
O O7 0.536457 0.000000 0.844400
O O8 0.500000 0.140680 0.000000
O O9 0.896147 0.500000 0.700116
O O10 0.924753 0.243857 0.647289
O O11 0.880382 0.290579 0.827275
O O12 0.828121 0.297099 0.704272
O O13 0.090967 0.209684 0.523806
O O14 0.000000 0.226851 0.500000
O O15 0.054843 0.000000 0.435552
O O16 0.188538 0.749018 0.463787
O O17 0.155642 0.000000 0.521525
O O18 0.603812 0.500000 0.913937
O O19 0.611428 0.740918 0.000148
O O20 0.405809 0.000000 0.932857
O O21 0.709854 0.000000 0.386161
#
# Coordination Sequence:
#
# PCOD8085389 Si02
#       8
#     8   8   8   8   8   8   8   8
#     4   9  18  31  47  68  95 123 148 186 239 280
#     4   8  15  29  46  62  87 120 148 181 226 269
#     4   9  18  32  51  70  89 121 161 194 225 269
#     4   9  18  31  47  70 100 128 151 183 229 275
#     4   9  17  31  49  68  93 123 153 185 226 278
#     4  10  19  30  46  70  96 121 154 192 227 269
#     4   9  18  33  49  66  92 125 156 188 231 274
#     4   9  17  32  51  69  90 117 153 193 231 273
#
# _framework density 17.620562
#
# number of rings (size 3 to 8) (size 9 to 14) (size 15 to 20)
#    0.000    3.000    0.000    1.500    0.000    4.000 
#    0.000    4.375    0.000    0.000    0.000    0.000 
#    0.000    0.000    0.000    0.000    0.000    0.000 
#
# Total GULP energy -396651.172984 kJ/mol
# GULP energy per Si atom -12395.349156 kJ/mol
# Density = 1.758046 g / cm^3
# Si number density = 17.620562 Si / 1000 Ang^3
#
#
#
# Elastic Constant Matrix: (Units=GPa)
#
#
# Indices 1 2 3 4 5 6 
#
# 1 110.5864 34.3026 70.6931 0.0000 -10.3929 0.0000
# 2 34.3026 49.0320 44.3277 0.0000 -4.7759 0.0000
# 3 70.6931 44.3277 117.2802 0.0000 -2.4591 0.0000
# 4 0.0000 0.0000 0.0000 21.5745 0.0000 -2.5985
# 5 -10.3929 -4.7759 -2.4591 0.0000 29.3892 0.0000
# 6 0.0000 0.0000 0.0000 -2.5985 0.0000 20.0898
#
#
#
# Elastic Compliance Matrix: (Units=1/GPa)
#
#
# Indices 1 2 3 4 5 6 
#
# 1 0.015632 -0.003156 -0.008139 0.000000 0.004334 0.000000
# 2 -0.003156 0.032110 -0.010166 0.000000 0.003251 0.000000
# 3 -0.008139 -0.010166 0.017210 0.000000 -0.003090 0.000000
# 4 0.000000 0.000000 0.000000 0.047085 0.000000 0.006090
# 5 0.004334 0.003251 -0.003090 0.000000 0.035829 0.000000
# 6 0.000000 0.000000 0.000000 0.006090 0.000000 0.050564
#
#
# Mechanical properties :
#
#
# Convention : Reuss Voigt Hill
#
# Bulk Modulus (GPa) = 45.39151 63.94949 54.67050
# Shear Modulus (GPa) = 20.10507 22.71569 21.41038
#
# Velocity S-wave (km/s) = 3.38153 3.59438 3.48958
# Velocity P-wave (km/s) = 6.40803 7.32103 6.87969
#
# Compressibility (1/GPa) = 0.02203055
#
# Stress axis : x y z
#
# Youngs Moduli (GPa) = 63.97302 31.14292 58.10619
#
# Poissons Ratio (x) = 0.09828 0.47290
# Poissons Ratio (y) = 0.20189 0.59071
# Poissons Ratio (z) = 0.52065 0.31660
#
# Static dielectric constant tensor:
#      x y z
#    x 3.725140 0.000000 0.027120 
#    y 0.000000 3.139560 0.000000 
#    z 0.027120 0.000000 3.233250 
# 
# 
# High freq. dielectric constant tensor:
#      x y z
#    x 1.684250 0.000000 0.006590 
#    y 0.000000 1.666780 0.000000 
#    z 0.006590 0.000000 1.667510 
# 
# From -- ./inp_files/243862.got.cif
#   From: 2010.06.25/outbox.cif.g09.slc.cpg/sg12_122_cif.got.tgz:243862.got - 2010.06.28 00:19:55.
