data_PCOD8085042
_publ_section_title
;
Structure prediction by ZEFSAII (Michael W. Deem and Ramdas Pophale) SiO2 
 PCOD8085042
Probable space group: C 2/M
;
_chemical_formula_sum "Si O2"
_cell_formula_units_Z 64
_cell_length_a 31.041064
_cell_length_b 8.906664
_cell_length_c 14.204942
_cell_angle_alpha 90.000000
_cell_angle_beta 89.386431
_cell_angle_gamma 90.000000
_cell_volume 3927.048189
_symmetry_space_group_name_H-M "C 2/M"
_symmetry_group_IT_number 12
_symmetry_cell_setting 'monoclinic'
loop_
_space_group_symop_operation_xyz
x,y,z
-x,y,-z
-x,-y,-z
x,-y,z
1/2+x,1/2+y,z
1/2-x,1/2+y,-z
1/2-x,1/2-y,-z
1/2+x,1/2-y,z
loop_
_atom_site_type_symbol
_atom_site_label
_atom_site_fract_x
_atom_site_fract_y
_atom_site_fract_z
Si Si1 0.592652 0.322430 0.905711
Si Si2 0.201700 0.326688 0.608348
Si Si3 0.253066 0.322271 0.898069
Si Si4 0.329916 0.171768 0.793634
Si Si5 0.500276 0.665834 0.112026
Si Si6 0.209004 0.671609 0.399257
Si Si7 0.324635 0.322926 0.212530
Si Si8 0.584904 0.173465 0.103759
O O1 0.591646 0.500000 0.920417
O O2 0.547214 0.271122 0.858608
O O3 0.631359 0.270854 0.837935
O O4 0.599599 0.252327 0.007716
O O5 0.196376 0.500000 0.636286
O O6 0.186983 0.295464 0.500992
O O7 0.251563 0.282982 0.619416
O O8 0.172435 0.226812 0.678504
O O9 0.249063 0.500000 0.907343
O O10 0.298805 0.281111 0.851857
O O11 0.215291 0.260606 0.833505
O O12 0.250000 0.250000 0.000000
O O13 0.325879 0.199105 0.681707
O O14 0.379118 0.207533 0.818768
O O15 0.317869 0.000000 0.819925
O O16 0.507701 0.500000 0.154421
O O17 0.539215 0.769973 0.146445
O O18 0.500000 0.658891 0.000000
O O19 0.226425 0.500000 0.397036
O O20 0.317425 0.500000 0.204421
O O21 0.580069 0.000000 0.080964
#
# Coordination Sequence:
#
# PCOD8085042 Si02
#       8
#     8   8   8   8   8   8   8   8
#     4   9  19  33  48  66  91 127 163 189 227 283
#     4  10  19  31  49  73  93 118 159 202 240 283
#     4  12  24  35  47  66  94 129 165 196 228 274
#     4  10  20  34  49  68  95 128 160 192 233 281
#     4   8  15  30  48  65  89 121 156 192 231 278
#     4   9  18  33  51  67  92 126 158 196 241 282
#     4  11  21  34  50  69  95 127 159 196 240 282
#     4  10  19  29  46  72  97 121 154 194 235 276
#
# _framework density 16.297226999999999
#
# number of rings (size 3 to 8) (size 9 to 14) (size 15 to 20)
#    0.000    2.125    1.250    3.750    0.000    6.750 
#    0.000    0.000    0.000    0.000    0.000    0.875 
#    0.000    7.000    0.000    0.000    0.000    0.000 
#
# Total GULP energy -396747.609436 kJ/mol
# GULP energy per Si atom -12398.362795 kJ/mol
# Density = 1.626013 g / cm^3
# Si number density = 16.297227 Si / 1000 Ang^3
#
#
#
# Elastic Constant Matrix: (Units=GPa)
#
#
# Indices 1 2 3 4 5 6 
#
# 1 100.4886 31.6751 40.7874 0.0000 8.4601 0.0000
# 2 31.6751 63.8490 29.6382 0.0000 5.2515 0.0000
# 3 40.7874 29.6382 89.0300 0.0000 12.3997 0.0000
# 4 0.0000 0.0000 0.0000 22.1109 0.0000 -1.4600
# 5 8.4601 5.2515 12.3997 0.0000 14.4583 0.0000
# 6 0.0000 0.0000 0.0000 -1.4600 0.0000 23.1321
#
#
#
# Elastic Compliance Matrix: (Units=1/GPa)
#
#
# Indices 1 2 3 4 5 6 
#
# 1 0.013283 -0.004401 -0.004271 0.000000 -0.002512 0.000000
# 2 -0.004401 0.020017 -0.004535 0.000000 -0.000806 0.000000
# 3 -0.004271 -0.004535 0.016036 0.000000 -0.009607 0.000000
# 4 0.000000 0.000000 0.000000 0.045416 0.000000 0.002866
# 5 -0.002512 -0.000806 -0.009607 0.000000 0.079166 0.000000
# 6 0.000000 0.000000 0.000000 0.002866 0.000000 0.043411
#
#
# Mechanical properties :
#
#
# Convention : Reuss Voigt Hill
#
# Bulk Modulus (GPa) = 43.62403 50.84102 47.23252
# Shear Modulus (GPa) = 19.88990 22.02471 20.95731
#
# Velocity S-wave (km/s) = 3.49728 3.68018 3.58990
# Velocity P-wave (km/s) = 6.56763 7.02297 6.79912
#
# Compressibility (1/GPa) = 0.02292315
#
# Stress axis : x y z
#
# Youngs Moduli (GPa) = 75.28161 49.95845 62.35776
#
# Poissons Ratio (x) = 0.21986 0.26631
# Poissons Ratio (y) = 0.33130 0.28280
# Poissons Ratio (z) = 0.32151 0.22657
#
# Static dielectric constant tensor:
#      x y z
#    x 3.270950 0.000000 -0.051370 
#    y 0.000000 3.172770 0.000000 
#    z -0.051370 0.000000 3.169280 
# 
# 
# High freq. dielectric constant tensor:
#      x y z
#    x 1.614060 0.000000 0.000810 
#    y 0.000000 1.635350 0.000000 
#    z 0.000810 0.000000 1.608300 
# 
# From -- ./inp_files/248251.got.cif
#   From: 2010.06.25/outbox.cif.g09.slc.cpg/sg12_125_cif.got.tgz:248251.got - 2010.06.28 00:19:55.
