data_PCOD8085513
_publ_section_title
;
Structure prediction by ZEFSAII (Michael W. Deem and Ramdas Pophale) SiO2 
 PCOD8085513
Probable space group: C 2/M
;
_chemical_formula_sum "Si O2"
_cell_formula_units_Z 56
_cell_length_a 25.579454
_cell_length_b 8.872218
_cell_length_c 19.199722
_cell_angle_alpha 90.000000
_cell_angle_beta 48.679038
_cell_angle_gamma 90.000000
_cell_volume 3272.438031
_symmetry_space_group_name_H-M "C 2/M"
_symmetry_group_IT_number 12
_symmetry_cell_setting 'monoclinic'
loop_
_space_group_symop_operation_xyz
x,y,z
-x,y,-z
-x,-y,-z
x,-y,z
1/2+x,1/2+y,z
1/2-x,1/2+y,-z
1/2-x,1/2-y,-z
1/2+x,1/2-y,z
loop_
_atom_site_type_symbol
_atom_site_label
_atom_site_fract_x
_atom_site_fract_y
_atom_site_fract_z
Si Si1 0.246675 0.325903 0.391166
Si Si2 0.490862 0.176901 0.214442
Si Si3 0.144786 0.322371 0.091929
Si Si4 0.711078 0.821988 0.782661
Si Si5 0.240898 0.177267 0.898894
Si Si6 0.554483 0.820464 0.895237
Si Si7 0.148763 0.674207 0.598332
O O1 0.255362 0.500000 0.363509
O O2 0.244285 0.227914 0.323521
O O3 0.174745 0.297021 0.496768
O O4 0.310719 0.278365 0.383251
O O5 0.566092 0.238369 0.172400
O O6 0.467744 0.245620 0.160322
O O7 0.433039 0.215949 0.323926
O O8 0.497660 0.000000 0.198470
O O9 0.148014 0.500000 0.075149
O O10 0.189157 0.277971 0.120779
O O11 0.174056 0.242504 0.997418
O O12 0.747345 0.749576 0.817581
O O13 0.631841 0.762290 0.845380
O O14 0.713847 0.000000 0.787306
O O15 0.232340 0.000000 0.899315
O O16 0.554484 0.000000 0.894592
O O17 0.500000 0.758025 0.000000
O O18 0.161658 0.500000 0.608774
#
# Coordination Sequence:
#
# PCOD8085513 Si02
#       7
#     8   8   8   8   8   8   8
#     4  10  19  30  47  72 102 128 157 200 247 291
#     4   9  15  28  50  73  95 122 166 206 232 278
#     4   9  18  33  54  74  94 128 168 203 239 282
#     4  11  20  32  51  71  95 131 168 198 239 291
#     4  10  20  33  49  73 102 128 161 204 245 285
#     4   9  16  25  43  70  94 118 155 198 232 273
#     4   9  17  31  50  71  96 130 165 198 238 289
#
# _framework density 17.112622999999999
#
# number of rings (size 3 to 8) (size 9 to 14) (size 15 to 20)
#    0.000    2.429    1.429    2.143    0.000    3.429 
#    0.000    0.714    0.000    2.571    0.000    6.000 
#    0.000    0.000    0.000    0.000    0.000    0.000 
#
# Total GULP energy -347165.696176 kJ/mol
# GULP energy per Si atom -12398.774863 kJ/mol
# Density = 1.707367 g / cm^3
# Si number density = 17.112623 Si / 1000 Ang^3
#
#
#
# Elastic Constant Matrix: (Units=GPa)
#
#
# Indices 1 2 3 4 5 6 
#
# 1 90.9450 19.2140 61.1617 -0.0046 -2.0383 0.0062
# 2 19.2140 31.4325 22.2134 -0.0164 2.0306 0.0271
# 3 61.1617 22.2134 133.9154 -0.0014 -3.5016 0.0028
# 4 -0.0046 -0.0164 -0.0014 25.6177 0.0016 5.0421
# 5 -2.0383 2.0306 -3.5016 0.0016 28.4451 -0.0022
# 6 0.0062 0.0271 0.0028 5.0421 -0.0022 20.8606
#
#
#
# Elastic Compliance Matrix: (Units=1/GPa)
#
#
# Indices 1 2 3 4 5 6 
#
# 1 0.016670 -0.005520 -0.006678 -0.000002 0.000767 0.000004
# 2 -0.005520 0.038182 -0.003906 0.000034 -0.003602 -0.000056
# 3 -0.006678 -0.003906 0.011196 -0.000005 0.001179 0.000007
# 4 -0.000002 0.000034 -0.000005 0.040985 -0.000006 -0.009906
# 5 0.000767 -0.003602 0.001179 -0.000006 0.035613 0.000010
# 6 0.000004 -0.000056 0.000007 -0.009906 0.000010 0.050332
#
#
# Mechanical properties :
#
#
# Convention : Reuss Voigt Hill
#
# Bulk Modulus (GPa) = 29.55162 51.27458 40.41310
# Shear Modulus (GPa) = 21.14461 25.23158 23.18810
#
# Velocity S-wave (km/s) = 3.51894 3.84401 3.68507
# Velocity P-wave (km/s) = 5.81524 7.05195 6.46324
#
# Compressibility (1/GPa) = 0.03383909
#
# Stress axis : x y z
#
# Youngs Moduli (GPa) = 59.98797 26.19022 89.31707
#
# Poissons Ratio (x) = 0.14458 0.59644
# Poissons Ratio (y) = 0.33116 0.34891
# Poissons Ratio (z) = 0.40059 0.10231
#
# Static dielectric constant tensor:
#      x y z
#    x 3.205810 -0.000020 -0.097740 
#    y -0.000020 2.999620 0.000010 
#    z -0.097740 0.000010 3.399980 
# 
# 
# High freq. dielectric constant tensor:
#      x y z
#    x 1.641600 0.000000 -0.001010 
#    y 0.000000 1.640270 0.000000 
#    z -0.001010 0.000000 1.665780 
# 
# From -- ./inp_files/288159.got.cif
#   From: 2010.06.25/outbox.cif.g09.slc.cpg/sg12_145_cif.got.tgz:288159.got - 2010.06.28 00:19:55.
