data_PCOD8085633
_publ_section_title
;
Structure prediction by ZEFSAII (Michael W. Deem and Ramdas Pophale) SiO2 
 PCOD8085633
Probable space group: C 2/M
;
_chemical_formula_sum "Si O2"
_cell_formula_units_Z 48
_cell_length_a 32.418752
_cell_length_b 9.544458
_cell_length_c 15.952895
_cell_angle_alpha 90.000000
_cell_angle_beta 147.745925
_cell_angle_gamma 90.000000
_cell_volume 2634.290440
_symmetry_space_group_name_H-M "C 2/M"
_symmetry_group_IT_number 12
_symmetry_cell_setting 'monoclinic'
loop_
_space_group_symop_operation_xyz
x,y,z
-x,y,-z
-x,-y,-z
x,-y,z
1/2+x,1/2+y,z
1/2-x,1/2+y,-z
1/2-x,1/2-y,-z
1/2+x,1/2-y,z
loop_
_atom_site_type_symbol
_atom_site_label
_atom_site_fract_x
_atom_site_fract_y
_atom_site_fract_z
Si Si1 0.935517 0.157854 0.772480
Si Si2 0.648951 0.838641 0.047718
Si Si3 0.388126 0.656799 0.868736
Si Si4 0.024702 0.663411 0.307711
Si Si5 0.267916 0.662107 0.112375
Si Si6 0.439943 0.339639 0.469445
O O1 0.883054 0.203662 0.762247
O O2 0.922634 0.265505 0.674095
O O3 0.913592 0.000000 0.706125
O O4 0.023745 0.161885 0.951725
O O5 0.565370 0.810153 0.864357
O O6 0.661407 0.000000 0.090825
O O7 0.661613 0.757777 0.157173
O O8 0.712654 0.784272 0.091900
O O9 0.355351 0.500000 0.822248
O O10 0.045179 0.500000 0.346217
O O11 0.045115 0.733665 0.430090
O O12 0.251011 0.500000 0.063403
O O13 0.355404 0.687882 0.288662
O O14 0.250000 0.750000 0.000000
O O15 0.500000 0.303979 0.500000
O O16 0.449733 0.500000 0.517389
#
# Coordination Sequence:
#
# PCOD8085633 Si02
#       6
#     8   8   8   8   8   8
#     4   8  14  26  44  68  99 130 161 198 236 277
#     4   9  18  31  47  71 102 130 157 196 245 289
#     4   8  14  25  44  70  97 128 164 198 234 278
#     4  10  19  30  48  74 101 129 160 196 241 288
#     4  10  21  36  53  73  97 126 160 198 242 289
#     4  10  21  36  53  72  95 126 163 200 239 285
#
# _framework density 18.221226000000001
#
# number of rings (size 3 to 8) (size 9 to 14) (size 15 to 20)
#    0.000    2.833    0.000    2.500    0.000    3.000 
#    0.000    3.333    0.000    1.000    0.000    0.000 
#    0.000    0.000    0.000    0.000    0.000    0.000 
#
# Total GULP energy -297549.840468 kJ/mol
# GULP energy per Si atom -12397.910019 kJ/mol
# Density = 1.817975 g / cm^3
# Si number density = 18.221226 Si / 1000 Ang^3
#
#
#
# Elastic Constant Matrix: (Units=GPa)
#
#
# Indices 1 2 3 4 5 6 
#
# 1 182.5658 95.6639 57.2314 0.0000 -22.5724 0.0000
# 2 95.6639 114.4648 50.5058 0.0000 -24.7078 0.0000
# 3 57.2314 50.5058 49.3194 0.0000 -14.5464 0.0000
# 4 0.0000 0.0000 0.0000 17.4019 0.0000 -8.6753
# 5 -22.5724 -24.7078 -14.5464 0.0000 25.3523 0.0000
# 6 0.0000 0.0000 0.0000 -8.6753 0.0000 36.0110
#
#
#
# Elastic Compliance Matrix: (Units=1/GPa)
#
#
# Indices 1 2 3 4 5 6 
#
# 1 0.010608 -0.006274 -0.005902 0.000000 -0.000055 0.000000
# 2 -0.006274 0.020900 -0.011751 0.000000 0.008041 0.000000
# 3 -0.005902 -0.011751 0.041204 0.000000 0.006934 0.000000
# 4 0.000000 0.000000 0.000000 0.065309 0.000000 0.015733
# 5 -0.000055 0.008041 0.006934 0.000000 0.051210 0.000000
# 6 0.000000 0.000000 0.000000 0.015733 0.000000 0.031560
#
#
# Mechanical properties :
#
#
# Convention : Reuss Voigt Hill
#
# Bulk Modulus (GPa) = 40.22753 83.68360 61.95556
# Shear Modulus (GPa) = 18.05516 25.28297 21.66906
#
# Velocity S-wave (km/s) = 3.15125 3.72903 3.45225
# Velocity P-wave (km/s) = 5.94691 8.03536 7.06869
#
# Compressibility (1/GPa) = 0.02485860
#
# Stress axis : x y z
#
# Youngs Moduli (GPa) = 94.26803 47.84639 24.26966
#
# Poissons Ratio (x) = 0.30017 0.14323
# Poissons Ratio (y) = 0.59140 0.28520
# Poissons Ratio (z) = 0.55633 0.56226
#
# Static dielectric constant tensor:
#      x y z
#    x 4.955270 0.000000 0.274710 
#    y 0.000000 3.440600 0.000000 
#    z 0.274710 0.000000 3.120200 
# 
# 
# High freq. dielectric constant tensor:
#      x y z
#    x 1.719570 0.000000 -0.014220 
#    y 0.000000 1.705250 0.000000 
#    z -0.014220 0.000000 1.670550 
# 
# From -- ./inp_files/248800.got.cif
#   From: 2010.06.25/outbox.cif.g09.slc.cpg/sg12_125_cif.got.tgz:248800.got - 2010.06.28 00:19:55.
