data_PCOD8085832
_publ_section_title
;
Structure prediction by ZEFSAII (Michael W. Deem and Ramdas Pophale) SiO2 
 PCOD8085832
Probable space group: C 2/M
;
_chemical_formula_sum "Si O2"
_cell_formula_units_Z 64
_cell_length_a 9.785160
_cell_length_b 24.820664
_cell_length_c 14.344486
_cell_angle_alpha 90.000000
_cell_angle_beta 101.418049
_cell_angle_gamma 90.000000
_cell_volume 3414.954660
_symmetry_space_group_name_H-M "C 2/M"
_symmetry_group_IT_number 12
_symmetry_cell_setting 'monoclinic'
loop_
_space_group_symop_operation_xyz
x,y,z
-x,y,-z
-x,-y,-z
x,-y,z
1/2+x,1/2+y,z
1/2-x,1/2+y,-z
1/2-x,1/2-y,-z
1/2+x,1/2-y,z
loop_
_atom_site_type_symbol
_atom_site_label
_atom_site_fract_x
_atom_site_fract_y
_atom_site_fract_z
Si Si1 0.252979 0.318853 0.101990
Si Si2 0.215190 0.776132 0.396237
Si Si3 0.028776 0.876254 0.104018
Si Si4 0.811955 0.667465 0.706970
Si Si5 0.666951 0.436963 0.283103
Si Si6 0.715915 0.806108 0.892402
Si Si7 0.397972 0.145933 0.306622
Si Si8 0.492158 0.633616 0.391664
O O1 0.387485 0.356759 0.132619
O O2 0.157982 0.335322 0.177486
O O3 0.303194 0.257460 0.116012
O O4 0.175262 0.327064 0.991833
O O5 0.250000 0.750000 0.500000
O O6 0.187786 0.730438 0.317167
O O7 0.344687 0.811771 0.377144
O O8 0.074765 0.811191 0.382384
O O9 0.103376 0.921978 0.174471
O O10 0.124057 0.822959 0.104881
O O11 0.000000 0.903145 0.000000
O O12 0.667749 0.639696 0.659517
O O13 0.934889 0.638133 0.664357
O O14 0.686307 0.500000 0.296153
O O15 0.819808 0.410343 0.313722
O O16 0.561563 0.415860 0.347141
O O17 0.621605 0.833297 0.801480
O O18 0.500000 0.618393 0.500000
#
# Coordination Sequence:
#
# PCOD8085832 Si02
#       8
#     8   8   8   8   8   8   8   8
#     4  10  19  30  50  81 121 153 185 221 271 335
#     4  11  22  37  56  84 122 160 188 221 272 342
#     4   9  18  34  55  84 113 147 199 235 270 342
#     4  12  22  33  57  86 122 152 186 232 277 343
#     4  10  22  43  63  78 106 148 195 251 304 339
#     4   9  19  31  48  79 121 163 181 214 270 340
#     4  10  23  36  55  85 115 152 193 231 281 346
#     4  11  23  40  59  88 115 147 193 238 286 341
#
# _framework density 18.741098000000001
#
# number of rings (size 3 to 8) (size 9 to 14) (size 15 to 20)
#    0.000    1.750    3.750    0.750    1.750    1.000 
#    0.000    0.625    0.000    0.750    0.000    2.625 
#    0.000    0.000    0.000    0.000    0.000    0.000 
#
# Total GULP energy -396717.894360 kJ/mol
# GULP energy per Si atom -12397.434199 kJ/mol
# Density = 1.869844 g / cm^3
# Si number density = 18.741098 Si / 1000 Ang^3
#
#
#
# Elastic Constant Matrix: (Units=GPa)
#
#
# Indices 1 2 3 4 5 6 
#
# 1 128.5502 49.0575 45.0325 0.0000 -18.0128 0.0000
# 2 49.0575 112.7085 38.0118 0.0000 -8.7205 0.0000
# 3 45.0325 38.0118 124.8981 0.0000 -16.2085 0.0000
# 4 0.0000 0.0000 0.0000 15.3618 0.0000 0.4333
# 5 -18.0128 -8.7205 -16.2085 0.0000 22.6033 0.0000
# 6 0.0000 0.0000 0.0000 0.4333 0.0000 10.8001
#
#
#
# Elastic Compliance Matrix: (Units=1/GPa)
#
#
# Indices 1 2 3 4 5 6 
#
# 1 0.010618 -0.003500 -0.002029 0.000000 0.005656 0.000000
# 2 -0.003500 0.011110 -0.002123 0.000000 -0.000025 0.000000
# 3 -0.002029 -0.002123 0.009998 0.000000 0.004734 0.000000
# 4 0.000000 0.000000 0.000000 0.065170 0.000000 -0.002615
# 5 0.005656 -0.000025 0.004734 0.000000 0.052134 0.000000
# 6 0.000000 0.000000 0.000000 -0.002615 0.000000 0.092697
#
#
# Mechanical properties :
#
#
# Convention : Reuss Voigt Hill
#
# Bulk Modulus (GPa) = 60.88898 70.04004 65.46451
# Shear Modulus (GPa) = 19.04729 25.35669 22.20199
#
# Velocity S-wave (km/s) = 3.19146 3.68230 3.44564
# Velocity P-wave (km/s) = 6.79269 7.45203 7.12999
#
# Compressibility (1/GPa) = 0.01642333
#
# Stress axis : x y z
#
# Youngs Moduli (GPa) = 94.17946 90.01228 100.01519
#
# Poissons Ratio (x) = 0.31500 0.20296
# Poissons Ratio (y) = 0.32959 0.21229
# Poissons Ratio (z) = 0.19112 0.19106
#
# Static dielectric constant tensor:
#      x y z
#    x 3.502340 0.000000 -0.137780 
#    y 0.000000 2.968750 0.000000 
#    z -0.137780 0.000000 3.832750 
# 
# 
# High freq. dielectric constant tensor:
#      x y z
#    x 1.729190 0.000000 -0.010540 
#    y 0.000000 1.674120 0.000000 
#    z -0.010540 0.000000 1.750240 
# 
# From -- ./inp_files/198885.got.cif
#   From: 2010.06.25/outbox.cif.g09.slc.cpg/sg12_100_cif.got.tgz:198885.got - 2010.06.28 00:19:55.
