data_PCOD8085166
_publ_section_title
;
Structure prediction by ZEFSAII (Michael W. Deem and Ramdas Pophale) SiO2 
 PCOD8085166
Probable space group: C 2/M
;
_chemical_formula_sum "Si O2"
_cell_formula_units_Z 40
_cell_length_a 27.349660
_cell_length_b 9.281335
_cell_length_c 11.452575
_cell_angle_alpha 90.000000
_cell_angle_beta 125.269414
_cell_angle_gamma 90.000000
_cell_volume 2373.520371
_symmetry_space_group_name_H-M "C 2/M"
_symmetry_group_IT_number 12
_symmetry_cell_setting 'monoclinic'
loop_
_space_group_symop_operation_xyz
x,y,z
-x,y,-z
-x,-y,-z
x,-y,z
1/2+x,1/2+y,z
1/2-x,1/2+y,-z
1/2-x,1/2-y,-z
1/2+x,1/2-y,z
loop_
_atom_site_type_symbol
_atom_site_label
_atom_site_fract_x
_atom_site_fract_y
_atom_site_fract_z
Si Si1 0.052975 0.829257 0.424749
Si Si2 0.228191 0.832654 0.299345
Si Si3 0.334477 0.331096 0.554032
Si Si4 0.198025 0.170026 0.996714
Si Si5 0.923208 0.828875 0.284021
O O1 0.098258 0.777827 0.385125
O O2 0.077791 0.773484 0.583730
O O3 0.985149 0.772340 0.309021
O O4 0.050222 0.000000 0.426145
O O5 0.288678 0.744921 0.403068
O O6 0.179096 0.791115 0.330335
O O7 0.200779 0.791358 0.137092
O O8 0.244774 0.000000 0.329955
O O9 0.327806 0.500000 0.521658
O O10 0.204747 0.000000 0.984154
O O11 0.250000 0.250000 0.000000
O O12 0.134470 0.231702 0.863524
O O13 0.921215 0.000000 0.276519
#
# Coordination Sequence:
#
# PCOD8085166 Si02
#       5
#     8   8   8   8   8
#     4   8  13  23  41  62  81 105 141 177 205 241
#     4   9  18  29  41  63  91 112 137 176 213 246
#     4   9  16  28  46  64  83 112 146 174 205 249
#     4  10  19  30  44  63  88 114 139 172 214 253
#     4   8  14  24  39  61  85 107 136 175 211 242
#
# _framework density 16.852603999999999
#
# number of rings (size 3 to 8) (size 9 to 14) (size 15 to 20)
#    0.000    3.200    0.000    2.400    0.000    2.400 
#    0.000    1.000    0.000    7.200    0.000    5.600 
#    0.000    8.000    0.000    0.000    0.000    0.000 
#
# Total GULP energy -247857.152323 kJ/mol
# GULP energy per Si atom -12392.857616 kJ/mol
# Density = 1.681425 g / cm^3
# Si number density = 16.852604 Si / 1000 Ang^3
#
#
#
# Elastic Constant Matrix: (Units=GPa)
#
#
# Indices 1 2 3 4 5 6 
#
# 1 164.6084 25.9488 84.3800 0.0000 18.5160 0.0000
# 2 25.9488 16.4533 24.3173 0.0000 1.3079 0.0000
# 3 84.3800 24.3173 138.1212 0.0000 13.4894 0.0000
# 4 0.0000 0.0000 0.0000 17.5742 0.0000 1.2383
# 5 18.5160 1.3079 13.4894 0.0000 24.8550 0.0000
# 6 0.0000 0.0000 0.0000 1.2383 0.0000 19.1439
#
#
#
# Elastic Compliance Matrix: (Units=1/GPa)
#
#
# Indices 1 2 3 4 5 6 
#
# 1 0.010251 -0.009773 -0.004061 0.000000 -0.004918 0.000000
# 2 -0.009773 0.091801 -0.011015 0.000000 0.008428 0.000000
# 3 -0.004061 -0.011015 0.011941 0.000000 -0.002876 0.000000
# 4 0.000000 0.000000 0.000000 0.057162 0.000000 -0.003697
# 5 -0.004918 0.008428 -0.002876 0.000000 0.045014 0.000000
# 6 0.000000 0.000000 0.000000 -0.003697 0.000000 0.052475
#
#
# Mechanical properties :
#
#
# Convention : Reuss Voigt Hill
#
# Bulk Modulus (GPa) = 15.55343 65.38611 40.46977
# Shear Modulus (GPa) = 14.71561 24.61707 19.66634
#
# Velocity S-wave (km/s) = 2.95819 3.82609 3.41979
# Velocity P-wave (km/s) = 4.57351 7.64210 6.29757
#
# Compressibility (1/GPa) = 0.06429451
#
# Stress axis : x y z
#
# Youngs Moduli (GPa) = 97.55360 10.89308 83.74330
#
# Poissons Ratio (x) = 0.10646 0.34011
# Poissons Ratio (y) = 0.95342 0.92242
# Poissons Ratio (z) = 0.39620 0.11999
#
# Static dielectric constant tensor:
#      x y z
#    x 3.626430 0.000000 0.133520 
#    y 0.000000 2.768030 0.000000 
#    z 0.133520 0.000000 3.297530 
# 
# 
# High freq. dielectric constant tensor:
#      x y z
#    x 1.664090 0.000000 0.003890 
#    y 0.000000 1.603460 0.000000 
#    z 0.003890 0.000000 1.639610 
# 
# From -- ./inp_files/83478.got.cif
#   From: 2010.06.25/outbox.cif.g09.slc.cpg/sg12_42_cif.got.tgz:83478.got - 2010.06.28 00:19:55.
