data_PCOD8085620
_publ_section_title
;
Structure prediction by ZEFSAII (Michael W. Deem and Ramdas Pophale) SiO2 
 PCOD8085620
Probable space group: C 2/M
;
_chemical_formula_sum "Si O2"
_cell_formula_units_Z 56
_cell_length_a 19.321739
_cell_length_b 9.159775
_cell_length_c 23.486107
_cell_angle_alpha 90.000000
_cell_angle_beta 47.310271
_cell_angle_gamma 90.000000
_cell_volume 3055.278137
_symmetry_space_group_name_H-M "C 2/M"
_symmetry_group_IT_number 12
_symmetry_cell_setting 'monoclinic'
loop_
_space_group_symop_operation_xyz
x,y,z
-x,y,-z
-x,-y,-z
x,-y,z
1/2+x,1/2+y,z
1/2-x,1/2+y,-z
1/2-x,1/2-y,-z
1/2+x,1/2-y,z
loop_
_atom_site_type_symbol
_atom_site_label
_atom_site_fract_x
_atom_site_fract_y
_atom_site_fract_z
Si Si1 0.580587 0.841191 0.908318
Si Si2 0.700739 0.828684 0.940862
Si Si3 0.410176 0.334199 0.805813
Si Si4 0.546272 0.173440 0.653468
Si Si5 0.931013 0.670939 0.489349
Si Si6 0.728536 0.326623 0.571002
Si Si7 0.045318 0.164553 0.095047
O O1 0.671702 0.787106 0.892156
O O2 0.551475 0.727413 0.876436
O O3 0.597596 0.000000 0.870367
O O4 0.500000 0.854358 0.000000
O O5 0.808438 0.780482 0.884160
O O6 0.686409 0.000000 0.960101
O O7 0.639140 0.748064 0.022794
O O8 0.406343 0.500000 0.783823
O O9 0.448979 0.225562 0.736046
O O10 0.472757 0.326077 0.827616
O O11 0.543274 0.225347 0.588955
O O12 0.629445 0.252986 0.644186
O O13 0.559178 0.000000 0.651127
O O14 0.948421 0.500000 0.481051
O O15 0.818789 0.705025 0.562474
O O16 0.000000 0.741480 0.500000
O O17 0.715613 0.500000 0.570468
O O18 0.750000 0.250000 0.500000
O O19 0.058236 0.000000 0.066735
#
# Coordination Sequence:
#
# PCOD8085620 Si02
#       7
#     8   8   8   8   8   8   8
#     4   8  15  29  48  67  89 120 155 194 244 296
#     4   9  18  33  51  69  93 129 168 204 249 299
#     4  10  21  35  49  68  98 132 164 204 251 293
#     4  10  20  33  51  74  99 131 167 200 241 292
#     4   8  15  30  53  79 102 124 155 195 237 282
#     4   9  16  29  52  76 100 130 159 191 231 280
#     4  10  19  30  48  73  96 123 164 210 252 293
#
# _framework density 18.328935999999999
#
# number of rings (size 3 to 8) (size 9 to 14) (size 15 to 20)
#    0.000    2.857    0.000    3.429    0.000    4.286 
#    0.000    1.429    0.000   20.571    0.000    0.000 
#    0.000    0.000    0.000    0.000    0.000    0.000 
#
# Total GULP energy -346868.006376 kJ/mol
# GULP energy per Si atom -12388.143085 kJ/mol
# Density = 1.828722 g / cm^3
# Si number density = 18.328936 Si / 1000 Ang^3
#
#
#
# Elastic Constant Matrix: (Units=GPa)
#
#
# Indices 1 2 3 4 5 6 
#
# 1 105.1758 37.1151 22.7694 0.0000 9.0904 0.0003
# 2 37.1151 78.8692 32.1268 0.0001 1.6980 0.0008
# 3 22.7694 32.1268 56.8777 0.0000 4.5850 0.0000
# 4 0.0000 0.0001 0.0000 26.6465 0.0000 -2.8430
# 5 9.0904 1.6980 4.5850 0.0000 13.1005 0.0000
# 6 0.0003 0.0008 0.0000 -2.8430 0.0000 23.9661
#
#
#
# Elastic Compliance Matrix: (Units=1/GPa)
#
#
# Indices 1 2 3 4 5 6 
#
# 1 0.012222 -0.004989 -0.001485 0.000000 -0.007315 0.000000
# 2 -0.004989 0.018522 -0.008798 0.000000 0.004141 -0.000001
# 3 -0.001485 -0.008798 0.023638 0.000000 -0.006102 0.000000
# 4 0.000000 0.000000 0.000000 0.038009 0.000000 0.004509
# 5 -0.007315 0.004141 -0.006102 0.000000 0.083008 0.000000
# 6 0.000000 -0.000001 0.000000 0.004509 0.000000 0.042260
#
#
# Mechanical properties :
#
#
# Convention : Reuss Voigt Hill
#
# Bulk Modulus (GPa) = 41.95267 47.21614 44.58441
# Shear Modulus (GPa) = 19.51979 22.67004 21.09492
#
# Velocity S-wave (km/s) = 3.26693 3.52070 3.39618
# Velocity P-wave (km/s) = 6.09663 6.50718 6.30525
#
# Compressibility (1/GPa) = 0.02383638
#
# Stress axis : x y z
#
# Youngs Moduli (GPa) = 81.81816 53.99000 42.30533
#
# Poissons Ratio (x) = 0.26937 0.06283
# Poissons Ratio (y) = 0.40821 0.37222
# Poissons Ratio (z) = 0.12150 0.47503
#
# Static dielectric constant tensor:
#      x y z
#    x 3.903100 0.000000 0.499120 
#    y 0.000000 3.324450 0.000000 
#    z 0.499120 0.000000 1.698820 
# 
# 
# High freq. dielectric constant tensor:
#      x y z
#    x 1.719400 0.000000 -0.007800 
#    y 0.000000 1.700250 0.000000 
#    z -0.007800 0.000000 1.673290 
# 
# From -- ./inp_files/345478.got.cif
#   From: 2010.06.25/outbox.cif.g09.slc.cpg/sg12_173_cif.got.tgz:345478.got - 2010.06.28 00:19:55.
