data_PCOD8085829
_publ_section_title
;
Structure prediction by ZEFSAII (Michael W. Deem and Ramdas Pophale) SiO2 
 PCOD8085829
Probable space group: C 2/M
;
_chemical_formula_sum "Si O2"
_cell_formula_units_Z 64
_cell_length_a 24.292942
_cell_length_b 8.877876
_cell_length_c 16.529387
_cell_angle_alpha 90.000000
_cell_angle_beta 92.316301
_cell_angle_gamma 90.000000
_cell_volume 3561.975639
_symmetry_space_group_name_H-M "C 2/M"
_symmetry_group_IT_number 12
_symmetry_cell_setting 'monoclinic'
loop_
_space_group_symop_operation_xyz
x,y,z
-x,y,-z
-x,-y,-z
x,-y,z
1/2+x,1/2+y,z
1/2-x,1/2+y,-z
1/2-x,1/2-y,-z
1/2+x,1/2-y,z
loop_
_atom_site_type_symbol
_atom_site_label
_atom_site_fract_x
_atom_site_fract_y
_atom_site_fract_z
Si Si1 0.059019 0.678382 0.336523
Si Si2 0.141923 0.675672 0.199731
Si Si3 0.055268 0.820502 0.712573
Si Si4 0.155143 0.676799 0.623197
Si Si5 0.854882 0.177396 0.548740
Si Si6 0.274936 0.672895 0.687990
Si Si7 0.461015 0.322009 0.108977
Si Si8 0.920672 0.177942 0.938809
O O1 0.052351 0.500000 0.344764
O O2 0.093933 0.723873 0.259328
O O3 0.089225 0.743895 0.417233
O O4 0.000069 0.756410 0.329524
O O5 0.145259 0.500000 0.188372
O O6 0.200727 0.731497 0.236289
O O7 0.130104 0.747541 0.111437
O O8 0.106098 0.753823 0.667941
O O9 0.060785 0.764200 0.805969
O O10 0.054855 0.000000 0.705812
O O11 0.144089 0.500000 0.612090
O O12 0.162065 0.752092 0.536939
O O13 0.210562 0.708474 0.676762
O O14 0.804960 0.216091 0.606153
O O15 0.865117 0.000000 0.540405
O O16 0.286217 0.500000 0.709244
O O17 0.465767 0.500000 0.108876
O O18 0.522436 0.259703 0.096495
O O19 0.419939 0.272810 0.033664
O O20 0.915551 0.000000 0.929321
#
# Coordination Sequence:
#
# PCOD8085829 Si02
#       8
#     8   8   8   8   8   8   8   8
#     4  10  20  34  51  76 109 141 169 207 261 310
#     4  10  19  30  50  81 111 135 166 213 264 304
#     4  11  21  35  54  76 105 141 178 213 249 305
#     4  11  23  38  54  76 104 137 173 212 262 312
#     4  10  20  36  58  81 101 129 172 219 260 304
#     4   9  20  37  57  77 101 135 174 214 258 307
#     4   8  16  29  50  77 104 137 174 210 248 300
#     4   9  15  29  52  77 105 137 172 208 252 307
#
# _framework density 17.967558
#
# number of rings (size 3 to 8) (size 9 to 14) (size 15 to 20)
#    0.000    2.250    1.250    3.000    0.000    3.000 
#    0.000    5.000    0.000    0.750    0.000    0.000 
#    0.000    0.000    0.000    0.000    0.000    0.000 
#
# Total GULP energy -396802.383357 kJ/mol
# GULP energy per Si atom -12400.074480 kJ/mol
# Density = 1.792666 g / cm^3
# Si number density = 17.967558 Si / 1000 Ang^3
#
#
#
# Elastic Constant Matrix: (Units=GPa)
#
#
# Indices 1 2 3 4 5 6 
#
# 1 83.6461 33.8472 11.5925 0.0000 14.6475 0.0000
# 2 33.8472 70.0530 19.7468 0.0000 12.5099 0.0000
# 3 11.5925 19.7468 37.5374 0.0000 25.5398 0.0000
# 4 0.0000 0.0000 0.0000 23.4386 0.0000 4.1094
# 5 14.6475 12.5099 25.5398 0.0000 25.2941 0.0000
# 6 0.0000 0.0000 0.0000 4.1094 0.0000 26.0914
#
#
#
# Elastic Compliance Matrix: (Units=1/GPa)
#
#
# Indices 1 2 3 4 5 6 
#
# 1 0.016497 -0.007905 0.009276 0.000000 -0.015010 0.000000
# 2 -0.007905 0.020579 -0.014614 0.000000 0.009155 0.000000
# 3 0.009276 -0.014614 0.096484 0.000000 -0.095566 0.000000
# 4 0.000000 0.000000 0.000000 0.043876 0.000000 -0.006910
# 5 -0.015010 0.009155 -0.095566 0.000000 0.140193 0.000000
# 6 0.000000 0.000000 0.000000 -0.006910 0.000000 0.039415
#
#
# Mechanical properties :
#
#
# Convention : Reuss Voigt Hill
#
# Bulk Modulus (GPa) = 9.33921 35.73441 22.53681
# Shear Modulus (GPa) = 11.92690 23.36816 17.64753
#
# Velocity S-wave (km/s) = 2.57923 3.61026 3.13739
# Velocity P-wave (km/s) = 3.75220 6.10820 5.06898
#
# Compressibility (1/GPa) = 0.10707540
#
# Stress axis : x y z
#
# Youngs Moduli (GPa) = 60.61808 48.59379 10.36438
#
# Poissons Ratio (x) = 0.38414 -0.09614
# Poissons Ratio (y) = 0.47919 0.15146
# Poissons Ratio (z) = -0.56232 0.71013
#
# Static dielectric constant tensor:
#      x y z
#    x 3.189730 0.000000 0.158060 
#    y 0.000000 3.246600 0.000000 
#    z 0.158060 0.000000 3.507080 
# 
# 
# High freq. dielectric constant tensor:
#      x y z
#    x 1.677620 0.000000 0.022400 
#    y 0.000000 1.694090 0.000000 
#    z 0.022400 0.000000 1.694880 
# 
# From -- ./inp_files/238790.got.cif
#   From: 2010.06.25/outbox.cif.g09.slc.cpg/sg12_120_cif.got.tgz:238790.got - 2010.06.28 00:19:55.
