data_PCOD8085484
_publ_section_title
;
Structure prediction by ZEFSAII (Michael W. Deem and Ramdas Pophale) SiO2 
 PCOD8085484
Probable space group: C 2/M
;
_chemical_formula_sum "Si O2"
_cell_formula_units_Z 56
_cell_length_a 19.737499
_cell_length_b 9.074918
_cell_length_c 23.376452
_cell_angle_alpha 90.000000
_cell_angle_beta 49.987698
_cell_angle_gamma 90.000000
_cell_volume 3206.927428
_symmetry_space_group_name_H-M "C 2/M"
_symmetry_group_IT_number 12
_symmetry_cell_setting 'monoclinic'
loop_
_space_group_symop_operation_xyz
x,y,z
-x,y,-z
-x,-y,-z
x,-y,z
1/2+x,1/2+y,z
1/2-x,1/2+y,-z
1/2-x,1/2-y,-z
1/2+x,1/2-y,z
loop_
_atom_site_type_symbol
_atom_site_label
_atom_site_fract_x
_atom_site_fract_y
_atom_site_fract_z
Si Si1 0.417649 0.833975 0.002521
Si Si2 0.994897 0.174074 0.439720
Si Si3 0.029169 0.826635 0.854505
Si Si4 0.342699 0.325268 0.440449
Si Si5 0.372570 0.673568 0.729138
Si Si6 0.310024 0.326925 0.150686
Si Si7 0.471604 0.674428 0.273897
O O1 0.445369 0.752398 0.929228
O O2 0.387274 0.000000 0.004833
O O3 0.500000 0.832534 0.000000
O O4 0.336965 0.748408 0.076151
O O5 0.906114 0.229951 0.457106
O O6 0.000000 0.246714 0.500000
O O7 0.080929 0.216052 0.355987
O O8 0.989321 0.000000 0.447548
O O9 0.119978 0.787518 0.837602
O O10 0.035757 0.763758 0.786434
O O11 0.010518 0.000000 0.866018
O O12 0.330708 0.500000 0.447548
O O13 0.250000 0.250000 0.500000
O O14 0.387094 0.271535 0.356660
O O15 0.351455 0.500000 0.744101
O O16 0.283635 0.766052 0.779030
O O17 0.436555 0.724017 0.746376
O O18 0.304810 0.500000 0.142974
O O19 0.469725 0.500000 0.274401
#
# Coordination Sequence:
#
# PCOD8085484 Si02
#       7
#     8   8   8   8   8   8   8
#     4   9  17  30  48  70  95 120 150 190 230 268
#     4   8  15  29  48  68  91 122 158 192 227 270
#     4   9  17  31  50  69  91 121 155 189 228 275
#     4   9  17  30  48  69  93 122 155 190 230 274
#     4   9  17  31  50  68  90 123 159 192 226 268
#     4  10  19  30  47  71  96 121 150 187 232 278
#     4   8  16  32  50  66  90 126 159 186 225 276
#
# _framework density 17.462197
#
# number of rings (size 3 to 8) (size 9 to 14) (size 15 to 20)
#    0.000    3.143    0.000    2.571    0.000    3.429 
#    0.000    5.000    0.000    0.857    0.000    0.000 
#    0.000    0.000    0.000    0.000    0.000    0.000 
#
# Total GULP energy -347091.602191 kJ/mol
# GULP energy per Si atom -12396.128650 kJ/mol
# Density = 1.742245 g / cm^3
# Si number density = 17.462197 Si / 1000 Ang^3
#
#
#
# Elastic Constant Matrix: (Units=GPa)
#
#
# Indices 1 2 3 4 5 6 
#
# 1 84.1187 33.7591 86.3423 0.0000 5.8120 -0.0001
# 2 33.7591 53.9558 48.2405 0.0001 -2.2890 -0.0003
# 3 86.3423 48.2405 165.7973 0.0000 9.4541 0.0000
# 4 0.0000 0.0001 0.0000 29.7964 0.0000 -9.4312
# 5 5.8120 -2.2890 9.4541 0.0000 33.9812 0.0000
# 6 -0.0001 -0.0003 0.0000 -9.4312 0.0000 19.0568
#
#
#
# Elastic Compliance Matrix: (Units=1/GPa)
#
#
# Indices 1 2 3 4 5 6 
#
# 1 0.026906 -0.006026 -0.012166 0.000000 -0.001623 0.000000
# 2 -0.006026 0.026886 -0.004925 0.000000 0.004212 0.000000
# 3 -0.012166 -0.004925 0.013921 0.000000 -0.002124 0.000000
# 4 0.000000 0.000000 0.000000 0.039795 0.000000 0.019694
# 5 -0.001623 0.004212 -0.002124 0.000000 0.030580 0.000000
# 6 0.000000 0.000000 0.000000 0.019694 0.000000 0.062221
#
#
# Mechanical properties :
#
#
# Convention : Reuss Voigt Hill
#
# Bulk Modulus (GPa) = 46.55606 71.17287 58.86446
# Shear Modulus (GPa) = 19.70806 25.60219 22.65513
#
# Velocity S-wave (km/s) = 3.36313 3.83319 3.60583
# Velocity P-wave (km/s) = 6.46527 7.77418 7.14974
#
# Compressibility (1/GPa) = 0.02147948
#
# Stress axis : x y z
#
# Youngs Moduli (GPa) = 37.16611 37.19430 71.83317
#
# Poissons Ratio (x) = 0.22414 0.87392
# Poissons Ratio (y) = 0.22397 0.35375
# Poissons Ratio (z) = 0.45216 0.18317
#
# Static dielectric constant tensor:
#      x y z
#    x 3.329850 0.000000 0.302400 
#    y 0.000000 2.980610 0.000000 
#    z 0.302400 0.000000 3.625250 
# 
# 
# High freq. dielectric constant tensor:
#      x y z
#    x 1.658760 0.000000 0.001950 
#    y 0.000000 1.647740 0.000000 
#    z 0.001950 0.000000 1.687450 
# 
# From -- ./inp_files/345490.got.cif
#   From: 2010.06.25/outbox.cif.g09.slc.cpg/sg12_173_cif.got.tgz:345490.got - 2010.06.28 00:19:55.
