data_PCOD8085341
_publ_section_title
;
Structure prediction by ZEFSAII (Michael W. Deem and Ramdas Pophale) SiO2 
 PCOD8085341
Probable space group: C 2/M
;
_chemical_formula_sum "Si O2"
_cell_formula_units_Z 56
_cell_length_a 27.013770
_cell_length_b 8.669660
_cell_length_c 16.085733
_cell_angle_alpha 90.000000
_cell_angle_beta 115.813509
_cell_angle_gamma 90.000000
_cell_volume 3391.367934
_symmetry_space_group_name_H-M "C 2/M"
_symmetry_group_IT_number 12
_symmetry_cell_setting 'monoclinic'
loop_
_space_group_symop_operation_xyz
x,y,z
-x,y,-z
-x,-y,-z
x,-y,z
1/2+x,1/2+y,z
1/2-x,1/2+y,-z
1/2-x,1/2-y,-z
1/2+x,1/2-y,z
loop_
_atom_site_type_symbol
_atom_site_label
_atom_site_fract_x
_atom_site_fract_y
_atom_site_fract_z
Si Si1 0.268484 0.679700 0.135760
Si Si2 0.856139 0.823799 0.696177
Si Si3 0.163385 0.320530 0.953396
Si Si4 0.238788 0.679308 0.691455
Si Si5 0.563067 0.319385 0.966154
Si Si6 0.947998 0.320314 0.867297
Si Si7 0.698550 0.678864 0.507825
O O1 0.280447 0.500000 0.132133
O O2 0.315560 0.774568 0.122478
O O3 0.270314 0.722696 0.232982
O O4 0.209066 0.724183 0.055268
O O5 0.798654 0.781755 0.698297
O O6 0.903484 0.712353 0.763718
O O7 0.852501 0.799799 0.593278
O O8 0.871581 0.000000 0.728287
O O9 0.148944 0.500000 0.944763
O O10 0.108730 0.224206 0.932188
O O11 0.231711 0.500000 0.706208
O O12 0.191861 0.732105 0.590695
O O13 0.563819 0.500000 0.984548
O O14 0.503735 0.271176 0.887310
O O15 0.576204 0.231608 0.061655
O O16 0.961609 0.500000 0.879843
O O17 0.709328 0.500000 0.533961
O O18 0.750000 0.750000 0.500000
#
# Coordination Sequence:
#
# PCOD8085341 Si02
#       7
#     8   8   8   8   8   8   8
#     4  10  20  32  48  70  95 125 158 190 230 277
#     4   9  18  31  46  67  95 126 157 190 232 278
#     4  10  20  34  50  69  94 122 156 196 232 271
#     4  10  19  30  46  68  96 127 158 193 231 274
#     4  11  21  34  50  67  93 125 156 192 233 276
#     4  11  21  32  48  70  94 122 158 194 230 274
#     4   9  17  29  45  65  92 123 155 191 231 278
#
# _framework density 16.512512000000001
#
# number of rings (size 3 to 8) (size 9 to 14) (size 15 to 20)
#    0.000    2.000    0.000    6.857    0.000    7.429 
#    0.000    0.000    0.000    0.000    0.000    1.000 
#    0.000    8.000    0.000    0.000    0.000    0.000 
#
# Total GULP energy -347216.014825 kJ/mol
# GULP energy per Si atom -12400.571958 kJ/mol
# Density = 1.647493 g / cm^3
# Si number density = 16.512512 Si / 1000 Ang^3
#
#
#
# Elastic Constant Matrix: (Units=GPa)
#
#
# Indices 1 2 3 4 5 6 
#
# 1 69.8139 20.3446 29.3034 0.0000 -2.7203 0.0000
# 2 20.3446 68.2099 22.1534 0.0000 3.2143 0.0000
# 3 29.3034 22.1534 98.1822 0.0000 -5.5079 0.0000
# 4 0.0000 0.0000 0.0000 29.7615 0.0000 -1.9022
# 5 -2.7203 3.2143 -5.5079 0.0000 20.2844 0.0000
# 6 0.0000 0.0000 0.0000 -1.9022 0.0000 26.5749
#
#
#
# Elastic Compliance Matrix: (Units=1/GPa)
#
#
# Indices 1 2 3 4 5 6 
#
# 1 0.017280 -0.003881 -0.004181 0.000000 0.001797 0.000000
# 2 -0.003881 0.016944 -0.002889 0.000000 -0.003990 0.000000
# 3 -0.004181 -0.002889 0.012266 0.000000 0.003228 0.000000
# 4 0.000000 0.000000 0.000000 0.033755 0.000000 0.002416
# 5 0.001797 -0.003990 0.003228 0.000000 0.051049 0.000000
# 6 0.000000 0.000000 0.000000 0.002416 0.000000 0.037802
#
#
# Mechanical properties :
#
#
# Convention : Reuss Voigt Hill
#
# Bulk Modulus (GPa) = 40.66854 42.20099 41.43476
# Shear Modulus (GPa) = 25.10132 26.28447 25.69289
#
# Velocity S-wave (km/s) = 3.90313 3.99405 3.94885
# Velocity P-wave (km/s) = 6.70783 6.84707 6.77781
#
# Compressibility (1/GPa) = 0.02458903
#
# Stress axis : x y z
#
# Youngs Moduli (GPa) = 57.87198 59.01664 81.52724
#
# Poissons Ratio (x) = 0.22903 0.34085
# Poissons Ratio (y) = 0.22458 0.23552
# Poissons Ratio (z) = 0.24195 0.17049
#
# Static dielectric constant tensor:
#      x y z
#    x 2.850020 0.000000 -0.029430 
#    y 0.000000 3.243780 0.000000 
#    z -0.029430 0.000000 3.311380 
# 
# 
# High freq. dielectric constant tensor:
#      x y z
#    x 1.600630 0.000000 -0.004580 
#    y 0.000000 1.654360 0.000000 
#    z -0.004580 0.000000 1.632410 
# 
# From -- ./inp_files/239013.got.cif
#   From: 2010.06.25/outbox.cif.g09.slc.cpg/sg12_120_cif.got.tgz:239013.got - 2010.06.28 00:19:55.
