data_PCOD8085416
_publ_section_title
;
Structure prediction by ZEFSAII (Michael W. Deem and Ramdas Pophale) SiO2 
 PCOD8085416
Probable space group: C 2/M
;
_chemical_formula_sum "Si O2"
_cell_formula_units_Z 56
_cell_length_a 19.260212
_cell_length_b 8.922152
_cell_length_c 24.482349
_cell_angle_alpha 90.000000
_cell_angle_beta 133.441765
_cell_angle_gamma 90.000000
_cell_volume 3054.670933
_symmetry_space_group_name_H-M "C 2/M"
_symmetry_group_IT_number 12
_symmetry_cell_setting 'monoclinic'
loop_
_space_group_symop_operation_xyz
x,y,z
-x,y,-z
-x,-y,-z
x,-y,z
1/2+x,1/2+y,z
1/2-x,1/2+y,-z
1/2-x,1/2-y,-z
1/2+x,1/2-y,z
loop_
_atom_site_type_symbol
_atom_site_label
_atom_site_fract_x
_atom_site_fract_y
_atom_site_fract_z
Si Si1 0.605450 0.170207 0.397824
Si Si2 0.063217 0.824846 0.086445
Si Si3 0.750571 0.175758 0.313337
Si Si4 0.047083 0.824071 0.760341
Si Si5 0.262936 0.324902 0.199238
Si Si6 0.536408 0.178067 0.182910
Si Si7 0.314480 0.328852 0.460497
O O1 0.530298 0.269807 0.324912
O O2 0.614081 0.230029 0.464498
O O3 0.706635 0.183079 0.423237
O O4 0.568599 0.000000 0.379039
O O5 0.170053 0.767823 0.132054
O O6 0.013670 0.740869 0.110542
O O7 0.066588 0.000000 0.101191
O O8 0.000000 0.786876 0.000000
O O9 0.795929 0.216854 0.279165
O O10 0.641890 0.236096 0.256845
O O11 0.813851 0.238585 0.398117
O O12 0.745035 0.000000 0.320282
O O13 0.038000 0.742763 0.813589
O O14 0.152175 0.782903 0.795448
O O15 0.034286 0.000000 0.761426
O O16 0.235922 0.500000 0.182666
O O17 0.528455 0.000000 0.177516
O O18 0.351045 0.500000 0.482722
#
# Coordination Sequence:
#
# PCOD8085416 Si02
#       7
#     8   8   8   8   8   8   8
#     4  10  19  30  46  72 103 138 179 225 277 324
#     4  10  21  38  60  87 114 138 170 214 262 314
#     4   8  14  30  52  73  97 130 178 225 263 313
#     4  11  21  34  52  79 111 142 180 224 272 319
#     4   9  20  36  56  80 108 143 180 219 265 322
#     4  10  19  34  57  82 107 141 182 218 260 316
#     4   9  16  29  48  71  98 132 179 230 274 317
#
# _framework density 18.33258
#
# number of rings (size 3 to 8) (size 9 to 14) (size 15 to 20)
#    0.000    2.429    1.429    2.571    0.000    2.857 
#    0.000    2.143    0.000    4.286    0.000    0.000 
#    0.000    0.000    0.000    0.000    0.000    0.000 
#
# Total GULP energy -347144.417935 kJ/mol
# GULP energy per Si atom -12398.014926 kJ/mol
# Density = 1.829085 g / cm^3
# Si number density = 18.332580 Si / 1000 Ang^3
#
#
#
# Elastic Constant Matrix: (Units=GPa)
#
#
# Indices 1 2 3 4 5 6 
#
# 1 105.3545 50.4641 58.0639 0.0000 -24.2093 0.0000
# 2 50.4641 79.3138 52.9804 0.0000 -12.0598 0.0000
# 3 58.0639 52.9804 125.5022 0.0000 -23.7094 0.0000
# 4 0.0000 0.0000 0.0000 29.9138 0.0000 -1.4777
# 5 -24.2093 -12.0598 -23.7094 0.0000 21.5038 0.0000
# 6 0.0000 0.0000 0.0000 -1.4777 0.0000 24.9731
#
#
#
# Elastic Compliance Matrix: (Units=1/GPa)
#
#
# Indices 1 2 3 4 5 6 
#
# 1 0.017322 -0.007441 -0.002497 0.000000 0.012575 0.000000
# 2 -0.007441 0.020833 -0.005971 0.000000 -0.003277 0.000000
# 3 -0.002497 -0.005971 0.013237 0.000000 0.008435 0.000000
# 4 0.000000 0.000000 0.000000 0.033527 0.000000 0.001984
# 5 0.012575 -0.003277 0.008435 0.000000 0.068122 0.000000
# 6 0.000000 0.000000 0.000000 0.001984 0.000000 0.040161
#
#
# Mechanical properties :
#
#
# Convention : Reuss Voigt Hill
#
# Bulk Modulus (GPa) = 51.08921 70.35415 60.72168
# Shear Modulus (GPa) = 21.59404 25.18894 23.39149
#
# Velocity S-wave (km/s) = 3.43579 3.71077 3.57592
# Velocity P-wave (km/s) = 6.60818 7.53788 7.08829
#
# Compressibility (1/GPa) = 0.01957360
#
# Stress axis : x y z
#
# Youngs Moduli (GPa) = 57.73086 48.00117 75.54304
#
# Poissons Ratio (x) = 0.35718 0.18865
# Poissons Ratio (y) = 0.42958 0.45107
# Poissons Ratio (z) = 0.14417 0.28661
#
# Static dielectric constant tensor:
#      x y z
#    x 3.297400 0.000000 -0.248430 
#    y 0.000000 3.330080 0.000000 
#    z -0.248430 0.000000 3.474930 
# 
# 
# High freq. dielectric constant tensor:
#      x y z
#    x 1.691840 0.000000 -0.020340 
#    y 0.000000 1.704700 0.000000 
#    z -0.020340 0.000000 1.710120 
# 
# From -- ./inp_files/314374.got.cif
#   From: 2010.06.25/outbox.cif.g09.slc.cpg/sg12_158_cif.got.tgz:314374.got - 2010.06.28 00:19:55.
