data_PCOD8085904
_publ_section_title
;
Structure prediction by ZEFSAII (Michael W. Deem and Ramdas Pophale) SiO2 
 PCOD8085904
Probable space group: C 2/M
;
_chemical_formula_sum "Si O2"
_cell_formula_units_Z 56
_cell_length_a 20.531963
_cell_length_b 9.229877
_cell_length_c 22.103712
_cell_angle_alpha 90.000000
_cell_angle_beta 132.131297
_cell_angle_gamma 90.000000
_cell_volume 3106.468081
_symmetry_space_group_name_H-M "C 2/M"
_symmetry_group_IT_number 12
_symmetry_cell_setting 'monoclinic'
loop_
_space_group_symop_operation_xyz
x,y,z
-x,y,-z
-x,-y,-z
x,-y,z
1/2+x,1/2+y,z
1/2-x,1/2+y,-z
1/2-x,1/2-y,-z
1/2+x,1/2-y,z
loop_
_atom_site_type_symbol
_atom_site_label
_atom_site_fract_x
_atom_site_fract_y
_atom_site_fract_z
Si Si1 0.550017 0.669886 0.725500
Si Si2 0.979110 0.832030 0.153391
Si Si3 0.180223 0.328798 0.998608
Si Si4 0.176171 0.834298 0.237320
Si Si5 0.237976 0.165894 0.404288
Si Si6 0.753850 0.169498 0.174134
Si Si7 0.612354 0.167613 0.413080
O O1 0.539966 0.500000 0.707926
O O2 0.531510 0.709996 0.783353
O O3 0.646475 0.727194 0.768191
O O4 0.480679 0.751970 0.639518
O O5 0.077202 0.796963 0.194176
O O6 0.954013 0.000000 0.127703
O O7 0.916459 0.731366 0.074386
O O8 0.184912 0.500000 0.989369
O O9 0.201957 0.290294 0.081164
O O10 0.250000 0.250000 0.000000
O O11 0.239427 0.800310 0.333828
O O12 0.203853 0.737938 0.198821
O O13 0.184889 0.000000 0.222687
O O14 0.335314 0.191709 0.491459
O O15 0.168279 0.269400 0.392652
O O16 0.206794 0.000000 0.396073
O O17 0.755293 0.000000 0.185559
O O18 0.595505 0.000000 0.389347
#
# Coordination Sequence:
#
# PCOD8085904 Si02
#       7
#     8   8   8   8   8   8   8
#     4  10  19  37  58  78 112 150 183 226 279 329
#     4  10  20  37  60  83 110 146 188 228 274 328
#     4  11  22  38  59  84 113 145 184 232 279 324
#     4  10  21  38  59  81 111 151 185 224 276 331
#     4   9  18  35  54  78 115 151 180 222 280 328
#     4  10  23  40  57  79 112 150 182 225 281 332
#     4  10  19  30  54  88 112 138 187 236 270 319
#
# _framework density 18.026903000000001
#
# number of rings (size 3 to 8) (size 9 to 14) (size 15 to 20)
#    0.000    2.000    2.857    0.857    0.000    4.571 
#    0.000    3.571    0.000    4.286    0.000    0.000 
#    0.000    0.000    0.000    0.000    0.000    0.000 
#
# Total GULP energy -347270.185787 kJ/mol
# GULP energy per Si atom -12402.506635 kJ/mol
# Density = 1.798587 g / cm^3
# Si number density = 18.026903 Si / 1000 Ang^3
#
#
#
# Elastic Constant Matrix: (Units=GPa)
#
#
# Indices 1 2 3 4 5 6 
#
# 1 96.6302 31.2184 51.0033 0.0000 -5.8434 0.0000
# 2 31.2184 57.1492 53.8939 0.0000 0.7684 0.0000
# 3 51.0033 53.8939 128.9750 0.0000 5.4279 0.0000
# 4 0.0000 0.0000 0.0000 34.6280 0.0000 2.9345
# 5 -5.8434 0.7684 5.4279 0.0000 29.1492 0.0000
# 6 0.0000 0.0000 0.0000 2.9345 0.0000 34.0569
#
#
#
# Elastic Compliance Matrix: (Units=1/GPa)
#
#
# Indices 1 2 3 4 5 6 
#
# 1 0.013958 -0.003834 -0.004071 0.000000 0.003657 0.000000
# 2 -0.003834 0.029996 -0.011039 0.000000 0.000496 0.000000
# 3 -0.004071 -0.011039 0.014109 0.000000 -0.003152 0.000000
# 4 0.000000 0.000000 0.000000 0.029091 0.000000 -0.002507
# 5 0.003657 0.000496 -0.003152 0.000000 0.035613 0.000000
# 6 0.000000 0.000000 0.000000 -0.002507 0.000000 0.029579
#
#
# Mechanical properties :
#
#
# Convention : Reuss Voigt Hill
#
# Bulk Modulus (GPa) = 49.56978 61.66509 55.61743
# Shear Modulus (GPa) = 25.38611 29.34273 27.36442
#
# Velocity S-wave (km/s) = 3.75672 4.03888 3.90035
# Velocity P-wave (km/s) = 6.80989 7.48542 7.15563
#
# Compressibility (1/GPa) = 0.02017358
#
# Stress axis : x y z
#
# Youngs Moduli (GPa) = 71.64606 33.33785 70.87787
#
# Poissons Ratio (x) = 0.12783 0.28856
# Poissons Ratio (y) = 0.27471 0.78241
# Poissons Ratio (z) = 0.29169 0.36801
#
# Static dielectric constant tensor:
#      x y z
#    x 3.187850 0.000000 0.193480 
#    y 0.000000 3.357800 0.000000 
#    z 0.193480 0.000000 3.679590 
# 
# 
# High freq. dielectric constant tensor:
#      x y z
#    x 1.681620 0.000000 0.010950 
#    y 0.000000 1.698360 0.000000 
#    z 0.010950 0.000000 1.711620 
# 
# From -- ./inp_files/320222.got.cif
#   From: 2010.06.25/outbox.cif.g09.slc.cpg/sg12_161_cif.got.tgz:320222.got - 2010.06.28 00:19:55.
