data_PCOD8085898
_publ_section_title
;
Structure prediction by ZEFSAII (Michael W. Deem and Ramdas Pophale) SiO2 
 PCOD8085898
Probable space group: C 2/M
;
_chemical_formula_sum "Si O2"
_cell_formula_units_Z 64
_cell_length_a 22.389736
_cell_length_b 20.257184
_cell_length_c 9.105407
_cell_angle_alpha 90.000000
_cell_angle_beta 125.040431
_cell_angle_gamma 90.000000
_cell_volume 3381.249203
_symmetry_space_group_name_H-M "C 2/M"
_symmetry_group_IT_number 12
_symmetry_cell_setting 'monoclinic'
loop_
_space_group_symop_operation_xyz
x,y,z
-x,y,-z
-x,-y,-z
x,-y,z
1/2+x,1/2+y,z
1/2-x,1/2+y,-z
1/2-x,1/2-y,-z
1/2+x,1/2-y,z
loop_
_atom_site_type_symbol
_atom_site_label
_atom_site_fract_x
_atom_site_fract_y
_atom_site_fract_z
Si Si1 0.205428 0.924487 0.847121
Si Si2 0.149070 0.305884 0.444727
Si Si3 0.377652 0.925964 0.094165
Si Si4 0.629630 0.927875 0.247792
Si Si5 0.820244 0.209364 0.038936
Si Si6 0.696566 0.428088 0.504575
Si Si7 0.819006 0.808871 0.693776
Si Si8 0.418553 0.804319 0.339036
O O1 0.173598 0.867108 0.905093
O O2 0.176407 0.907851 0.643046
O O3 0.182498 0.000000 0.860033
O O4 0.291605 0.917449 0.984364
O O5 0.104160 0.369503 0.320754
O O6 0.128056 0.240479 0.323241
O O7 0.234402 0.309329 0.529082
O O8 0.134902 0.301406 0.596884
O O9 0.416976 0.875575 0.259211
O O10 0.400797 0.000000 0.173227
O O11 0.400383 0.912281 0.957641
O O12 0.716357 0.930390 0.375645
O O13 0.599405 0.000000 0.256175
O O14 0.892259 0.247703 0.191613
O O15 0.750000 0.250000 0.000000
O O16 0.824858 0.208398 0.871176
O O17 0.664923 0.500000 0.423714
O O18 0.657553 0.381695 0.328329
O O19 0.500000 0.787306 0.500000
#
# Coordination Sequence:
#
# PCOD8085898 Si02
#       8
#     8   8   8   8   8   8   8   8
#     4   9  17  31  56  85 113 141 179 228 278 326
#     4  10  19  32  51  77 103 136 180 228 277 319
#     4   9  17  33  54  78 109 148 188 228 270 320
#     4   8  15  28  49  73 101 137 179 221 265 316
#     4  12  21  35  56  82 109 145 187 232 276 322
#     4   8  15  27  46  78 113 136 161 216 280 328
#     4  10  19  30  54  80 103 135 177 232 277 322
#     4  12  25  38  52  77 114 153 189 228 274 331
#
# _framework density 18.927916
#
# number of rings (size 3 to 8) (size 9 to 14) (size 15 to 20)
#    0.000    2.250    2.500    3.000    3.500    1.250 
#    0.000    5.000    0.000    1.875    0.000    0.000 
#    0.000    4.000    0.000    0.000    0.000    0.000 
#
# Total GULP energy -396463.787662 kJ/mol
# GULP energy per Si atom -12389.493364 kJ/mol
# Density = 1.888484 g / cm^3
# Si number density = 18.927916 Si / 1000 Ang^3
#
#
#
# Elastic Constant Matrix: (Units=GPa)
#
#
# Indices 1 2 3 4 5 6 
#
# 1 15.6284 23.1592 21.5391 0.0000 -9.5351 0.0000
# 2 23.1592 139.4051 62.5403 0.0000 -15.3240 0.0000
# 3 21.5391 62.5403 95.9903 0.0000 -17.4521 0.0000
# 4 0.0000 0.0000 0.0000 40.0823 0.0000 -13.6505
# 5 -9.5351 -15.3240 -17.4521 0.0000 30.8338 0.0000
# 6 0.0000 0.0000 0.0000 -13.6505 0.0000 17.0043
#
#
#
# Elastic Compliance Matrix: (Units=1/GPa)
#
#
# Indices 1 2 3 4 5 6 
#
# 1 0.111761 -0.009482 -0.015018 0.000000 0.021348 0.000000
# 2 -0.009482 0.010999 -0.005103 0.000000 -0.000354 0.000000
# 3 -0.015018 -0.005103 0.017620 0.000000 0.002793 0.000000
# 4 0.000000 0.000000 0.000000 0.034336 0.000000 0.027564
# 5 0.021348 -0.000354 0.002793 0.000000 0.040438 0.000000
# 6 0.000000 0.000000 0.000000 0.027564 0.000000 0.080936
#
#
# Mechanical properties :
#
#
# Convention : Reuss Voigt Hill
#
# Bulk Modulus (GPa) = 12.31942 51.72232 32.02087
# Shear Modulus (GPa) = 13.07687 27.16977 20.12332
#
# Velocity S-wave (km/s) = 2.63131 3.79282 3.26414
# Velocity P-wave (km/s) = 3.96918 6.82392 5.58213
#
# Compressibility (1/GPa) = 0.08117267
#
# Stress axis : x y z
#
# Youngs Moduli (GPa) = 8.94767 90.91810 56.75370
#
# Poissons Ratio (x) = 0.86212 0.85235
# Poissons Ratio (y) = 0.08485 0.28960
# Poissons Ratio (z) = 0.13438 0.46393
#
# Static dielectric constant tensor:
#      x y z
#    x 2.974570 0.000000 -0.281470 
#    y 0.000000 4.109510 0.000000 
#    z -0.281470 0.000000 3.325050 
# 
# 
# High freq. dielectric constant tensor:
#      x y z
#    x 1.680630 0.000000 -0.034500 
#    y 0.000000 1.756970 0.000000 
#    z -0.034500 0.000000 1.718810 
# 
# From -- ./inp_files/99149.got.cif
#   From: 2010.06.25/outbox.cif.g09.slc.cpg/sg12_50_cif.got.tgz:99149.got - 2010.06.28 00:19:55.
