data_PCOD8085993
_publ_section_title
;
Structure prediction by ZEFSAII (Michael W. Deem and Ramdas Pophale) SiO2 
 PCOD8085993
Probable space group: C 2/M
;
_chemical_formula_sum "Si O2"
_cell_formula_units_Z 56
_cell_length_a 24.127173
_cell_length_b 19.534457
_cell_length_c 9.332144
_cell_angle_alpha 90.000000
_cell_angle_beta 43.141894
_cell_angle_gamma 90.000000
_cell_volume 3007.620655
_symmetry_space_group_name_H-M "C 2/M"
_symmetry_group_IT_number 12
_symmetry_cell_setting 'monoclinic'
loop_
_space_group_symop_operation_xyz
x,y,z
-x,y,-z
-x,-y,-z
x,-y,z
1/2+x,1/2+y,z
1/2-x,1/2+y,-z
1/2-x,1/2-y,-z
1/2+x,1/2-y,z
loop_
_atom_site_type_symbol
_atom_site_label
_atom_site_fract_x
_atom_site_fract_y
_atom_site_fract_z
Si Si1 0.180166 0.339014 0.340651
Si Si2 0.159983 0.821987 0.351327
Si Si3 0.911526 0.419406 0.720605
Si Si4 0.838246 0.328552 0.075428
Si Si5 0.077527 0.324585 0.793145
Si Si6 0.015903 0.822186 0.815121
Si Si7 0.855601 0.817488 0.943136
O O1 0.158667 0.260110 0.356551
O O2 0.155197 0.386300 0.256131
O O3 0.131182 0.364669 0.574402
O O4 0.277210 0.347472 0.175692
O O5 0.244772 0.852203 0.248300
O O6 0.091974 0.853542 0.585473
O O7 0.142375 0.846196 0.222466
O O8 0.900153 0.500000 0.745260
O O9 0.000000 0.397616 0.500000
O O10 0.896111 0.389511 0.908936
O O11 0.861900 0.305772 0.191289
O O12 0.848294 0.264671 0.949343
O O13 0.034625 0.258138 0.803643
O O14 0.000000 0.368537 0.000000
O O15 0.936977 0.837858 0.870239
O O16 0.000000 0.857455 0.000000
#
# Coordination Sequence:
#
# PCOD8085993 Si02
#       7
#     8   8   8   8   8   8   8
#     4  10  20  32  52  75 104 138 176 213 264 309
#     4  10  20  30  51  78 105 144 167 218 258 325
#     4  11  23  37  55  76 101 140 187 225 256 298
#     4  11  19  34  51  74 107 137 185 210 266 308
#     4  10  19  31  46  74 104 148 167 207 260 318
#     4  10  20  29  45  78 113 140 161 200 265 323
#     4  11  18  32  50  79 108 139 171 211 267 321
#
# _framework density 18.619368999999999
#
# number of rings (size 3 to 8) (size 9 to 14) (size 15 to 20)
#    0.000    1.571    5.714    2.143    4.000    1.714 
#    0.000    0.714    0.000    2.571    0.000    2.000 
#    0.000    1.143    0.000    0.000    0.000    0.000 
#
# Total GULP energy -347038.789636 kJ/mol
# GULP energy per Si atom -12394.242487 kJ/mol
# Density = 1.857699 g / cm^3
# Si number density = 18.619369 Si / 1000 Ang^3
#
#
#
# Elastic Constant Matrix: (Units=GPa)
#
#
# Indices 1 2 3 4 5 6 
#
# 1 112.6081 -1.7370 40.8166 0.0000 -12.8408 0.0000
# 2 -1.7370 25.1068 6.7723 0.0000 -7.2906 0.0000
# 3 40.8166 6.7723 154.7025 0.0000 -10.4825 0.0000
# 4 0.0000 0.0000 0.0000 12.2411 0.0000 -2.1866
# 5 -12.8408 -7.2906 -10.4825 0.0000 36.7289 0.0000
# 6 0.0000 0.0000 0.0000 -2.1866 0.0000 9.6392
#
#
#
# Elastic Compliance Matrix: (Units=1/GPa)
#
#
# Indices 1 2 3 4 5 6 
#
# 1 0.010229 0.002364 -0.002578 0.000000 0.003310 0.000000
# 2 0.002364 0.043073 -0.001911 0.000000 0.008831 0.000000
# 3 -0.002578 -0.001911 0.007282 0.000000 0.000798 0.000000
# 4 0.000000 0.000000 0.000000 0.085142 0.000000 0.019314
# 5 0.003310 0.008831 0.000798 0.000000 0.030364 0.000000
# 6 0.000000 0.000000 0.000000 0.019314 0.000000 0.108124
#
#
# Mechanical properties :
#
#
# Convention : Reuss Voigt Hill
#
# Bulk Modulus (GPa) = 17.75124 42.68012 30.21568
# Shear Modulus (GPa) = 16.27384 28.15955 22.21669
#
# Velocity S-wave (km/s) = 2.95960 3.89315 3.45803
# Velocity P-wave (km/s) = 4.60798 6.57123 5.67514
#
# Compressibility (1/GPa) = 0.05633409
#
# Stress axis : x y z
#
# Youngs Moduli (GPa) = 97.76475 23.21629 137.32701
#
# Poissons Ratio (x) = -0.05488 0.35402
# Poissons Ratio (y) = -0.23112 0.26242
# Poissons Ratio (z) = 0.25203 0.04436
#
# Static dielectric constant tensor:
#      x y z
#    x 3.449440 0.000000 -0.043090 
#    y 0.000000 2.654420 0.000000 
#    z -0.043090 0.000000 4.133960 
# 
# 
# High freq. dielectric constant tensor:
#      x y z
#    x 1.734690 0.000000 -0.004450 
#    y 0.000000 1.624000 0.000000 
#    z -0.004450 0.000000 1.752360 
# 
# From -- ./inp_files/76950.got.cif
#   From: 2010.06.25/outbox.cif.g09.slc.cpg/sg12_39_cif.got.tgz:76950.got - 2010.06.28 00:19:55.
