data_PCOD8085782
_publ_section_title
;
Structure prediction by ZEFSAII (Michael W. Deem and Ramdas Pophale) SiO2 
 PCOD8085782
Probable space group: C 2/M
;
_chemical_formula_sum "Si O2"
_cell_formula_units_Z 56
_cell_length_a 19.061113
_cell_length_b 9.427236
_cell_length_c 18.209375
_cell_angle_alpha 90.000000
_cell_angle_beta 94.345796
_cell_angle_gamma 90.000000
_cell_volume 3262.700655
_symmetry_space_group_name_H-M "C 2/M"
_symmetry_group_IT_number 12
_symmetry_cell_setting 'monoclinic'
loop_
_space_group_symop_operation_xyz
x,y,z
-x,y,-z
-x,-y,-z
x,-y,z
1/2+x,1/2+y,z
1/2-x,1/2+y,-z
1/2-x,1/2-y,-z
1/2+x,1/2-y,z
loop_
_atom_site_type_symbol
_atom_site_label
_atom_site_fract_x
_atom_site_fract_y
_atom_site_fract_z
Si Si1 0.323819 0.669338 0.009761
Si Si2 0.050391 0.844939 0.073162
Si Si3 0.576209 0.331343 0.849161
Si Si4 0.021975 0.663233 0.419533
Si Si5 0.350152 0.662811 0.549453
Si Si6 0.698180 0.160317 0.588718
Si Si7 0.598665 0.838549 0.705572
O O1 0.312139 0.500000 0.002471
O O2 0.361680 0.708459 0.089310
O O3 0.250000 0.750000 0.000000
O O4 0.375686 0.726160 0.947480
O O5 0.000915 0.768541 0.130772
O O6 0.070932 0.000000 0.104822
O O7 0.000000 0.863489 0.000000
O O8 0.570321 0.500000 0.841727
O O9 0.595672 0.265973 0.773209
O O10 0.044410 0.500000 0.417120
O O11 0.088067 0.759188 0.401629
O O12 0.000000 0.705434 0.500000
O O13 0.960750 0.699365 0.358139
O O14 0.369819 0.500000 0.538221
O O15 0.339698 0.732415 0.469106
O O16 0.281594 0.681491 0.594446
O O17 0.672776 0.186724 0.669950
O O18 0.677082 0.000000 0.562508
O O19 0.591512 0.000000 0.733054
#
# Coordination Sequence:
#
# PCOD8085782 Si02
#       7
#     8   8   8   8   8   8   8
#     4   9  17  31  53  79 103 130 163 199 241 287
#     4   7  12  27  50  71  94 128 164 192 229 284
#     4   9  18  33  52  74 100 129 164 207 246 283
#     4  10  19  34  52  68  94 132 166 202 251 304
#     4  10  19  30  50  75  94 117 162 217 253 288
#     4   9  18  34  50  67  96 132 163 197 250 308
#     4  10  20  34  52  71  96 134 170 200 247 306
#
# _framework density 17.163695000000001
#
# number of rings (size 3 to 8) (size 9 to 14) (size 15 to 20)
#    0.000    2.857    1.429    2.143    0.000    2.571 
#    0.000    2.143    0.000   11.143    0.000    0.000 
#    0.000    0.000    0.000    0.000    0.000    0.000 
#
# Total GULP energy -346932.567942 kJ/mol
# GULP energy per Si atom -12390.448855 kJ/mol
# Density = 1.712463 g / cm^3
# Si number density = 17.163695 Si / 1000 Ang^3
#
#
#
# Elastic Constant Matrix: (Units=GPa)
#
#
# Indices 1 2 3 4 5 6 
#
# 1 129.9164 54.1185 55.8990 0.0000 -16.1689 0.0000
# 2 54.1185 60.6716 39.7809 0.0000 -5.1540 0.0000
# 3 55.8990 39.7809 97.0705 0.0000 -14.9751 0.0000
# 4 0.0000 0.0000 0.0000 26.8264 0.0000 1.8496
# 5 -16.1689 -5.1540 -14.9751 0.0000 22.8425 0.0000
# 6 0.0000 0.0000 0.0000 1.8496 0.0000 29.5545
#
#
#
# Elastic Compliance Matrix: (Units=1/GPa)
#
#
# Indices 1 2 3 4 5 6 
#
# 1 0.013800 -0.009830 -0.003063 0.000000 0.005542 0.000000
# 2 -0.009830 0.029564 -0.007231 0.000000 -0.005028 0.000000
# 3 -0.003063 -0.007231 0.016068 0.000000 0.006734 0.000000
# 4 0.000000 0.000000 0.000000 0.037438 0.000000 -0.002343
# 5 0.005542 -0.005028 0.006734 0.000000 0.050981 0.000000
# 6 0.000000 0.000000 0.000000 -0.002343 0.000000 0.033982
#
#
# Mechanical properties :
#
#
# Convention : Reuss Voigt Hill
#
# Bulk Modulus (GPa) = 52.12716 65.25059 58.68888
# Shear Modulus (GPa) = 21.88403 25.03536 23.45970
#
# Velocity S-wave (km/s) = 3.57461 3.82334 3.70106
# Velocity P-wave (km/s) = 6.89011 7.58879 7.24787
#
# Compressibility (1/GPa) = 0.01918386
#
# Stress axis : x y z
#
# Youngs Moduli (GPa) = 72.46438 33.82447 62.23541
#
# Poissons Ratio (x) = 0.33249 0.19065
# Poissons Ratio (y) = 0.71232 0.45002
# Poissons Ratio (z) = 0.22199 0.24458
#
# Static dielectric constant tensor:
#      x y z
#    x 3.483600 0.000000 -0.289540 
#    y 0.000000 3.044370 0.000000 
#    z -0.289540 0.000000 3.062540 
# 
# 
# High freq. dielectric constant tensor:
#      x y z
#    x 1.673600 0.000000 -0.018620 
#    y 0.000000 1.644820 0.000000 
#    z -0.018620 0.000000 1.636100 
# 
# From -- ./inp_files/280248.got.cif
#   From: 2010.06.25/outbox.cif.g09.slc.cpg/sg12_141_cif.got.tgz:280248.got - 2010.06.28 00:19:55.
