data_PCOD8085478
_publ_section_title
;
Structure prediction by ZEFSAII (Michael W. Deem and Ramdas Pophale) SiO2 
 PCOD8085478
Probable space group: C 2/M
;
_chemical_formula_sum "Si O2"
_cell_formula_units_Z 48
_cell_length_a 23.682839
_cell_length_b 8.811443
_cell_length_c 13.211341
_cell_angle_alpha 90.000000
_cell_angle_beta 75.566125
_cell_angle_gamma 90.000000
_cell_volume 2669.922209
_symmetry_space_group_name_H-M "C 2/M"
_symmetry_group_IT_number 12
_symmetry_cell_setting 'monoclinic'
loop_
_space_group_symop_operation_xyz
x,y,z
-x,y,-z
-x,-y,-z
x,-y,z
1/2+x,1/2+y,z
1/2-x,1/2+y,-z
1/2-x,1/2-y,-z
1/2+x,1/2-y,z
loop_
_atom_site_type_symbol
_atom_site_label
_atom_site_fract_x
_atom_site_fract_y
_atom_site_fract_z
Si Si1 0.035026 0.825091 0.791255
Si Si2 0.565040 0.170061 0.059368
Si Si3 0.358380 0.673337 0.134995
Si Si4 0.027452 0.178629 0.383647
Si Si5 0.867680 0.329546 0.761402
Si Si6 0.246058 0.178037 0.112958
O O1 0.104607 0.801438 0.777607
O O2 0.001110 0.724057 0.890083
O O3 0.017539 0.775678 0.685742
O O4 0.017553 0.000000 0.817217
O O5 0.599198 0.170894 0.148427
O O6 0.564502 0.000000 0.013198
O O7 0.597383 0.290211 0.975033
O O8 0.337272 0.500000 0.133800
O O9 0.302553 0.781588 0.154964
O O10 0.090443 0.255783 0.341528
O O11 0.000000 0.239621 0.500000
O O12 0.037901 0.000000 0.382953
O O13 0.851449 0.500000 0.735096
O O14 0.808932 0.233378 0.798357
O O15 0.242721 0.000000 0.098483
O O16 0.250000 0.250000 0.000000
#
# Coordination Sequence:
#
# PCOD8085478 Si02
#       6
#     8   8   8   8   8   8
#     4   9  19  33  49  73 103 135 172 212 262 314
#     4  10  19  30  47  71 102 138 174 212 253 304
#     4  11  21  32  48  70 103 143 175 210 253 305
#     4   9  18  35  59  82 104 133 171 218 268 315
#     4  10  20  34  52  77 107 138 174 216 259 306
#     4  12  23  35  52  74 104 142 180 215 251 303
#
# _framework density 17.978051000000001
#
# number of rings (size 3 to 8) (size 9 to 14) (size 15 to 20)
#    0.000    1.833    1.667    3.500    0.000    5.000 
#    0.000    0.000    0.000    1.000    0.000    0.000 
#    0.000    0.000    0.000    0.000    0.000    0.000 
#
# Total GULP energy -297600.659731 kJ/mol
# GULP energy per Si atom -12400.027489 kJ/mol
# Density = 1.793713 g / cm^3
# Si number density = 17.978051 Si / 1000 Ang^3
#
#
#
# Elastic Constant Matrix: (Units=GPa)
#
#
# Indices 1 2 3 4 5 6 
#
# 1 120.0042 46.5633 43.2786 0.0000 -20.6062 0.0000
# 2 46.5633 98.5418 37.9151 0.0000 -8.9372 0.0000
# 3 43.2786 37.9151 92.2985 0.0000 -17.3760 0.0000
# 4 0.0000 0.0000 0.0000 20.1480 0.0000 -6.0251
# 5 -20.6062 -8.9372 -17.3760 0.0000 15.8969 0.0000
# 6 0.0000 0.0000 0.0000 -6.0251 0.0000 30.0663
#
#
#
# Elastic Compliance Matrix: (Units=1/GPa)
#
#
# Indices 1 2 3 4 5 6 
#
# 1 0.012723 -0.004155 -0.002007 0.000000 0.011963 0.000000
# 2 -0.004155 0.013447 -0.003987 0.000000 -0.002183 0.000000
# 3 -0.002007 -0.003987 0.015740 0.000000 0.012362 0.000000
# 4 0.000000 0.000000 0.000000 0.052797 0.000000 0.010580
# 5 0.011963 -0.002183 0.012362 0.000000 0.090697 0.000000
# 6 0.000000 0.000000 0.000000 0.010580 0.000000 0.035380
#
#
# Mechanical properties :
#
#
# Convention : Reuss Voigt Hill
#
# Bulk Modulus (GPa) = 46.26729 62.92870 54.59799
# Shear Modulus (GPa) = 20.13805 25.42807 22.78306
#
# Velocity S-wave (km/s) = 3.35049 3.76492 3.56374
# Velocity P-wave (km/s) = 6.38428 7.34701 6.88250
#
# Compressibility (1/GPa) = 0.02161354
#
# Stress axis : x y z
#
# Youngs Moduli (GPa) = 78.59708 74.36515 63.53040
#
# Poissons Ratio (x) = 0.30897 0.12751
# Poissons Ratio (y) = 0.32655 0.25328
# Poissons Ratio (z) = 0.15775 0.29648
#
# Static dielectric constant tensor:
#      x y z
#    x 3.561420 0.000000 0.019550 
#    y 0.000000 3.496120 0.000000 
#    z 0.019550 0.000000 3.137830 
# 
# 
# High freq. dielectric constant tensor:
#      x y z
#    x 1.703510 0.000000 -0.001740 
#    y 0.000000 1.706100 0.000000 
#    z -0.001740 0.000000 1.654580 
# 
# From -- ./inp_files/229908.got.cif
#   From: 2010.06.25/outbox.cif.g09.slc.cpg/sg12_115_cif.got.tgz:229908.got - 2010.06.28 00:19:55.
