data_PCOD8085647
_publ_section_title
;
Structure prediction by ZEFSAII (Michael W. Deem and Ramdas Pophale) SiO2 
 PCOD8085647
Probable space group: C 2/M
;
_chemical_formula_sum "Si O2"
_cell_formula_units_Z 64
_cell_length_a 5.266614
_cell_length_b 26.588220
_cell_length_c 24.036809
_cell_angle_alpha 90.000000
_cell_angle_beta 102.610876
_cell_angle_gamma 90.000000
_cell_volume 3284.671235
_symmetry_space_group_name_H-M "C 2/M"
_symmetry_group_IT_number 12
_symmetry_cell_setting 'monoclinic'
loop_
_space_group_symop_operation_xyz
x,y,z
-x,y,-z
-x,-y,-z
x,-y,z
1/2+x,1/2+y,z
1/2-x,1/2+y,-z
1/2-x,1/2-y,-z
1/2+x,1/2-y,z
loop_
_atom_site_type_symbol
_atom_site_label
_atom_site_fract_x
_atom_site_fract_y
_atom_site_fract_z
Si Si1 0.568627 0.190700 0.562707
Si Si2 0.567443 0.892650 0.067602
Si Si3 0.932380 0.721948 0.932138
Si Si4 0.185095 0.940500 0.684784
Si Si5 0.175093 0.234209 0.670804
Si Si6 0.380270 0.559892 0.879929
Si Si7 0.248805 0.940541 0.249012
Si Si8 0.106121 0.857685 0.600923
O O1 0.500000 0.216312 0.500000
O O2 0.617082 0.234756 0.609993
O O3 0.329305 0.154193 0.567042
O O4 0.819099 0.155128 0.565386
O O5 0.589492 0.835314 0.089803
O O6 0.339452 0.920402 0.089358
O O7 0.838950 0.920359 0.089322
O O8 0.500000 0.894611 0.000000
O O9 0.658612 0.750003 0.908277
O O10 0.000000 0.723441 0.000000
O O11 0.467032 0.921659 0.718956
O O12 0.123682 0.915315 0.622080
O O13 0.970120 0.921551 0.718597
O O14 0.175515 0.000000 0.675345
O O15 0.460928 0.249661 0.706192
O O16 0.161485 0.175377 0.659092
O O17 0.382927 0.500000 0.882498
O O18 0.315832 0.580298 0.815195
O O19 0.246178 0.000000 0.247007
#
# Coordination Sequence:
#
# PCOD8085647 Si02
#       8
#     8   8   8   8   8   8   8   8
#     4  10  19  31  48  72 103 135 166 199 238 289
#     4  11  22  34  52  81 113 147 182 212 256 318
#     4   9  17  31  50  72  97 129 174 225 261 282
#     4  10  19  34  55  76  97 121 163 221 267 300
#     4   8  16  27  42  67  96 124 157 194 236 279
#     4  11  22  36  53  77 112 146 177 213 259 326
#     4   9  19  35  55  76  96 126 170 220 264 297
#     4  10  19  30  48  74  97 124 161 202 250 294
#
# _framework density 19.484446999999999
#
# number of rings (size 3 to 8) (size 9 to 14) (size 15 to 20)
#    0.000    2.250    0.000    3.375    0.000   10.000 
#    0.000    0.000    0.000    2.250    0.000   52.500 
#    0.000    0.000    0.000    0.000    0.000    0.000 
#
# Total GULP energy -396642.894566 kJ/mol
# GULP energy per Si atom -12395.090455 kJ/mol
# Density = 1.944010 g / cm^3
# Si number density = 19.484447 Si / 1000 Ang^3
#
#
#
# Elastic Constant Matrix: (Units=GPa)
#
#
# Indices 1 2 3 4 5 6 
#
# 1 155.8445 29.7991 -0.9819 0.0000 44.5085 0.0000
# 2 29.7991 87.1227 17.2469 0.0000 15.9233 0.0000
# 3 -0.9819 17.2469 36.4316 0.0000 22.6061 0.0000
# 4 0.0000 0.0000 0.0000 7.2142 0.0000 0.7776
# 5 44.5085 15.9233 22.6061 0.0000 -17.3558 0.0000
# 6 0.0000 0.0000 0.0000 0.7776 0.0000 27.1052
#
#
#
# Elastic Compliance Matrix: (Units=1/GPa)
#
#
# Indices 1 2 3 4 5 6 
#
# 1 0.004931 -0.002333 -0.002920 0.000000 0.006700 0.000000
# 2 -0.002333 0.013631 -0.005842 0.000000 -0.001086 0.000000
# 3 -0.002920 -0.005842 0.021075 0.000000 0.014602 0.000000
# 4 0.000000 0.000000 0.000000 0.139045 0.000000 -0.003989
# 5 0.006700 -0.001086 0.014602 0.000000 -0.022412 0.000000
# 6 0.000000 0.000000 0.000000 -0.003989 0.000000 0.037008
#
#
# Mechanical properties :
#
#
# Convention : Reuss Voigt Hill
#
# Bulk Modulus (GPa) = 57.31863 41.28079 49.29971
# Shear Modulus (GPa) = 22.59544 18.94837 20.77191
#
# Velocity S-wave (km/s) = 3.40908 3.12186 3.26862
# Velocity P-wave (km/s) = 6.70651 5.85040 6.29303
#
# Compressibility (1/GPa) = 0.01744633
#
# Stress axis : x y z
#
# Youngs Moduli (GPa) = 202.81013 73.36207 47.44923
#
# Poissons Ratio (x) = 0.17115 0.13857
# Poissons Ratio (y) = 0.47316 0.27720
# Poissons Ratio (z) = 0.59228 0.42858
#
# Static dielectric constant tensor:
#      x y z
#    x 4.401340 0.000000 0.064440 
#    y 0.000000 3.445840 0.000000 
#    z 0.064440 0.000000 3.188970 
# 
# 
# High freq. dielectric constant tensor:
#      x y z
#    x 1.794860 0.000000 0.003890 
#    y 0.000000 1.746640 0.000000 
#    z 0.003890 0.000000 1.712560 
# 
# From -- ./inp_files/331451.got.cif
#   From: 2010.06.25/outbox.cif.g09.slc.cpg/sg12_166_cif.got.tgz:331451.got - 2010.06.28 00:19:55.
