data_PCOD8085769
_publ_section_title
;
Structure prediction by ZEFSAII (Michael W. Deem and Ramdas Pophale) SiO2 
 PCOD8085769
Probable space group: C 2/M
;
_chemical_formula_sum "Si O2"
_cell_formula_units_Z 56
_cell_length_a 19.654823
_cell_length_b 9.468984
_cell_length_c 20.923446
_cell_angle_alpha 90.000000
_cell_angle_beta 54.583831
_cell_angle_gamma 90.000000
_cell_volume 3173.542444
_symmetry_space_group_name_H-M "C 2/M"
_symmetry_group_IT_number 12
_symmetry_cell_setting 'monoclinic'
loop_
_space_group_symop_operation_xyz
x,y,z
-x,y,-z
-x,-y,-z
x,-y,z
1/2+x,1/2+y,z
1/2-x,1/2+y,-z
1/2-x,1/2-y,-z
1/2+x,1/2-y,z
loop_
_atom_site_type_symbol
_atom_site_label
_atom_site_fract_x
_atom_site_fract_y
_atom_site_fract_z
Si Si1 0.102934 0.335996 0.128667
Si Si2 0.830277 0.342330 0.458726
Si Si3 0.905581 0.660666 0.556292
Si Si4 0.871423 0.164730 0.690291
Si Si5 0.423205 0.167031 0.000144
Si Si6 0.737879 0.335902 0.130657
Si Si7 0.003970 0.336952 0.693420
O O1 0.129313 0.500000 0.111627
O O2 0.183804 0.250791 0.108648
O O3 0.024214 0.311796 0.218340
O O4 0.073196 0.281123 0.075474
O O5 0.800622 0.500000 0.461146
O O6 0.750000 0.250000 0.500000
O O7 0.868344 0.325289 0.507246
O O8 0.898561 0.298062 0.367890
O O9 0.902311 0.500000 0.583554
O O10 0.852507 0.759857 0.633188
O O11 0.000000 0.715613 0.500000
O O12 0.794100 0.190917 0.780086
O O13 0.953868 0.235266 0.673981
O O14 0.887967 0.000000 0.670376
O O15 0.333953 0.215056 0.077401
O O16 0.431464 0.000000 0.998067
O O17 0.500000 0.233025 0.000000
O O18 0.729944 0.500000 0.115735
O O19 0.988748 0.500000 0.680775
#
# Coordination Sequence:
#
# PCOD8085769 Si02
#       7
#     8   8   8   8   8   8   8
#     4   9  17  30  54  79  94 126 173 206 239 290
#     4  10  21  36  52  72 101 135 167 206 252 297
#     4  10  19  35  56  73  97 135 171 204 249 298
#     4  10  19  30  49  80 105 127 163 212 257 288
#     4   9  17  31  50  74 103 132 164 201 243 295
#     4   9  18  32  50  75 105 131 159 203 254 290
#     4   9  17  33  52  73 100 132 170 207 247 297
#
# _framework density 17.645897000000001
#
# number of rings (size 3 to 8) (size 9 to 14) (size 15 to 20)
#    0.000    2.571    1.429    0.857    0.000    2.000 
#    2.571    0.000    0.000    1.714    0.000    0.000 
#    0.000    0.000    0.000    0.000    0.000    0.000 
#
# Total GULP energy -347122.155833 kJ/mol
# GULP energy per Si atom -12397.219851 kJ/mol
# Density = 1.760573 g / cm^3
# Si number density = 17.645897 Si / 1000 Ang^3
#
#
#
# Elastic Constant Matrix: (Units=GPa)
#
#
# Indices 1 2 3 4 5 6 
#
# 1 97.5522 37.3158 65.8793 0.0000 -20.4153 0.0000
# 2 37.3158 60.6486 50.5016 0.0001 -8.2177 0.0000
# 3 65.8793 50.5016 133.9869 0.0000 -13.6349 0.0000
# 4 0.0000 0.0001 0.0000 21.1223 0.0000 -1.5811
# 5 -20.4153 -8.2177 -13.6349 0.0000 27.0912 0.0000
# 6 0.0000 0.0000 0.0000 -1.5811 0.0000 25.0275
#
#
#
# Elastic Compliance Matrix: (Units=1/GPa)
#
#
# Indices 1 2 3 4 5 6 
#
# 1 0.018183 -0.004780 -0.006210 0.000000 0.009127 0.000000
# 2 -0.004780 0.025502 -0.007210 0.000000 0.000504 0.000000
# 3 -0.006210 -0.007210 0.013212 0.000000 -0.000217 0.000000
# 4 0.000000 0.000000 0.000000 0.047568 0.000000 0.003005
# 5 0.009127 0.000504 -0.000217 0.000000 0.043834 0.000000
# 6 0.000000 0.000000 0.000000 0.003005 0.000000 0.040146
#
#
# Mechanical properties :
#
#
# Convention : Reuss Voigt Hill
#
# Bulk Modulus (GPa) = 48.78850 66.62011 57.70430
# Shear Modulus (GPa) = 21.58163 23.88095 22.73129
#
# Velocity S-wave (km/s) = 3.50099 3.68277 3.59303
# Velocity P-wave (km/s) = 6.63711 7.47794 7.07004
#
# Compressibility (1/GPa) = 0.02049663
#
# Stress axis : x y z
#
# Youngs Moduli (GPa) = 54.99591 39.21272 75.68682
#
# Poissons Ratio (x) = 0.18744 0.47001
# Poissons Ratio (y) = 0.26289 0.54573
# Poissons Ratio (z) = 0.34152 0.28274
#
# Static dielectric constant tensor:
#      x y z
#    x 3.060670 0.000000 0.055660 
#    y 0.000000 3.241960 0.000000 
#    z 0.055660 0.000000 3.608550 
# 
# 
# High freq. dielectric constant tensor:
#      x y z
#    x 1.660320 0.000000 0.002490 
#    y 0.000000 1.665470 0.000000 
#    z 0.002490 0.000000 1.700480 
# 
# From -- ./inp_files/314428.got.cif
#   From: 2010.06.25/outbox.cif.g09.slc.cpg/sg12_158_cif.got.tgz:314428.got - 2010.06.28 00:19:55.
