data_PCOD8085817
_publ_section_title
;
Structure prediction by ZEFSAII (Michael W. Deem and Ramdas Pophale) SiO2 
 PCOD8085817
Probable space group: C 2/M
;
_chemical_formula_sum "Si O2"
_cell_formula_units_Z 64
_cell_length_a 33.280818
_cell_length_b 8.962718
_cell_length_c 21.119454
_cell_angle_alpha 90.000000
_cell_angle_beta 34.880969
_cell_angle_gamma 90.000000
_cell_volume 3602.602335
_symmetry_space_group_name_H-M "C 2/M"
_symmetry_group_IT_number 12
_symmetry_cell_setting 'monoclinic'
loop_
_space_group_symop_operation_xyz
x,y,z
-x,y,-z
-x,-y,-z
x,-y,z
1/2+x,1/2+y,z
1/2-x,1/2+y,-z
1/2-x,1/2-y,-z
1/2+x,1/2-y,z
loop_
_atom_site_type_symbol
_atom_site_label
_atom_site_fract_x
_atom_site_fract_y
_atom_site_fract_z
Si Si1 0.970889 0.328265 0.396206
Si Si2 0.182666 0.323231 0.366084
Si Si3 0.637650 0.675005 0.052575
Si Si4 0.763179 0.171698 0.583498
Si Si5 0.772897 0.177204 0.820941
Si Si6 0.148439 0.329397 0.634670
Si Si7 0.388993 0.675235 0.769726
Si Si8 0.500362 0.830207 0.785546
O O1 0.981323 0.500000 0.399171
O O2 0.897433 0.269635 0.519361
O O3 0.035414 0.242989 0.345757
O O4 0.969422 0.298730 0.323355
O O5 0.187933 0.500000 0.352538
O O6 0.231214 0.272194 0.361541
O O7 0.211576 0.245515 0.266750
O O8 0.650889 0.500000 0.027279
O O9 0.635661 0.725254 0.128534
O O10 0.563654 0.719627 0.115767
O O11 0.697951 0.766364 0.940648
O O12 0.820165 0.218297 0.457687
O O13 0.685268 0.195799 0.654946
O O14 0.776449 0.000000 0.584440
O O15 0.831778 0.234392 0.794010
O O16 0.771795 0.000000 0.817931
O O17 0.160465 0.500000 0.595466
O O18 0.064987 0.298511 0.749941
O O19 0.397238 0.500000 0.755800
O O20 0.473110 0.000000 0.826569
#
# Coordination Sequence:
#
# PCOD8085817 Si02
#       8
#     8   8   8   8   8   8   8   8
#     4   9  18  32  52  75 103 139 175 208 257 311
#     4  11  22  37  53  73 107 145 178 216 257 312
#     4  10  20  35  55  80 104 132 172 219 265 308
#     4  10  19  30  50  79 109 142 175 213 256 306
#     4  11  23  38  54  75 101 138 179 216 263 315
#     4   9  17  31  51  78 111 141 174 211 256 308
#     4   9  20  36  55  78 105 131 168 221 267 307
#     4   9  16  31  53  77 106 139 171 211 257 305
#
# _framework density 17.764935999999999
#
# number of rings (size 3 to 8) (size 9 to 14) (size 15 to 20)
#    0.000    2.250    1.250    1.875    0.000    4.000 
#    0.000    2.500    0.000    0.750    0.000    5.250 
#    0.000    0.000    0.000    0.000    0.000    0.000 
#
# Total GULP energy -396843.085069 kJ/mol
# GULP energy per Si atom -12401.346408 kJ/mol
# Density = 1.772450 g / cm^3
# Si number density = 17.764936 Si / 1000 Ang^3
#
#
#
# Elastic Constant Matrix: (Units=GPa)
#
#
# Indices 1 2 3 4 5 6 
#
# 1 95.0015 47.4813 114.2725 -0.0722 -40.2543 0.0998
# 2 47.4813 59.5658 29.6620 -0.0295 0.6123 0.0083
# 3 114.2725 29.6620 11.0853 0.0797 33.6412 -0.1568
# 4 -0.0722 -0.0295 0.0797 29.0722 -0.0322 -2.5991
# 5 -40.2543 0.6123 33.6412 -0.0322 2.8823 0.0673
# 6 0.0998 0.0083 -0.1568 -2.5991 0.0673 27.7259
#
#
#
# Elastic Compliance Matrix: (Units=1/GPa)
#
#
# Indices 1 2 3 4 5 6 
#
# 1 0.003423 -0.005097 0.004938 -0.000017 -0.008758 0.000037
# 2 -0.005097 0.024049 -0.006384 0.000026 -0.001786 -0.000018
# 3 0.004938 -0.006384 0.004562 0.000009 0.017076 -0.000031
# 4 -0.000017 0.000026 0.000009 0.034688 -0.000036 0.003252
# 5 -0.008758 -0.001786 0.017076 -0.000036 0.025698 0.000063
# 6 0.000037 -0.000018 -0.000031 0.003252 0.000063 0.036372
#
#
# Mechanical properties :
#
#
# Convention : Reuss Voigt Hill
#
# Bulk Modulus (GPa) = 52.77644 60.94268 56.85956
# Shear Modulus (GPa) = 33.73973 10.21855 21.97914
#
# Velocity S-wave (km/s) = 4.36275 2.40095 3.52123
# Velocity P-wave (km/s) = 7.42636 6.48580 6.97196
#
# Compressibility (1/GPa) = 0.01894785
#
# Stress axis : x y z
#
# Youngs Moduli (GPa) = 292.18300 41.58228 219.18436
#
# Poissons Ratio (x) = 0.21196 -1.08241
# Poissons Ratio (y) = 1.48935 1.39926
# Poissons Ratio (z) = -1.44291 0.26546
#
# Static dielectric constant tensor:
#      x y z
#    x 3.516910 -0.000060 -0.175580 
#    y -0.000060 3.309310 0.000070 
#    z -0.175580 0.000070 3.111580 
# 
# 
# High freq. dielectric constant tensor:
#      x y z
#    x 1.689890 0.000000 -0.019030 
#    y 0.000000 1.692320 0.000000 
#    z -0.019030 0.000000 1.663210 
# 
# From -- ./inp_files/295618.got.cif
#   From: 2010.06.25/outbox.cif.g09.slc.cpg/sg12_148_cif.got.tgz:295618.got - 2010.06.28 00:19:55.
