data_PCOD8085795
_publ_section_title
;
Structure prediction by ZEFSAII (Michael W. Deem and Ramdas Pophale) SiO2 
 PCOD8085795
Probable space group: C 2/M
;
_chemical_formula_sum "Si O2"
_cell_formula_units_Z 64
_cell_length_a 21.964193
_cell_length_b 13.897010
_cell_length_c 12.476469
_cell_angle_alpha 90.000000
_cell_angle_beta 120.975485
_cell_angle_gamma 90.000000
_cell_volume 3265.167811
_symmetry_space_group_name_H-M "C 2/M"
_symmetry_group_IT_number 12
_symmetry_cell_setting 'monoclinic'
loop_
_space_group_symop_operation_xyz
x,y,z
-x,y,-z
-x,-y,-z
x,-y,z
1/2+x,1/2+y,z
1/2-x,1/2+y,-z
1/2-x,1/2-y,-z
1/2+x,1/2-y,z
loop_
_atom_site_type_symbol
_atom_site_label
_atom_site_fract_x
_atom_site_fract_y
_atom_site_fract_z
Si Si1 0.829085 0.282937 0.592184
Si Si2 0.341631 0.802946 0.173524
Si Si3 0.313509 0.111810 0.372197
Si Si4 0.047270 0.304333 0.902248
Si Si5 0.791813 0.891878 0.052484
Si Si6 0.917482 0.895448 0.008590
Si Si7 0.150031 0.105909 0.274491
Si Si8 0.401709 0.887294 0.837480
O O1 0.750000 0.250000 0.500000
O O2 0.854815 0.340287 0.510727
O O3 0.872556 0.184173 0.655812
O O4 0.836600 0.349930 0.705317
O O5 0.347982 0.840012 0.299368
O O6 0.416278 0.818764 0.179974
O O7 0.319688 0.689726 0.159833
O O8 0.286807 0.866781 0.056369
O O9 0.228994 0.129233 0.300872
O O10 0.332197 0.000000 0.388580
O O11 0.031820 0.190197 0.905205
O O12 0.974574 0.363420 0.840113
O O13 0.099381 0.337559 0.046701
O O14 0.840124 0.887752 0.990912
O O15 0.793155 0.000000 0.104991
O O16 0.952201 0.000000 0.067555
O O17 0.906763 0.887302 0.871833
O O18 0.149568 0.000000 0.326900
O O19 0.394502 0.000000 0.848374
#
# Coordination Sequence:
#
# PCOD8085795 Si02
#       8
#     8   8   8   8   8   8   8   8
#     4  10  21  36  58  77 102 137 184 227 272 323
#     4  10  19  30  50  77 108 143 187 222 272 328
#     4  10  19  32  51  77 107 142 180 225 276 322
#     4  10  21  36  55  79 112 151 184 226 273 336
#     4   9  17  28  47  76 110 142 176 224 277 326
#     4   9  15  29  53  80 109 139 171 220 283 329
#     4   9  16  30  52  78 107 135 170 222 280 325
#     4  11  23  40  55  76 111 150 186 224 280 333
#
# _framework density 19.600830999999999
#
# number of rings (size 3 to 8) (size 9 to 14) (size 15 to 20)
#    0.000    2.250    2.500    1.500    0.000    2.500 
#    0.000    3.125    0.000    2.250    0.000    0.000 
#    0.000    5.000    0.000    0.000    0.000    0.000 
#
# Total GULP energy -396586.980441 kJ/mol
# GULP energy per Si atom -12393.343139 kJ/mol
# Density = 1.955622 g / cm^3
# Si number density = 19.600831 Si / 1000 Ang^3
#
#
#
# Elastic Constant Matrix: (Units=GPa)
#
#
# Indices 1 2 3 4 5 6 
#
# 1 36.9397 17.0461 12.4567 0.0000 -11.4622 0.0000
# 2 17.0461 161.0584 42.5601 0.0000 -20.4239 0.0000
# 3 12.4567 42.5601 84.7710 0.0000 -21.3086 0.0000
# 4 0.0000 0.0000 0.0000 31.3334 0.0000 -3.9563
# 5 -11.4622 -20.4239 -21.3086 0.0000 23.3717 0.0000
# 6 0.0000 0.0000 0.0000 -3.9563 0.0000 22.2427
#
#
#
# Elastic Compliance Matrix: (Units=1/GPa)
#
#
# Indices 1 2 3 4 5 6 
#
# 1 0.032298 -0.001512 -0.000438 0.000000 0.014119 0.000000
# 2 -0.001512 0.007509 -0.002705 0.000000 0.003355 0.000000
# 3 -0.000438 -0.002705 0.016308 0.000000 0.012290 0.000000
# 4 0.000000 0.000000 0.000000 0.032648 0.000000 0.005807
# 5 0.014119 0.003355 0.012290 0.000000 0.063848 0.000000
# 6 0.000000 0.000000 0.000000 0.005807 0.000000 0.045991
#
#
# Mechanical properties :
#
#
# Convention : Reuss Voigt Hill
#
# Bulk Modulus (GPa) = 21.36479 47.43277 34.39878
# Shear Modulus (GPa) = 22.37001 29.43664 25.90332
#
# Velocity S-wave (km/s) = 3.38195 3.87952 3.63925
# Velocity P-wave (km/s) = 5.11602 6.65729 5.93688
#
# Compressibility (1/GPa) = 0.04680599
#
# Stress axis : x y z
#
# Youngs Moduli (GPa) = 30.96192 133.17261 61.31943
#
# Poissons Ratio (x) = 0.20138 0.02684
# Poissons Ratio (y) = 0.04682 0.16584
# Poissons Ratio (z) = 0.01355 0.36017
#
# Static dielectric constant tensor:
#      x y z
#    x 3.307240 0.000000 -0.085460 
#    y 0.000000 4.141110 0.000000 
#    z -0.085460 0.000000 3.584400 
# 
# 
# High freq. dielectric constant tensor:
#      x y z
#    x 1.734500 0.000000 -0.002440 
#    y 0.000000 1.789660 0.000000 
#    z -0.002440 0.000000 1.732490 
# 
# From -- ./inp_files/176157.got.cif
#   From: 2010.06.25/outbox.cif.g09.slc.cpg/sg12_89_cif.got.tgz:176157.got - 2010.06.28 00:19:55.
