data_PCOD8085860
_publ_section_title
;
Structure prediction by ZEFSAII (Michael W. Deem and Ramdas Pophale) SiO2 
 PCOD8085860
Probable space group: C 2/M
;
_chemical_formula_sum "Si O2"
_cell_formula_units_Z 64
_cell_length_a 25.149317
_cell_length_b 8.810842
_cell_length_c 15.816753
_cell_angle_alpha 90.000000
_cell_angle_beta 70.660796
_cell_angle_gamma 90.000000
_cell_volume 3307.022680
_symmetry_space_group_name_H-M "C 2/M"
_symmetry_group_IT_number 12
_symmetry_cell_setting 'monoclinic'
loop_
_space_group_symop_operation_xyz
x,y,z
-x,y,-z
-x,-y,-z
x,-y,z
1/2+x,1/2+y,z
1/2-x,1/2+y,-z
1/2-x,1/2-y,-z
1/2+x,1/2-y,z
loop_
_atom_site_type_symbol
_atom_site_label
_atom_site_fract_x
_atom_site_fract_y
_atom_site_fract_z
Si Si1 0.477215 0.679643 0.138880
Si Si2 0.714085 0.679817 0.943382
Si Si3 0.911933 0.820321 0.010797
Si Si4 0.897170 0.672667 0.494049
Si Si5 0.403152 0.171333 0.681118
Si Si6 0.016223 0.680267 0.691228
Si Si7 0.720218 0.677986 0.435594
Si Si8 0.721497 0.180511 0.259378
O O1 0.474766 0.500000 0.150278
O O2 0.432478 0.735849 0.092234
O O3 0.458915 0.758930 0.234614
O O4 0.540937 0.731942 0.081471
O O5 0.715858 0.500000 0.952908
O O6 0.649877 0.744089 0.980539
O O7 0.739219 0.728514 0.839383
O O8 0.750000 0.750000 0.000000
O O9 0.908650 0.000000 0.015085
O O10 0.877896 0.500000 0.482134
O O11 0.923738 0.676289 0.573312
O O12 0.845252 0.786638 0.519183
O O13 0.942737 0.735921 0.404419
O O14 0.453271 0.249543 0.708850
O O15 0.341561 0.247215 0.725951
O O16 0.396791 0.000000 0.716518
O O17 0.013436 0.500000 0.692773
O O18 0.731297 0.500000 0.428287
O O19 0.750000 0.750000 0.500000
O O20 0.744241 0.747416 0.334774
O O21 0.719478 0.000000 0.273922
#
# Coordination Sequence:
#
# PCOD8085860 Si02
#       8
#     8   8   8   8   8   8   8   8
#     4   9  18  34  54  73  99 143 185 221 267 325
#     4  10  21  36  57  84 111 144 185 233 282 333
#     4   8  17  36  55  71 101 142 182 219 269 328
#     4   9  18  34  52  74 106 143 179 215 259 316
#     4   8  15  30  51  72 102 142 176 209 260 322
#     4  10  19  30  51  81 108 136 175 221 267 314
#     4  11  22  37  58  81 108 143 181 225 275 329
#     4   9  19  36  55  78 109 146 187 227 274 330
#
# _framework density 19.352755999999999
#
# number of rings (size 3 to 8) (size 9 to 14) (size 15 to 20)
#    0.000    2.750    0.000    3.000    1.750    3.500 
#    0.000    5.625    0.000    3.750    0.000    0.000 
#    0.000    0.000    0.000    0.000    0.000    0.000 
#
# Total GULP energy -396624.286069 kJ/mol
# GULP energy per Si atom -12394.508940 kJ/mol
# Density = 1.930871 g / cm^3
# Si number density = 19.352756 Si / 1000 Ang^3
#
#
#
# Elastic Constant Matrix: (Units=GPa)
#
#
# Indices 1 2 3 4 5 6 
#
# 1 111.9685 20.7940 48.7103 0.0000 4.8663 0.0000
# 2 20.7940 40.7536 26.2199 0.0000 3.7357 0.0000
# 3 48.7103 26.2199 102.1266 0.0000 2.4822 0.0000
# 4 0.0000 0.0000 0.0000 29.2935 0.0000 5.9257
# 5 4.8663 3.7357 2.4822 0.0000 29.1163 0.0000
# 6 0.0000 0.0000 0.0000 5.9257 0.0000 21.9809
#
#
#
# Elastic Compliance Matrix: (Units=1/GPa)
#
#
# Indices 1 2 3 4 5 6 
#
# 1 0.011572 -0.002712 -0.004794 0.000000 -0.001177 0.000000
# 2 -0.002712 0.030317 -0.006420 0.000000 -0.002889 0.000000
# 3 -0.004794 -0.006420 0.013716 0.000000 0.000456 0.000000
# 4 0.000000 0.000000 0.000000 0.036106 0.000000 -0.009734
# 5 -0.001177 -0.002889 0.000456 0.000000 0.034874 0.000000
# 6 0.000000 0.000000 0.000000 -0.009734 0.000000 0.048118
#
#
# Mechanical properties :
#
#
# Convention : Reuss Voigt Hill
#
# Bulk Modulus (GPa) = 36.03359 49.58858 42.81108
# Shear Modulus (GPa) = 23.60671 26.68644 25.14658
#
# Velocity S-wave (km/s) = 3.49637 3.71745 3.60860
# Velocity P-wave (km/s) = 5.91263 6.64116 6.28746
#
# Compressibility (1/GPa) = 0.02775188
#
# Stress axis : x y z
#
# Youngs Moduli (GPa) = 86.41866 32.98527 72.90951
#
# Poissons Ratio (x) = 0.08945 0.34955
# Poissons Ratio (y) = 0.23435 0.46807
# Poissons Ratio (z) = 0.41432 0.21176
#
# Static dielectric constant tensor:
#      x y z
#    x 3.861610 0.000000 -0.020070 
#    y 0.000000 3.164430 0.000000 
#    z -0.020070 0.000000 3.670170 
# 
# 
# High freq. dielectric constant tensor:
#      x y z
#    x 1.757480 0.000000 0.002220 
#    y 0.000000 1.712330 0.000000 
#    z 0.002220 0.000000 1.759000 
# 
# From -- ./inp_files/243805.got.cif
#   From: 2010.06.25/outbox.cif.g09.slc.cpg/sg12_122_cif.got.tgz:243805.got - 2010.06.28 00:19:55.
