data_PCOD8085339
_publ_section_title
;
Structure prediction by ZEFSAII (Michael W. Deem and Ramdas Pophale) SiO2 
 PCOD8085339
Probable space group: C 2/M
;
_chemical_formula_sum "Si O2"
_cell_formula_units_Z 48
_cell_length_a 22.369401
_cell_length_b 13.244919
_cell_length_c 20.364737
_cell_angle_alpha 90.000000
_cell_angle_beta 152.169574
_cell_angle_gamma 90.000000
_cell_volume 2816.862881
_symmetry_space_group_name_H-M "C 2/M"
_symmetry_group_IT_number 12
_symmetry_cell_setting 'monoclinic'
loop_
_space_group_symop_operation_xyz
x,y,z
-x,y,-z
-x,-y,-z
x,-y,z
1/2+x,1/2+y,z
1/2-x,1/2+y,-z
1/2-x,1/2-y,-z
1/2+x,1/2-y,z
loop_
_atom_site_type_symbol
_atom_site_label
_atom_site_fract_x
_atom_site_fract_y
_atom_site_fract_z
Si Si1 0.644812 0.383616 0.121276
Si Si2 0.388996 0.720957 0.660625
Si Si3 0.481676 0.887047 0.671647
Si Si4 0.242075 0.300464 0.895470
Si Si5 0.263522 0.383357 0.649693
Si Si6 0.122044 0.117398 0.845907
O O1 0.659357 0.500000 0.112438
O O2 0.686518 0.307268 0.104656
O O3 0.734879 0.360473 0.271534
O O4 0.500000 0.359936 0.000000
O O5 0.250000 0.750000 0.500000
O O6 0.473211 0.822327 0.731212
O O7 0.373498 0.683311 0.720320
O O8 0.467282 0.636380 0.693802
O O9 0.618015 0.871882 0.770413
O O10 0.375515 0.856104 0.514439
O O11 0.462037 0.000000 0.676287
O O12 0.198861 0.184392 0.866854
O O13 0.336300 0.344577 0.041823
O O14 0.298585 0.500000 0.670563
O O15 0.153259 0.000000 0.863695
#
# Coordination Sequence:
#
# PCOD8085339 Si02
#       6
#     8   8   8   8   8   8
#     4  10  19  30  46  68  95 126 159 199 246 294
#     4   9  17  29  46  70  95 122 157 196 235 279
#     4   9  17  29  45  67  94 123 157 197 239 282
#     4  10  20  32  48  72  98 124 158 198 237 285
#     4   9  17  28  44  67  95 126 157 193 242 293
#     4  10  19  32  52  73  96 128 162 199 242 284
#
# _framework density 17.040233000000001
#
# number of rings (size 3 to 8) (size 9 to 14) (size 15 to 20)
#    0.000    2.500    0.000    3.000    0.000    2.667 
#    0.000    2.500    0.000    1.500    0.000   10.500 
#    0.000    0.000    0.000    0.000    0.000    0.000 
#
# Total GULP energy -297376.126647 kJ/mol
# GULP energy per Si atom -12390.671944 kJ/mol
# Density = 1.700145 g / cm^3
# Si number density = 17.040233 Si / 1000 Ang^3
#
#
#
# Elastic Constant Matrix: (Units=GPa)
#
#
# Indices 1 2 3 4 5 6 
#
# 1 124.2590 56.0453 36.3853 -0.0001 3.6407 0.0000
# 2 56.0453 97.7780 31.7250 -0.0001 0.7048 -0.0001
# 3 36.3853 31.7250 70.3014 -0.0002 6.3851 -0.0001
# 4 -0.0001 -0.0001 -0.0002 18.0313 -0.0002 0.8058
# 5 3.6407 0.7048 6.3851 -0.0002 24.1295 -0.0001
# 6 0.0000 -0.0001 -0.0001 0.8058 -0.0001 27.2994
#
#
#
# Elastic Compliance Matrix: (Units=1/GPa)
#
#
# Indices 1 2 3 4 5 6 
#
# 1 0.011556 -0.005504 -0.003436 0.000000 -0.000674 0.000000
# 2 -0.005504 0.014632 -0.003884 0.000000 0.001431 0.000000
# 3 -0.003436 -0.003884 0.018134 0.000000 -0.004167 0.000000
# 4 0.000000 0.000000 0.000000 0.055533 0.000000 -0.001639
# 5 -0.000674 0.001431 -0.004167 0.000000 0.042605 0.000000
# 6 0.000000 0.000000 0.000000 -0.001639 0.000000 0.036679
#
#
# Mechanical properties :
#
#
# Convention : Reuss Voigt Hill
#
# Bulk Modulus (GPa) = 53.55166 60.07219 56.81192
# Shear Modulus (GPa) = 23.69523 25.10422 24.39973
#
# Velocity S-wave (km/s) = 3.73305 3.84243 3.78814
# Velocity P-wave (km/s) = 7.07642 7.41724 7.24883
#
# Compressibility (1/GPa) = 0.01867356
#
# Stress axis : x y z
#
# Youngs Moduli (GPa) = 86.53416 68.34264 55.14476
#
# Poissons Ratio (x) = 0.37617 0.18948
# Poissons Ratio (y) = 0.47630 0.21420
# Poissons Ratio (z) = 0.29733 0.26546
#
# Static dielectric constant tensor:
#      x y z
#    x 3.189760 0.000000 0.168910 
#    y 0.000000 3.229130 0.000000 
#    z 0.168910 0.000000 3.440910 
# 
# 
# High freq. dielectric constant tensor:
#      x y z
#    x 1.638910 0.000000 0.019810 
#    y 0.000000 1.642300 0.000000 
#    z 0.019810 0.000000 1.668250 
# 
# From -- ./inp_files/164000.got.cif
#   From: 2010.06.25/outbox.cif.g09.slc.cpg/sg12_82_cif.got.tgz:164000.got - 2010.06.28 00:19:55.
