data_PCOD8085158
_publ_section_title
;
Structure prediction by ZEFSAII (Michael W. Deem and Ramdas Pophale) SiO2 
 PCOD8085158
Probable space group: C 2/M
;
_chemical_formula_sum "Si O2"
_cell_formula_units_Z 56
_cell_length_a 27.978571
_cell_length_b 9.251931
_cell_length_c 29.674392
_cell_angle_alpha 90.000000
_cell_angle_beta 152.748893
_cell_angle_gamma 90.000000
_cell_volume 3517.239470
_symmetry_space_group_name_H-M "C 2/M"
_symmetry_group_IT_number 12
_symmetry_cell_setting 'monoclinic'
loop_
_space_group_symop_operation_xyz
x,y,z
-x,y,-z
-x,-y,-z
x,-y,z
1/2+x,1/2+y,z
1/2-x,1/2+y,-z
1/2-x,1/2-y,-z
1/2+x,1/2-y,z
loop_
_atom_site_type_symbol
_atom_site_label
_atom_site_fract_x
_atom_site_fract_y
_atom_site_fract_z
Si Si1 0.645879 0.164987 0.406966
Si Si2 0.584940 0.663387 0.032091
Si Si3 0.669969 0.830927 0.330235
Si Si4 0.435978 0.833025 0.848904
Si Si5 0.555985 0.166619 0.594252
Si Si6 0.113013 0.331252 0.475959
Si Si7 0.767122 0.667789 0.784071
O O1 0.750000 0.250000 0.500000
O O2 0.603128 0.199958 0.320636
O O3 0.575183 0.198977 0.391981
O O4 0.679489 0.000000 0.436661
O O5 0.617489 0.500000 0.047073
O O6 0.536502 0.739930 0.947534
O O7 0.500000 0.666099 0.000000
O O8 0.686610 0.750755 0.133496
O O9 0.599185 0.776403 0.229644
O O10 0.780525 0.750624 0.422960
O O11 0.694313 0.000000 0.344326
O O12 0.340348 0.808043 0.802493
O O13 0.470055 0.000000 0.876837
O O14 0.500000 0.187376 0.500000
O O15 0.479239 0.222744 0.569219
O O16 0.656254 0.266957 0.678691
O O17 0.588752 0.000000 0.629323
O O18 0.134411 0.500000 0.502483
O O19 0.755851 0.500000 0.786809
#
# Coordination Sequence:
#
# PCOD8085158 Si02
#       7
#     8   8   8   8   8   8   8
#     4   8  14  25  40  58  80 107 138 170 207 247
#     4   9  17  29  45  63  83 109 139 169 204 248
#     4   9  16  26  42  63  86 110 136 170 210 250
#     4   9  17  28  42  63  88 110 134 168 210 250
#     4  10  20  31  42  59  85 116 147 176 204 237
#     4   9  17  28  41  58  83 114 145 175 205 241
#     4  10  19  30  44  61  84 113 142 172 204 242
#
# _framework density 15.921576999999999
#
# number of rings (size 3 to 8) (size 9 to 14) (size 15 to 20)
#    0.000    2.857    0.000    1.714    0.000    3.714 
#    0.000    0.000    0.000    0.000    0.000    1.000 
#    0.000    0.000    0.000    0.000    0.000    0.000 
#
# Total GULP energy -346958.763093 kJ/mol
# GULP energy per Si atom -12391.384396 kJ/mol
# Density = 1.588534 g / cm^3
# Si number density = 15.921577 Si / 1000 Ang^3
#
#
#
# Elastic Constant Matrix: (Units=GPa)
#
#
# Indices 1 2 3 4 5 6 
#
# 1 79.6446 31.4621 39.5955 0.0000 -20.3798 0.0000
# 2 31.4621 71.9051 50.4487 -0.0001 -7.8707 0.0002
# 3 39.5955 50.4487 98.9233 -0.0001 -21.4472 0.0000
# 4 0.0000 -0.0001 -0.0001 28.7783 -0.0001 1.3107
# 5 -20.3798 -7.8707 -21.4472 -0.0001 25.0018 0.0000
# 6 0.0000 0.0002 0.0000 1.3107 0.0000 14.3587
#
#
#
# Elastic Compliance Matrix: (Units=1/GPa)
#
#
# Indices 1 2 3 4 5 6 
#
# 1 0.018784 -0.005361 -0.002249 0.000000 0.011694 0.000000
# 2 -0.005361 0.023404 -0.011228 0.000000 -0.006634 0.000000
# 3 -0.002249 -0.011228 0.019129 0.000000 0.011041 0.000000
# 4 0.000000 0.000000 0.000000 0.034893 0.000000 -0.003185
# 5 0.011694 -0.006634 0.011041 0.000000 0.056913 0.000000
# 6 0.000000 0.000000 0.000000 -0.003185 0.000000 0.069935
#
#
# Mechanical properties :
#
#
# Convention : Reuss Voigt Hill
#
# Bulk Modulus (GPa) = 42.29940 54.83172 48.56556
# Shear Modulus (GPa) = 18.61393 22.22554 20.41974
#
# Velocity S-wave (km/s) = 3.42292 3.74028 3.58511
# Velocity P-wave (km/s) = 6.49976 7.29152 6.90700
#
# Compressibility (1/GPa) = 0.02364099
#
# Stress axis : x y z
#
# Youngs Moduli (GPa) = 53.23634 42.72684 52.27627
#
# Poissons Ratio (x) = 0.22905 0.11758
# Poissons Ratio (y) = 0.28539 0.58697
# Poissons Ratio (z) = 0.11974 0.47975
#
# Static dielectric constant tensor:
#      x y z
#    x 3.322930 0.000000 -0.414990 
#    y 0.000000 3.065000 0.000000 
#    z -0.414990 0.000000 2.948030 
# 
# 
# High freq. dielectric constant tensor:
#      x y z
#    x 1.593080 0.000000 -0.027910 
#    y 0.000000 1.618410 0.000000 
#    z -0.027910 0.000000 1.594000 
# 
# From -- ./inp_files/384435.got.cif
#   From: 2010.06.25/outbox.cif.g09.slc.cpg/sg12_193_cif.got.tgz:384435.got - 2010.06.28 00:19:55.
