data_PCOD8085705
_publ_section_title
;
Structure prediction by ZEFSAII (Michael W. Deem and Ramdas Pophale) SiO2 
 PCOD8085705
Probable space group: C 2/M
;
_chemical_formula_sum "Si O2"
_cell_formula_units_Z 60
_cell_length_a 14.350911
_cell_length_b 13.732050
_cell_length_c 20.555626
_cell_angle_alpha 90.000000
_cell_angle_beta 52.108097
_cell_angle_gamma 90.000000
_cell_volume 3196.808418
_symmetry_space_group_name_H-M "C 2/M"
_symmetry_group_IT_number 12
_symmetry_cell_setting 'monoclinic'
loop_
_space_group_symop_operation_xyz
x,y,z
-x,y,-z
-x,-y,-z
x,-y,z
1/2+x,1/2+y,z
1/2-x,1/2+y,-z
1/2-x,1/2-y,-z
1/2+x,1/2-y,z
loop_
_atom_site_type_symbol
_atom_site_label
_atom_site_fract_x
_atom_site_fract_y
_atom_site_fract_z
Si Si1 0.018084 0.195637 0.395310
Si Si2 0.752039 0.745368 0.076485
Si Si3 0.157111 0.883903 0.221363
Si Si4 0.930695 0.610251 0.383057
Si Si5 0.099385 0.391364 0.830884
Si Si6 0.500000 0.825082 0.000000
Si Si7 0.175087 0.112294 0.436512
Si Si8 0.074386 0.390944 0.196094
O O1 0.048456 0.163465 0.308004
O O2 0.130196 0.179926 0.395639
O O3 0.969852 0.307700 0.418594
O O4 0.911200 0.127224 0.465089
O O5 0.672521 0.656150 0.140744
O O6 0.700197 0.841928 0.131417
O O7 0.750000 0.750000 0.000000
O O8 0.887225 0.743417 0.039963
O O9 0.273210 0.844806 0.210020
O O10 0.145049 0.000000 0.223063
O O11 0.919893 0.500000 0.417802
O O12 0.807886 0.640123 0.400717
O O13 0.037585 0.611287 0.286378
O O14 0.126270 0.500000 0.795591
O O15 0.027362 0.337570 0.804174
O O16 0.017695 0.393540 0.930101
O O17 0.170084 0.000000 0.415847
O O18 0.089276 0.500000 0.163406
#
# Coordination Sequence:
#
# PCOD8085705 Si02
#       8
#     8   8   8   8   8   4   8   8
#     4  11  19  35  59  87 117 151 185 228 281 337
#     4  11  21  35  51  78 105 140 177 223 277 331
#     4  10  20  33  54  83 111 138 176 231 286 329
#     4  10  21  37  57  84 114 150 194 232 270 329
#     4   9  17  29  49  76 100 128 169 224 278 321
#     4  10  19  30  49  70 104 126 170 220 276 324
#     4  10  21  36  59  90 119 149 187 230 280 336
#     4  10  19  34  54  75 102 142 184 222 264 323
#
# _framework density 18.768719999999998
#
# number of rings (size 3 to 8) (size 9 to 14) (size 15 to 20)
#    0.000    1.867    2.667    3.000    0.000    3.200 
#    0.000    1.667    0.000    2.400    0.000    0.000 
#    0.000    0.000    0.000    0.000    0.000    0.000 
#
# Total GULP energy -371718.326806 kJ/mol
# GULP energy per Si atom -12390.610894 kJ/mol
# Density = 1.872600 g / cm^3
# Si number density = 18.768720 Si / 1000 Ang^3
#
#
#
# Elastic Constant Matrix: (Units=GPa)
#
#
# Indices 1 2 3 4 5 6 
#
# 1 74.1756 52.2944 22.9665 0.0000 -2.7436 0.0000
# 2 52.2944 98.7647 24.6144 0.0000 -1.7874 0.0000
# 3 22.9665 24.6144 102.8859 0.0000 -5.2848 0.0000
# 4 0.0000 0.0000 0.0000 28.2038 0.0000 0.1319
# 5 -2.7436 -1.7874 -5.2848 0.0000 24.7628 0.0000
# 6 0.0000 0.0000 0.0000 0.1319 0.0000 29.5703
#
#
#
# Elastic Compliance Matrix: (Units=1/GPa)
#
#
# Indices 1 2 3 4 5 6 
#
# 1 0.022028 -0.011093 -0.002203 0.000000 0.001170 0.000000
# 2 -0.011093 0.016355 -0.001455 0.000000 -0.000359 0.000000
# 3 -0.002203 -0.001455 0.010658 0.000000 0.001926 0.000000
# 4 0.000000 0.000000 0.000000 0.035457 0.000000 -0.000158
# 5 0.001170 -0.000359 0.001926 0.000000 0.040898 0.000000
# 6 0.000000 0.000000 0.000000 -0.000158 0.000000 0.033818
#
#
# Mechanical properties :
#
#
# Convention : Reuss Voigt Hill
#
# Bulk Modulus (GPa) = 51.18100 52.84189 52.01145
# Shear Modulus (GPa) = 25.61097 28.23743 26.92420
#
# Velocity S-wave (km/s) = 3.69800 3.88299 3.79162
# Velocity P-wave (km/s) = 6.74997 6.95117 6.85131
#
# Compressibility (1/GPa) = 0.01953850
#
# Stress axis : x y z
#
# Youngs Moduli (GPa) = 45.39756 61.14414 93.82382
#
# Poissons Ratio (x) = 0.67828 0.20670
# Poissons Ratio (y) = 0.50360 0.13651
# Poissons Ratio (z) = 0.10001 0.08896
#
# Static dielectric constant tensor:
#      x y z
#    x 3.450060 0.000000 -0.042950 
#    y 0.000000 3.407250 0.000000 
#    z -0.042950 0.000000 3.645340 
# 
# 
# High freq. dielectric constant tensor:
#      x y z
#    x 1.708860 0.000000 -0.008340 
#    y 0.000000 1.707630 0.000000 
#    z -0.008340 0.000000 1.744930 
# 
# From -- ./inp_files/310574.got.cif
#   From: 2010.06.25/outbox.cif.g09.slc.cpg/sg12_156_cif.got.tgz:310574.got - 2010.06.28 00:19:55.
