data_PCOD8085830
_publ_section_title
;
Structure prediction by ZEFSAII (Michael W. Deem and Ramdas Pophale) SiO2 
 PCOD8085830
Probable space group: C 2/M
;
_chemical_formula_sum "Si O2"
_cell_formula_units_Z 40
_cell_length_a 25.001792
_cell_length_b 8.789914
_cell_length_c 24.867927
_cell_angle_alpha 90.000000
_cell_angle_beta 23.828108
_cell_angle_gamma 90.000000
_cell_volume 2207.854130
_symmetry_space_group_name_H-M "C 2/M"
_symmetry_group_IT_number 12
_symmetry_cell_setting 'monoclinic'
loop_
_space_group_symop_operation_xyz
x,y,z
-x,y,-z
-x,-y,-z
x,-y,z
1/2+x,1/2+y,z
1/2-x,1/2+y,-z
1/2-x,1/2-y,-z
1/2+x,1/2-y,z
loop_
_atom_site_type_symbol
_atom_site_label
_atom_site_fract_x
_atom_site_fract_y
_atom_site_fract_z
Si Si1 0.414109 0.679581 0.204116
Si Si2 0.640936 0.675338 0.137835
Si Si3 0.632132 0.819980 0.642055
Si Si4 0.183215 0.327228 0.925422
Si Si5 0.155339 0.168044 0.846643
O O1 0.407609 0.500000 0.220169
O O2 0.351157 0.767856 0.311810
O O3 0.328282 0.725514 0.230015
O O4 0.567877 0.723111 0.055977
O O5 0.621251 0.500000 0.138986
O O6 0.504808 0.764033 0.257155
O O7 0.686698 0.689082 0.157632
O O8 0.750000 0.750000 0.000000
O O9 0.750000 0.750000 0.500000
O O10 0.638176 0.000000 0.633485
O O11 0.131194 0.500000 0.972581
O O12 0.223257 0.278528 0.827795
O O13 0.217487 0.000000 0.796261
O O14 0.000000 0.160817 0.000000
#
# Coordination Sequence:
#
# PCOD8085830 Si02
#       5
#     8   8   8   8   8
#     4  10  19  33  53  77 109 145 183 226 272 327
#     4  11  22  36  56  83 114 148 185 229 277 327
#     4  12  25  40  58  81 110 148 188 229 280 334
#     4  10  19  30  50  81 112 142 180 225 274 323
#     4   8  16  29  47  74 107 143 178 219 273 325
#
# _framework density 18.117139999999999
#
# number of rings (size 3 to 8) (size 9 to 14) (size 15 to 20)
#    0.000    1.800    2.000    4.800    0.000    6.800 
#    0.000    0.000    0.000    1.200    0.000    8.400 
#    0.000    0.000    0.000    0.000    0.000    0.000 
#
# Total GULP energy -247971.039990 kJ/mol
# GULP energy per Si atom -12398.552000 kJ/mol
# Density = 1.807590 g / cm^3
# Si number density = 18.117140 Si / 1000 Ang^3
#
#
#
# Elastic Constant Matrix: (Units=GPa)
#
#
# Indices 1 2 3 4 5 6 
#
# 1 149.7604 70.6689 55.5365 0.0007 17.2285 0.0005
# 2 70.6689 141.6745 51.4330 0.0053 6.4207 -0.0049
# 3 55.5365 51.4330 94.6994 0.0039 7.4775 -0.0028
# 4 0.0007 0.0053 0.0039 26.4929 -0.0012 2.8119
# 5 17.2285 6.4207 7.4775 -0.0012 18.4732 0.0005
# 6 0.0005 -0.0049 -0.0028 2.8119 0.0005 36.3875
#
#
#
# Elastic Compliance Matrix: (Units=1/GPa)
#
#
# Indices 1 2 3 4 5 6 
#
# 1 0.010561 -0.003614 -0.003670 0.000001 -0.007108 -0.000001
# 2 -0.003614 0.010053 -0.003441 -0.000001 0.001269 0.000001
# 3 -0.003670 -0.003441 0.014685 -0.000002 -0.001326 0.000001
# 4 0.000001 -0.000001 -0.000002 0.038058 0.000003 -0.002941
# 5 -0.007108 0.001269 -0.001326 0.000003 0.060857 -0.000001
# 6 -0.000001 0.000001 0.000001 -0.002941 -0.000001 0.027709
#
#
# Mechanical properties :
#
#
# Convention : Reuss Voigt Hill
#
# Bulk Modulus (GPa) = 72.19777 82.37902 77.28840
# Shear Modulus (GPa) = 26.59739 30.17046 28.38392
#
# Velocity S-wave (km/s) = 3.83571 4.08523 3.96244
# Velocity P-wave (km/s) = 7.71712 8.23536 7.98045
#
# Compressibility (1/GPa) = 0.01385084
#
# Stress axis : x y z
#
# Youngs Moduli (GPa) = 94.68712 99.47727 68.09572
#
# Poissons Ratio (x) = 0.35947 0.24989
# Poissons Ratio (y) = 0.34216 0.23430
# Poissons Ratio (z) = 0.34747 0.34227
#
# Static dielectric constant tensor:
#      x y z
#    x 4.398500 -0.000010 0.013800 
#    y -0.000010 3.521590 0.000000 
#    z 0.013800 0.000000 2.968770 
# 
# 
# High freq. dielectric constant tensor:
#      x y z
#    x 1.724470 0.000000 0.011620 
#    y 0.000000 1.717360 0.000000 
#    z 0.011620 0.000000 1.645000 
# 
# From -- ./inp_files/101024.got.cif
#   From: 2010.06.25/outbox.cif.g09.slc.cpg/sg12_51_cif.got.tgz:101024.got - 2010.06.28 00:19:55.
