data_PCOD8085474
_publ_section_title
;
Structure prediction by ZEFSAII (Michael W. Deem and Ramdas Pophale) SiO2 
 PCOD8085474
Probable space group: C 2/M
;
_chemical_formula_sum "Si O2"
_cell_formula_units_Z 64
_cell_length_a 17.375769
_cell_length_b 13.803756
_cell_length_c 27.175479
_cell_angle_alpha 90.000000
_cell_angle_beta 147.148381
_cell_angle_gamma 90.000000
_cell_volume 3535.822529
_symmetry_space_group_name_H-M "C 2/M"
_symmetry_group_IT_number 12
_symmetry_cell_setting 'monoclinic'
loop_
_space_group_symop_operation_xyz
x,y,z
-x,y,-z
-x,-y,-z
x,-y,z
1/2+x,1/2+y,z
1/2-x,1/2+y,-z
1/2-x,1/2-y,-z
1/2+x,1/2-y,z
loop_
_atom_site_type_symbol
_atom_site_label
_atom_site_fract_x
_atom_site_fract_y
_atom_site_fract_z
Si Si1 0.304801 0.115372 0.082533
Si Si2 0.061036 0.292932 0.752009
Si Si3 0.747695 0.780866 0.757916
Si Si4 0.293385 0.892665 0.643906
Si Si5 0.917478 0.605923 0.819140
Si Si6 0.515828 0.386924 0.880920
Si Si7 0.346789 0.793368 0.402937
Si Si8 0.940470 0.887271 0.732429
O O1 0.333545 0.170942 0.148823
O O2 0.419777 0.140541 0.101415
O O3 0.306796 0.000000 0.093960
O O4 0.154102 0.155346 0.982170
O O5 0.134843 0.300608 0.739283
O O6 0.919119 0.358767 0.674920
O O7 0.019735 0.179601 0.735506
O O8 0.828614 0.677679 0.805984
O O9 0.870692 0.860630 0.830769
O O10 0.664194 0.786734 0.661767
O O11 0.355603 0.897679 0.731503
O O12 0.169645 0.811975 0.579049
O O13 0.237545 0.000000 0.597787
O O14 0.910491 0.500000 0.840361
O O15 0.532249 0.500000 0.888156
O O16 0.502588 0.349115 0.817865
O O17 0.500000 0.834949 0.500000
O O18 0.228274 0.867604 0.359304
O O19 0.970472 0.000000 0.737646
#
# Coordination Sequence:
#
# PCOD8085474 Si02
#       8
#     8   8   8   8   8   8   8   8
#     4   9  17  31  52  73  93 123 161 196 233 280
#     4  10  19  30  47  71 101 131 152 185 239 288
#     4  10  20  31  46  72 100 123 153 197 244 281
#     4   8  15  30  50  71  96 123 151 187 234 284
#     4   8  15  29  48  67  89 123 163 195 225 270
#     4   9  18  32  50  71  94 124 163 200 229 269
#     4   9  18  34  55  73  90 120 162 201 234 276
#     4   9  19  35  51  68  94 129 165 195 227 272
#
# _framework density 18.100456000000001
#
# number of rings (size 3 to 8) (size 9 to 14) (size 15 to 20)
#    0.000    3.000    0.000    3.375    0.000    4.500 
#    0.000    3.750    0.000    1.500    0.000    5.250 
#    0.000    0.000    0.000    0.000    0.000    0.000 
#
# Total GULP energy -396592.000230 kJ/mol
# GULP energy per Si atom -12393.500007 kJ/mol
# Density = 1.805926 g / cm^3
# Si number density = 18.100456 Si / 1000 Ang^3
#
#
#
# Elastic Constant Matrix: (Units=GPa)
#
#
# Indices 1 2 3 4 5 6 
#
# 1 44.8392 -4.6194 7.2172 0.0000 9.0191 0.0000
# 2 -4.6194 41.5739 2.3719 0.0001 -5.1445 0.0000
# 3 7.2172 2.3719 91.5357 0.0006 8.2633 0.0001
# 4 0.0000 0.0001 0.0006 17.9805 0.0001 4.3401
# 5 9.0191 -5.1445 8.2633 0.0001 11.1768 0.0000
# 6 0.0000 0.0000 0.0001 4.3401 0.0000 16.2967
#
#
#
# Elastic Compliance Matrix: (Units=1/GPa)
#
#
# Indices 1 2 3 4 5 6 
#
# 1 0.026630 0.000349 -0.000196 0.000000 -0.021184 0.000000
# 2 0.000349 0.025805 -0.001868 0.000000 0.012977 0.000000
# 3 -0.000196 -0.001868 0.011842 0.000000 -0.009457 0.000000
# 4 0.000000 0.000000 0.000000 0.059437 0.000000 -0.015829
# 5 -0.021184 0.012977 -0.009457 0.000000 0.119530 0.000000
# 6 0.000000 0.000000 0.000000 -0.015829 0.000000 0.065578
#
#
# Mechanical properties :
#
#
# Convention : Reuss Voigt Hill
#
# Bulk Modulus (GPa) = 16.43465 20.87646 18.65556
# Shear Modulus (GPa) = 15.03606 20.62274 17.82940
#
# Velocity S-wave (km/s) = 2.88531 3.37909 3.14192
# Velocity P-wave (km/s) = 4.49438 5.17523 4.84678
#
# Compressibility (1/GPa) = 0.06084704
#
# Stress axis : x y z
#
# Youngs Moduli (GPa) = 37.55105 38.75265 84.44331
#
# Poissons Ratio (x) = -0.01352 0.01658
# Poissons Ratio (y) = -0.01310 0.15771
# Poissons Ratio (z) = 0.00737 0.07238
#
# Static dielectric constant tensor:
#      x y z
#    x 2.980490 0.000000 0.165920 
#    y 0.000000 3.667110 0.000000 
#    z 0.165920 0.000000 3.302450 
# 
# 
# High freq. dielectric constant tensor:
#      x y z
#    x 1.667440 0.000000 0.020600 
#    y 0.000000 1.713140 0.000000 
#    z 0.020600 0.000000 1.683970 
# 
# From -- ./inp_files/379378.got.cif
#   From: 2010.06.25/outbox.cif.g09.slc.cpg/sg12_190_cif.got.tgz:379378.got - 2010.06.28 00:19:55.
