data_PCOD8085732
_publ_section_title
;
Structure prediction by ZEFSAII (Michael W. Deem and Ramdas Pophale) SiO2 
 PCOD8085732
Probable space group: C 2/M
;
_chemical_formula_sum "Si O2"
_cell_formula_units_Z 64
_cell_length_a 19.827728
_cell_length_b 8.729840
_cell_length_c 25.439046
_cell_angle_alpha 90.000000
_cell_angle_beta 125.785405
_cell_angle_gamma 90.000000
_cell_volume 3572.027976
_symmetry_space_group_name_H-M "C 2/M"
_symmetry_group_IT_number 12
_symmetry_cell_setting 'monoclinic'
loop_
_space_group_symop_operation_xyz
x,y,z
-x,y,-z
-x,-y,-z
x,-y,z
1/2+x,1/2+y,z
1/2-x,1/2+y,-z
1/2-x,1/2-y,-z
1/2+x,1/2-y,z
loop_
_atom_site_type_symbol
_atom_site_label
_atom_site_fract_x
_atom_site_fract_y
_atom_site_fract_z
Si Si1 0.832667 0.322873 0.210270
Si Si2 0.231127 0.823190 0.546770
Si Si3 0.022879 0.818597 0.792349
Si Si4 0.407244 0.180627 0.446216
Si Si5 0.236718 0.821341 0.066778
Si Si6 0.651008 0.824531 0.304567
Si Si7 0.119635 0.824506 0.930818
Si Si8 0.691382 0.320653 0.689271
O O1 0.844039 0.500000 0.230820
O O2 0.751092 0.300668 0.135624
O O3 0.814885 0.223842 0.253212
O O4 0.917098 0.266758 0.221276
O O5 0.250000 0.750000 0.500000
O O6 0.150464 0.745623 0.534426
O O7 0.310742 0.799639 0.620358
O O8 0.210400 0.000000 0.529844
O O9 0.928101 0.783848 0.736353
O O10 0.043243 0.754454 0.861573
O O11 0.038642 0.000000 0.794586
O O12 0.500000 0.238429 0.500000
O O13 0.380537 0.237835 0.376477
O O14 0.400968 0.000000 0.444493
O O15 0.298881 0.706328 0.066546
O O16 0.254423 0.000000 0.059527
O O17 0.143494 0.773456 0.002092
O O18 0.718188 0.773204 0.291550
O O19 0.623862 0.000000 0.283749
O O20 0.097597 0.000000 0.923440
O O21 0.678018 0.500000 0.675508
#
# Coordination Sequence:
#
# PCOD8085732 Si02
#       8
#     8   8   8   8   8   8   8   8
#     4  10  19  31  50  75 102 132 167 207 250 296
#     4  10  21  37  57  79 103 133 168 207 249 293
#     4  10  19  30  49  76 102 130 166 208 250 294
#     4  10  21  37  57  80 105 132 163 202 248 298
#     4   8  14  25  42  65  94 127 160 198 246 294
#     4   9  20  37  53  71  99 133 166 203 248 295
#     4   8  14  25  41  65  96 125 158 201 246 291
#     4  10  21  37  55  74 100 134 169 206 248 294
#
# _framework density 17.916993999999999
#
# number of rings (size 3 to 8) (size 9 to 14) (size 15 to 20)
#    0.000    2.625    0.000    2.625    0.000    6.000 
#    0.000    1.250    0.000    0.750    0.000    5.250 
#    0.000    0.000    0.000    0.000    0.000    0.000 
#
# Total GULP energy -396420.317051 kJ/mol
# GULP energy per Si atom -12388.134908 kJ/mol
# Density = 1.787621 g / cm^3
# Si number density = 17.916994 Si / 1000 Ang^3
#
#
#
# Elastic Constant Matrix: (Units=GPa)
#
#
# Indices 1 2 3 4 5 6 
#
# 1 63.2460 16.3240 60.2941 0.0000 -4.1048 0.0000
# 2 16.3240 32.4169 23.1533 0.0000 2.4457 0.0000
# 3 60.2941 23.1533 124.9235 0.0000 -4.8444 0.0000
# 4 0.0000 0.0000 0.0000 23.6758 0.0000 -1.9881
# 5 -4.1048 2.4457 -4.8444 0.0000 18.8227 0.0000
# 6 0.0000 0.0000 0.0000 -1.9881 0.0000 27.2490
#
#
#
# Elastic Compliance Matrix: (Units=1/GPa)
#
#
# Indices 1 2 3 4 5 6 
#
# 1 0.030402 -0.006037 -0.013401 0.000000 0.003966 0.000000
# 2 -0.006037 0.037529 -0.004325 0.000000 -0.007306 0.000000
# 3 -0.013401 -0.004325 0.015336 0.000000 0.001586 0.000000
# 4 0.000000 0.000000 0.000000 0.042498 0.000000 0.003101
# 5 0.003966 -0.007306 0.001586 0.000000 0.055350 0.000000
# 6 0.000000 0.000000 0.000000 0.003101 0.000000 0.036925
#
#
# Mechanical properties :
#
#
# Convention : Reuss Voigt Hill
#
# Bulk Modulus (GPa) = 27.97947 46.68102 37.33025
# Shear Modulus (GPa) = 18.01941 22.00384 20.01163
#
# Velocity S-wave (km/s) = 3.17474 3.50823 3.34564
# Velocity P-wave (km/s) = 5.39340 6.52080 5.98371
#
# Compressibility (1/GPa) = 0.03574049
#
# Stress axis : x y z
#
# Youngs Moduli (GPa) = 32.89228 26.64639 65.20646
#
# Poissons Ratio (x) = 0.16087 0.87382
# Poissons Ratio (y) = 0.19858 0.28202
# Poissons Ratio (z) = 0.44078 0.11524
#
# Static dielectric constant tensor:
#      x y z
#    x 2.984190 0.000000 0.006680 
#    y 0.000000 3.341160 0.000000 
#    z 0.006680 0.000000 3.808950 
# 
# 
# High freq. dielectric constant tensor:
#      x y z
#    x 1.650360 0.000000 0.000860 
#    y 0.000000 1.699680 0.000000 
#    z 0.000860 0.000000 1.718390 
# 
# From -- ./inp_files/346255.got.cif
#   From: 2010.06.25/outbox.cif.g09.slc.cpg/sg12_174_cif.got.tgz:346255.got - 2010.06.28 00:19:55.
