data_PCOD8085957
_publ_section_title
;
Structure prediction by ZEFSAII (Michael W. Deem and Ramdas Pophale) SiO2 
 PCOD8085957
Probable space group: C 2/M
;
_chemical_formula_sum "Si O2"
_cell_formula_units_Z 64
_cell_length_a 28.515217
_cell_length_b 9.398602
_cell_length_c 14.255832
_cell_angle_alpha 90.000000
_cell_angle_beta 87.625799
_cell_angle_gamma 90.000000
_cell_volume 3817.328576
_symmetry_space_group_name_H-M "C 2/M"
_symmetry_group_IT_number 12
_symmetry_cell_setting 'monoclinic'
loop_
_space_group_symop_operation_xyz
x,y,z
-x,y,-z
-x,-y,-z
x,-y,z
1/2+x,1/2+y,z
1/2-x,1/2+y,-z
1/2-x,1/2-y,-z
1/2+x,1/2-y,z
loop_
_atom_site_type_symbol
_atom_site_label
_atom_site_fract_x
_atom_site_fract_y
_atom_site_fract_z
Si Si1 0.865528 0.665049 0.123245
Si Si2 0.094809 0.166516 0.050675
Si Si3 0.331181 0.336552 0.794811
Si Si4 0.029728 0.663683 0.181697
Si Si5 0.434432 0.166025 0.276371
Si Si6 0.894108 0.337514 0.664236
Si Si7 0.448080 0.169845 0.481456
Si Si8 0.740024 0.834414 0.906798
O O1 0.873102 0.500000 0.094735
O O2 0.886332 0.697194 0.224805
O O3 0.810761 0.704715 0.130257
O O4 0.893240 0.763167 0.048974
O O5 0.138044 0.197642 0.116152
O O6 0.048017 0.239620 0.094928
O O7 0.085572 0.000000 0.037485
O O8 0.335448 0.500000 0.765792
O O9 0.348731 0.247874 0.704005
O O10 0.277850 0.293116 0.823965
O O11 0.027785 0.500000 0.147678
O O12 0.062636 0.679849 0.269018
O O13 0.978796 0.725462 0.214199
O O14 0.431706 0.230826 0.381514
O O15 0.444140 0.000000 0.287872
O O16 0.878073 0.500000 0.657144
O O17 0.911063 0.275645 0.562573
O O18 0.500000 0.228735 0.500000
O O19 0.448869 0.000000 0.485010
O O20 0.744491 0.000000 0.931985
O O21 0.750000 0.750000 0.000000
#
# Coordination Sequence:
#
# PCOD8085957 Si02
#       8
#     8   8   8   8   8   8   8   8
#     4  10  20  32  48  70  94 122 158 196 235 280
#     4  10  19  31  46  65  94 129 161 191 228 274
#     4   9  18  31  46  66  93 122 151 189 236 277
#     4   9  16  28  46  68  95 124 157 191 226 272
#     4   9  17  29  46  70  98 125 153 193 240 277
#     4   9  16  26  47  75  94 116 152 191 228 268
#     4   9  14  25  47  74  98 119 149 193 236 270
#     4  10  19  32  50  70  91 120 158 197 236 277
#
# _framework density 16.765650999999998
#
# number of rings (size 3 to 8) (size 9 to 14) (size 15 to 20)
#    0.000    2.625    2.500    0.375    0.000    1.500 
#    0.000    3.125    0.000    2.625    0.000    0.000 
#    0.000    0.000    0.000    0.000    0.000    0.000 
#
# Total GULP energy -396748.671062 kJ/mol
# GULP energy per Si atom -12398.395971 kJ/mol
# Density = 1.672749 g / cm^3
# Si number density = 16.765651 Si / 1000 Ang^3
#
#
#
# Elastic Constant Matrix: (Units=GPa)
#
#
# Indices 1 2 3 4 5 6 
#
# 1 108.6496 33.7589 70.0748 0.0000 -11.2432 0.0000
# 2 33.7589 48.3872 45.7682 0.0000 -6.4940 0.0000
# 3 70.0748 45.7682 127.7073 0.0000 -15.2668 0.0000
# 4 0.0000 0.0000 0.0000 16.1846 0.0000 -5.2358
# 5 -11.2432 -6.4940 -15.2668 0.0000 23.8642 0.0000
# 6 0.0000 0.0000 0.0000 -5.2358 0.0000 17.4731
#
#
#
# Elastic Compliance Matrix: (Units=1/GPa)
#
#
# Indices 1 2 3 4 5 6 
#
# 1 0.014802 -0.003945 -0.006500 0.000000 0.001742 0.000000
# 2 -0.003945 0.032363 -0.009315 0.000000 0.000989 0.000000
# 3 -0.006500 -0.009315 0.015231 0.000000 0.004147 0.000000
# 4 0.000000 0.000000 0.000000 0.068419 0.000000 0.020502
# 5 0.001742 0.000989 0.004147 0.000000 0.045646 0.000000
# 6 0.000000 0.000000 0.000000 0.020502 0.000000 0.063374
#
#
# Mechanical properties :
#
#
# Convention : Reuss Voigt Hill
#
# Bulk Modulus (GPa) = 43.71553 64.88313 54.29933
# Shear Modulus (GPa) = 17.42265 20.51386 18.96826
#
# Velocity S-wave (km/s) = 3.22714 3.50174 3.36724
# Velocity P-wave (km/s) = 6.32590 7.42520 6.89749
#
# Compressibility (1/GPa) = 0.02287517
#
# Stress axis : x y z
#
# Youngs Moduli (GPa) = 67.55707 30.89946 65.65432
#
# Poissons Ratio (x) = 0.12191 0.42676
# Poissons Ratio (y) = 0.26653 0.61159
# Poissons Ratio (z) = 0.43913 0.28784
#
# Static dielectric constant tensor:
#      x y z
#    x 3.177430 0.000000 -0.159150 
#    y 0.000000 2.938400 0.000000 
#    z -0.159150 0.000000 3.203360 
# 
# 
# High freq. dielectric constant tensor:
#      x y z
#    x 1.636970 0.000000 -0.015050 
#    y 0.000000 1.617560 0.000000 
#    z -0.015050 0.000000 1.639360 
# 
# From -- ./inp_files/243981.got.cif
#   From: 2010.06.25/outbox.cif.g09.slc.cpg/sg12_122_cif.got.tgz:243981.got - 2010.06.28 00:19:55.
