data_PCOD8085303
_publ_section_title
;
Structure prediction by ZEFSAII (Michael W. Deem and Ramdas Pophale) SiO2 
 PCOD8085303
Probable space group: C 2/M
;
_chemical_formula_sum "Si O2"
_cell_formula_units_Z 48
_cell_length_a 5.013716
_cell_length_b 17.989359
_cell_length_c 30.227171
_cell_angle_alpha 90.000000
_cell_angle_beta 80.392305
_cell_angle_gamma 90.000000
_cell_volume 2688.055440
_symmetry_space_group_name_H-M "C 2/M"
_symmetry_group_IT_number 12
_symmetry_cell_setting 'monoclinic'
loop_
_space_group_symop_operation_xyz
x,y,z
-x,y,-z
-x,-y,-z
x,-y,z
1/2+x,1/2+y,z
1/2-x,1/2+y,-z
1/2-x,1/2-y,-z
1/2+x,1/2-y,z
loop_
_atom_site_type_symbol
_atom_site_label
_atom_site_fract_x
_atom_site_fract_y
_atom_site_fract_z
Si Si1 0.057830 0.914227 0.372929
Si Si2 0.783911 0.199027 0.235925
Si Si3 0.212727 0.201776 0.861006
Si Si4 0.981692 0.799727 0.953470
Si Si5 0.886197 0.585981 0.685289
Si Si6 0.075981 0.798509 0.448835
O O1 0.788994 0.895873 0.353161
O O2 0.053545 0.869116 0.418182
O O3 0.308216 0.891900 0.334816
O O4 0.077740 0.000000 0.386188
O O5 0.068491 0.234034 0.242443
O O6 0.802163 0.161178 0.186303
O O7 0.709506 0.133523 0.270796
O O8 0.021162 0.275176 0.862166
O O9 0.593981 0.344767 0.906828
O O10 0.676444 0.772966 0.953458
O O11 0.000000 0.844899 0.000000
O O12 0.856958 0.500000 0.699614
O O13 0.879553 0.732395 0.438671
O O14 0.000000 0.826029 0.500000
#
# Coordination Sequence:
#
# PCOD8085303 Si02
#       6
#     8   8   8   8   8   8
#     4  10  21  36  53  72  95 124 155 187 223 264
#     4  10  19  30  46  67  89 117 152 186 224 269
#     4   8  14  23  34  52  78 104 135 176 214 254
#     4   8  12  18  29  45  68 100 132 163 207 257
#     4  10  21  35  49  69  96 122 152 190 227 264
#     4  10  21  36  54  77 102 125 151 186 225 264
#
# _framework density 17.856773
#
# number of rings (size 3 to 8) (size 9 to 14) (size 15 to 20)
#    0.000    2.667    0.000    2.000    0.000    4.333 
#    0.000    0.000    0.000    6.000    0.000    0.000 
#    0.000    0.667    0.000    0.000    0.000  169.333 
#
# Total GULP energy -297376.832788 kJ/mol
# GULP energy per Si atom -12390.701366 kJ/mol
# Density = 1.781613 g / cm^3
# Si number density = 17.856773 Si / 1000 Ang^3
#
#
#
# Elastic Constant Matrix: (Units=GPa)
#
#
# Indices 1 2 3 4 5 6 
#
# 1 63.1120 6.0234 4.6490 0.0000 1.2642 0.0000
# 2 6.0234 39.9321 55.4871 0.0000 -5.2840 0.0000
# 3 4.6490 55.4871 137.2114 0.0000 -9.3317 0.0000
# 4 0.0000 0.0000 0.0000 1.1523 0.0000 0.7546
# 5 1.2642 -5.2840 -9.3317 0.0000 21.8151 0.0000
# 6 0.0000 0.0000 0.0000 0.7546 0.0000 11.6072
#
#
#
# Elastic Compliance Matrix: (Units=1/GPa)
#
#
# Indices 1 2 3 4 5 6 
#
# 1 0.016183 -0.003962 0.000952 0.000000 -0.001490 0.000000
# 2 -0.003962 0.058488 -0.023214 0.000000 0.004466 0.000000
# 3 0.000952 -0.023214 0.016744 0.000000 0.001485 0.000000
# 4 0.000000 0.000000 0.000000 0.906425 0.000000 -0.058927
# 5 -0.001490 0.004466 0.001485 0.000000 0.047643 0.000000
# 6 0.000000 0.000000 0.000000 -0.058927 0.000000 0.089984
#
#
# Mechanical properties :
#
#
# Convention : Reuss Voigt Hill
#
# Bulk Modulus (GPa) = 25.66185 41.39719 33.52952
# Shear Modulus (GPa) = 4.16354 18.52131 11.34242
#
# Velocity S-wave (km/s) = 1.52862 3.22408 2.52303
# Velocity P-wave (km/s) = 4.18542 6.09039 5.22544
#
# Compressibility (1/GPa) = 0.03896836
#
# Stress axis : x y z
#
# Youngs Moduli (GPa) = 61.79464 17.09759 59.72198
#
# Poissons Ratio (x) = 0.06773 -0.05688
# Poissons Ratio (y) = 0.24480 1.38639
# Poissons Ratio (z) = -0.05885 0.39690
#
# Static dielectric constant tensor:
#      x y z
#    x 3.609330 0.000000 -0.022510 
#    y 0.000000 2.677360 0.000000 
#    z -0.022510 0.000000 3.776930 
# 
# 
# High freq. dielectric constant tensor:
#      x y z
#    x 1.719730 0.000000 0.000440 
#    y 0.000000 1.607550 0.000000 
#    z 0.000440 0.000000 1.719860 
# 
# From -- ./inp_files/354851.got.cif
#   From: 2010.06.25/outbox.cif.g09.slc.cpg/sg12_178_cif.got.tgz:354851.got - 2010.06.28 00:19:55.
