data_PCOD8085335
_publ_section_title
;
Structure prediction by ZEFSAII (Michael W. Deem and Ramdas Pophale) SiO2 
 PCOD8085335
Probable space group: C 2/M
;
_chemical_formula_sum "Si O2"
_cell_formula_units_Z 56
_cell_length_a 28.090896
_cell_length_b 9.424744
_cell_length_c 16.257591
_cell_angle_alpha 90.000000
_cell_angle_beta 48.202999
_cell_angle_gamma 90.000000
_cell_volume 3208.819866
_symmetry_space_group_name_H-M "C 2/M"
_symmetry_group_IT_number 12
_symmetry_cell_setting 'monoclinic'
loop_
_space_group_symop_operation_xyz
x,y,z
-x,y,-z
-x,-y,-z
x,-y,z
1/2+x,1/2+y,z
1/2-x,1/2+y,-z
1/2-x,1/2-y,-z
1/2+x,1/2-y,z
loop_
_atom_site_type_symbol
_atom_site_label
_atom_site_fract_x
_atom_site_fract_y
_atom_site_fract_z
Si Si1 0.468560 0.169430 0.617325
Si Si2 0.333870 0.832122 0.825586
Si Si3 0.278646 0.333410 0.158147
Si Si4 0.347079 0.166274 0.379895
Si Si5 0.013947 0.331862 0.737688
Si Si6 0.622708 0.832460 0.046332
Si Si7 0.757670 0.163634 0.369036
O O1 0.500000 0.236298 0.500000
O O2 0.395654 0.222440 0.704751
O O3 0.506030 0.226716 0.654157
O O4 0.471393 0.000000 0.612150
O O5 0.271606 0.772174 0.851127
O O6 0.332255 0.000000 0.823632
O O7 0.340155 0.784195 0.913203
O O8 0.290971 0.500000 0.132890
O O9 0.345167 0.251097 0.066369
O O10 0.251412 0.299324 0.280036
O O11 0.419396 0.226557 0.303032
O O12 0.309205 0.198799 0.508511
O O13 0.314666 0.244422 0.341014
O O14 0.346738 0.000000 0.360869
O O15 0.017088 0.500000 0.729935
O O16 0.952099 0.287450 0.863005
O O17 0.629094 0.000000 0.024584
O O18 0.775876 0.000000 0.361067
#
# Coordination Sequence:
#
# PCOD8085335 Si02
#       7
#     8   8   8   8   8   8   8
#     4   8  13  20  36  65  96 118 142 180 225 271
#     4   8  15  26  41  64  94 124 150 181 222 266
#     4  10  19  30  46  68  95 123 154 188 224 266
#     4   9  17  32  52  69  90 119 150 186 233 280
#     4   8  15  27  45  67  90 118 150 186 228 269
#     4   9  17  31  47  67  95 123 153 187 221 266
#     4   9  19  32  47  70  95 117 148 192 231 269
#
# _framework density 17.451899000000001
#
# number of rings (size 3 to 8) (size 9 to 14) (size 15 to 20)
#    0.000    3.286    0.000    2.143    2.000    0.571 
#    0.000    1.429    0.000    4.286    0.000    0.000 
#    0.000    4.000    0.000    0.000    0.000    0.000 
#
# Total GULP energy -347006.968595 kJ/mol
# GULP energy per Si atom -12393.106021 kJ/mol
# Density = 1.741218 g / cm^3
# Si number density = 17.451899 Si / 1000 Ang^3
#
#
#
# Elastic Constant Matrix: (Units=GPa)
#
#
# Indices 1 2 3 4 5 6 
#
# 1 96.9522 26.4728 45.4740 0.0000 -22.1502 0.0000
# 2 26.4728 24.7915 28.6103 -0.0005 -2.7053 0.0001
# 3 45.4740 28.6103 96.4035 -0.0001 -9.8918 0.0000
# 4 0.0000 -0.0005 -0.0001 21.9816 0.0000 -0.1163
# 5 -22.1502 -2.7053 -9.8918 0.0000 25.4391 0.0000
# 6 0.0000 0.0001 0.0000 -0.1163 0.0000 18.0174
#
#
#
# Elastic Compliance Matrix: (Units=1/GPa)
#
#
# Indices 1 2 3 4 5 6 
#
# 1 0.019088 -0.015391 -0.003019 0.000000 0.013810 0.000000
# 2 -0.015391 0.073766 -0.015834 0.000002 -0.011714 0.000000
# 3 -0.003019 -0.015834 0.016721 0.000000 0.002189 0.000000
# 4 0.000000 0.000002 0.000000 0.045494 0.000000 0.000294
# 5 0.013810 -0.011714 0.002189 0.000000 0.050939 0.000000
# 6 0.000000 0.000000 0.000000 0.000294 0.000000 0.055504
#
#
# Mechanical properties :
#
#
# Convention : Reuss Voigt Hill
#
# Bulk Modulus (GPa) = 24.33894 46.58461 35.46178
# Shear Modulus (GPa) = 14.54771 20.92695 17.73733
#
# Velocity S-wave (km/s) = 2.89033 3.46659 3.19149
# Velocity P-wave (km/s) = 5.01151 6.54019 5.82620
#
# Compressibility (1/GPa) = 0.04108642
#
# Stress axis : x y z
#
# Youngs Moduli (GPa) = 52.38875 13.55635 59.80514
#
# Poissons Ratio (x) = 0.20865 0.18056
# Poissons Ratio (y) = 0.80634 0.94695
# Poissons Ratio (z) = 0.15817 0.21465
#
# Static dielectric constant tensor:
#      x y z
#    x 3.411190 0.000000 -0.148130 
#    y 0.000000 2.754800 0.000000 
#    z -0.148130 0.000000 3.396330 
# 
# 
# High freq. dielectric constant tensor:
#      x y z
#    x 1.666930 0.000000 -0.007620 
#    y 0.000000 1.622580 0.000000 
#    z -0.007620 0.000000 1.682450 
# 
# From -- ./inp_files/245628.got.cif
#   From: 2010.06.25/outbox.cif.g09.slc.cpg/sg12_123_cif.got.tgz:245628.got - 2010.06.28 00:19:55.
