data_PCOD8085432
_publ_section_title
;
Structure prediction by ZEFSAII (Michael W. Deem and Ramdas Pophale) SiO2 
 PCOD8085432
Probable space group: C 2/M
;
_chemical_formula_sum "Si O2"
_cell_formula_units_Z 56
_cell_length_a 13.816664
_cell_length_b 23.078775
_cell_length_c 10.611582
_cell_angle_alpha 90.000000
_cell_angle_beta 77.252426
_cell_angle_gamma 90.000000
_cell_volume 3300.329590
_symmetry_space_group_name_H-M "C 2/M"
_symmetry_group_IT_number 12
_symmetry_cell_setting 'monoclinic'
loop_
_space_group_symop_operation_xyz
x,y,z
-x,y,-z
-x,-y,-z
x,-y,z
1/2+x,1/2+y,z
1/2-x,1/2+y,-z
1/2-x,1/2-y,-z
1/2+x,1/2-y,z
loop_
_atom_site_type_symbol
_atom_site_label
_atom_site_fract_x
_atom_site_fract_y
_atom_site_fract_z
Si Si1 0.036062 0.064979 0.687848
Si Si2 0.888747 0.730504 0.567901
Si Si3 0.173213 0.727036 0.883488
Si Si4 0.551668 0.331410 0.858606
Si Si5 0.780858 0.674347 0.377996
Si Si6 0.157640 0.064759 0.398836
Si Si7 0.610629 0.756352 0.158498
O O1 0.078969 0.111779 0.772452
O O2 0.101563 0.070241 0.545841
O O3 0.920870 0.078582 0.689832
O O4 0.045335 0.000000 0.741662
O O5 0.847246 0.681835 0.484606
O O6 0.818912 0.787162 0.582347
O O7 0.887766 0.705906 0.712767
O O8 0.000000 0.749179 0.500000
O O9 0.150992 0.794980 0.860192
O O10 0.150681 0.690440 0.763205
O O11 0.288654 0.718790 0.882137
O O12 0.106615 0.707727 0.025921
O O13 0.480191 0.287899 0.802465
O O14 0.500000 0.353474 0.000000
O O15 0.750546 0.607851 0.369724
O O16 0.200281 0.000000 0.369136
#
# Coordination Sequence:
#
# PCOD8085432 Si02
#       7
#     8   8   8   8   8   8   8
#     4   9  18  30  46  67  93 126 161 194 228 275
#     4  10  20  29  44  75 100 120 154 198 235 282
#     4   9  18  31  43  66  93 122 162 183 233 287
#     4  10  19  30  47  66  97 133 155 189 231 276
#     4  10  20  29  49  72  91 127 157 198 235 280
#     4   9  19  32  47  67  92 123 159 197 237 277
#     4   9  18  30  43  62  95 129 149 186 232 281
#
# _framework density 16.968003
#
# number of rings (size 3 to 8) (size 9 to 14) (size 15 to 20)
#    0.000    2.571    0.000    3.429   10.000    0.286 
#    0.000    0.000    0.000    0.429    0.000    0.000 
#    0.000   10.857    0.000    0.000    0.000    0.000 
#
# Total GULP energy -346928.591442 kJ/mol
# GULP energy per Si atom -12390.306837 kJ/mol
# Density = 1.692938 g / cm^3
# Si number density = 16.968003 Si / 1000 Ang^3
#
#
#
# Elastic Constant Matrix: (Units=GPa)
#
#
# Indices 1 2 3 4 5 6 
#
# 1 54.1467 20.9793 25.5010 0.0000 8.1538 0.0000
# 2 20.9793 77.7393 39.2035 0.0000 7.2126 0.0000
# 3 25.5010 39.2035 121.3278 0.0000 16.0401 0.0000
# 4 0.0000 0.0000 0.0000 19.6739 0.0000 -0.7908
# 5 8.1538 7.2126 16.0401 0.0000 22.9750 0.0000
# 6 0.0000 0.0000 0.0000 -0.7908 0.0000 24.9680
#
#
#
# Elastic Compliance Matrix: (Units=1/GPa)
#
#
# Indices 1 2 3 4 5 6 
#
# 1 0.022042 -0.004170 -0.002671 0.000000 -0.004649 0.000000
# 2 -0.004170 0.016203 -0.004277 0.000000 -0.000621 0.000000
# 3 -0.002671 -0.004277 0.010888 0.000000 -0.005311 0.000000
# 4 0.000000 0.000000 0.000000 0.050894 0.000000 0.001612
# 5 -0.004649 -0.000621 -0.005311 0.000000 0.049078 0.000000
# 6 0.000000 0.000000 0.000000 0.001612 0.000000 0.040102
#
#
# Mechanical properties :
#
#
# Convention : Reuss Voigt Hill
#
# Bulk Modulus (GPa) = 37.17909 47.17573 42.17741
# Shear Modulus (GPa) = 22.68514 24.69206 23.68860
#
# Velocity S-wave (km/s) = 3.66038 3.81886 3.74046
# Velocity P-wave (km/s) = 6.31058 6.87809 6.60043
#
# Compressibility (1/GPa) = 0.02689684
#
# Stress axis : x y z
#
# Youngs Moduli (GPa) = 45.36791 61.71533 91.84780
#
# Poissons Ratio (x) = 0.25737 0.24530
# Poissons Ratio (y) = 0.18920 0.39284
# Poissons Ratio (z) = 0.12117 0.26396
#
# Static dielectric constant tensor:
#      x y z
#    x 3.194680 0.000000 0.187600 
#    y 0.000000 2.880000 0.000000 
#    z 0.187600 0.000000 3.537870 
# 
# 
# High freq. dielectric constant tensor:
#      x y z
#    x 1.646340 0.000000 0.011630 
#    y 0.000000 1.599190 0.000000 
#    z 0.011630 0.000000 1.670800 
# 
# From -- ./inp_files/147073.got.cif
#   From: 2010.06.25/outbox.cif.g09.slc.cpg/sg12_74_cif.got.tgz:147073.got - 2010.06.28 00:19:55.
