data_PCOD8085249
_publ_section_title
;
Structure prediction by ZEFSAII (Michael W. Deem and Ramdas Pophale) SiO2 
 PCOD8085249
Probable space group: C 2/M
;
_chemical_formula_sum "Si O2"
_cell_formula_units_Z 64
_cell_length_a 9.756454
_cell_length_b 25.872745
_cell_length_c 14.976662
_cell_angle_alpha 90.000000
_cell_angle_beta 78.195407
_cell_angle_gamma 90.000000
_cell_volume 3700.548696
_symmetry_space_group_name_H-M "C 2/M"
_symmetry_group_IT_number 12
_symmetry_cell_setting 'monoclinic'
loop_
_space_group_symop_operation_xyz
x,y,z
-x,y,-z
-x,-y,-z
x,-y,z
1/2+x,1/2+y,z
1/2-x,1/2+y,-z
1/2-x,1/2-y,-z
1/2+x,1/2-y,z
loop_
_atom_site_type_symbol
_atom_site_label
_atom_site_fract_x
_atom_site_fract_y
_atom_site_fract_z
Si Si1 0.657630 0.939641 0.717746
Si Si2 0.369295 0.895845 0.959665
Si Si3 0.963423 0.802978 0.110406
Si Si4 0.442989 0.439278 0.603664
Si Si5 0.146774 0.440229 0.228347
Si Si6 0.697626 0.441930 0.123760
Si Si7 0.941161 0.100093 0.234712
Si Si8 0.823048 0.281359 0.912691
O O1 0.774976 0.928357 0.626676
O O2 0.502487 0.918109 0.712951
O O3 0.714554 0.917938 0.804580
O O4 0.636924 0.000000 0.734573
O O5 0.358320 0.932691 0.876500
O O6 0.386205 0.835770 0.935150
O O7 0.500000 0.915294 0.000000
O O8 0.227587 0.904953 0.035457
O O9 0.048004 0.753672 0.137411
O O10 0.992936 0.848351 0.176922
O O11 0.797713 0.791065 0.144177
O O12 0.000000 0.815709 0.000000
O O13 0.500000 0.423143 0.500000
O O14 0.472437 0.500000 0.620812
O O15 0.519553 0.402596 0.665693
O O16 0.169889 0.500000 0.249682
O O17 0.274968 0.407870 0.251232
O O18 0.744071 0.500000 0.094267
O O19 0.532688 0.443412 0.171213
O O20 0.750000 0.250000 0.000000
#
# Coordination Sequence:
#
# PCOD8085249 Si02
#       8
#     8   8   8   8   8   8   8   8
#     4   8  16  31  47  68 101 137 174 211 247 302
#     4  12  21  31  48  71 102 148 191 220 257 310
#     4  10  20  36  52  73 104 139 182 234 272 311
#     4   9  18  36  60  82 107 141 177 214 263 326
#     4  11  21  32  47  72 112 147 176 215 257 307
#     4  10  19  30  45  67 102 147 187 213 247 302
#     4  11  21  34  53  78 108 138 180 231 269 314
#     4  10  20  35  50  68  96 136 184 232 271 302
#
# _framework density 17.294733000000001
#
# number of rings (size 3 to 8) (size 9 to 14) (size 15 to 20)
#    0.000    1.875    2.500    4.875    0.000    0.500 
#    0.000    1.875    0.000    3.000    0.000    0.875 
#    0.000    0.000    0.000    0.000    0.000    0.000 
#
# Total GULP energy -396486.599423 kJ/mol
# GULP energy per Si atom -12390.206232 kJ/mol
# Density = 1.725537 g / cm^3
# Si number density = 17.294733 Si / 1000 Ang^3
#
#
#
# Elastic Constant Matrix: (Units=GPa)
#
#
# Indices 1 2 3 4 5 6 
#
# 1 126.9372 21.0702 45.5930 0.0000 -8.7429 0.0000
# 2 21.0702 68.0388 30.2942 0.0000 0.3449 0.0000
# 3 45.5930 30.2942 93.3546 0.0000 -11.2056 0.0000
# 4 0.0000 0.0000 0.0000 11.0599 0.0000 1.9451
# 5 -8.7429 0.3449 -11.2056 0.0000 22.0154 0.0000
# 6 0.0000 0.0000 0.0000 1.9451 0.0000 26.1332
#
#
#
# Elastic Compliance Matrix: (Units=1/GPa)
#
#
# Indices 1 2 3 4 5 6 
#
# 1 0.009678 -0.001163 -0.004139 0.000000 0.001755 0.000000
# 2 -0.001163 0.017549 -0.005554 0.000000 -0.003564 0.000000
# 3 -0.004139 -0.005554 0.015282 0.000000 0.006222 0.000000
# 4 0.000000 0.000000 0.000000 0.091616 0.000000 -0.006819
# 5 0.001755 -0.003564 0.006222 0.000000 0.049343 0.000000
# 6 0.000000 0.000000 0.000000 -0.006819 0.000000 0.038773
#
#
# Mechanical properties :
#
#
# Convention : Reuss Voigt Hill
#
# Bulk Modulus (GPa) = 48.08385 53.58282 50.83334
# Shear Modulus (GPa) = 19.92934 24.59990 22.26462
#
# Velocity S-wave (km/s) = 3.39829 3.77555 3.59188
# Velocity P-wave (km/s) = 6.57729 7.07501 6.83069
#
# Compressibility (1/GPa) = 0.02079700
#
# Stress axis : x y z
#
# Youngs Moduli (GPa) = 103.32281 56.98358 65.43512
#
# Poissons Ratio (x) = 0.06630 0.27081
# Poissons Ratio (y) = 0.12021 0.36345
# Poissons Ratio (z) = 0.42761 0.31651
#
# Static dielectric constant tensor:
#      x y z
#    x 3.807220 0.000000 -0.130210 
#    y 0.000000 3.156120 0.000000 
#    z -0.130210 0.000000 2.887030 
# 
# 
# High freq. dielectric constant tensor:
#      x y z
#    x 1.689580 0.000000 -0.010340 
#    y 0.000000 1.643870 0.000000 
#    z -0.010340 0.000000 1.618180 
# 
# From -- ./inp_files/200590.got.cif
#   From: 2010.06.25/outbox.cif.g09.slc.cpg/sg12_101_cif.got.tgz:200590.got - 2010.06.28 00:19:55.
