data_PCOD8085933
_publ_section_title
;
Structure prediction by ZEFSAII (Michael W. Deem and Ramdas Pophale) SiO2 
 PCOD8085933
Probable space group: C 2/M
;
_chemical_formula_sum "Si O2"
_cell_formula_units_Z 56
_cell_length_a 26.164752
_cell_length_b 12.824296
_cell_length_c 25.946489
_cell_angle_alpha 90.000000
_cell_angle_beta 21.286946
_cell_angle_gamma 90.000000
_cell_volume 3160.690536
_symmetry_space_group_name_H-M "C 2/M"
_symmetry_group_IT_number 12
_symmetry_cell_setting 'monoclinic'
loop_
_space_group_symop_operation_xyz
x,y,z
-x,y,-z
-x,-y,-z
x,-y,z
1/2+x,1/2+y,z
1/2-x,1/2+y,-z
1/2-x,1/2-y,-z
1/2+x,1/2-y,z
loop_
_atom_site_type_symbol
_atom_site_label
_atom_site_fract_x
_atom_site_fract_y
_atom_site_fract_z
Si Si1 0.344360 0.876681 0.459186
Si Si2 0.354045 0.384733 0.606054
Si Si3 0.400025 0.617698 0.809789
Si Si4 0.568292 0.755392 0.720492
Si Si5 0.754864 0.121785 0.803355
Si Si6 0.094768 0.381878 0.049421
Si Si7 0.518261 0.282464 0.604453
O O1 0.392540 0.847172 0.356335
O O2 0.195592 0.823082 0.611194
O O3 0.454931 0.833659 0.398321
O O4 0.333289 0.000000 0.475213
O O5 0.500000 0.380274 0.500000
O O6 0.326361 0.500000 0.610272
O O7 0.232931 0.356533 0.762595
O O8 0.356493 0.310163 0.553787
O O9 0.417872 0.500000 0.811611
O O10 0.433546 0.691413 0.826562
O O11 0.516069 0.640089 0.655936
O O12 0.243733 0.640528 0.936800
O O13 0.524804 0.807024 0.815617
O O14 0.870123 0.204991 0.714818
O O15 0.806544 0.000000 0.762870
O O16 0.613775 0.138720 0.969842
O O17 0.046737 0.500000 0.104353
#
# Coordination Sequence:
#
# PCOD8085933 Si02
#       7
#     8   8   8   8   8   8   8
#     4  10  21  33  43  59  83 112 149 186 212 244
#     4   8  12  21  41  69  95 113 133 164 205 254
#     4   9  16  26  43  67  91 111 136 170 206 254
#     4  10  19  31  46  60  80 115 149 176 212 251
#     4   8  14  25  45  72  96 113 132 166 210 257
#     4   9  16  27  43  65  90 111 134 169 214 256
#     4   9  15  25  43  65  89 117 139 165 209 252
#
# _framework density 17.717646999999999
#
# number of rings (size 3 to 8) (size 9 to 14) (size 15 to 20)
#    0.000    3.000    0.000    4.286    0.000    0.000 
#    0.000    3.571    0.000    8.143    0.000    4.000 
#    0.000    0.000    0.000    0.000    0.000    0.000 
#
# Total GULP energy -346867.787232 kJ/mol
# GULP energy per Si atom -12388.135258 kJ/mol
# Density = 1.767732 g / cm^3
# Si number density = 17.717647 Si / 1000 Ang^3
#
#
#
# Elastic Constant Matrix: (Units=GPa)
#
#
# Indices 1 2 3 4 5 6 
#
# 1 25.1113 25.0084 23.7365 0.0002 15.9296 -0.0002
# 2 25.0084 103.4109 49.9233 -0.0014 13.1453 0.0010
# 3 23.7365 49.9233 94.3636 -0.0005 31.7732 0.0011
# 4 0.0002 -0.0014 -0.0005 25.9273 0.0011 1.7756
# 5 15.9296 13.1453 31.7732 0.0011 31.4352 -0.0007
# 6 -0.0002 0.0010 0.0011 1.7756 -0.0007 17.4205
#
#
#
# Elastic Compliance Matrix: (Units=1/GPa)
#
#
# Indices 1 2 3 4 5 6 
#
# 1 0.073589 -0.013352 -0.001168 0.000000 -0.030526 0.000000
# 2 -0.013352 0.015520 -0.007496 0.000000 0.007853 0.000000
# 3 -0.001168 -0.007496 0.020620 0.000001 -0.017115 -0.000002
# 4 0.000000 0.000000 0.000001 0.038840 -0.000003 -0.003959
# 5 -0.030526 0.007853 -0.017115 -0.000003 0.061295 0.000003
# 6 0.000000 0.000000 -0.000002 -0.003959 0.000003 0.057807
#
#
# Mechanical properties :
#
#
# Convention : Reuss Voigt Hill
#
# Bulk Modulus (GPa) = 15.22181 46.69134 30.95658
# Shear Modulus (GPa) = 14.98786 23.23778 19.11282
#
# Velocity S-wave (km/s) = 2.91164 3.62548 3.28799
# Velocity P-wave (km/s) = 4.46246 6.62840 5.65019
#
# Compressibility (1/GPa) = 0.06569519
#
# Stress axis : x y z
#
# Youngs Moduli (GPa) = 13.58903 64.43342 48.49675
#
# Poissons Ratio (x) = 0.86031 0.05666
# Poissons Ratio (y) = 0.18144 0.36355
# Poissons Ratio (z) = 0.01588 0.48302
#
# Static dielectric constant tensor:
#      x y z
#    x 3.276470 0.000000 0.378320 
#    y 0.000000 3.024270 0.000000 
#    z 0.378320 0.000000 3.434830 
# 
# 
# High freq. dielectric constant tensor:
#      x y z
#    x 1.664470 0.000000 0.021520 
#    y 0.000000 1.648910 0.000000 
#    z 0.021520 0.000000 1.684360 
# 
# From -- ./inp_files/370741.got.cif
#   From: 2010.06.25/outbox.cif.g09.slc.cpg/sg12_186_cif.got.tgz:370741.got - 2010.06.28 00:19:55.
