data_PCOD8085322
_publ_section_title
;
Structure prediction by ZEFSAII (Michael W. Deem and Ramdas Pophale) SiO2 
 PCOD8085322
Probable space group: C 2/M
;
_chemical_formula_sum "Si O2"
_cell_formula_units_Z 48
_cell_length_a 21.960957
_cell_length_b 9.910074
_cell_length_c 23.883413
_cell_angle_alpha 90.000000
_cell_angle_beta 32.354091
_cell_angle_gamma 90.000000
_cell_volume 2781.635074
_symmetry_space_group_name_H-M "C 2/M"
_symmetry_group_IT_number 12
_symmetry_cell_setting 'monoclinic'
loop_
_space_group_symop_operation_xyz
x,y,z
-x,y,-z
-x,-y,-z
x,-y,z
1/2+x,1/2+y,z
1/2-x,1/2+y,-z
1/2-x,1/2-y,-z
1/2+x,1/2-y,z
loop_
_atom_site_type_symbol
_atom_site_label
_atom_site_fract_x
_atom_site_fract_y
_atom_site_fract_z
Si Si1 0.776858 0.347338 0.558955
Si Si2 0.586736 0.351866 0.612632
Si Si3 0.467114 0.155762 0.963805
Si Si4 0.922302 0.742428 0.826124
Si Si5 0.817274 0.146466 0.015743
Si Si6 0.624301 0.849734 0.740340
O O1 0.809888 0.500000 0.552748
O O2 0.690592 0.356032 0.574940
O O3 0.889147 0.264308 0.452337
O O4 0.718499 0.264350 0.654969
O O5 0.577003 0.500000 0.591543
O O6 0.469548 0.323833 0.736151
O O7 0.575716 0.180451 0.839748
O O8 0.429420 0.000000 0.992639
O O9 0.500000 0.205008 0.000000
O O10 0.359015 0.239580 0.026187
O O11 0.818354 0.651418 0.886092
O O12 0.022597 0.650587 0.773815
O O13 0.878043 0.843793 0.908226
O O14 0.848536 0.000000 0.016239
O O15 0.678733 0.000000 0.695379
#
# Coordination Sequence:
#
# PCOD8085322 Si02
#       6
#     8   8   8   8   8   8
#     4   9  17  26  38  60  88 116 146 182 220 256
#     4   9  16  26  40  58  85 120 153 179 208 256
#     4   9  19  34  49  66  89 118 152 189 227 266
#     4   9  18  28  43  66  95 122 148 181 221 263
#     4  10  19  30  46  68  93 121 153 186 223 268
#     4   9  16  28  46  64  87 119 150 180 217 264
#
# _framework density 17.256036999999999
#
# number of rings (size 3 to 8) (size 9 to 14) (size 15 to 20)
#    0.000    2.833    0.000    1.500    0.000   13.667 
#    0.000    0.000    0.000    0.000    0.000    1.167 
#    0.000    8.000    0.000    0.000    0.000    0.000 
#
# Total GULP energy -297480.226091 kJ/mol
# GULP energy per Si atom -12395.009420 kJ/mol
# Density = 1.721676 g / cm^3
# Si number density = 17.256037 Si / 1000 Ang^3
#
#
#
# Elastic Constant Matrix: (Units=GPa)
#
#
# Indices 1 2 3 4 5 6 
#
# 1 56.4577 32.4343 31.4229 0.0000 12.2887 0.0000
# 2 32.4343 135.5692 55.5958 0.0001 12.7850 0.0000
# 3 31.4229 55.5958 101.4231 0.0000 10.4065 0.0000
# 4 0.0000 0.0001 0.0000 17.6263 0.0000 3.6407
# 5 12.2887 12.7850 10.4065 0.0000 14.3170 0.0000
# 6 0.0000 0.0000 0.0000 3.6407 0.0000 12.8550
#
#
#
# Elastic Compliance Matrix: (Units=1/GPa)
#
#
# Indices 1 2 3 4 5 6 
#
# 1 0.025342 -0.002593 -0.004793 0.000000 -0.015952 0.000000
# 2 -0.002593 0.010136 -0.004379 0.000000 -0.003643 0.000000
# 3 -0.004793 -0.004379 0.013963 0.000000 -0.002125 0.000000
# 4 0.000000 0.000000 0.000000 0.060259 0.000000 -0.017066
# 5 -0.015952 -0.003643 -0.002125 0.000000 0.088337 0.000000
# 6 0.000000 0.000000 0.000000 -0.017066 0.000000 0.082624
#
#
# Mechanical properties :
#
#
# Convention : Reuss Voigt Hill
#
# Bulk Modulus (GPa) = 38.59410 59.15066 48.87238
# Shear Modulus (GPa) = 15.98322 20.55946 18.27134
#
# Velocity S-wave (km/s) = 3.04672 3.45546 3.25751
# Velocity P-wave (km/s) = 5.89837 7.09034 6.52165
#
# Compressibility (1/GPa) = 0.02591070
#
# Stress axis : x y z
#
# Youngs Moduli (GPa) = 39.46012 98.65852 71.61709
#
# Poissons Ratio (x) = 0.25580 0.34329
# Poissons Ratio (y) = 0.10231 0.31361
# Poissons Ratio (z) = 0.18915 0.43203
#
# Static dielectric constant tensor:
#      x y z
#    x 2.708560 0.000000 0.152970 
#    y 0.000000 3.407690 0.000000 
#    z 0.152970 0.000000 3.298230 
# 
# 
# High freq. dielectric constant tensor:
#      x y z
#    x 1.594950 0.000000 0.014910 
#    y 0.000000 1.678880 0.000000 
#    z 0.014910 0.000000 1.667430 
# 
# From -- ./inp_files/346889.got.cif
#   From: 2010.06.25/outbox.cif.g09.slc.cpg/sg12_174_cif.got.tgz:346889.got - 2010.06.28 00:19:55.
