data_PCOD8085543
_publ_section_title
;
Structure prediction by ZEFSAII (Michael W. Deem and Ramdas Pophale) SiO2 
 PCOD8085543
Probable space group: C 2/M
;
_chemical_formula_sum "Si O2"
_cell_formula_units_Z 64
_cell_length_a 19.459243
_cell_length_b 9.039125
_cell_length_c 24.795147
_cell_angle_alpha 90.000000
_cell_angle_beta 55.038314
_cell_angle_gamma 90.000000
_cell_volume 3574.264985
_symmetry_space_group_name_H-M "C 2/M"
_symmetry_group_IT_number 12
_symmetry_cell_setting 'monoclinic'
loop_
_space_group_symop_operation_xyz
x,y,z
-x,y,-z
-x,-y,-z
x,-y,z
1/2+x,1/2+y,z
1/2-x,1/2+y,-z
1/2-x,1/2-y,-z
1/2+x,1/2-y,z
loop_
_atom_site_type_symbol
_atom_site_label
_atom_site_fract_x
_atom_site_fract_y
_atom_site_fract_z
Si Si1 0.155538 0.672015 0.687955
Si Si2 0.095758 0.170554 0.450206
Si Si3 0.195754 0.832703 0.300168
Si Si4 0.878577 0.166570 0.937137
Si Si5 0.027755 0.672919 0.193311
Si Si6 0.260723 0.824430 0.552453
Si Si7 0.816015 0.327147 0.804544
Si Si8 0.783679 0.666638 0.064815
O O1 0.159049 0.500000 0.669226
O O2 0.214767 0.700054 0.712698
O O3 0.185271 0.769999 0.624466
O O4 0.062403 0.723884 0.744749
O O5 0.121780 0.193321 0.376459
O O6 0.149921 0.275609 0.464006
O O7 0.000000 0.218219 0.500000
O O8 0.110895 0.000000 0.460546
O O9 0.180922 0.719437 0.258746
O O10 0.192869 0.000000 0.279013
O O11 0.953904 0.244473 0.871068
O O12 0.795914 0.170622 0.938202
O O13 0.905491 0.000000 0.938746
O O14 0.861171 0.251018 0.001069
O O15 0.029993 0.500000 0.179514
O O16 0.095636 0.716668 0.208054
O O17 0.250000 0.750000 0.500000
O O18 0.257444 0.000000 0.548536
O O19 0.799297 0.500000 0.816521
O O20 0.739014 0.246606 0.869046
O O21 0.811662 0.500000 0.065119
#
# Coordination Sequence:
#
# PCOD8085543 Si02
#       8
#     8   8   8   8   8   8   8   8
#     4   9  19  37  56  73  98 134 173 208 247 298
#     4   9  19  37  58  79 104 134 169 210 256 306
#     4   9  18  33  52  72  98 132 165 198 242 297
#     4   9  16  26  43  69  99 128 160 201 248 295
#     4   9  18  32  50  73 100 130 165 206 249 293
#     4  11  22  36  55  78 105 136 172 212 255 304
#     4  10  19  30  47  73 102 128 161 206 250 293
#     4   9  16  27  44  66  95 130 165 200 243 294
#
# _framework density 17.90578
#
# number of rings (size 3 to 8) (size 9 to 14) (size 15 to 20)
#    0.000    2.625    0.000    3.000    0.000    7.250 
#    0.000    2.500    0.000    0.750    0.000    5.250 
#    0.000    0.000    0.000    0.000    0.000    0.000 
#
# Total GULP energy -396848.283718 kJ/mol
# GULP energy per Si atom -12401.508866 kJ/mol
# Density = 1.786503 g / cm^3
# Si number density = 17.905780 Si / 1000 Ang^3
#
#
#
# Elastic Constant Matrix: (Units=GPa)
#
#
# Indices 1 2 3 4 5 6 
#
# 1 59.6530 43.6524 70.8090 0.0000 -7.0645 0.0008
# 2 43.6524 113.5992 77.7088 0.0000 -4.7367 0.0005
# 3 70.8090 77.7088 150.2106 0.0000 -10.2363 -0.0001
# 4 0.0000 0.0000 0.0000 37.0780 0.0000 4.5897
# 5 -7.0645 -4.7367 -10.2363 0.0000 22.6569 0.0002
# 6 0.0008 0.0005 -0.0001 4.5897 0.0002 23.0943
#
#
#
# Elastic Compliance Matrix: (Units=1/GPa)
#
#
# Indices 1 2 3 4 5 6 
#
# 1 0.039428 -0.003803 -0.016338 0.000000 0.004117 -0.000001
# 2 -0.003803 0.013994 -0.005498 0.000000 -0.000744 0.000000
# 3 -0.016338 -0.005498 0.017311 0.000000 0.001577 0.000001
# 4 0.000000 0.000000 0.000000 0.027650 0.000000 -0.005495
# 5 0.004117 -0.000744 0.001577 0.000000 0.045977 0.000000
# 6 -0.000001 0.000000 0.000001 -0.005495 0.000000 0.044393
#
#
# Mechanical properties :
#
#
# Convention : Reuss Voigt Hill
#
# Bulk Modulus (GPa) = 51.40039 78.64480 65.02259
# Shear Modulus (GPa) = 20.28274 25.31870 22.80072
#
# Velocity S-wave (km/s) = 3.36928 3.76439 3.57231
# Velocity P-wave (km/s) = 6.62604 7.93165 7.30806
#
# Compressibility (1/GPa) = 0.01945511
#
# Stress axis : x y z
#
# Youngs Moduli (GPa) = 25.36284 71.46040 57.76759
#
# Poissons Ratio (x) = 0.27174 0.94383
# Poissons Ratio (y) = 0.09645 0.31758
# Poissons Ratio (z) = 0.41439 0.39286
#
# Static dielectric constant tensor:
#      x y z
#    x 3.040840 0.000000 -0.102240 
#    y 0.000000 3.344920 0.000000 
#    z -0.102240 0.000000 3.439340 
# 
# 
# High freq. dielectric constant tensor:
#      x y z
#    x 1.657830 0.000000 -0.002740 
#    y 0.000000 1.697750 0.000000 
#    z -0.002740 0.000000 1.704280 
# 
# From -- ./inp_files/345991.got.cif
#   From: 2010.06.25/outbox.cif.g09.slc.cpg/sg12_173_cif.got.tgz:345991.got - 2010.06.28 00:19:55.
