data_PCOD8085600
_publ_section_title
;
Structure prediction by ZEFSAII (Michael W. Deem and Ramdas Pophale) SiO2 
 PCOD8085600
Probable space group: C 2/M
;
_chemical_formula_sum "Si O2"
_cell_formula_units_Z 64
_cell_length_a 12.448084
_cell_length_b 21.734786
_cell_length_c 18.340418
_cell_angle_alpha 90.000000
_cell_angle_beta 132.989084
_cell_angle_gamma 90.000000
_cell_volume 3629.708224
_symmetry_space_group_name_H-M "C 2/M"
_symmetry_group_IT_number 12
_symmetry_cell_setting 'monoclinic'
loop_
_space_group_symop_operation_xyz
x,y,z
-x,y,-z
-x,-y,-z
x,-y,z
1/2+x,1/2+y,z
1/2-x,1/2+y,-z
1/2-x,1/2-y,-z
1/2+x,1/2-y,z
loop_
_atom_site_type_symbol
_atom_site_label
_atom_site_fract_x
_atom_site_fract_y
_atom_site_fract_z
Si Si1 0.413697 0.163811 0.720791
Si Si2 0.669335 0.294616 0.702071
Si Si3 0.660496 0.430550 0.066012
Si Si4 0.362550 0.718523 0.607377
Si Si5 0.685764 0.833955 0.936659
Si Si6 0.357670 0.169472 0.388834
Si Si7 0.087607 0.571633 0.703881
Si Si8 0.673726 0.229198 0.079038
O O1 0.246026 0.163084 0.674498
O O2 0.437882 0.227291 0.688917
O O3 0.512862 0.165726 0.839538
O O4 0.456798 0.105919 0.689004
O O5 0.498757 0.315593 0.630264
O O6 0.676409 0.222608 0.684952
O O7 0.757681 0.302130 0.818153
O O8 0.637571 0.500000 0.031941
O O9 0.747420 0.401879 0.038140
O O10 0.756955 0.423345 0.183675
O O11 0.500000 0.399407 0.000000
O O12 0.250000 0.750000 0.500000
O O13 0.279913 0.667428 0.618568
O O14 0.764966 0.797283 0.906853
O O15 0.726727 0.810833 0.034942
O O16 0.500000 0.189110 0.500000
O O17 0.386829 0.104396 0.362438
O O18 0.042066 0.500000 0.671383
O O19 0.500000 0.230460 0.000000
#
# Coordination Sequence:
#
# PCOD8085600 Si02
#       8
#     8   8   8   8   8   8   8   8
#     4  10  19  33  51  75 107 142 178 220 270 321
#     4  11  20  33  52  77 113 141 174 222 271 330
#     4   9  18  33  52  73 100 137 177 221 264 305
#     4  11  20  34  53  78 111 139 176 222 273 329
#     4  10  19  30  48  72 104 137 174 212 261 320
#     4  11  21  35  56  81 109 140 178 223 276 325
#     4  10  20  36  56  80 108 141 188 230 266 321
#     4  11  20  30  45  74 107 139 166 206 267 320
#
# _framework density 17.632270999999999
#
# number of rings (size 3 to 8) (size 9 to 14) (size 15 to 20)
#    0.000    1.625    5.000    1.125    0.000    1.250 
#    0.000    0.000    0.000    1.875    0.000    3.500 
#    0.000    0.000    0.000    0.000    0.000    0.000 
#
# Total GULP energy -396616.883746 kJ/mol
# GULP energy per Si atom -12394.277617 kJ/mol
# Density = 1.759214 g / cm^3
# Si number density = 17.632271 Si / 1000 Ang^3
#
#
#
# Elastic Constant Matrix: (Units=GPa)
#
#
# Indices 1 2 3 4 5 6 
#
# 1 138.4867 44.4433 42.8629 0.0000 15.2188 0.0000
# 2 44.4433 75.0347 24.1153 0.0000 -3.2033 0.0000
# 3 42.8629 24.1153 68.3409 0.0000 5.7716 0.0000
# 4 0.0000 0.0000 0.0000 14.0558 0.0000 -0.6953
# 5 15.2188 -3.2033 5.7716 0.0000 31.4993 0.0000
# 6 0.0000 0.0000 0.0000 -0.6953 0.0000 24.3323
#
#
#
# Elastic Compliance Matrix: (Units=1/GPa)
#
#
# Indices 1 2 3 4 5 6 
#
# 1 0.010827 -0.005159 -0.004555 0.000000 -0.004921 0.000000
# 2 -0.005159 0.017693 -0.003423 0.000000 0.004919 0.000000
# 3 -0.004555 -0.003423 0.018832 0.000000 -0.001598 0.000000
# 4 0.000000 0.000000 0.000000 0.071246 0.000000 0.002036
# 5 -0.004921 0.004919 -0.001598 0.000000 0.034917 0.000000
# 6 0.000000 0.000000 0.000000 0.002036 0.000000 0.041156
#
#
# Mechanical properties :
#
#
# Convention : Reuss Voigt Hill
#
# Bulk Modulus (GPa) = 47.44127 56.07839 51.75983
# Shear Modulus (GPa) = 21.93267 25.34023 23.63645
#
# Velocity S-wave (km/s) = 3.53071 3.79509 3.66529
# Velocity P-wave (km/s) = 6.60194 7.14682 6.87978
#
# Compressibility (1/GPa) = 0.02107869
#
# Stress axis : x y z
#
# Youngs Moduli (GPa) = 92.36081 56.51928 53.10145
#
# Poissons Ratio (x) = 0.29160 0.24185
# Poissons Ratio (y) = 0.47651 0.18176
# Poissons Ratio (z) = 0.42066 0.19346
#
# Static dielectric constant tensor:
#      x y z
#    x 3.523980 0.000000 0.073870 
#    y 0.000000 3.062720 0.000000 
#    z 0.073870 0.000000 3.321960 
# 
# 
# High freq. dielectric constant tensor:
#      x y z
#    x 1.692280 0.000000 0.005020 
#    y 0.000000 1.638160 0.000000 
#    z 0.005020 0.000000 1.686160 
# 
# From -- ./inp_files/265110.got.cif
#   From: 2010.06.25/outbox.cif.g09.slc.cpg/sg12_133_cif.got.tgz:265110.got - 2010.06.28 00:19:55.
