data_PCOD8085687
_publ_section_title
;
Structure prediction by ZEFSAII (Michael W. Deem and Ramdas Pophale) SiO2 
 PCOD8085687
Probable space group: C 2/M
;
_chemical_formula_sum "Si O2"
_cell_formula_units_Z 56
_cell_length_a 19.130448
_cell_length_b 8.794853
_cell_length_c 21.594980
_cell_angle_alpha 90.000000
_cell_angle_beta 124.211442
_cell_angle_gamma 90.000000
_cell_volume 3004.660438
_symmetry_space_group_name_H-M "C 2/M"
_symmetry_group_IT_number 12
_symmetry_cell_setting 'monoclinic'
loop_
_space_group_symop_operation_xyz
x,y,z
-x,y,-z
-x,-y,-z
x,-y,z
1/2+x,1/2+y,z
1/2-x,1/2+y,-z
1/2-x,1/2-y,-z
1/2+x,1/2-y,z
loop_
_atom_site_type_symbol
_atom_site_label
_atom_site_fract_x
_atom_site_fract_y
_atom_site_fract_z
Si Si1 0.631198 0.173257 0.945176
Si Si2 0.263698 0.324972 0.106652
Si Si3 0.223138 0.325086 0.297429
Si Si4 0.987891 0.821295 0.688001
Si Si5 0.463490 0.173945 0.803989
Si Si6 0.660129 0.822661 0.738697
Si Si7 0.313775 0.177140 0.579464
O O1 0.670237 0.286419 0.914398
O O2 0.529269 0.195194 0.893700
O O3 0.654618 0.000000 0.937807
O O4 0.669127 0.206680 0.032385
O O5 0.275777 0.500000 0.132016
O O6 0.278819 0.223608 0.174306
O O7 0.247153 0.500000 0.296676
O O8 0.131290 0.285388 0.221622
O O9 0.292918 0.217589 0.301748
O O10 0.219725 0.288460 0.368384
O O11 0.994510 0.778576 0.763339
O O12 0.906296 0.747290 0.615332
O O13 0.071681 0.764892 0.695253
O O14 0.980875 0.000000 0.677120
O O15 0.463319 0.000000 0.779001
O O16 0.641482 0.000000 0.732736
O O17 0.250000 0.250000 0.500000
O O18 0.320104 0.000000 0.569493
#
# Coordination Sequence:
#
# PCOD8085687 Si02
#       7
#     8   8   8   8   8   8   8
#     4   9  17  30  50  76 106 140 183 232 282 330
#     4  10  19  30  48  76 107 143 184 231 282 331
#     4   9  20  37  57  81 111 145 180 221 272 326
#     4  11  21  34  57  85 111 144 185 226 270 324
#     4   9  17  33  55  79 107 141 183 232 279 329
#     4  12  23  36  53  77 111 149 188 232 279 325
#     4  10  21  40  65  91 118 145 176 217 264 321
#
# _framework density 18.637713999999999
#
# number of rings (size 3 to 8) (size 9 to 14) (size 15 to 20)
#    0.000    2.000    1.429    4.286    0.000    3.429 
#    0.000    1.429    0.000    8.571    0.000    0.000 
#    0.000    0.000    0.000    0.000    0.000    0.000 
#
# Total GULP energy -347181.524514 kJ/mol
# GULP energy per Si atom -12399.340161 kJ/mol
# Density = 1.859529 g / cm^3
# Si number density = 18.637714 Si / 1000 Ang^3
#
#
#
# Elastic Constant Matrix: (Units=GPa)
#
#
# Indices 1 2 3 4 5 6 
#
# 1 105.1381 46.1550 52.4607 0.0000 15.2179 0.0000
# 2 46.1550 107.8376 46.1434 0.0000 7.4959 0.0000
# 3 52.4607 46.1434 120.7994 0.0000 29.2431 0.0000
# 4 0.0000 0.0000 0.0000 30.2806 0.0000 0.4977
# 5 15.2179 7.4959 29.2431 0.0000 26.4741 0.0000
# 6 0.0000 0.0000 0.0000 0.4977 0.0000 28.9365
#
#
#
# Elastic Compliance Matrix: (Units=1/GPa)
#
#
# Indices 1 2 3 4 5 6 
#
# 1 0.013490 -0.004008 -0.003720 0.000000 -0.002511 0.000000
# 2 -0.004008 0.012362 -0.003675 0.000000 0.002862 0.000000
# 3 -0.003720 -0.003675 0.014370 0.000000 -0.012695 0.000000
# 4 0.000000 0.000000 0.000000 0.033034 0.000000 -0.000568
# 5 -0.002511 0.002862 -0.012695 0.000000 0.052428 0.000000
# 6 0.000000 0.000000 0.000000 -0.000568 0.000000 0.034568
#
#
# Mechanical properties :
#
#
# Convention : Reuss Voigt Hill
#
# Bulk Modulus (GPa) = 57.41037 69.25480 63.33259
# Shear Modulus (GPa) = 26.47427 29.73929 28.10678
#
# Velocity S-wave (km/s) = 3.77300 3.99889 3.88759
# Velocity P-wave (km/s) = 7.06052 7.65249 7.36246
#
# Compressibility (1/GPa) = 0.01741846
#
# Stress axis : x y z
#
# Youngs Moduli (GPa) = 74.12835 80.89421 69.58741
#
# Poissons Ratio (x) = 0.32419 0.25885
# Poissons Ratio (y) = 0.29708 0.25570
# Poissons Ratio (z) = 0.27575 0.29725
#
# Static dielectric constant tensor:
#      x y z
#    x 3.244600 0.000000 0.291670 
#    y 0.000000 3.464690 0.000000 
#    z 0.291670 0.000000 3.495610 
# 
# 
# High freq. dielectric constant tensor:
#      x y z
#    x 1.703270 0.000000 0.024670 
#    y 0.000000 1.729130 0.000000 
#    z 0.024670 0.000000 1.718120 
# 
# From -- ./inp_files/314393.got.cif
#   From: 2010.06.25/outbox.cif.g09.slc.cpg/sg12_158_cif.got.tgz:314393.got - 2010.06.28 00:19:55.
