data_PCOD8085314
_publ_section_title
;
Structure prediction by ZEFSAII (Michael W. Deem and Ramdas Pophale) SiO2 
 PCOD8085314
Probable space group: C 2/M
;
_chemical_formula_sum "Si O2"
_cell_formula_units_Z 64
_cell_length_a 18.924356
_cell_length_b 9.478675
_cell_length_c 21.024994
_cell_angle_alpha 90.000000
_cell_angle_beta 86.352525
_cell_angle_gamma 90.000000
_cell_volume 3763.778049
_symmetry_space_group_name_H-M "C 2/M"
_symmetry_group_IT_number 12
_symmetry_cell_setting 'monoclinic'
loop_
_space_group_symop_operation_xyz
x,y,z
-x,y,-z
-x,-y,-z
x,-y,z
1/2+x,1/2+y,z
1/2-x,1/2+y,-z
1/2-x,1/2-y,-z
1/2+x,1/2-y,z
loop_
_atom_site_type_symbol
_atom_site_label
_atom_site_fract_x
_atom_site_fract_y
_atom_site_fract_z
Si Si1 0.733131 0.839703 0.849038
Si Si2 0.622016 0.835993 0.964369
Si Si3 0.371457 0.661386 0.911050
Si Si4 0.783922 0.659347 0.551651
Si Si5 0.139495 0.164465 0.768153
Si Si6 0.148091 0.163935 0.625417
Si Si7 0.577050 0.834822 0.515795
Si Si8 0.969673 0.838667 0.119351
O O1 0.689047 0.810824 0.915511
O O2 0.814518 0.804078 0.859709
O O3 0.707860 0.741788 0.793008
O O4 0.723217 0.000000 0.827014
O O5 0.553802 0.760286 0.937550
O O6 0.604339 0.000000 0.975092
O O7 0.640604 0.766569 0.030202
O O8 0.362265 0.500000 0.935779
O O9 0.447407 0.684450 0.874028
O O10 0.774734 0.500000 0.529621
O O11 0.750000 0.750000 0.500000
O O12 0.734653 0.686310 0.616554
O O13 0.868676 0.692497 0.547524
O O14 0.125516 0.214853 0.696913
O O15 0.070044 0.203245 0.813223
O O16 0.157102 0.000000 0.768564
O O17 0.104449 0.254186 0.576774
O O18 0.128906 0.000000 0.615494
O O19 0.500000 0.776665 0.500000
O O20 0.572174 0.000000 0.533202
O O21 0.952213 0.000000 0.101427
#
# Coordination Sequence:
#
# PCOD8085314 Si02
#       8
#     8   8   8   8   8   8   8   8
#     4   9  19  33  47  65  89 116 147 185 225 265
#     4  10  19  30  46  68  91 114 144 184 228 272
#     4  10  19  31  47  66  88 115 147 183 226 273
#     4   8  14  26  44  65  89 116 146 178 211 250
#     4   9  18  33  50  66  86 117 155 187 218 260
#     4   9  17  30  49  69  89 118 154 187 217 255
#     4   9  17  29  46  70  98 123 146 177 220 265
#     4   9  18  32  48  64  87 120 152 182 219 267
#
# _framework density 17.004190999999999
#
# number of rings (size 3 to 8) (size 9 to 14) (size 15 to 20)
#    0.000    2.875    0.000    1.125    0.000    3.750 
#    0.000    1.250    0.000    0.000    0.000    0.000 
#    0.000    0.000    0.000    0.000    0.000    0.000 
#
# Total GULP energy -396569.923087 kJ/mol
# GULP energy per Si atom -12392.810096 kJ/mol
# Density = 1.696549 g / cm^3
# Si number density = 17.004191 Si / 1000 Ang^3
#
#
#
# Elastic Constant Matrix: (Units=GPa)
#
#
# Indices 1 2 3 4 5 6 
#
# 1 122.1755 41.0746 42.1883 0.0000 11.4542 0.0000
# 2 41.0746 60.6570 41.0463 0.0000 5.4602 0.0000
# 3 42.1883 41.0463 88.8512 0.0000 6.2538 0.0000
# 4 0.0000 0.0000 0.0000 23.9698 0.0000 3.9514
# 5 11.4542 5.4602 6.2538 0.0000 15.8503 0.0000
# 6 0.0000 0.0000 0.0000 3.9514 0.0000 22.2545
#
#
#
# Elastic Compliance Matrix: (Units=1/GPa)
#
#
# Indices 1 2 3 4 5 6 
#
# 1 0.011414 -0.005579 -0.002465 0.000000 -0.005354 0.000000
# 2 -0.005579 0.026960 -0.009705 0.000000 -0.001427 0.000000
# 3 -0.002465 -0.009705 0.017021 0.000000 -0.001591 0.000000
# 4 0.000000 0.000000 0.000000 0.042977 0.000000 -0.007631
# 5 -0.005354 -0.001427 -0.001591 0.000000 0.068078 0.000000
# 6 0.000000 0.000000 0.000000 -0.007631 0.000000 0.046290
#
#
# Mechanical properties :
#
#
# Convention : Reuss Voigt Hill
#
# Bulk Modulus (GPa) = 50.26241 57.81135 54.03688
# Shear Modulus (GPa) = 19.61785 22.23987 20.92886
#
# Velocity S-wave (km/s) = 3.40031 3.62042 3.51209
# Velocity P-wave (km/s) = 6.71112 7.17974 6.94938
#
# Compressibility (1/GPa) = 0.01989558
#
# Stress axis : x y z
#
# Youngs Moduli (GPa) = 87.61394 37.09244 58.75132
#
# Poissons Ratio (x) = 0.20692 0.14485
# Poissons Ratio (y) = 0.48876 0.57020
# Poissons Ratio (z) = 0.21601 0.35999
#
# Static dielectric constant tensor:
#      x y z
#    x 3.512040 0.000000 -0.378590 
#    y 0.000000 3.202680 0.000000 
#    z -0.378590 0.000000 3.076860 
# 
# 
# High freq. dielectric constant tensor:
#      x y z
#    x 1.660100 0.000000 -0.014620 
#    y 0.000000 1.658390 0.000000 
#    z -0.014620 0.000000 1.628330 
# 
# From -- ./inp_files/319109.got.cif
#   From: 2010.06.25/outbox.cif.g09.slc.cpg/sg12_160_cif.got.tgz:319109.got - 2010.06.28 00:19:55.
