data_PCOD8085457
_publ_section_title
;
Structure prediction by ZEFSAII (Michael W. Deem and Ramdas Pophale) SiO2 
 PCOD8085457
Probable space group: C 2/M
;
_chemical_formula_sum "Si O2"
_cell_formula_units_Z 48
_cell_length_a 25.127690
_cell_length_b 8.933253
_cell_length_c 27.335676
_cell_angle_alpha 90.000000
_cell_angle_beta 27.139961
_cell_angle_gamma 90.000000
_cell_volume 2799.075557
_symmetry_space_group_name_H-M "C 2/M"
_symmetry_group_IT_number 12
_symmetry_cell_setting 'monoclinic'
loop_
_space_group_symop_operation_xyz
x,y,z
-x,y,-z
-x,-y,-z
x,-y,z
1/2+x,1/2+y,z
1/2-x,1/2+y,-z
1/2-x,1/2-y,-z
1/2+x,1/2-y,z
loop_
_atom_site_type_symbol
_atom_site_label
_atom_site_fract_x
_atom_site_fract_y
_atom_site_fract_z
Si Si1 0.721110 0.824950 0.472711
Si Si2 0.477229 0.174094 0.704732
Si Si3 0.115963 0.668436 0.873345
Si Si4 0.260762 0.675559 0.144193
Si Si5 0.012141 0.825096 0.104098
Si Si6 0.565790 0.822143 0.736943
O O1 0.750000 0.750000 0.500000
O O2 0.581755 0.798744 0.579757
O O3 0.802073 0.744479 0.365885
O O4 0.750780 0.000000 0.449780
O O5 0.358057 0.244811 0.781290
O O6 0.509390 0.237898 0.732230
O O7 0.454560 0.000000 0.730891
O O8 0.152228 0.500000 0.829322
O O9 0.218638 0.743759 0.820817
O O10 0.093696 0.763008 0.842468
O O11 0.000000 0.669617 0.000000
O O12 0.251346 0.500000 0.162793
O O13 0.363851 0.710067 0.021870
O O14 0.013200 0.740317 0.154833
O O15 0.992185 0.000000 0.128554
O O16 0.572637 0.000000 0.733674
#
# Coordination Sequence:
#
# PCOD8085457 Si02
#       6
#     8   8   8   8   8   8
#     4   9  16  29  48  68  91 121 158 193 227 270
#     4   8  16  30  48  69  94 124 153 186 230 276
#     4   9  17  30  47  67  91 120 155 192 229 270
#     4   9  17  31  49  69  94 123 155 188 226 276
#     4  10  19  30  47  70  94 123 157 191 228 273
#     4  10  19  31  47  68  96 127 157 191 231 272
#
# _framework density 17.148519
#
# number of rings (size 3 to 8) (size 9 to 14) (size 15 to 20)
#    0.000    2.833    0.000    3.000    0.000    3.333 
#    0.000    5.000    0.000    1.000    0.000    7.000 
#    0.000    0.000    0.000    0.000    0.000    0.000 
#
# Total GULP energy -297461.988381 kJ/mol
# GULP energy per Si atom -12394.249516 kJ/mol
# Density = 1.710949 g / cm^3
# Si number density = 17.148519 Si / 1000 Ang^3
#
#
#
# Elastic Constant Matrix: (Units=GPa)
#
#
# Indices 1 2 3 4 5 6 
#
# 1 89.4349 30.5427 42.4648 0.0224 -25.7451 -0.0215
# 2 30.5427 80.6242 33.5604 0.0360 -10.8859 -0.0414
# 3 42.4648 33.5604 68.4607 0.0180 -22.0117 -0.0229
# 4 0.0224 0.0360 0.0180 24.3846 0.0054 6.2270
# 5 -25.7451 -10.8859 -22.0117 0.0054 16.8876 -0.0051
# 6 -0.0215 -0.0414 -0.0229 6.2270 -0.0051 25.6433
#
#
#
# Elastic Compliance Matrix: (Units=1/GPa)
#
#
# Indices 1 2 3 4 5 6 
#
# 1 0.021389 -0.003203 -0.003231 -0.000024 0.026332 0.000021
# 2 -0.003203 0.016063 -0.007107 -0.000020 -0.003791 0.000021
# 3 -0.003231 -0.007107 0.029330 -0.000020 0.028722 0.000023
# 4 -0.000024 -0.000020 -0.000020 0.043721 -0.000093 -0.010617
# 5 0.026332 -0.003791 0.028722 -0.000093 0.134352 0.000091
# 6 0.000021 0.000021 0.000023 -0.010617 0.000091 0.041575
#
#
# Mechanical properties :
#
#
# Convention : Reuss Voigt Hill
#
# Bulk Modulus (GPa) = 25.18797 50.18393 37.68595
# Shear Modulus (GPa) = 15.30253 22.17990 18.74121
#
# Velocity S-wave (km/s) = 2.99047 3.60029 3.30945
# Velocity P-wave (km/s) = 5.16177 6.82720 6.05204
#
# Compressibility (1/GPa) = 0.03970150
#
# Stress axis : x y z
#
# Youngs Moduli (GPa) = 46.75251 62.25580 34.09514
#
# Poissons Ratio (x) = 0.19938 0.11016
# Poissons Ratio (y) = 0.14973 0.24230
# Poissons Ratio (z) = 0.15106 0.44243
#
# Static dielectric constant tensor:
#      x y z
#    x 3.241480 -0.000010 -0.190650 
#    y -0.000010 3.242420 0.000010 
#    z -0.190650 0.000010 3.387310 
# 
# 
# High freq. dielectric constant tensor:
#      x y z
#    x 1.643150 0.000000 -0.005090 
#    y 0.000000 1.661230 0.000000 
#    z -0.005090 0.000000 1.647310 
# 
# From -- ./inp_files/172324.got.cif
#   From: 2010.06.25/outbox.cif.g09.slc.cpg/sg12_87_cif.got.tgz:172324.got - 2010.06.28 00:19:55.
