data_PCOD8085927
_publ_section_title
;
Structure prediction by ZEFSAII (Michael W. Deem and Ramdas Pophale) SiO2 
 PCOD8085927
Probable space group: C 2/M
;
_chemical_formula_sum "Si O2"
_cell_formula_units_Z 48
_cell_length_a 7.745850
_cell_length_b 18.902551
_cell_length_c 19.101622
_cell_angle_alpha 90.000000
_cell_angle_beta 66.077006
_cell_angle_gamma 90.000000
_cell_volume 2556.520728
_symmetry_space_group_name_H-M "C 2/M"
_symmetry_group_IT_number 12
_symmetry_cell_setting 'monoclinic'
loop_
_space_group_symop_operation_xyz
x,y,z
-x,y,-z
-x,-y,-z
x,-y,z
1/2+x,1/2+y,z
1/2-x,1/2+y,-z
1/2-x,1/2-y,-z
1/2+x,1/2-y,z
loop_
_atom_site_type_symbol
_atom_site_label
_atom_site_fract_x
_atom_site_fract_y
_atom_site_fract_z
Si Si1 0.086378 0.915523 0.913626
Si Si2 0.655250 0.078716 0.639937
Si Si3 0.203141 0.831255 0.499999
Si Si4 0.998460 0.415737 0.809365
Si Si5 0.564880 0.421284 0.639936
Si Si6 0.117181 0.915737 0.190636
O O1 0.300123 0.886355 0.871187
O O2 0.957514 0.886355 0.871185
O O3 0.087384 0.000000 0.912619
O O4 0.000000 0.886231 0.000000
O O5 0.642428 0.131346 0.575737
O O6 0.521095 0.107738 0.724411
O O7 0.865768 0.074484 0.634234
O O8 0.591689 0.000000 0.626525
O O9 0.250000 0.750000 0.500000
O O10 0.206102 0.868655 0.575735
O O11 0.000000 0.841172 0.500000
O O12 0.003365 0.500000 0.811069
O O13 0.171614 0.385962 0.828390
O O14 0.655266 0.500000 0.626525
O O15 0.530090 0.392262 0.724410
O O16 0.125493 0.000000 0.188933
#
# Coordination Sequence:
#
# PCOD8085927 Si02
#       6
#     8   8   8   8   8   8
#     4   9  16  24  36  59  91 121 145 178 230 281
#     4   8  14  27  48  66  82 118 165 196 221 263
#     4  10  19  31  45  65  95 122 146 192 236 278
#     4   8  14  25  40  59  83 114 153 190 222 265
#     4   8  14  27  48  66  82 118 165 196 221 263
#     4   8  14  25  40  59  83 114 153 190 222 265
#
# _framework density 18.775518000000002
#
# number of rings (size 3 to 8) (size 9 to 14) (size 15 to 20)
#    0.000    3.500    0.000    2.500    0.000    2.667 
#    3.000    3.333    0.000    1.000    0.000    0.000 
#    0.000    1.333    0.667    0.000    0.000    0.000 
#
# Total GULP energy -297399.143701 kJ/mol
# GULP energy per Si atom -12391.630988 kJ/mol
# Density = 1.873278 g / cm^3
# Si number density = 18.775518 Si / 1000 Ang^3
#
#
#
# Elastic Constant Matrix: (Units=GPa)
#
#
# Indices 1 2 3 4 5 6 
#
# 1 80.9771 15.8756 72.8542 0.0000 0.0019 0.0000
# 2 15.8756 55.0795 49.7829 0.0000 0.0010 0.0000
# 3 72.8542 49.7829 198.4386 0.0000 0.0026 0.0000
# 4 0.0000 0.0000 0.0000 3.9221 0.0000 0.0001
# 5 0.0019 0.0010 0.0026 0.0000 21.3413 0.0000
# 6 0.0000 0.0000 0.0000 0.0001 0.0000 11.2570
#
#
#
# Elastic Compliance Matrix: (Units=1/GPa)
#
#
# Indices 1 2 3 4 5 6 
#
# 1 0.018486 0.001042 -0.007048 0.000000 -0.000001 0.000000
# 2 0.001042 0.023538 -0.006288 0.000000 0.000000 0.000000
# 3 -0.007048 -0.006288 0.009205 0.000000 0.000000 0.000000
# 4 0.000000 0.000000 0.000000 0.254964 0.000000 -0.000002
# 5 -0.000001 0.000000 0.000000 0.000000 0.046857 0.000000
# 6 0.000000 0.000000 0.000000 -0.000002 0.000000 0.088834
#
#
# Mechanical properties :
#
#
# Convention : Reuss Voigt Hill
#
# Bulk Modulus (GPa) = 37.53580 67.94671 52.74125
# Shear Modulus (GPa) = 10.51850 20.36959 15.44405
#
# Velocity S-wave (km/s) = 2.36947 3.29736 2.87115
# Velocity P-wave (km/s) = 5.24606 7.12491 6.25642
#
# Compressibility (1/GPa) = 0.02664124
#
# Stress axis : x y z
#
# Youngs Moduli (GPa) = 54.09422 42.48398 108.64192
#
# Poissons Ratio (x) = -0.04428 0.76576
# Poissons Ratio (y) = -0.05639 0.68312
# Poissons Ratio (z) = 0.38128 0.26713
#
# Static dielectric constant tensor:
#      x y z
#    x 3.439940 0.000000 0.000000 
#    y 0.000000 2.473590 0.000000 
#    z 0.000000 0.000000 3.844670 
# 
# 
# High freq. dielectric constant tensor:
#      x y z
#    x 1.716710 0.000000 0.000000 
#    y 0.000000 1.654040 0.000000 
#    z 0.000000 0.000000 1.737990 
# 
# From -- ./inp_files/257526.got.cif
#   From: 2010.06.25/outbox.cif.g09.slc.cpg/sg12_129_cif.got.tgz:257526.got - 2010.06.28 00:19:55.
