data_PCOD8085235
_publ_section_title
;
Structure prediction by ZEFSAII (Michael W. Deem and Ramdas Pophale) SiO2 
 PCOD8085235
Probable space group: C 2/M
;
_chemical_formula_sum "Si O2"
_cell_formula_units_Z 64
_cell_length_a 27.989497
_cell_length_b 8.955874
_cell_length_c 20.513294
_cell_angle_alpha 90.000000
_cell_angle_beta 134.646400
_cell_angle_gamma 90.000000
_cell_volume 3658.366769
_symmetry_space_group_name_H-M "C 2/M"
_symmetry_group_IT_number 12
_symmetry_cell_setting 'monoclinic'
loop_
_space_group_symop_operation_xyz
x,y,z
-x,y,-z
-x,-y,-z
x,-y,z
1/2+x,1/2+y,z
1/2-x,1/2+y,-z
1/2-x,1/2-y,-z
1/2+x,1/2-y,z
loop_
_atom_site_type_symbol
_atom_site_label
_atom_site_fract_x
_atom_site_fract_y
_atom_site_fract_z
Si Si1 0.054550 0.324199 0.602425
Si Si2 0.001327 0.835665 0.672099
Si Si3 0.047946 0.828253 0.101068
Si Si4 0.188308 0.327354 0.256047
Si Si5 0.156526 0.831361 0.498782
Si Si6 0.185363 0.324925 0.656573
Si Si7 0.956943 0.829007 0.760794
Si Si8 0.320512 0.827507 0.605921
O O1 0.050446 0.500000 0.593078
O O2 0.038511 0.279596 0.661001
O O3 0.128980 0.270127 0.653984
O O4 0.000000 0.253096 0.500000
O O5 0.920993 0.828242 0.594479
O O6 0.015713 0.801196 0.762739
O O7 0.026632 0.000000 0.675737
O O8 0.120041 0.752278 0.172050
O O9 0.012028 0.809031 0.137126
O O10 0.060812 0.000000 0.095765
O O11 0.000000 0.755179 0.000000
O O12 0.177313 0.500000 0.232320
O O13 0.245649 0.262926 0.263171
O O14 0.215166 0.298686 0.357192
O O15 0.160160 0.714440 0.560488
O O16 0.201021 0.778537 0.477289
O O17 0.179677 0.000000 0.540130
O O18 0.198565 0.500000 0.674495
O O19 0.897822 0.709325 0.695786
O O20 0.928869 0.000000 0.726410
O O21 0.315143 0.000000 0.579366
#
# Coordination Sequence:
#
# PCOD8085235 Si02
#       8
#     8   8   8   8   8   8   8   8
#     4  10  20  33  47  66  91 122 165 213 251 283
#     4   9  17  28  45  67  93 126 160 200 242 280
#     4   9  17  32  56  81 104 130 157 187 229 287
#     4  10  21  35  49  69  98 128 158 197 239 285
#     4  10  19  30  45  66  91 123 163 203 241 281
#     4  11  22  34  48  65  90 126 165 205 246 287
#     4   8  15  28  45  71 101 125 155 192 232 280
#     4   9  17  29  45  64  89 124 162 195 233 277
#
# _framework density 17.494145
#
# number of rings (size 3 to 8) (size 9 to 14) (size 15 to 20)
#    0.000    2.500    1.250    2.250    0.000    5.500 
#    0.000    0.000    0.000    0.000    0.000    0.875 
#    0.000    0.000    0.000    0.000    0.000    0.000 
#
# Total GULP energy -396599.047147 kJ/mol
# GULP energy per Si atom -12393.720223 kJ/mol
# Density = 1.745433 g / cm^3
# Si number density = 17.494145 Si / 1000 Ang^3
#
#
#
# Elastic Constant Matrix: (Units=GPa)
#
#
# Indices 1 2 3 4 5 6 
#
# 1 131.7519 27.1627 26.1734 0.0000 -6.4024 0.0000
# 2 27.1627 42.0199 8.1193 0.0000 3.4193 0.0000
# 3 26.1734 8.1193 48.9240 0.0000 -5.1839 0.0000
# 4 0.0000 0.0000 0.0000 16.6091 0.0000 -0.8615
# 5 -6.4024 3.4193 -5.1839 0.0000 16.1413 0.0000
# 6 0.0000 0.0000 0.0000 -0.8615 0.0000 26.7572
#
#
#
# Elastic Compliance Matrix: (Units=1/GPa)
#
#
# Indices 1 2 3 4 5 6 
#
# 1 0.009752 -0.005880 -0.003830 0.000000 0.003884 0.000000
# 2 -0.005880 0.028863 -0.002629 0.000000 -0.009291 0.000000
# 3 -0.003830 -0.002629 0.023627 0.000000 0.006626 0.000000
# 4 0.000000 0.000000 0.000000 0.060309 0.000000 0.001942
# 5 0.003884 -0.009291 0.006626 0.000000 0.067589 0.000000
# 6 0.000000 0.000000 0.000000 0.001942 0.000000 0.037436
#
#
# Mechanical properties :
#
#
# Convention : Reuss Voigt Hill
#
# Bulk Modulus (GPa) = 26.62046 38.40072 32.51059
# Shear Modulus (GPa) = 18.88404 22.65089 20.76746
#
# Velocity S-wave (km/s) = 3.28906 3.60219 3.44918
# Velocity P-wave (km/s) = 5.44736 6.26892 5.87252
#
# Compressibility (1/GPa) = 0.03756509
#
# Stress axis : x y z
#
# Youngs Moduli (GPa) = 102.54575 34.64633 42.32440
#
# Poissons Ratio (x) = 0.20371 0.16209
# Poissons Ratio (y) = 0.60295 0.11127
# Poissons Ratio (z) = 0.39272 0.09108
#
# Static dielectric constant tensor:
#      x y z
#    x 3.444760 0.000000 -0.170710 
#    y 0.000000 3.218750 0.000000 
#    z -0.170710 0.000000 3.087200 
# 
# 
# High freq. dielectric constant tensor:
#      x y z
#    x 1.678710 0.000000 -0.007250 
#    y 0.000000 1.677600 0.000000 
#    z -0.007250 0.000000 1.633900 
# 
# From -- ./inp_files/326880.got.cif
#   From: 2010.06.25/outbox.cif.g09.slc.cpg/sg12_164_cif.got.tgz:326880.got - 2010.06.28 00:19:55.
