data_PCOD8085791
_publ_section_title
;
Structure prediction by ZEFSAII (Michael W. Deem and Ramdas Pophale) SiO2 
 PCOD8085791
Probable space group: C 2/M
;
_chemical_formula_sum "Si O2"
_cell_formula_units_Z 48
_cell_length_a 8.533308
_cell_length_b 18.419324
_cell_length_c 21.337200
_cell_angle_alpha 90.000000
_cell_angle_beta 49.779463
_cell_angle_gamma 90.000000
_cell_volume 2560.792182
_symmetry_space_group_name_H-M "C 2/M"
_symmetry_group_IT_number 12
_symmetry_cell_setting 'monoclinic'
loop_
_space_group_symop_operation_xyz
x,y,z
-x,y,-z
-x,-y,-z
x,-y,z
1/2+x,1/2+y,z
1/2-x,1/2+y,-z
1/2-x,1/2-y,-z
1/2+x,1/2-y,z
loop_
_atom_site_type_symbol
_atom_site_label
_atom_site_fract_x
_atom_site_fract_y
_atom_site_fract_z
Si Si1 0.484856 0.693541 0.575739
Si Si2 0.291261 0.692551 0.159662
Si Si3 0.890308 0.306376 0.926770
Si Si4 0.390703 0.418654 0.961083
Si Si5 0.449917 0.177500 0.348278
Si Si6 0.844408 0.584668 0.485497
O O1 0.500000 0.719855 0.500000
O O2 0.568559 0.755389 0.599408
O O3 0.243356 0.676599 0.649878
O O4 0.623895 0.622806 0.551698
O O5 0.155904 0.681774 0.133896
O O6 0.379201 0.775291 0.130270
O O7 0.471705 0.632460 0.119342
O O8 0.159073 0.682921 0.255991
O O9 0.750000 0.250000 0.000000
O O10 0.840007 0.384146 0.972707
O O11 0.372697 0.500000 0.938099
O O12 0.500000 0.419234 0.000000
O O13 0.445834 0.105491 0.392306
O O14 0.799402 0.500000 0.498132
O O15 0.000000 0.607940 0.500000
#
# Coordination Sequence:
#
# PCOD8085791 Si02
#       6
#     8   8   8   8   8   8
#     4  10  20  34  53  75 102 136 177 214 253 311
#     4  10  19  30  50  77 101 129 164 212 260 298
#     4   9  17  31  50  72  98 131 169 203 246 303
#     4   8  15  29  48  69  95 128 165 201 241 295
#     4  11  20  32  52  78 105 133 171 222 267 304
#     4  10  21  37  55  74 101 139 176 210 257 317
#
# _framework density 18.744198999999998
#
# number of rings (size 3 to 8) (size 9 to 14) (size 15 to 20)
#    0.000    2.333    0.000    6.000    0.000    3.667 
#    0.000    0.000    0.000   11.000    0.000    0.000 
#    0.000    0.000    0.000    0.000    0.000    0.000 
#
# Total GULP energy -297374.288686 kJ/mol
# GULP energy per Si atom -12390.595362 kJ/mol
# Density = 1.870154 g / cm^3
# Si number density = 18.744199 Si / 1000 Ang^3
#
#
#
# Elastic Constant Matrix: (Units=GPa)
#
#
# Indices 1 2 3 4 5 6 
#
# 1 80.3457 37.6475 33.7559 0.0001 -11.9010 0.0001
# 2 37.6475 104.8037 43.0145 0.0000 -12.3861 0.0000
# 3 33.7559 43.0145 101.3014 0.0000 -17.3013 0.0000
# 4 0.0001 0.0000 0.0000 13.5013 0.0000 -0.4648
# 5 -11.9010 -12.3861 -17.3013 0.0000 28.3736 0.0000
# 6 0.0001 0.0000 0.0000 -0.4648 0.0000 27.8969
#
#
#
# Elastic Compliance Matrix: (Units=1/GPa)
#
#
# Indices 1 2 3 4 5 6 
#
# 1 0.016153 -0.004173 -0.003086 0.000000 0.003072 0.000000
# 2 -0.004173 0.012768 -0.003771 0.000000 0.001524 0.000000
# 3 -0.003086 -0.003771 0.013394 0.000000 0.005227 0.000000
# 4 0.000000 0.000000 0.000000 0.074110 0.000000 0.001235
# 5 0.003072 0.001524 0.005227 0.000000 0.040385 0.000000
# 6 0.000000 0.000000 0.000000 0.001235 0.000000 0.035867
#
#
# Mechanical properties :
#
#
# Convention : Reuss Voigt Hill
#
# Bulk Modulus (GPa) = 49.36907 57.25406 53.31157
# Shear Modulus (GPa) = 22.57460 25.42321 23.99890
#
# Velocity S-wave (km/s) = 3.47414 3.68683 3.58206
# Velocity P-wave (km/s) = 6.51831 6.98103 6.75364
#
# Compressibility (1/GPa) = 0.02025560
#
# Stress axis : x y z
#
# Youngs Moduli (GPa) = 61.90786 78.31803 74.66185
#
# Poissons Ratio (x) = 0.32681 0.23041
# Poissons Ratio (y) = 0.25833 0.28154
# Poissons Ratio (z) = 0.19105 0.29533
#
# Static dielectric constant tensor:
#      x y z
#    x 3.655110 0.000000 -0.164520 
#    y 0.000000 3.592360 0.000000 
#    z -0.164520 0.000000 3.391290 
# 
# 
# High freq. dielectric constant tensor:
#      x y z
#    x 1.721180 0.000000 -0.004540 
#    y 0.000000 1.718070 0.000000 
#    z -0.004540 0.000000 1.716700 
# 
# From -- ./inp_files/300613.got.cif
#   From: 2010.06.25/outbox.cif.g09.slc.cpg/sg12_151_cif.got.tgz:300613.got - 2010.06.28 00:19:55.
