data_PCOD8085955
_publ_section_title
;
Structure prediction by ZEFSAII (Michael W. Deem and Ramdas Pophale) SiO2 
 PCOD8085955
Probable space group: C 2/M
;
_chemical_formula_sum "Si O2"
_cell_formula_units_Z 56
_cell_length_a 15.953281
_cell_length_b 17.744211
_cell_length_c 13.629647
_cell_angle_alpha 90.000000
_cell_angle_beta 114.355392
_cell_angle_gamma 90.000000
_cell_volume 3514.892777
_symmetry_space_group_name_H-M "C 2/M"
_symmetry_group_IT_number 12
_symmetry_cell_setting 'monoclinic'
loop_
_space_group_symop_operation_xyz
x,y,z
-x,y,-z
-x,-y,-z
x,-y,z
1/2+x,1/2+y,z
1/2-x,1/2+y,-z
1/2-x,1/2-y,-z
1/2+x,1/2-y,z
loop_
_atom_site_type_symbol
_atom_site_label
_atom_site_fract_x
_atom_site_fract_y
_atom_site_fract_z
Si Si1 0.637859 0.410762 0.112316
Si Si2 0.177896 0.411915 0.700790
Si Si3 0.500350 0.176212 0.616346
Si Si4 0.045047 0.910922 0.872690
Si Si5 0.676413 0.912659 0.471928
Si Si6 0.867609 0.912375 0.468104
Si Si7 0.469684 0.347882 0.340218
O O1 0.637996 0.500000 0.120915
O O2 0.734891 0.378906 0.197392
O O3 0.554982 0.381139 0.140944
O O4 0.620384 0.386813 0.990893
O O5 0.162629 0.500000 0.713030
O O6 0.195523 0.395669 0.594980
O O7 0.088835 0.368702 0.698872
O O8 0.500000 0.172118 0.500000
O O9 0.407681 0.136508 0.611040
O O10 0.502954 0.261058 0.654751
O O11 0.072134 0.872726 0.783563
O O12 0.044717 0.000000 0.858454
O O13 0.766536 0.889445 0.454682
O O14 0.651560 0.000000 0.444974
O O15 0.892258 0.861065 0.386080
O O16 0.939858 0.896634 0.590339
O O17 0.873305 0.000000 0.442051
#
# Coordination Sequence:
#
# PCOD8085955 Si02
#       7
#     8   8   8   8   8   8   8
#     4   8  15  28  47  72  89 109 149 192 231 267
#     4   9  16  29  49  68  88 117 153 192 231 267
#     4  10  19  32  43  66  97 122 153 187 226 272
#     4   9  16  28  47  68  93 117 147 188 227 271
#     4   9  18  31  49  69  90 121 157 191 224 263
#     4  10  19  31  46  65  92 125 160 184 215 270
#     4  11  19  30  42  68  96 125 148 178 230 275
#
# _framework density 15.932207
#
# number of rings (size 3 to 8) (size 9 to 14) (size 15 to 20)
#    0.000    2.571    1.429    3.857    0.000    4.571 
#    2.571    0.714    0.000    0.000    0.000    0.000 
#    0.000    5.714    0.000    0.000    0.000    0.000 
#
# Total GULP energy -347161.971798 kJ/mol
# GULP energy per Si atom -12398.641850 kJ/mol
# Density = 1.589594 g / cm^3
# Si number density = 15.932207 Si / 1000 Ang^3
#
#
#
# Elastic Constant Matrix: (Units=GPa)
#
#
# Indices 1 2 3 4 5 6 
#
# 1 106.8288 44.6009 54.3778 0.0000 14.6412 0.0000
# 2 44.6009 60.0878 32.4644 0.0000 7.1370 0.0000
# 3 54.3778 32.4644 99.8983 0.0000 10.8619 0.0000
# 4 0.0000 0.0000 0.0000 13.0609 0.0000 0.7225
# 5 14.6412 7.1370 10.8619 0.0000 25.9260 0.0000
# 6 0.0000 0.0000 0.0000 0.7225 0.0000 13.5465
#
#
#
# Elastic Compliance Matrix: (Units=1/GPa)
#
#
# Indices 1 2 3 4 5 6 
#
# 1 0.016469 -0.008621 -0.005668 0.000000 -0.004553 0.000000
# 2 -0.008621 0.024916 -0.003340 0.000000 -0.000591 0.000000
# 3 -0.005668 -0.003340 0.014388 0.000000 -0.001908 0.000000
# 4 0.000000 0.000000 0.000000 0.076791 0.000000 -0.004096
# 5 -0.004553 -0.000591 -0.001908 0.000000 0.042104 0.000000
# 6 0.000000 0.000000 0.000000 -0.004096 0.000000 0.074038
#
#
# Mechanical properties :
#
#
# Convention : Reuss Voigt Hill
#
# Bulk Modulus (GPa) = 48.74456 58.85566 53.80011
# Shear Modulus (GPa) = 17.19365 19.53147 18.36256
#
# Velocity S-wave (km/s) = 3.28864 3.50510 3.39860
# Velocity P-wave (km/s) = 6.71429 7.30770 7.01727
#
# Compressibility (1/GPa) = 0.02051511
#
# Stress axis : x y z
#
# Youngs Moduli (GPa) = 60.71913 40.13413 69.50092
#
# Poissons Ratio (x) = 0.34601 0.39393
# Poissons Ratio (y) = 0.52349 0.23214
# Poissons Ratio (z) = 0.34415 0.13405
#
# Static dielectric constant tensor:
#      x y z
#    x 3.050120 0.000000 0.179550 
#    y 0.000000 2.927570 0.000000 
#    z 0.179550 0.000000 3.044990 
# 
# 
# High freq. dielectric constant tensor:
#      x y z
#    x 1.606220 0.000000 0.010440 
#    y 0.000000 1.594240 0.000000 
#    z 0.010440 0.000000 1.595160 
# 
# From -- ./inp_files/216005.got.cif
#   From: 2010.06.25/outbox.cif.g09.slc.cpg/sg12_109_cif.got.tgz:216005.got - 2010.06.28 00:19:55.
