data_PCOD8085418
_publ_section_title
;
Structure prediction by ZEFSAII (Michael W. Deem and Ramdas Pophale) SiO2 
 PCOD8085418
Probable space group: C 2/M
;
_chemical_formula_sum "Si O2"
_cell_formula_units_Z 56
_cell_length_a 36.206095
_cell_length_b 7.622505
_cell_length_c 15.225882
_cell_angle_alpha 90.000000
_cell_angle_beta 130.764306
_cell_angle_gamma 90.000000
_cell_volume 3182.645722
_symmetry_space_group_name_H-M "C 2/M"
_symmetry_group_IT_number 12
_symmetry_cell_setting 'monoclinic'
loop_
_space_group_symop_operation_xyz
x,y,z
-x,y,-z
-x,-y,-z
x,-y,z
1/2+x,1/2+y,z
1/2-x,1/2+y,-z
1/2-x,1/2-y,-z
1/2+x,1/2-y,z
loop_
_atom_site_type_symbol
_atom_site_label
_atom_site_fract_x
_atom_site_fract_y
_atom_site_fract_z
Si Si1 0.635558 0.292993 0.351208
Si Si2 0.312820 0.704975 0.034204
Si Si3 0.804407 0.202481 0.727907
Si Si4 0.062557 0.500000 0.188679
Si Si5 0.210062 0.199469 0.814570
Si Si6 0.801296 0.801080 0.391921
Si Si7 0.116593 0.204173 0.006603
Si Si8 0.450820 0.000000 0.038260
O O1 0.621637 0.500000 0.332543
O O2 0.673571 0.255770 0.332640
O O3 0.661380 0.219103 0.479676
O O4 0.587417 0.178156 0.261902
O O5 0.300250 0.500000 0.019283
O O6 0.315802 0.782752 0.138720
O O7 0.362898 0.738718 0.059843
O O8 0.268509 0.794444 0.913915
O O9 0.753789 0.303082 0.657913
O O10 0.792599 0.000000 0.723458
O O11 0.842502 0.265002 0.860772
O O12 0.063488 0.500000 0.085430
O O13 0.008322 0.500000 0.142403
O O14 0.194946 0.293128 0.698665
O O15 0.193280 0.000000 0.781134
O O16 0.817670 0.000000 0.407142
O O17 0.102250 0.000000 0.998061
O O18 0.069422 0.324384 0.946783
#
# Coordination Sequence:
#
# PCOD8085418 Si02
#       8
#     8   8   8   4   8   8   8   4
#     4  10  22  38  52  74 106 141 179 217 262 311
#     4   9  17  29  45  69 105 141 172 213 255 305
#     4  10  19  30  46  72 105 143 177 208 245 307
#     4  11  24  40  58  79 101 137 175 234 274 309
#     4   9  17  28  44  70 103 141 180 208 248 302
#     4  10  20  30  48  74 104 145 183 211 249 306
#     4  10  20  34  53  78 108 139 173 214 262 315
#     4  11  24  38  60  81  99 133 185 220 281 319
#
# _framework density 17.595424000000001
#
# number of rings (size 3 to 8) (size 9 to 14) (size 15 to 20)
#    0.000    2.143    2.857    0.429    4.000    0.571 
#    0.000    1.429    0.000    0.000    0.000    2.000 
#    0.000    5.714    0.000    0.000    0.000    0.000 
#
# Total GULP energy -347030.229599 kJ/mol
# GULP energy per Si atom -12393.936771 kJ/mol
# Density = 1.755538 g / cm^3
# Si number density = 17.595424 Si / 1000 Ang^3
#
#
#
# Elastic Constant Matrix: (Units=GPa)
#
#
# Indices 1 2 3 4 5 6 
#
# 1 117.9034 38.8839 70.1568 0.0000 -10.1360 0.0000
# 2 38.8839 58.4589 31.8375 0.0000 3.1986 0.0001
# 3 70.1568 31.8375 108.9704 0.0000 -14.0265 0.0000
# 4 0.0000 0.0000 0.0000 17.7454 0.0000 3.3088
# 5 -10.1360 3.1986 -14.0265 0.0000 29.2095 0.0000
# 6 0.0000 0.0001 0.0000 3.3088 0.0000 7.8588
#
#
#
# Elastic Compliance Matrix: (Units=1/GPa)
#
#
# Indices 1 2 3 4 5 6 
#
# 1 0.015314 -0.006059 -0.007802 0.000000 0.002231 0.000000
# 2 -0.006059 0.023577 -0.003827 0.000000 -0.006522 0.000000
# 3 -0.007802 -0.003827 0.016013 0.000000 0.005401 0.000000
# 4 0.000000 0.000000 0.000000 0.061154 0.000000 -0.025747
# 5 0.002231 -0.006522 0.005401 0.000000 0.038318 0.000000
# 6 0.000000 0.000000 0.000000 -0.025747 0.000000 0.138087
#
#
# Mechanical properties :
#
#
# Convention : Reuss Voigt Hill
#
# Bulk Modulus (GPa) = 51.20776 63.00991 57.10883
# Shear Modulus (GPa) = 14.95445 20.59303 17.77374
#
# Velocity S-wave (km/s) = 2.91848 3.42477 3.18171
# Velocity P-wave (km/s) = 6.36575 7.17822 6.78416
#
# Compressibility (1/GPa) = 0.01952829
#
# Stress axis : x y z
#
# Youngs Moduli (GPa) = 65.29959 42.41347 62.44838
#
# Poissons Ratio (x) = 0.25699 0.48722
# Poissons Ratio (y) = 0.39566 0.23900
# Poissons Ratio (z) = 0.50946 0.16232
#
# Static dielectric constant tensor:
#      x y z
#    x 3.360020 0.000000 -0.458520 
#    y 0.000000 3.221320 0.000000 
#    z -0.458520 0.000000 3.327950 
# 
# 
# High freq. dielectric constant tensor:
#      x y z
#    x 1.667430 0.000000 -0.032650 
#    y 0.000000 1.680380 0.000000 
#    z -0.032650 0.000000 1.653110 
# 
# From -- ./inp_files/248940.got.cif
#   From: 2010.06.25/outbox.cif.g09.slc.cpg/sg12_125_cif.got.tgz:248940.got - 2010.06.28 00:19:55.
