data_PCOD8085350
_publ_section_title
;
Structure prediction by ZEFSAII (Michael W. Deem and Ramdas Pophale) SiO2 
 PCOD8085350
Probable space group: C 2/M
;
_chemical_formula_sum "Si O2"
_cell_formula_units_Z 64
_cell_length_a 18.797007
_cell_length_b 9.002898
_cell_length_c 22.632629
_cell_angle_alpha 90.000000
_cell_angle_beta 66.135222
_cell_angle_gamma 90.000000
_cell_volume 3502.604453
_symmetry_space_group_name_H-M "C 2/M"
_symmetry_group_IT_number 12
_symmetry_cell_setting 'monoclinic'
loop_
_space_group_symop_operation_xyz
x,y,z
-x,y,-z
-x,-y,-z
x,-y,z
1/2+x,1/2+y,z
1/2-x,1/2+y,-z
1/2-x,1/2-y,-z
1/2+x,1/2-y,z
loop_
_atom_site_type_symbol
_atom_site_label
_atom_site_fract_x
_atom_site_fract_y
_atom_site_fract_z
Si Si1 0.606200 0.171939 0.712317
Si Si2 0.217533 0.667687 0.923306
Si Si3 0.630460 0.667382 0.047203
Si Si4 0.188291 0.669787 0.438414
Si Si5 0.806963 0.673275 0.796868
Si Si6 0.955433 0.674003 0.826209
Si Si7 0.338827 0.170933 0.427603
Si Si8 0.279031 0.675478 0.685478
O O1 0.534515 0.244578 0.772109
O O2 0.595460 0.198312 0.644927
O O3 0.690163 0.232026 0.705674
O O4 0.602223 0.000000 0.728634
O O5 0.193437 0.500000 0.915364
O O6 0.292346 0.670578 0.939702
O O7 0.235315 0.755092 0.856969
O O8 0.145660 0.745433 0.981044
O O9 0.605978 0.500000 0.039941
O O10 0.560656 0.744843 0.106403
O O11 0.186900 0.500000 0.417199
O O12 0.272173 0.709945 0.436746
O O13 0.130218 0.692890 0.515006
O O14 0.169147 0.773144 0.388547
O O15 0.790188 0.500000 0.795892
O O16 0.887485 0.706394 0.802492
O O17 0.814240 0.747866 0.730861
O O18 0.961349 0.500000 0.837605
O O19 0.307588 0.000000 0.430728
O O20 0.284877 0.500000 0.690021
#
# Coordination Sequence:
#
# PCOD8085350 Si02
#       8
#     8   8   8   8   8   8   8   8
#     4   8  15  29  48  68  89 117 152 185 219 264
#     4   9  16  27  44  65  89 118 151 184 220 262
#     4   9  16  26  42  66  93 117 146 185 224 261
#     4   9  15  24  41  65  90 114 146 188 228 264
#     4  10  19  30  46  69  94 118 147 185 227 267
#     4   9  17  30  48  68  91 119 150 184 222 266
#     4   8  14  25  42  64  89 116 147 185 226 266
#     4  10  19  31  47  66  91 122 153 185 223 268
#
# _framework density 18.272117999999999
#
# number of rings (size 3 to 8) (size 9 to 14) (size 15 to 20)
#    0.000    3.000    0.000    2.625    0.000    4.000 
#    0.000    3.125    0.000    1.500    0.000   10.500 
#    0.000    0.000    0.000    0.000    0.000    0.000 
#
# Total GULP energy -396510.866905 kJ/mol
# GULP energy per Si atom -12390.964591 kJ/mol
# Density = 1.823053 g / cm^3
# Si number density = 18.272118 Si / 1000 Ang^3
#
#
#
# Elastic Constant Matrix: (Units=GPa)
#
#
# Indices 1 2 3 4 5 6 
#
# 1 10.5617 8.8641 -4.3715 0.0000 -1.5459 -0.0001
# 2 8.8641 73.2727 8.1256 -0.0001 5.0737 -0.0002
# 3 -4.3715 8.1256 35.0032 0.0000 -2.3699 0.0000
# 4 0.0000 -0.0001 0.0000 33.9178 0.0000 5.5516
# 5 -1.5459 5.0737 -2.3699 0.0000 25.7513 0.0000
# 6 -0.0001 -0.0002 0.0000 5.5516 0.0000 13.0139
#
#
#
# Elastic Compliance Matrix: (Units=1/GPa)
#
#
# Indices 1 2 3 4 5 6 
#
# 1 0.119394 -0.017502 0.019816 0.000000 0.012440 0.000000
# 2 -0.017502 0.016821 -0.006426 0.000000 -0.004956 0.000000
# 3 0.019816 -0.006426 0.032907 0.000000 0.005484 0.000000
# 4 0.000000 0.000000 0.000000 0.031696 0.000000 -0.013521
# 5 0.012440 -0.004956 0.005484 0.000000 0.041061 0.000000
# 6 0.000000 0.000000 0.000000 -0.013521 0.000000 0.082609
#
#
# Mechanical properties :
#
#
# Convention : Reuss Voigt Hill
#
# Bulk Modulus (GPa) = 6.21517 16.00822 11.11170
# Shear Modulus (GPa) = 12.94181 21.61789 17.27985
#
# Velocity S-wave (km/s) = 2.66424 3.44337 3.07855
# Velocity P-wave (km/s) = 3.58791 4.95873 4.32794
#
# Compressibility (1/GPa) = 0.16089663
#
# Stress axis : x y z
#
# Youngs Moduli (GPa) = 8.37562 59.45019 30.38894
#
# Poissons Ratio (x) = 1.04052 -0.60219
# Poissons Ratio (y) = 0.14659 0.19529
# Poissons Ratio (z) = -0.16597 0.38204
#
# Static dielectric constant tensor:
#      x y z
#    x 2.828350 0.000000 -0.041380 
#    y 0.000000 3.352420 0.000000 
#    z -0.041380 0.000000 3.870710 
# 
# 
# High freq. dielectric constant tensor:
#      x y z
#    x 1.633960 0.000000 0.007950 
#    y 0.000000 1.706560 0.000000 
#    z 0.007950 0.000000 1.732870 
# 
# From -- ./inp_files/345519.got.cif
#   From: 2010.06.25/outbox.cif.g09.slc.cpg/sg12_173_cif.got.tgz:345519.got - 2010.06.28 00:19:55.
