data_PCOD8085766
_publ_section_title
;
Structure prediction by ZEFSAII (Michael W. Deem and Ramdas Pophale) SiO2 
 PCOD8085766
Probable space group: C 2/M
;
_chemical_formula_sum "Si O2"
_cell_formula_units_Z 64
_cell_length_a 24.351047
_cell_length_b 9.115817
_cell_length_c 16.334068
_cell_angle_alpha 90.000000
_cell_angle_beta 87.585367
_cell_angle_gamma 90.000000
_cell_volume 3622.611956
_symmetry_space_group_name_H-M "C 2/M"
_symmetry_group_IT_number 12
_symmetry_cell_setting 'monoclinic'
loop_
_space_group_symop_operation_xyz
x,y,z
-x,y,-z
-x,-y,-z
x,-y,z
1/2+x,1/2+y,z
1/2-x,1/2+y,-z
1/2-x,1/2-y,-z
1/2+x,1/2-y,z
loop_
_atom_site_type_symbol
_atom_site_label
_atom_site_fract_x
_atom_site_fract_y
_atom_site_fract_z
Si Si1 0.384216 0.671031 0.306934
Si Si2 0.689555 0.327611 0.834272
Si Si3 0.899684 0.829841 0.040230
Si Si4 0.292641 0.671744 0.606601
Si Si5 0.481292 0.666950 0.183529
Si Si6 0.171736 0.328712 0.551728
Si Si7 0.585928 0.827664 0.129780
Si Si8 0.307958 0.172342 0.775120
O O1 0.373960 0.500000 0.326548
O O2 0.339423 0.734808 0.245462
O O3 0.444818 0.697316 0.266413
O O4 0.377586 0.762905 0.390646
O O5 0.678776 0.500000 0.832285
O O6 0.658524 0.271726 0.918296
O O7 0.753554 0.284959 0.830774
O O8 0.946675 0.801629 0.104072
O O9 0.896707 0.000000 0.015538
O O10 0.914445 0.737918 0.960301
O O11 0.305241 0.500000 0.604604
O O12 0.228879 0.705616 0.593945
O O13 0.329769 0.749381 0.535654
O O14 0.310120 0.737245 0.691972
O O15 0.502035 0.500000 0.181632
O O16 0.533916 0.771397 0.184383
O O17 0.162250 0.500000 0.538389
O O18 0.640880 0.779483 0.173283
O O19 0.582032 0.000000 0.121988
O O20 0.307852 0.000000 0.753960
#
# Coordination Sequence:
#
# PCOD8085766 Si02
#       8
#     8   8   8   8   8   8   8   8
#     4   9  16  30  54  78  99 129 169 210 252 296
#     4   8  15  30  52  73  96 130 167 206 252 298
#     4   9  18  34  55  75  95 127 172 217 257 300
#     4  10  20  32  49  76 106 137 171 202 239 294
#     4   9  19  35  55  76  97 130 175 216 253 297
#     4  10  19  30  49  79 110 135 161 199 252 301
#     4  11  23  34  48  74 103 136 171 208 260 306
#     4  10  20  35  52  70 102 140 171 205 251 306
#
# _framework density 17.666810000000002
#
# number of rings (size 3 to 8) (size 9 to 14) (size 15 to 20)
#    0.000    2.500    1.250    3.000    0.000    5.000 
#    0.000    2.500    0.000    0.750    0.000    5.250 
#    0.000    0.000    0.000    0.000    0.000    0.000 
#
# Total GULP energy -396791.238265 kJ/mol
# GULP energy per Si atom -12399.726196 kJ/mol
# Density = 1.762660 g / cm^3
# Si number density = 17.666810 Si / 1000 Ang^3
#
#
#
# Elastic Constant Matrix: (Units=GPa)
#
#
# Indices 1 2 3 4 5 6 
#
# 1 102.1878 38.2036 34.2448 0.0000 -16.4972 0.0000
# 2 38.2036 61.4652 32.4293 0.0000 -10.1329 0.0000
# 3 34.2448 32.4293 60.3088 0.0000 -26.4885 0.0000
# 4 0.0000 0.0000 0.0000 30.2502 0.0000 -2.9066
# 5 -16.4972 -10.1329 -26.4885 0.0000 22.7079 0.0000
# 6 0.0000 0.0000 0.0000 -2.9066 0.0000 25.1314
#
#
#
# Elastic Compliance Matrix: (Units=1/GPa)
#
#
# Indices 1 2 3 4 5 6 
#
# 1 0.013731 -0.006568 -0.002401 0.000000 0.004244 0.000000
# 2 -0.006568 0.026670 -0.015339 0.000000 -0.010764 0.000000
# 3 -0.002401 -0.015339 0.045976 0.000000 0.045041 0.000000
# 4 0.000000 0.000000 0.000000 0.033429 0.000000 0.003866
# 5 0.004244 -0.010764 0.045041 0.000000 0.094858 0.000000
# 6 0.000000 0.000000 0.000000 0.003866 0.000000 0.040238
#
#
# Mechanical properties :
#
#
# Convention : Reuss Voigt Hill
#
# Bulk Modulus (GPa) = 26.48287 48.19079 37.33683
# Shear Modulus (GPa) = 15.81747 23.55684 19.68715
#
# Velocity S-wave (km/s) = 2.99544 3.65553 3.34182
# Velocity P-wave (km/s) = 5.19483 6.71967 6.00584
#
# Compressibility (1/GPa) = 0.03776026
#
# Stress axis : x y z
#
# Youngs Moduli (GPa) = 72.82656 37.49467 21.75063
#
# Poissons Ratio (x) = 0.24627 0.05222
# Poissons Ratio (y) = 0.47834 0.33364
# Poissons Ratio (z) = 0.17486 0.57514
#
# Static dielectric constant tensor:
#      x y z
#    x 3.263680 0.000000 -0.222140 
#    y 0.000000 3.118420 0.000000 
#    z -0.222140 0.000000 3.198410 
# 
# 
# High freq. dielectric constant tensor:
#      x y z
#    x 1.669010 0.000000 -0.023620 
#    y 0.000000 1.672930 0.000000 
#    z -0.023620 0.000000 1.678890 
# 
# From -- ./inp_files/238663.got.cif
#   From: 2010.06.25/outbox.cif.g09.slc.cpg/sg12_120_cif.got.tgz:238663.got - 2010.06.28 00:19:55.
