data_PCOD8085501
_publ_section_title
;
Structure prediction by ZEFSAII (Michael W. Deem and Ramdas Pophale) SiO2 
 PCOD8085501
Probable space group: C 2/M
;
_chemical_formula_sum "Si O2"
_cell_formula_units_Z 56
_cell_length_a 27.401692
_cell_length_b 8.798142
_cell_length_c 18.156253
_cell_angle_alpha 90.000000
_cell_angle_beta 48.838089
_cell_angle_gamma 90.000000
_cell_volume 3295.372723
_symmetry_space_group_name_H-M "C 2/M"
_symmetry_group_IT_number 12
_symmetry_cell_setting 'monoclinic'
loop_
_space_group_symop_operation_xyz
x,y,z
-x,y,-z
-x,-y,-z
x,-y,z
1/2+x,1/2+y,z
1/2-x,1/2+y,-z
1/2-x,1/2-y,-z
1/2+x,1/2-y,z
loop_
_atom_site_type_symbol
_atom_site_label
_atom_site_fract_x
_atom_site_fract_y
_atom_site_fract_z
Si Si1 0.068300 0.829192 0.891852
Si Si2 0.006814 0.175285 0.666107
Si Si3 0.870579 0.322075 0.037022
Si Si4 0.371128 0.324710 0.720148
Si Si5 0.251347 0.178999 0.918578
Si Si6 0.431784 0.171390 0.527202
Si Si7 0.503752 0.177942 0.826398
O O1 0.118216 0.728329 0.889639
O O2 0.059276 0.758262 0.819937
O O3 0.095522 0.000000 0.857475
O O4 0.000000 0.827622 0.000000
O O5 0.061030 0.240725 0.557031
O O6 0.011570 0.269776 0.735576
O O7 0.935791 0.196569 0.703192
O O8 0.022134 0.000000 0.666670
O O9 0.855619 0.500000 0.049319
O O10 0.810150 0.230568 0.066654
O O11 0.932257 0.277966 0.925824
O O12 0.350145 0.500000 0.736560
O O13 0.316199 0.227066 0.813074
O O14 0.380522 0.261912 0.628218
O O15 0.250217 0.000000 0.928664
O O16 0.250000 0.250000 0.000000
O O17 0.500000 0.168248 0.500000
O O18 0.406830 0.000000 0.537980
O O19 0.515155 0.000000 0.821505
#
# Coordination Sequence:
#
# PCOD8085501 Si02
#       7
#     8   8   8   8   8   8   8
#     4   9  17  30  48  69  94 124 158 196 239 287
#     4  10  19  30  47  71  98 127 159 198 243 288
#     4  10  20  34  50  69  96 129 164 200 239 284
#     4  10  20  34  50  69  96 129 164 200 239 284
#     4  12  24  36  50  70  97 130 167 202 238 280
#     4   9  17  30  48  69  94 124 158 196 239 287
#     4  10  19  30  47  71  98 127 159 198 243 288
#
# _framework density 16.993525000000002
#
# number of rings (size 3 to 8) (size 9 to 14) (size 15 to 20)
#    0.000    2.000    0.000    4.714    0.000    9.143 
#    0.000    0.000    0.000    0.000    0.000    1.000 
#    0.000    0.000    0.000    0.000    0.000    0.000 
#
# Total GULP energy -347267.274758 kJ/mol
# GULP energy per Si atom -12402.402670 kJ/mol
# Density = 1.695485 g / cm^3
# Si number density = 16.993525 Si / 1000 Ang^3
#
#
#
# Elastic Constant Matrix: (Units=GPa)
#
#
# Indices 1 2 3 4 5 6 
#
# 1 60.9175 31.4070 33.2977 0.0047 6.2125 0.0005
# 2 31.4070 101.8945 35.9649 0.0025 -2.3623 0.0055
# 3 33.2977 35.9649 84.4064 0.0329 12.9928 -0.0050
# 4 0.0047 0.0025 0.0329 30.6624 0.0052 5.4919
# 5 6.2125 -2.3623 12.9928 0.0052 17.4607 -0.0012
# 6 0.0005 0.0055 -0.0050 5.4919 -0.0012 31.7414
#
#
#
# Elastic Compliance Matrix: (Units=1/GPa)
#
#
# Indices 1 2 3 4 5 6 
#
# 1 0.022791 -0.004908 -0.006267 0.000005 -0.004110 -0.000001
# 2 -0.004908 0.013173 -0.004766 0.000004 0.007075 -0.000003
# 3 -0.006267 -0.004766 0.018190 -0.000017 -0.011950 0.000006
# 4 0.000005 0.000004 -0.000017 0.033656 0.000001 -0.005823
# 5 -0.004110 0.007075 -0.011950 0.000001 0.068583 -0.000001
# 6 -0.000001 -0.000003 0.000006 -0.005823 -0.000001 0.032512
#
#
# Mechanical properties :
#
#
# Convention : Reuss Voigt Hill
#
# Bulk Modulus (GPa) = 44.89898 49.83971 47.36935
# Shear Modulus (GPa) = 21.90957 25.74283 23.82620
#
# Velocity S-wave (km/s) = 3.59456 3.89634 3.74849
# Velocity P-wave (km/s) = 6.61108 7.04516 6.83157
#
# Compressibility (1/GPa) = 0.02227222
#
# Stress axis : x y z
#
# Youngs Moduli (GPa) = 43.87754 75.91256 54.97563
#
# Poissons Ratio (x) = 0.37259 0.34452
# Poissons Ratio (y) = 0.21536 0.26200
# Poissons Ratio (z) = 0.27497 0.36178
#
# Static dielectric constant tensor:
#      x y z
#    x 3.190530 0.000120 -0.010740 
#    y 0.000120 3.704300 -0.000840 
#    z -0.010740 -0.000840 3.872240 
# 
# 
# High freq. dielectric constant tensor:
#      x y z
#    x 1.636790 0.000000 0.022360 
#    y 0.000000 1.678580 0.000000 
#    z 0.022360 0.000000 1.636150 
# 
# From -- ./inp_files/238393.got.cif
#   From: 2010.06.25/outbox.cif.g09.slc.cpg/sg12_120_cif.got.tgz:238393.got - 2010.06.28 00:19:55.
