data_PCOD8085875
_publ_section_title
;
Structure prediction by ZEFSAII (Michael W. Deem and Ramdas Pophale) SiO2 
 PCOD8085875
Probable space group: C 2/M
;
_chemical_formula_sum "Si O2"
_cell_formula_units_Z 64
_cell_length_a 22.684762
_cell_length_b 26.160495
_cell_length_c 16.932069
_cell_angle_alpha 90.000000
_cell_angle_beta 20.426241
_cell_angle_gamma 90.000000
_cell_volume 3506.850337
_symmetry_space_group_name_H-M "C 2/M"
_symmetry_group_IT_number 12
_symmetry_cell_setting 'monoclinic'
loop_
_space_group_symop_operation_xyz
x,y,z
-x,y,-z
-x,-y,-z
x,-y,z
1/2+x,1/2+y,z
1/2-x,1/2+y,-z
1/2-x,1/2-y,-z
1/2+x,1/2-y,z
loop_
_atom_site_type_symbol
_atom_site_label
_atom_site_fract_x
_atom_site_fract_y
_atom_site_fract_z
Si Si1 0.990799 0.559000 0.326631
Si Si2 0.005004 0.642387 0.799044
Si Si3 0.316495 0.327770 0.712654
Si Si4 0.975771 0.741273 0.319299
Si Si5 0.166884 0.309147 0.745012
Si Si6 0.214629 0.272258 0.163702
Si Si7 0.841565 0.058478 0.152825
Si Si8 0.661466 0.110025 0.249061
O O1 0.039707 0.500000 0.251488
O O2 0.964948 0.585981 0.273901
O O3 0.818888 0.564845 0.589972
O O4 0.142787 0.587638 0.183760
O O5 0.047646 0.682386 0.675774
O O6 0.117823 0.653213 0.734984
O O7 0.808343 0.646156 0.068267
O O8 0.500000 0.350280 0.500000
O O9 0.270332 0.341609 0.680265
O O10 0.306234 0.265719 0.735586
O O11 0.787698 0.764625 0.559851
O O12 0.077058 0.747369 0.273416
O O13 0.090954 0.769955 0.109498
O O14 0.000000 0.286823 0.000000
O O15 0.172791 0.329342 0.240036
O O16 0.822730 0.087008 0.092308
O O17 0.878533 0.000000 0.085475
O O18 0.000000 0.082868 0.000000
O O19 0.500000 0.090365 0.500000
#
# Coordination Sequence:
#
# PCOD8085875 Si02
#       8
#     8   8   8   8   8   8   8   8
#     4  10  20  36  56  74 101 140 179 220 265 310
#     4  10  21  35  52  79 106 135 177 222 260 308
#     4  10  19  34  54  75 104 142 173 207 259 319
#     4  10  19  33  50  76 111 139 170 214 258 308
#     4  10  21  34  51  74 109 143 174 215 260 314
#     4  10  19  30  52  79 107 139 174 213 250 305
#     4   9  19  35  52  75 106 137 171 217 265 306
#     4  10  19  31  52  81 107 138 176 212 249 315
#
# _framework density 18.249994999999998
#
# number of rings (size 3 to 8) (size 9 to 14) (size 15 to 20)
#    0.000    2.125    2.500    1.125    0.000    2.500 
#    0.000    3.750    0.000    3.750    0.000    0.000 
#    0.000    0.000    0.000    0.000    0.000    0.000 
#
# Total GULP energy -396703.806779 kJ/mol
# GULP energy per Si atom -12396.993962 kJ/mol
# Density = 1.820846 g / cm^3
# Si number density = 18.249995 Si / 1000 Ang^3
#
#
#
# Elastic Constant Matrix: (Units=GPa)
#
#
# Indices 1 2 3 4 5 6 
#
# 1 106.7821 38.9800 30.6094 0.0811 -12.7163 -0.0101
# 2 38.9800 80.5746 17.7792 0.1573 -1.1874 0.0069
# 3 30.6094 17.7792 76.8746 0.2530 -12.6260 0.0197
# 4 0.0811 0.1573 0.2530 16.7785 -0.0311 0.3154
# 5 -12.7163 -1.1874 -12.6260 -0.0311 28.7350 0.0002
# 6 -0.0101 0.0069 0.0197 0.3154 0.0002 24.3242
#
#
#
# Elastic Compliance Matrix: (Units=1/GPa)
#
#
# Indices 1 2 3 4 5 6 
#
# 1 0.012718 -0.005397 -0.003156 0.000044 0.004019 0.000009
# 2 -0.005397 0.015388 -0.001829 -0.000095 -0.002557 -0.000004
# 3 -0.003156 -0.001829 0.015570 -0.000192 0.005369 -0.000011
# 4 0.000044 -0.000095 -0.000192 0.059618 -0.000004 -0.000773
# 5 0.004019 -0.002557 0.005369 -0.000004 0.038833 -0.000002
# 6 0.000009 -0.000004 -0.000011 -0.000773 -0.000002 0.041121
#
#
# Mechanical properties :
#
#
# Convention : Reuss Voigt Hill
#
# Bulk Modulus (GPa) = 43.64623 48.77427 46.21025
# Shear Modulus (GPa) = 23.62375 25.75839 24.69107
#
# Velocity S-wave (km/s) = 3.60175 3.76096 3.68222
# Velocity P-wave (km/s) = 6.42375 6.75599 6.59196
#
# Compressibility (1/GPa) = 0.02291149
#
# Stress axis : x y z
#
# Youngs Moduli (GPa) = 78.62692 64.98520 64.22450
#
# Poissons Ratio (x) = 0.35074 0.20269
# Poissons Ratio (y) = 0.42437 0.11749
# Poissons Ratio (z) = 0.24814 0.11889
#
# Static dielectric constant tensor:
#      x y z
#    x 3.577960 -0.000170 -0.128270 
#    y -0.000170 3.015890 0.000440 
#    z -0.128270 0.000440 3.404760 
# 
# 
# High freq. dielectric constant tensor:
#      x y z
#    x 1.719390 -0.000020 -0.007660 
#    y -0.000020 1.667620 0.000030 
#    z -0.007660 0.000030 1.701170 
# 
# From -- ./inp_files/291072.got.cif
#   From: 2010.06.25/outbox.cif.g09.slc.cpg/sg12_146_cif.got.tgz:291072.got - 2010.06.28 00:19:55.
