data_PCOD8085353
_publ_section_title
;
Structure prediction by ZEFSAII (Michael W. Deem and Ramdas Pophale) SiO2 
 PCOD8085353
Probable space group: C 2/M
;
_chemical_formula_sum "Si O2"
_cell_formula_units_Z 40
_cell_length_a 24.048870
_cell_length_b 9.405148
_cell_length_c 20.805469
_cell_angle_alpha 90.000000
_cell_angle_beta 31.349552
_cell_angle_gamma 90.000000
_cell_volume 2448.254132
_symmetry_space_group_name_H-M "C 2/M"
_symmetry_group_IT_number 12
_symmetry_cell_setting 'monoclinic'
loop_
_space_group_symop_operation_xyz
x,y,z
-x,y,-z
-x,-y,-z
x,-y,z
1/2+x,1/2+y,z
1/2-x,1/2+y,-z
1/2-x,1/2-y,-z
1/2+x,1/2-y,z
loop_
_atom_site_type_symbol
_atom_site_label
_atom_site_fract_x
_atom_site_fract_y
_atom_site_fract_z
Si Si1 0.992434 0.834745 0.433887
Si Si2 0.674373 0.165086 0.485132
Si Si3 0.371776 0.162600 0.321476
Si Si4 0.105448 0.664123 0.102621
Si Si5 0.668311 0.336739 0.162118
O O1 0.902883 0.740909 0.488632
O O2 0.000000 0.787518 0.500000
O O3 0.108863 0.804476 0.287713
O O4 0.960452 0.000000 0.458638
O O5 0.631153 0.190390 0.599333
O O6 0.792083 0.233902 0.362405
O O7 0.682415 0.000000 0.459408
O O8 0.492842 0.198291 0.178748
O O9 0.339946 0.000000 0.337465
O O10 0.106930 0.500000 0.121452
O O11 0.112181 0.748958 0.161875
O O12 0.205167 0.702001 0.957224
O O13 0.654625 0.500000 0.155915
#
# Coordination Sequence:
#
# PCOD8085353 Si02
#       5
#     8   8   8   8   8
#     4  10  20  33  48  67  95 128 159 190 224 269
#     4  10  19  30  46  69  94 121 156 192 230 275
#     4   9  17  29  46  68  96 122 145 187 238 281
#     4   9  16  28  46  69  95 119 146 187 235 278
#     4   9  17  28  45  68  93 121 153 187 227 274
#
# _framework density 16.338173000000001
#
# number of rings (size 3 to 8) (size 9 to 14) (size 15 to 20)
#    0.000    2.600    2.000    0.600    0.000    2.000 
#    0.000    0.000    0.000    1.200    0.000    8.400 
#    0.000    0.000    0.000    0.000    0.000    0.000 
#
# Total GULP energy -247931.716952 kJ/mol
# GULP energy per Si atom -12396.585848 kJ/mol
# Density = 1.630099 g / cm^3
# Si number density = 16.338173 Si / 1000 Ang^3
#
#
#
# Elastic Constant Matrix: (Units=GPa)
#
#
# Indices 1 2 3 4 5 6 
#
# 1 91.1213 56.4952 62.3153 0.0000 -15.9282 0.0000
# 2 56.4952 75.1285 49.1331 0.0017 -12.2094 -0.0019
# 3 62.3153 49.1331 118.5281 -0.0001 -17.4122 -0.0003
# 4 0.0000 0.0017 -0.0001 17.1644 -0.0003 -5.6009
# 5 -15.9282 -12.2094 -17.4122 -0.0003 27.5746 0.0004
# 6 0.0000 -0.0019 -0.0003 -5.6009 0.0004 28.1932
#
#
#
# Elastic Compliance Matrix: (Units=1/GPa)
#
#
# Indices 1 2 3 4 5 6 
#
# 1 0.024664 -0.013447 -0.006806 0.000001 0.003995 -0.000001
# 2 -0.013447 0.025930 -0.003454 -0.000002 0.001533 0.000001
# 3 -0.006806 -0.003454 0.013938 0.000000 0.003340 0.000000
# 4 0.000001 -0.000002 0.000000 0.062298 0.000000 0.012376
# 5 0.003995 0.001533 0.003340 0.000000 0.041361 0.000000
# 6 -0.000001 0.000001 0.000000 0.012376 0.000000 0.037928
#
#
# Mechanical properties :
#
#
# Convention : Reuss Voigt Hill
#
# Bulk Modulus (GPa) = 58.41701 68.96279 63.68990
# Shear Modulus (GPa) = 19.28721 22.37540 20.83130
#
# Velocity S-wave (km/s) = 3.43957 3.70471 3.57460
# Velocity P-wave (km/s) = 7.18378 7.78467 7.49025
#
# Compressibility (1/GPa) = 0.01711830
#
# Stress axis : x y z
#
# Youngs Moduli (GPa) = 40.54469 38.56515 71.74843
#
# Poissons Ratio (x) = 0.51857 0.48833
# Poissons Ratio (y) = 0.54519 0.24783
# Poissons Ratio (z) = 0.27595 0.13321
#
# Static dielectric constant tensor:
#      x y z
#    x 2.815850 0.000000 -0.285850 
#    y 0.000000 3.145630 0.000000 
#    z -0.285850 0.000000 3.363590 
# 
# 
# High freq. dielectric constant tensor:
#      x y z
#    x 1.594940 0.000000 -0.030840 
#    y 0.000000 1.633620 0.000000 
#    z -0.030840 0.000000 1.628100 
# 
# From -- ./inp_files/152921.got.cif
#   From: 2010.06.25/outbox.cif.g09.slc.cpg/sg12_77_cif.got.tgz:152921.got - 2010.06.28 00:19:55.
