data_PCOD8085508
_publ_section_title
;
Structure prediction by ZEFSAII (Michael W. Deem and Ramdas Pophale) SiO2 
 PCOD8085508
Probable space group: C 2/M
;
_chemical_formula_sum "Si O2"
_cell_formula_units_Z 48
_cell_length_a 17.147188
_cell_length_b 13.720252
_cell_length_c 12.560364
_cell_angle_alpha 90.000000
_cell_angle_beta 108.511312
_cell_angle_gamma 90.000000
_cell_volume 2802.109536
_symmetry_space_group_name_H-M "C 2/M"
_symmetry_group_IT_number 12
_symmetry_cell_setting 'monoclinic'
loop_
_space_group_symop_operation_xyz
x,y,z
-x,y,-z
-x,-y,-z
x,-y,z
1/2+x,1/2+y,z
1/2-x,1/2+y,-z
1/2-x,1/2-y,-z
1/2+x,1/2-y,z
loop_
_atom_site_type_symbol
_atom_site_label
_atom_site_fract_x
_atom_site_fract_y
_atom_site_fract_z
Si Si1 0.095914 0.612836 0.023664
Si Si2 0.077394 0.889608 0.741361
Si Si3 0.610366 0.385986 0.339031
Si Si4 0.699635 0.754837 0.229405
Si Si5 0.677676 0.228208 0.888671
Si Si6 0.692500 0.611090 0.593200
O O1 0.117989 0.500000 0.051566
O O2 0.147659 0.677606 0.127651
O O3 0.121092 0.642015 0.913018
O O4 0.000000 0.632769 0.000000
O O5 0.121260 0.823662 0.849125
O O6 0.118254 0.878875 0.644007
O O7 0.983936 0.856178 0.685931
O O8 0.083836 0.000000 0.786584
O O9 0.619998 0.500000 0.321729
O O10 0.643573 0.330686 0.250123
O O11 0.660372 0.353561 0.464974
O O12 0.777839 0.703587 0.204337
O O13 0.731100 0.822188 0.339592
O O14 0.750000 0.250000 0.000000
O O15 0.723812 0.500000 0.601265
#
# Coordination Sequence:
#
# PCOD8085508 Si02
#       6
#     8   8   8   8   8   8
#     4  10  20  34  51  68  88 119 159 199 234 273
#     4   9  17  31  50  71  96 125 157 192 230 275
#     4  10  19  30  47  72 100 127 154 189 233 279
#     4  10  19  32  49  70  97 125 154 191 236 282
#     4   9  19  32  48  69  91 119 154 192 233 275
#     4   9  17  30  49  72  96 125 160 193 227 271
#
# _framework density 17.129950999999998
#
# number of rings (size 3 to 8) (size 9 to 14) (size 15 to 20)
#    0.000    2.500    0.000    2.500    0.000    6.667 
#    0.000    2.500    0.000    9.000    0.000    0.000 
#    0.000   24.000    0.000    0.000    0.000    0.000 
#
# Total GULP energy -297533.618561 kJ/mol
# GULP energy per Si atom -12397.234107 kJ/mol
# Density = 1.709096 g / cm^3
# Si number density = 17.129951 Si / 1000 Ang^3
#
#
#
# Elastic Constant Matrix: (Units=GPa)
#
#
# Indices 1 2 3 4 5 6 
#
# 1 81.4705 47.1179 25.0361 0.0000 -2.3248 0.0000
# 2 47.1179 68.3057 47.3662 0.0000 -3.3987 0.0000
# 3 25.0361 47.3662 75.8361 0.0000 4.5017 0.0000
# 4 0.0000 0.0000 0.0000 30.1876 0.0000 -0.2776
# 5 -2.3248 -3.3987 4.5017 0.0000 24.1433 0.0000
# 6 0.0000 0.0000 0.0000 -0.2776 0.0000 29.4790
#
#
#
# Elastic Compliance Matrix: (Units=1/GPa)
#
#
# Indices 1 2 3 4 5 6 
#
# 1 0.021033 -0.017283 0.003918 0.000000 -0.001138 0.000000
# 2 -0.017283 0.041151 -0.020468 0.000000 0.007945 0.000000
# 3 0.003918 -0.020468 0.025103 0.000000 -0.007185 0.000000
# 4 0.000000 0.000000 0.000000 0.033129 0.000000 0.000312
# 5 -0.001138 0.007945 -0.007185 0.000000 0.043768 0.000000
# 6 0.000000 0.000000 0.000000 0.000312 0.000000 0.033925
#
#
# Mechanical properties :
#
#
# Convention : Reuss Voigt Hill
#
# Bulk Modulus (GPa) = 50.96275 51.62808 51.29542
# Shear Modulus (GPa) = 18.36109 23.83479 21.09794
#
# Velocity S-wave (km/s) = 3.27750 3.73421 3.51328
# Velocity P-wave (km/s) = 6.64364 6.98548 6.81670
#
# Compressibility (1/GPa) = 0.01962218
#
# Stress axis : x y z
#
# Youngs Moduli (GPa) = 47.54424 24.30098 39.83521
#
# Poissons Ratio (x) = 0.41998 -0.15608
# Poissons Ratio (y) = 0.82168 0.81535
# Poissons Ratio (z) = -0.18629 0.49740
#
# Static dielectric constant tensor:
#      x y z
#    x 3.401110 0.000000 -0.106290 
#    y 0.000000 3.160680 0.000000 
#    z -0.106290 0.000000 3.260800 
# 
# 
# High freq. dielectric constant tensor:
#      x y z
#    x 1.669400 0.000000 0.002660 
#    y 0.000000 1.649340 0.000000 
#    z 0.002660 0.000000 1.658430 
# 
# From -- ./inp_files/142686.got.cif
#   From: 2010.06.25/outbox.cif.g09.slc.cpg/sg12_72_cif.got.tgz:142686.got - 2010.06.28 00:19:55.
