data_PCOD8085005
_publ_section_title
;
Structure prediction by ZEFSAII (Michael W. Deem and Ramdas Pophale) SiO2 
 PCOD8085005
Probable space group: C 2/M
;
_chemical_formula_sum "Si O2"
_cell_formula_units_Z 48
_cell_length_a 22.601366
_cell_length_b 9.276859
_cell_length_c 13.699006
_cell_angle_alpha 90.000000
_cell_angle_beta 101.022847
_cell_angle_gamma 90.000000
_cell_volume 2819.275896
_symmetry_space_group_name_H-M "C 2/M"
_symmetry_group_IT_number 12
_symmetry_cell_setting 'monoclinic'
loop_
_space_group_symop_operation_xyz
x,y,z
-x,y,-z
-x,-y,-z
x,-y,z
1/2+x,1/2+y,z
1/2-x,1/2+y,-z
1/2-x,1/2-y,-z
1/2+x,1/2-y,z
loop_
_atom_site_type_symbol
_atom_site_label
_atom_site_fract_x
_atom_site_fract_y
_atom_site_fract_z
Si Si1 0.935106 0.158867 0.529019
Si Si2 0.555464 0.834378 0.084638
Si Si3 0.788097 0.166842 0.143340
Si Si4 0.896142 0.169165 0.313455
Si Si5 0.173107 0.831901 0.061440
Si Si6 0.013775 0.333648 0.290677
O O1 0.890087 0.207287 0.427207
O O2 0.935972 0.270059 0.618994
O O3 0.000000 0.152959 0.500000
O O4 0.917397 0.000000 0.563076
O O5 0.611134 0.733895 0.077945
O O6 0.538411 0.810406 0.190898
O O7 0.572697 0.000000 0.068536
O O8 0.500000 0.785490 0.000000
O O9 0.833639 0.212851 0.243286
O O10 0.728098 0.260357 0.137849
O O11 0.769755 0.000000 0.144670
O O12 0.820322 0.200761 0.051078
O O13 0.950018 0.254697 0.279123
O O14 0.910214 0.000000 0.303762
O O15 0.173305 0.000000 0.084883
O O16 0.004066 0.500000 0.313409
#
# Coordination Sequence:
#
# PCOD8085005 Si02
#       6
#     8   8   8   8   8   8
#     4   8  15  28  45  66  93 123 154 189 231 277
#     4  10  21  35  49  67  95 129 159 188 228 277
#     4   9  18  33  51  70  95 124 154 191 232 276
#     4   9  17  30  49  71  94 124 158 189 229 278
#     4  10  20  32  49  73  96 122 156 192 232 274
#     4  10  19  29  45  70  97 125 155 191 235 275
#
# _framework density 17.025648
#
# number of rings (size 3 to 8) (size 9 to 14) (size 15 to 20)
#    0.000    2.667    0.000    3.000    0.000    6.000 
#    0.000    0.000    0.000    1.000    0.000    0.000 
#    0.000    0.000    0.000    0.000    0.000    0.000 
#
# Total GULP energy -297579.384114 kJ/mol
# GULP energy per Si atom -12399.141005 kJ/mol
# Density = 1.698690 g / cm^3
# Si number density = 17.025648 Si / 1000 Ang^3
#
#
#
# Elastic Constant Matrix: (Units=GPa)
#
#
# Indices 1 2 3 4 5 6 
#
# 1 100.7270 65.2315 59.8690 0.0000 19.8765 0.0000
# 2 65.2315 95.4917 57.1571 0.0000 9.8759 0.0000
# 3 59.8690 57.1571 120.5782 0.0000 30.4380 0.0000
# 4 0.0000 0.0000 0.0000 13.0410 0.0000 -15.7854
# 5 19.8765 9.8759 30.4380 0.0000 28.0535 0.0000
# 6 0.0000 0.0000 0.0000 -15.7854 0.0000 12.8756
#
#
#
# Elastic Compliance Matrix: (Units=1/GPa)
#
#
# Indices 1 2 3 4 5 6 
#
# 1 0.020597 -0.011591 -0.002863 0.000000 -0.007407 0.000000
# 2 -0.011591 0.021363 -0.006261 0.000000 0.007485 0.000000
# 3 -0.002863 -0.006261 0.015995 0.000000 -0.013122 0.000000
# 4 0.000000 0.000000 0.000000 -0.158430 0.000000 -0.194236
# 5 -0.007407 0.007485 -0.013122 0.000000 0.052497 0.000000
# 6 0.000000 0.000000 0.000000 -0.194236 0.000000 -0.160466
#
#
# Mechanical properties :
#
#
# Convention : Reuss Voigt Hill
#
# Bulk Modulus (GPa) = 60.50898 75.70136 68.10517
# Shear Modulus (GPa) = -30.95866 19.76330 -5.59768
#
# Velocity S-wave (km/s) = -4.26884 3.41074 -1.81519
# Velocity P-wave (km/s) = 3.36448 7.75052 5.97454
#
# Compressibility (1/GPa) = 0.01652647
#
# Stress axis : x y z
#
# Youngs Moduli (GPa) = 48.55041 46.80902 62.51815
#
# Poissons Ratio (x) = 0.54254 0.17898
# Poissons Ratio (y) = 0.56273 0.39145
# Poissons Ratio (z) = 0.13899 0.29309
#
# Static dielectric constant tensor:
#      x y z
#    x 2.939640 0.000000 0.314540 
#    y 0.000000 3.262410 0.000000 
#    z 0.314540 0.000000 3.568980 
# 
# 
# High freq. dielectric constant tensor:
#      x y z
#    x 1.627240 0.000000 0.018890 
#    y 0.000000 1.661670 0.000000 
#    z 0.018890 0.000000 1.663470 
# 
# From -- ./inp_files/172375.got.cif
#   From: 2010.06.25/outbox.cif.g09.slc.cpg/sg12_87_cif.got.tgz:172375.got - 2010.06.28 00:19:55.
