data_PCOD8085783
_publ_section_title
;
Structure prediction by ZEFSAII (Michael W. Deem and Ramdas Pophale) SiO2 
 PCOD8085783
Probable space group: C 2/M
;
_chemical_formula_sum "Si O2"
_cell_formula_units_Z 56
_cell_length_a 18.974045
_cell_length_b 9.568155
_cell_length_c 21.515342
_cell_angle_alpha 90.000000
_cell_angle_beta 56.844498
_cell_angle_gamma 90.000000
_cell_volume 3270.092676
_symmetry_space_group_name_H-M "C 2/M"
_symmetry_group_IT_number 12
_symmetry_cell_setting 'monoclinic'
loop_
_space_group_symop_operation_xyz
x,y,z
-x,y,-z
-x,-y,-z
x,-y,z
1/2+x,1/2+y,z
1/2-x,1/2+y,-z
1/2-x,1/2-y,-z
1/2+x,1/2-y,z
loop_
_atom_site_type_symbol
_atom_site_label
_atom_site_fract_x
_atom_site_fract_y
_atom_site_fract_z
Si Si1 0.978537 0.839607 0.081508
Si Si2 0.681512 0.337055 0.495095
Si Si3 0.288524 0.659179 0.206587
Si Si4 0.253213 0.657869 0.089016
Si Si5 0.000436 0.834757 0.431605
Si Si6 0.684092 0.338310 0.346804
Si Si7 0.377041 0.839729 0.951611
O O1 0.883287 0.801140 0.142903
O O2 0.034709 0.739536 0.097519
O O3 0.998791 0.000000 0.087660
O O4 0.000000 0.805828 0.000000
O O5 0.696789 0.500000 0.502314
O O6 0.750000 0.250000 0.500000
O O7 0.585834 0.289263 0.562715
O O8 0.688870 0.307430 0.417983
O O9 0.281342 0.500000 0.232442
O O10 0.233733 0.686597 0.170764
O O11 0.257110 0.752970 0.278115
O O12 0.290743 0.500000 0.063211
O O13 0.166014 0.673186 0.094775
O O14 0.321043 0.767014 0.031395
O O15 0.092807 0.794789 0.359923
O O16 0.000000 0.766160 0.500000
O O17 0.994558 0.000000 0.441880
O O18 0.701258 0.500000 0.325674
O O19 0.390665 0.000000 0.964658
#
# Coordination Sequence:
#
# PCOD8085783 Si02
#       7
#     8   8   8   8   8   8   8
#     4  10  19  34  52  68  95 136 172 207 255 311
#     4   9  17  31  53  79 105 133 164 200 242 291
#     4  10  20  34  52  71  96 134 171 204 252 308
#     4   9  18  34  50  67  95 129 160 197 253 308
#     4   7  12  27  50  71  93 126 163 193 230 282
#     4   9  18  33  52  74 100 130 166 210 250 284
#     4  10  19  30  50  75  95 118 160 215 255 293
#
# _framework density 17.124897000000001
#
# number of rings (size 3 to 8) (size 9 to 14) (size 15 to 20)
#    0.000    2.857    1.429    2.143    0.000    2.571 
#    0.000    2.143    0.000    9.429    0.000    0.000 
#    0.000    0.000    0.000    0.000    0.000    0.000 
#
# Total GULP energy -346922.890709 kJ/mol
# GULP energy per Si atom -12390.103240 kJ/mol
# Density = 1.708592 g / cm^3
# Si number density = 17.124897 Si / 1000 Ang^3
#
#
#
# Elastic Constant Matrix: (Units=GPa)
#
#
# Indices 1 2 3 4 5 6 
#
# 1 124.1778 62.8230 46.3298 0.0000 -10.9154 -0.0001
# 2 62.8230 82.1469 46.2524 -0.0001 -6.4131 -0.0003
# 3 46.3298 46.2524 79.3006 0.0000 -13.8708 0.0000
# 4 0.0000 -0.0001 0.0000 26.0600 0.0000 -1.4774
# 5 -10.9154 -6.4131 -13.8708 0.0000 21.1236 0.0000
# 6 -0.0001 -0.0003 0.0000 -1.4774 0.0000 32.1885
#
#
#
# Elastic Compliance Matrix: (Units=1/GPa)
#
#
# Indices 1 2 3 4 5 6 
#
# 1 0.013687 -0.008969 -0.002265 0.000000 0.002863 0.000000
# 2 -0.008969 0.024052 -0.009402 0.000000 -0.003506 0.000000
# 3 -0.002265 -0.009402 0.021141 0.000000 0.009858 0.000000
# 4 0.000000 0.000000 0.000000 0.038473 0.000000 0.001766
# 5 0.002863 -0.003506 0.009858 0.000000 0.054228 0.000000
# 6 0.000000 0.000000 0.000000 0.001766 0.000000 0.031148
#
#
# Mechanical properties :
#
#
# Convention : Reuss Voigt Hill
#
# Bulk Modulus (GPa) = 56.78634 66.27064 61.52849
# Shear Modulus (GPa) = 21.75137 24.55576 23.15357
#
# Velocity S-wave (km/s) = 3.56780 3.79082 3.68100
# Velocity P-wave (km/s) = 7.08550 7.61202 7.35348
#
# Compressibility (1/GPa) = 0.01760987
#
# Stress axis : x y z
#
# Youngs Moduli (GPa) = 73.06295 41.57599 47.30071
#
# Poissons Ratio (x) = 0.37288 0.10711
# Poissons Ratio (y) = 0.65528 0.44473
# Poissons Ratio (z) = 0.16545 0.39090
#
# Static dielectric constant tensor:
#      x y z
#    x 3.460070 0.000000 -0.096310 
#    y 0.000000 3.083680 0.000000 
#    z -0.096310 0.000000 2.958580 
# 
# 
# High freq. dielectric constant tensor:
#      x y z
#    x 1.671320 0.000000 -0.009010 
#    y 0.000000 1.648550 0.000000 
#    z -0.009010 0.000000 1.628690 
# 
# From -- ./inp_files/319046.got.cif
#   From: 2010.06.25/outbox.cif.g09.slc.cpg/sg12_160_cif.got.tgz:319046.got - 2010.06.28 00:19:55.
