data_PCOD8085625
_publ_section_title
;
Structure prediction by ZEFSAII (Michael W. Deem and Ramdas Pophale) SiO2 
 PCOD8085625
Probable space group: C 2/M
;
_chemical_formula_sum "Si O2"
_cell_formula_units_Z 64
_cell_length_a 20.724069
_cell_length_b 12.943425
_cell_length_c 19.038622
_cell_angle_alpha 90.000000
_cell_angle_beta 45.956130
_cell_angle_gamma 90.000000
_cell_volume 3670.899350
_symmetry_space_group_name_H-M "C 2/M"
_symmetry_group_IT_number 12
_symmetry_cell_setting 'monoclinic'
loop_
_space_group_symop_operation_xyz
x,y,z
-x,y,-z
-x,-y,-z
x,-y,z
1/2+x,1/2+y,z
1/2-x,1/2+y,-z
1/2-x,1/2-y,-z
1/2+x,1/2-y,z
loop_
_atom_site_type_symbol
_atom_site_label
_atom_site_fract_x
_atom_site_fract_y
_atom_site_fract_z
Si Si1 0.314593 0.715069 0.512053
Si Si2 0.540207 0.381159 0.133424
Si Si3 0.372335 0.300237 0.183791
Si Si4 0.847082 0.618967 0.300857
Si Si5 0.973067 0.253234 0.307148
Si Si6 0.815555 0.118927 0.084923
Si Si7 0.879588 0.618506 0.727254
Si Si8 0.308639 0.882527 0.628498
O O1 0.250000 0.750000 0.500000
O O2 0.258987 0.628549 0.597436
O O3 0.407834 0.679900 0.404414
O O4 0.343226 0.810429 0.540033
O O5 0.528700 0.500000 0.162157
O O6 0.467808 0.348329 0.130365
O O7 0.530978 0.316818 0.211421
O O8 0.637897 0.359603 0.025194
O O9 0.364490 0.181306 0.215396
O O10 0.359156 0.305853 0.110244
O O11 0.297785 0.367511 0.280933
O O12 0.870411 0.500000 0.269845
O O13 0.912453 0.664009 0.311289
O O14 0.040626 0.310894 0.307045
O O15 0.709456 0.140317 0.158777
O O16 0.831350 0.000000 0.097262
O O17 0.909053 0.500000 0.712392
O O18 0.859989 0.646440 0.661198
O O19 0.327825 0.000000 0.591831
#
# Coordination Sequence:
#
# PCOD8085625 Si02
#       8
#     8   8   8   8   8   8   8   8
#     4   9  19  31  45  70  96 123 155 190 235 283
#     4  10  19  30  48  73  98 126 160 198 241 286
#     4   9  16  28  49  75  99 122 153 197 246 288
#     4   9  18  32  49  69  96 128 160 194 236 289
#     4  10  20  32  47  70  98 128 163 198 235 281
#     4   9  17  30  50  75  98 122 155 198 248 290
#     4   9  18  32  50  71  97 127 158 198 242 281
#     4   9  17  30  49  74  99 122 155 198 242 285
#
# _framework density 17.434419999999999
#
# number of rings (size 3 to 8) (size 9 to 14) (size 15 to 20)
#    0.000    2.750    0.000    3.375    0.000    5.000 
#    0.000    1.250    0.000   13.500    0.000    8.750 
#    0.000    0.000    0.000    0.000    0.000    0.000 
#
# Total GULP energy -396653.567028 kJ/mol
# GULP energy per Si atom -12395.423970 kJ/mol
# Density = 1.739474 g / cm^3
# Si number density = 17.434420 Si / 1000 Ang^3
#
#
#
# Elastic Constant Matrix: (Units=GPa)
#
#
# Indices 1 2 3 4 5 6 
#
# 1 61.8932 37.9710 34.6212 0.0000 -6.0389 0.0000
# 2 37.9710 80.0618 28.5228 0.0000 7.4037 0.0000
# 3 34.6212 28.5228 92.2102 0.0000 5.3372 0.0000
# 4 0.0000 0.0000 0.0000 20.1118 0.0000 0.7925
# 5 -6.0389 7.4037 5.3372 0.0000 20.4113 0.0000
# 6 0.0000 0.0000 0.0000 0.7925 0.0000 24.0154
#
#
#
# Elastic Compliance Matrix: (Units=1/GPa)
#
#
# Indices 1 2 3 4 5 6 
#
# 1 0.030195 -0.012827 -0.008281 0.000000 0.015752 0.000000
# 2 -0.012827 0.019818 -0.000689 0.000000 -0.010804 0.000000
# 3 -0.008281 -0.000689 0.014514 0.000000 -0.005995 0.000000
# 4 0.000000 0.000000 0.000000 0.049787 0.000000 -0.001643
# 5 0.015752 -0.010804 -0.005995 0.000000 0.059139 0.000000
# 6 0.000000 0.000000 0.000000 -0.001643 0.000000 0.041694
#
#
# Mechanical properties :
#
#
# Convention : Reuss Voigt Hill
#
# Bulk Modulus (GPa) = 47.77034 48.48835 48.12934
# Shear Modulus (GPa) = 18.81678 21.77771 20.29724
#
# Velocity S-wave (km/s) = 3.28882 3.53813 3.41575
# Velocity P-wave (km/s) = 6.47157 6.67558 6.57437
#
# Compressibility (1/GPa) = 0.02093349
#
# Stress axis : x y z
#
# Youngs Moduli (GPa) = 33.11767 50.45808 68.89858
#
# Poissons Ratio (x) = 0.64724 0.57055
# Poissons Ratio (y) = 0.42481 0.04746
# Poissons Ratio (z) = 0.27425 0.03476
#
# Static dielectric constant tensor:
#      x y z
#    x 3.101640 0.000000 -0.031150 
#    y 0.000000 3.530080 0.000000 
#    z -0.031150 0.000000 3.491600 
# 
# 
# High freq. dielectric constant tensor:
#      x y z
#    x 1.657910 0.000000 -0.002310 
#    y 0.000000 1.644840 0.000000 
#    z -0.002310 0.000000 1.684870 
# 
# From -- ./inp_files/321261.got.cif
#   From: 2010.06.25/outbox.cif.g09.slc.cpg/sg12_161_cif.got.tgz:321261.got - 2010.06.28 00:19:55.
