data_PCOD8085382
_publ_section_title
;
Structure prediction by ZEFSAII (Michael W. Deem and Ramdas Pophale) SiO2 
 PCOD8085382
Probable space group: C 2/M
;
_chemical_formula_sum "Si O2"
_cell_formula_units_Z 64
_cell_length_a 31.491737
_cell_length_b 8.905944
_cell_length_c 15.764778
_cell_angle_alpha 90.000000
_cell_angle_beta 55.074595
_cell_angle_gamma 90.000000
_cell_volume 3625.136116
_symmetry_space_group_name_H-M "C 2/M"
_symmetry_group_IT_number 12
_symmetry_cell_setting 'monoclinic'
loop_
_space_group_symop_operation_xyz
x,y,z
-x,y,-z
-x,-y,-z
x,-y,z
1/2+x,1/2+y,z
1/2-x,1/2+y,-z
1/2-x,1/2-y,-z
1/2+x,1/2-y,z
loop_
_atom_site_type_symbol
_atom_site_label
_atom_site_fract_x
_atom_site_fract_y
_atom_site_fract_z
Si Si1 0.886668 0.324111 0.068727
Si Si2 0.944961 0.669999 0.173331
Si Si3 0.541209 0.676485 0.141620
Si Si4 0.023704 0.677762 0.340933
Si Si5 0.837037 0.673082 0.376478
Si Si6 0.320390 0.177019 0.583615
Si Si7 0.705374 0.324013 0.737704
Si Si8 0.422240 0.822091 0.552862
O O1 0.881701 0.500000 0.059300
O O2 0.924913 0.286940 0.102937
O O3 0.829534 0.261696 0.153900
O O4 0.908061 0.246382 0.960083
O O5 0.966874 0.500000 0.149142
O O6 0.898712 0.686488 0.293465
O O7 0.990417 0.781606 0.146332
O O8 0.547394 0.500000 0.136118
O O9 0.538484 0.736850 0.239431
O O10 0.025949 0.500000 0.321938
O O11 0.064169 0.730189 0.367369
O O12 0.966391 0.728593 0.435907
O O13 0.819760 0.500000 0.383889
O O14 0.823448 0.739459 0.484216
O O15 0.806693 0.773941 0.344046
O O16 0.265285 0.216718 0.688727
O O17 0.366783 0.246252 0.587632
O O18 0.328483 0.000000 0.567625
O O19 0.694748 0.500000 0.757605
O O20 0.420976 0.000000 0.554642
#
# Coordination Sequence:
#
# PCOD8085382 Si02
#       8
#     8   8   8   8   8   8   8   8
#     4  10  21  37  53  67  91 129 170 207 238 278
#     4   9  18  32  50  71  96 129 167 201 233 276
#     4  12  23  32  48  74 102 128 156 196 246 296
#     4   9  17  32  55  77  98 127 163 199 233 281
#     4   9  17  30  48  70 100 136 168 197 230 279
#     4   9  16  27  47  74 101 129 163 203 243 281
#     4  10  19  30  46  70 101 132 162 202 247 285
#     4   8  15  30  53  78  99 125 164 201 233 278
#
# _framework density 17.654509999999998
#
# number of rings (size 3 to 8) (size 9 to 14) (size 15 to 20)
#    0.000    2.500    0.000    4.875    0.000    6.000 
#    0.000    1.875    0.000    4.500    0.000    0.000 
#    0.000    0.000    0.000    0.000    0.000    0.000 
#
# Total GULP energy -396775.934278 kJ/mol
# GULP energy per Si atom -12399.247946 kJ/mol
# Density = 1.761433 g / cm^3
# Si number density = 17.654510 Si / 1000 Ang^3
#
#
#
# Elastic Constant Matrix: (Units=GPa)
#
#
# Indices 1 2 3 4 5 6 
#
# 1 113.0754 40.2439 68.1354 0.0000 -13.0123 0.0000
# 2 40.2439 77.9179 56.5933 0.0000 -3.6861 0.0001
# 3 68.1354 56.5933 138.5866 0.0000 -2.9870 0.0000
# 4 0.0000 0.0000 0.0000 21.8340 0.0000 -1.7211
# 5 -13.0123 -3.6861 -2.9870 0.0000 18.1190 0.0000
# 6 0.0000 0.0001 0.0000 -1.7211 0.0000 18.0562
#
#
#
# Elastic Compliance Matrix: (Units=1/GPa)
#
#
# Indices 1 2 3 4 5 6 
#
# 1 0.014278 -0.002842 -0.005671 0.000000 0.008741 0.000000
# 2 -0.002842 0.018924 -0.006314 0.000000 0.000768 0.000000
# 3 -0.005671 -0.006314 0.012511 0.000000 -0.003294 0.000000
# 4 0.000000 0.000000 0.000000 0.046147 0.000000 0.004399
# 5 0.008741 0.000768 -0.003294 0.000000 0.061081 0.000000
# 6 0.000000 0.000000 0.000000 0.004399 0.000000 0.055802
#
#
# Mechanical properties :
#
#
# Convention : Reuss Voigt Hill
#
# Bulk Modulus (GPa) = 62.26828 73.28058 67.77443
# Shear Modulus (GPa) = 20.51279 22.57566 21.54423
#
# Velocity S-wave (km/s) = 3.41236 3.57984 3.49710
# Velocity P-wave (km/s) = 7.13251 7.66063 7.40128
#
# Compressibility (1/GPa) = 0.01605954
#
# Stress axis : x y z
#
# Youngs Moduli (GPa) = 70.03754 52.84197 79.92931
#
# Poissons Ratio (x) = 0.15019 0.45325
# Poissons Ratio (y) = 0.19907 0.50468
# Poissons Ratio (z) = 0.39716 0.33365
#
# Static dielectric constant tensor:
#      x y z
#    x 3.426730 0.000000 -0.076390 
#    y 0.000000 3.021020 0.000000 
#    z -0.076390 0.000000 3.347270 
# 
# 
# High freq. dielectric constant tensor:
#      x y z
#    x 1.668100 0.000000 -0.009510 
#    y 0.000000 1.659240 0.000000 
#    z -0.009510 0.000000 1.684520 
# 
# From -- ./inp_files/249088.got.cif
#   From: 2010.06.25/outbox.cif.g09.slc.cpg/sg12_125_cif.got.tgz:249088.got - 2010.06.28 00:19:55.
