data_PCOD8085718
_publ_section_title
;
Structure prediction by ZEFSAII (Michael W. Deem and Ramdas Pophale) SiO2 
 PCOD8085718
Probable space group: C 2/M
;
_chemical_formula_sum "Si O2"
_cell_formula_units_Z 64
_cell_length_a 18.191099
_cell_length_b 31.296305
_cell_length_c 12.585731
_cell_angle_alpha 90.000000
_cell_angle_beta 148.954085
_cell_angle_gamma 90.000000
_cell_volume 3695.289582
_symmetry_space_group_name_H-M "C 2/M"
_symmetry_group_IT_number 12
_symmetry_cell_setting 'monoclinic'
loop_
_space_group_symop_operation_xyz
x,y,z
-x,y,-z
-x,-y,-z
x,-y,z
1/2+x,1/2+y,z
1/2-x,1/2+y,-z
1/2-x,1/2-y,-z
1/2+x,1/2-y,z
loop_
_atom_site_type_symbol
_atom_site_label
_atom_site_fract_x
_atom_site_fract_y
_atom_site_fract_z
Si Si1 0.291453 0.602098 0.912084
Si Si2 0.304830 0.900933 0.447884
Si Si3 0.545352 0.547821 0.177475
Si Si4 0.554387 0.046707 0.686622
Si Si5 0.838190 0.771144 0.267883
Si Si6 0.347536 0.757375 0.773377
Si Si7 0.314570 0.188250 0.114344
Si Si8 0.631301 0.189885 0.409830
O O1 0.245388 0.609025 0.733682
O O2 0.213424 0.563847 0.876745
O O3 0.253419 0.644998 0.926586
O O4 0.453603 0.585352 0.120343
O O5 0.207006 0.935972 0.384568
O O6 0.462176 0.920753 0.642351
O O7 0.303825 0.857510 0.514598
O O8 0.532521 0.500000 0.212936
O O9 0.500000 0.543899 0.000000
O O10 0.500000 0.043773 0.500000
O O11 0.552901 0.000000 0.738420
O O12 0.732085 0.783368 0.232201
O O13 0.814808 0.721321 0.211980
O O14 0.000000 0.781624 0.500000
O O15 0.795969 0.798684 0.113621
O O16 0.382741 0.791129 0.724801
O O17 0.241907 0.719310 0.610675
O O18 0.500000 0.738229 0.000000
O O19 0.477335 0.186543 0.275240
#
# Coordination Sequence:
#
# PCOD8085718 Si02
#       8
#     8   8   8   8   8   8   8   8
#     4  10  19  30  51  73 105 139 175 215 255 306
#     4  10  19  30  49  74 105 141 172 216 257 303
#     4   9  18  32  46  70 108 145 173 206 258 318
#     4   9  16  26  44  70  99 136 170 200 253 316
#     4  11  23  38  57  76 107 145 177 223 273 315
#     4  11  23  38  55  76 108 146 179 221 272 316
#     4  11  22  36  56  81 105 140 184 224 264 315
#     4  11  22  36  56  79 108 139 185 224 262 316
#
# _framework density 17.319345999999999
#
# number of rings (size 3 to 8) (size 9 to 14) (size 15 to 20)
#    0.000    1.750    3.750    1.500    0.000    6.500 
#    0.000    0.000    0.000    0.000    0.000    0.000 
#    0.000   20.000    0.000    0.000    0.000    0.000 
#
# Total GULP energy -396608.819317 kJ/mol
# GULP energy per Si atom -12394.025604 kJ/mol
# Density = 1.727993 g / cm^3
# Si number density = 17.319346 Si / 1000 Ang^3
#
#
#
# Elastic Constant Matrix: (Units=GPa)
#
#
# Indices 1 2 3 4 5 6 
#
# 1 91.1874 42.2724 32.0727 0.0000 16.2907 0.0000
# 2 42.2724 123.4658 25.9362 0.0000 3.4444 0.0000
# 3 32.0727 25.9362 82.8462 0.0000 12.5258 0.0000
# 4 0.0000 0.0000 0.0000 -41.7707 0.0000 -7.7762
# 5 16.2907 3.4444 12.5258 0.0000 24.3276 0.0000
# 6 0.0000 0.0000 0.0000 -7.7762 0.0000 26.0752
#
#
#
# Elastic Compliance Matrix: (Units=1/GPa)
#
#
# Indices 1 2 3 4 5 6 
#
# 1 0.015676 -0.004414 -0.003464 0.000000 -0.008089 0.000000
# 2 -0.004414 0.009913 -0.001767 0.000000 0.002462 0.000000
# 3 -0.003464 -0.001767 0.014722 0.000000 -0.005010 0.000000
# 4 0.000000 0.000000 0.000000 -0.022681 0.000000 -0.006764
# 5 -0.008089 0.002462 -0.005010 0.000000 0.048753 0.000000
# 6 0.000000 0.000000 0.000000 -0.006764 0.000000 0.036333
#
#
# Mechanical properties :
#
#
# Convention : Reuss Voigt Hill
#
# Bulk Modulus (GPa) = 47.56920 55.34020 51.45470
# Shear Modulus (GPa) = 38.75553 14.87430 26.81492
#
# Velocity S-wave (km/s) = 4.73557 2.93375 3.93907
# Velocity P-wave (km/s) = 7.57802 6.59531 7.10368
#
# Compressibility (1/GPa) = 0.02102200
#
# Stress axis : x y z
#
# Youngs Moduli (GPa) = 63.79178 100.87645 67.92431
#
# Poissons Ratio (x) = 0.44525 0.23529
# Poissons Ratio (y) = 0.28157 0.12002
# Poissons Ratio (z) = 0.22097 0.17824
#
# Static dielectric constant tensor:
#      x y z
#    x 3.270150 0.000000 0.287930 
#    y 0.000000 3.271120 0.000000 
#    z 0.287930 0.000000 3.168230 
# 
# 
# High freq. dielectric constant tensor:
#      x y z
#    x 1.662990 0.000000 0.035590 
#    y 0.000000 1.669480 0.000000 
#    z 0.035590 0.000000 1.645540 
# 
# From -- ./inp_files/161255.got.cif
#   From: 2010.06.25/outbox.cif.g09.slc.cpg/sg12_81_cif.got.tgz:161255.got - 2010.06.28 00:19:55.
