data_PCOD8085493
_publ_section_title
;
Structure prediction by ZEFSAII (Michael W. Deem and Ramdas Pophale) SiO2 
 PCOD8085493
Probable space group: C 2/M
;
_chemical_formula_sum "Si O2"
_cell_formula_units_Z 56
_cell_length_a 18.667009
_cell_length_b 8.968771
_cell_length_c 19.996771
_cell_angle_alpha 90.000000
_cell_angle_beta 115.646024
_cell_angle_gamma 90.000000
_cell_volume 3018.047872
_symmetry_space_group_name_H-M "C 2/M"
_symmetry_group_IT_number 12
_symmetry_cell_setting 'monoclinic'
loop_
_space_group_symop_operation_xyz
x,y,z
-x,y,-z
-x,-y,-z
x,-y,z
1/2+x,1/2+y,z
1/2-x,1/2+y,-z
1/2-x,1/2-y,-z
1/2+x,1/2-y,z
loop_
_atom_site_type_symbol
_atom_site_label
_atom_site_fract_x
_atom_site_fract_y
_atom_site_fract_z
Si Si1 0.293775 0.322746 0.363785
Si Si2 0.329160 0.175078 0.505890
Si Si3 0.464068 0.173719 0.200107
Si Si4 0.119444 0.674298 0.333502
Si Si5 0.220519 0.331728 0.088172
Si Si6 0.872417 0.167751 0.054467
Si Si7 0.184909 0.673279 0.766022
O O1 0.299779 0.500000 0.368504
O O2 0.351608 0.254421 0.444925
O O3 0.203600 0.263813 0.340085
O O4 0.324726 0.262176 0.306346
O O5 0.250000 0.250000 0.500000
O O6 0.392552 0.204138 0.591431
O O7 0.316468 0.000000 0.488721
O O8 0.545424 0.243607 0.262982
O O9 0.445369 0.257273 0.123331
O O10 0.395745 0.201558 0.226565
O O11 0.471556 0.000000 0.186363
O O12 0.118855 0.500000 0.319931
O O13 0.198359 0.500000 0.100076
O O14 0.295079 0.330012 0.069237
O O15 0.240331 0.237845 0.162527
O O16 0.145098 0.258168 0.020629
O O17 0.896136 0.000000 0.044723
O O18 0.200236 0.500000 0.758199
#
# Coordination Sequence:
#
# PCOD8085493 Si02
#       7
#     8   8   8   8   8   8   8
#     4  10  19  32  50  70  94 124 158 194 231 276
#     4   9  16  29  49  71  93 119 156 197 233 272
#     4   9  17  31  49  69  94 123 156 191 230 277
#     4   8  16  31  51  71  90 119 158 194 227 272
#     4   9  16  27  44  65  91 124 158 190 225 270
#     4   9  16  26  42  67  95 121 153 191 230 271
#     4  10  19  30  47  71  97 123 152 192 237 277
#
# _framework density 18.555040000000002
#
# number of rings (size 3 to 8) (size 9 to 14) (size 15 to 20)
#    0.000    2.857    0.000    3.000    0.000    4.000 
#    0.000    5.000    0.000    5.143    0.000    6.000 
#    0.000    0.000    0.000    0.000    0.000    0.000 
#
# Total GULP energy -347050.264399 kJ/mol
# GULP energy per Si atom -12394.652300 kJ/mol
# Density = 1.851281 g / cm^3
# Si number density = 18.555040 Si / 1000 Ang^3
#
#
#
# Elastic Constant Matrix: (Units=GPa)
#
#
# Indices 1 2 3 4 5 6 
#
# 1 13.7931 8.9154 0.3396 0.0000 8.1172 0.0000
# 2 8.9154 88.0852 14.8844 0.0000 4.4013 0.0000
# 3 0.3396 14.8844 48.2044 0.0000 18.0288 0.0000
# 4 0.0000 0.0000 0.0000 38.3397 0.0000 -4.2032
# 5 8.1172 4.4013 18.0288 0.0000 26.3278 0.0000
# 6 0.0000 0.0000 0.0000 -4.2032 0.0000 14.7527
#
#
#
# Elastic Compliance Matrix: (Units=1/GPa)
#
#
# Indices 1 2 3 4 5 6 
#
# 1 0.105294 -0.011721 0.019205 0.000000 -0.043655 0.000000
# 2 -0.011721 0.013292 -0.006106 0.000000 0.005573 0.000000
# 3 0.019205 -0.006106 0.032704 0.000000 -0.027295 0.000000
# 4 0.000000 0.000000 0.000000 0.026924 0.000000 0.007671
# 5 -0.043655 0.005573 -0.027295 0.000000 0.069202 0.000000
# 6 0.000000 0.000000 0.000000 0.007671 0.000000 0.069970
#
#
# Mechanical properties :
#
#
# Convention : Reuss Voigt Hill
#
# Bulk Modulus (GPa) = 6.49157 22.04017 14.26587
# Shear Modulus (GPa) = 13.66199 24.28026 18.97112
#
# Velocity S-wave (km/s) = 2.71642 3.62132 3.20101
# Velocity P-wave (km/s) = 3.65304 5.42119 4.62245
#
# Compressibility (1/GPa) = 0.15404585
#
# Stress axis : x y z
#
# Youngs Moduli (GPa) = 9.49717 75.23145 30.57749
#
# Poissons Ratio (x) = 0.88180 -0.58724
# Poissons Ratio (y) = 0.11132 0.18671
# Poissons Ratio (z) = -0.18239 0.45937
#
# Static dielectric constant tensor:
#      x y z
#    x 2.970230 0.000000 0.130700 
#    y 0.000000 3.478670 0.000000 
#    z 0.130700 0.000000 3.915610 
# 
# 
# High freq. dielectric constant tensor:
#      x y z
#    x 1.659630 0.000000 0.000720 
#    y 0.000000 1.719720 0.000000 
#    z 0.000720 0.000000 1.740340 
# 
# From -- ./inp_files/319309.got.cif
#   From: 2010.06.25/outbox.cif.g09.slc.cpg/sg12_160_cif.got.tgz:319309.got - 2010.06.28 00:19:55.
