data_PCOD8085624
_publ_section_title
;
Structure prediction by ZEFSAII (Michael W. Deem and Ramdas Pophale) SiO2 
 PCOD8085624
Probable space group: C 2/M
;
_chemical_formula_sum "Si O2"
_cell_formula_units_Z 56
_cell_length_a 19.285794
_cell_length_b 9.215750
_cell_length_c 22.902587
_cell_angle_alpha 90.000000
_cell_angle_beta 51.516817
_cell_angle_gamma 90.000000
_cell_volume 3186.386727
_symmetry_space_group_name_H-M "C 2/M"
_symmetry_group_IT_number 12
_symmetry_cell_setting 'monoclinic'
loop_
_space_group_symop_operation_xyz
x,y,z
-x,y,-z
-x,-y,-z
x,-y,z
1/2+x,1/2+y,z
1/2-x,1/2+y,-z
1/2-x,1/2-y,-z
1/2+x,1/2-y,z
loop_
_atom_site_type_symbol
_atom_site_label
_atom_site_fract_x
_atom_site_fract_y
_atom_site_fract_z
Si Si1 0.611622 0.668507 0.784291
Si Si2 0.574886 0.840054 0.509583
Si Si3 0.339304 0.829946 0.936758
Si Si4 0.808510 0.328664 0.653026
Si Si5 0.003306 0.331103 0.932184
Si Si6 0.949721 0.167668 0.788502
Si Si7 0.453790 0.669886 0.650960
O O1 0.612769 0.500000 0.799117
O O2 0.708020 0.722923 0.714090
O O3 0.583232 0.751017 0.857705
O O4 0.544868 0.703679 0.766590
O O5 0.500000 0.847164 0.500000
O O6 0.663526 0.789348 0.428547
O O7 0.545953 0.728526 0.575099
O O8 0.588152 0.000000 0.530577
O O9 0.409806 0.796901 0.950745
O O10 0.374489 0.766560 0.857204
O O11 0.321438 0.000000 0.938634
O O12 0.250000 0.750000 0.000000
O O13 0.821194 0.500000 0.656924
O O14 0.868299 0.245621 0.668474
O O15 0.025923 0.500000 0.918619
O O16 0.000000 0.272940 0.000000
O O17 0.955253 0.207661 0.718114
O O18 0.923959 0.000000 0.811886
O O19 0.448424 0.500000 0.641424
#
# Coordination Sequence:
#
# PCOD8085624 Si02
#       7
#     8   8   8   8   8   8   8
#     4   9  18  34  53  70  93 126 162 196 231 279
#     4   8  15  29  47  67  95 128 159 194 237 283
#     4  10  20  34  53  74  97 127 160 195 236 283
#     4   9  18  32  50  72  96 125 161 199 239 282
#     4   9  19  35  52  71  97 126 155 192 239 284
#     4   9  19  35  51  69  97 130 160 194 238 283
#     4  10  19  30  48  73  98 125 159 200 241 280
#
# _framework density 17.574767000000001
#
# number of rings (size 3 to 8) (size 9 to 14) (size 15 to 20)
#    0.000    2.857    0.000    1.714    0.000    6.286 
#    0.000    5.000    0.000    0.000    0.000    0.000 
#    0.000    0.000    0.000    0.000    0.000    0.000 
#
# Total GULP energy -347173.697035 kJ/mol
# GULP energy per Si atom -12399.060608 kJ/mol
# Density = 1.753477 g / cm^3
# Si number density = 17.574767 Si / 1000 Ang^3
#
#
#
# Elastic Constant Matrix: (Units=GPa)
#
#
# Indices 1 2 3 4 5 6 
#
# 1 67.2885 45.9240 80.0905 0.0000 -1.9119 0.0001
# 2 45.9240 77.3639 79.9510 0.0000 0.2498 0.0002
# 3 80.0905 79.9510 185.0588 0.0000 -9.8441 0.0000
# 4 0.0000 0.0000 0.0000 35.8507 0.0000 1.7649
# 5 -1.9119 0.2498 -9.8441 0.0000 33.2331 0.0000
# 6 0.0001 0.0002 0.0000 1.7649 0.0000 20.5797
#
#
#
# Elastic Compliance Matrix: (Units=1/GPa)
#
#
# Indices 1 2 3 4 5 6 
#
# 1 0.033794 -0.008808 -0.010885 0.000000 -0.001214 0.000000
# 2 -0.008808 0.025991 -0.007574 0.000000 -0.002945 0.000000
# 3 -0.010885 -0.007574 0.013570 0.000000 0.003450 0.000000
# 4 0.000000 0.000000 0.000000 0.028012 0.000000 -0.002402
# 5 -0.001214 -0.002945 0.003450 0.000000 0.031065 0.000000
# 6 0.000000 0.000000 0.000000 -0.002402 0.000000 0.048798
#
#
# Mechanical properties :
#
#
# Convention : Reuss Voigt Hill
#
# Bulk Modulus (GPa) = 53.12846 82.40470 67.76658
# Shear Modulus (GPa) = 20.65821 26.18241 23.42031
#
# Velocity S-wave (km/s) = 3.43220 3.86394 3.65445
# Velocity P-wave (km/s) = 6.78250 8.17904 7.51328
#
# Compressibility (1/GPa) = 0.01882230
#
# Stress axis : x y z
#
# Youngs Moduli (GPa) = 29.59135 38.47547 73.69186
#
# Poissons Ratio (x) = 0.33888 0.80212
# Poissons Ratio (y) = 0.26063 0.55811
# Poissons Ratio (z) = 0.32210 0.29140
#
# Static dielectric constant tensor:
#      x y z
#    x 3.117000 0.000000 -0.095770 
#    y 0.000000 3.277710 0.000000 
#    z -0.095770 0.000000 3.660290 
# 
# 
# High freq. dielectric constant tensor:
#      x y z
#    x 1.656490 0.000000 -0.003310 
#    y 0.000000 1.679780 0.000000 
#    z -0.003310 0.000000 1.692370 
# 
# From -- ./inp_files/280195.got.cif
#   From: 2010.06.25/outbox.cif.g09.slc.cpg/sg12_141_cif.got.tgz:280195.got - 2010.06.28 00:19:55.
