data_PCOD8085053
_publ_section_title
;
Structure prediction by ZEFSAII (Michael W. Deem and Ramdas Pophale) SiO2 
 PCOD8085053
Probable space group: C 2/M
;
_chemical_formula_sum "Si O2"
_cell_formula_units_Z 48
_cell_length_a 15.079665
_cell_length_b 18.844442
_cell_length_c 10.000076
_cell_angle_alpha 90.000000
_cell_angle_beta 108.900565
_cell_angle_gamma 90.000000
_cell_volume 2688.481991
_symmetry_space_group_name_H-M "C 2/M"
_symmetry_group_IT_number 12
_symmetry_cell_setting 'monoclinic'
loop_
_space_group_symop_operation_xyz
x,y,z
-x,y,-z
-x,-y,-z
x,-y,z
1/2+x,1/2+y,z
1/2-x,1/2+y,-z
1/2-x,1/2-y,-z
1/2+x,1/2-y,z
loop_
_atom_site_type_symbol
_atom_site_label
_atom_site_fract_x
_atom_site_fract_y
_atom_site_fract_z
Si Si1 0.426468 0.079125 0.158297
Si Si2 0.459633 0.419881 0.335183
Si Si3 0.759084 0.333352 0.146627
Si Si4 0.284710 0.325778 0.186389
Si Si5 0.580717 0.581044 0.140357
Si Si6 0.375085 0.920387 0.823788
O O1 0.358012 0.126541 0.215166
O O2 0.534233 0.106622 0.215646
O O3 0.421258 0.000000 0.214250
O O4 0.395724 0.079135 0.990302
O O5 0.500000 0.404637 0.500000
O O6 0.416414 0.500000 0.304276
O O7 0.385052 0.359402 0.265078
O O8 0.545001 0.413159 0.273795
O O9 0.776312 0.256644 0.220801
O O10 0.674131 0.372056 0.179756
O O11 0.734425 0.332208 0.979307
O O12 0.210367 0.367113 0.243413
O O13 0.606174 0.500000 0.113103
O O14 0.500000 0.609430 0.000000
O O15 0.347724 0.000000 0.764559
#
# Coordination Sequence:
#
# PCOD8085053 Si02
#       6
#     8   8   8   8   8   8
#     4   8  14  25  41  63  93 126 160 200 246 298
#     4  10  21  37  56  77 104 140 181 221 261 312
#     4  10  19  29  46  76 107 135 166 208 266 315
#     4  10  19  30  46  75 106 135 166 212 263 311
#     4  10  19  33  54  78 103 136 177 219 262 308
#     4   8  14  25  41  62  90 128 165 199 245 297
#
# _framework density 17.853940999999999
#
# number of rings (size 3 to 8) (size 9 to 14) (size 15 to 20)
#    0.000    2.667    1.667    2.000    0.000    2.667 
#    3.000    0.833    0.000    0.000    0.000    0.000 
#    0.000    8.000    0.000    0.000    0.000    0.000 
#
# Total GULP energy -297471.643765 kJ/mol
# GULP energy per Si atom -12394.651824 kJ/mol
# Density = 1.781331 g / cm^3
# Si number density = 17.853941 Si / 1000 Ang^3
#
#
#
# Elastic Constant Matrix: (Units=GPa)
#
#
# Indices 1 2 3 4 5 6 
#
# 1 144.8412 88.1971 15.9469 0.0000 4.5489 0.0000
# 2 88.1971 131.9698 19.9887 0.0000 9.9126 0.0000
# 3 15.9469 19.9887 32.9766 0.0000 -7.8396 0.0000
# 4 0.0000 0.0000 0.0000 13.0720 0.0000 7.6451
# 5 4.5489 9.9126 -7.8396 0.0000 14.3453 0.0000
# 6 0.0000 0.0000 0.0000 7.6451 0.0000 19.1538
#
#
#
# Elastic Compliance Matrix: (Units=1/GPa)
#
#
# Indices 1 2 3 4 5 6 
#
# 1 0.011693 -0.007831 -0.000578 0.000000 0.001388 0.000000
# 2 -0.007831 0.014989 -0.008241 0.000000 -0.012378 0.000000
# 3 -0.000578 -0.008241 0.042521 0.000000 0.029115 0.000000
# 4 0.000000 0.000000 0.000000 0.099795 0.000000 -0.039832
# 5 0.001388 -0.012378 0.029115 0.000000 0.093734 0.000000
# 6 0.000000 0.000000 0.000000 -0.039832 0.000000 0.068108
#
#
# Mechanical properties :
#
#
# Convention : Reuss Voigt Hill
#
# Bulk Modulus (GPa) = 27.85309 62.00589 44.92949
# Shear Modulus (GPa) = 13.29408 21.69120 17.49264
#
# Velocity S-wave (km/s) = 2.73170 3.48936 3.13351
# Velocity P-wave (km/s) = 5.05806 7.14416 6.18963
#
# Compressibility (1/GPa) = 0.03590266
#
# Stress axis : x y z
#
# Youngs Moduli (GPa) = 85.52372 66.71496 23.51786
#
# Poissons Ratio (x) = 0.52245 0.01358
# Poissons Ratio (y) = 0.66975 0.19382
# Poissons Ratio (z) = 0.04940 0.54982
#
# Static dielectric constant tensor:
#      x y z
#    x 3.549530 0.000000 0.029230 
#    y 0.000000 3.505500 0.000000 
#    z 0.029230 0.000000 2.735450 
# 
# 
# High freq. dielectric constant tensor:
#      x y z
#    x 1.705830 0.000000 0.002880 
#    y 0.000000 1.690930 0.000000 
#    z 0.002880 0.000000 1.626390 
# 
# From -- ./inp_files/144959.got.cif
#   From: 2010.06.25/outbox.cif.g09.slc.cpg/sg12_73_cif.got.tgz:144959.got - 2010.06.28 00:19:55.
