data_PCOD8085325
_publ_section_title
;
Structure prediction by ZEFSAII (Michael W. Deem and Ramdas Pophale) SiO2 
 PCOD8085325
Probable space group: C 2/M
;
_chemical_formula_sum "Si O2"
_cell_formula_units_Z 64
_cell_length_a 28.315806
_cell_length_b 9.270030
_cell_length_c 15.444102
_cell_angle_alpha 90.000000
_cell_angle_beta 88.323573
_cell_angle_gamma 90.000000
_cell_volume 4052.162032
_symmetry_space_group_name_H-M "C 2/M"
_symmetry_group_IT_number 12
_symmetry_cell_setting 'monoclinic'
loop_
_space_group_symop_operation_xyz
x,y,z
-x,y,-z
-x,-y,-z
x,-y,z
1/2+x,1/2+y,z
1/2-x,1/2+y,-z
1/2-x,1/2-y,-z
1/2+x,1/2-y,z
loop_
_atom_site_type_symbol
_atom_site_label
_atom_site_fract_x
_atom_site_fract_y
_atom_site_fract_z
Si Si1 0.954311 0.831517 0.176264
Si Si2 0.946504 0.829637 0.507531
Si Si3 0.110757 0.167865 0.657455
Si Si4 0.799481 0.668179 0.397167
Si Si5 0.393261 0.833571 0.659032
Si Si6 0.555882 0.159044 0.986852
Si Si7 0.051181 0.668419 0.175062
Si Si8 0.707041 0.834236 0.402467
O O1 0.918097 0.798643 0.254674
O O2 0.930539 0.770366 0.089487
O O3 0.003820 0.757418 0.196804
O O4 0.963726 0.000000 0.163684
O O5 0.920139 0.779333 0.422196
O O6 0.922535 0.762198 0.592002
O O7 0.000000 0.773258 0.500000
O O8 0.944867 0.000000 0.518904
O O9 0.158954 0.257508 0.659131
O O10 0.123405 0.000000 0.648388
O O11 0.799395 0.500000 0.376087
O O12 0.749726 0.733951 0.368686
O O13 0.807383 0.701173 0.498065
O O14 0.409771 0.795865 0.755002
O O15 0.337679 0.798348 0.655506
O O16 0.402486 0.000000 0.634840
O O17 0.575736 0.000000 0.961888
O O18 0.500000 0.152316 0.000000
O O19 0.574585 0.209802 0.080602
O O20 0.036946 0.500000 0.175695
O O21 0.723120 0.000000 0.393461
#
# Coordination Sequence:
#
# PCOD8085325 Si02
#       8
#     8   8   8   8   8   8   8   8
#     4  10  19  30  46  68  93 123 158 192 227 268
#     4  10  20  32  44  61  91 128 158 185 220 262
#     4  10  20  32  45  64  93 125 154 187 229 271
#     4  10  19  31  49  69  88 115 154 193 230 272
#     4  10  19  32  48  68  91 120 156 189 222 268
#     4   8  15  29  46  65  90 120 152 188 231 272
#     4   9  18  31  47  67  94 125 154 187 228 271
#     4   9  18  32  48  67  91 116 148 191 234 272
#
# _framework density 15.794038
#
# number of rings (size 3 to 8) (size 9 to 14) (size 15 to 20)
#    0.000    2.500    1.250    2.250    0.000    6.000 
#    0.000    0.000    0.000    0.000    0.000    0.875 
#    0.000    0.000    0.000    0.000    0.000    0.000 
#
# Total GULP energy -396792.597110 kJ/mol
# GULP energy per Si atom -12399.768660 kJ/mol
# Density = 1.575809 g / cm^3
# Si number density = 15.794038 Si / 1000 Ang^3
#
#
#
# Elastic Constant Matrix: (Units=GPa)
#
#
# Indices 1 2 3 4 5 6 
#
# 1 97.9501 47.6107 53.6123 0.0000 5.3954 0.0000
# 2 47.6107 59.8466 42.7046 0.0000 2.8905 0.0000
# 3 53.6123 42.7046 112.5956 0.0000 12.7788 0.0000
# 4 0.0000 0.0000 0.0000 23.4495 0.0000 -7.8489
# 5 5.3954 2.8905 12.7788 0.0000 8.9765 0.0000
# 6 0.0000 0.0000 0.0000 -7.8489 0.0000 14.9581
#
#
#
# Elastic Compliance Matrix: (Units=1/GPa)
#
#
# Indices 1 2 3 4 5 6 
#
# 1 0.018070 -0.011350 -0.004152 0.000000 -0.001295 0.000000
# 2 -0.011350 0.030309 -0.006867 0.000000 0.006838 0.000000
# 3 -0.004152 -0.006867 0.015420 0.000000 -0.017245 0.000000
# 4 0.000000 0.000000 0.000000 0.051730 0.000000 0.027144
# 5 -0.001295 0.006838 -0.017245 0.000000 0.134528 0.000000
# 6 0.000000 0.000000 0.000000 0.027144 0.000000 0.081097
#
#
# Mechanical properties :
#
#
# Convention : Reuss Voigt Hill
#
# Bulk Modulus (GPa) = 52.46564 62.02750 57.24657
# Shear Modulus (GPa) = 13.08054 17.90781 15.49417
#
# Velocity S-wave (km/s) = 2.88096 3.37090 3.13551
# Velocity P-wave (km/s) = 6.66013 7.38299 7.03086
#
# Compressibility (1/GPa) = 0.01906009
#
# Stress axis : x y z
#
# Youngs Moduli (GPa) = 55.33897 32.99356 64.85039
#
# Poissons Ratio (x) = 0.37449 0.26928
# Poissons Ratio (y) = 0.62812 0.44533
# Poissons Ratio (z) = 0.22978 0.22657
#
# Static dielectric constant tensor:
#      x y z
#    x 2.890560 0.000000 0.181890 
#    y 0.000000 3.030340 0.000000 
#    z 0.181890 0.000000 3.259660 
# 
# 
# High freq. dielectric constant tensor:
#      x y z
#    x 1.585520 0.000000 0.006370 
#    y 0.000000 1.610750 0.000000 
#    z 0.006370 0.000000 1.597680 
# 
# From -- ./inp_files/248366.got.cif
#   From: 2010.06.25/outbox.cif.g09.slc.cpg/sg12_125_cif.got.tgz:248366.got - 2010.06.28 00:19:55.
