data_PCOD8085531
_publ_section_title
;
Structure prediction by ZEFSAII (Michael W. Deem and Ramdas Pophale) SiO2 
 PCOD8085531
Probable space group: C 2/M
;
_chemical_formula_sum "Si O2"
_cell_formula_units_Z 40
_cell_length_a 25.135704
_cell_length_b 9.324117
_cell_length_c 9.895319
_cell_angle_alpha 90.000000
_cell_angle_beta 88.194079
_cell_angle_gamma 90.000000
_cell_volume 2317.996647
_symmetry_space_group_name_H-M "C 2/M"
_symmetry_group_IT_number 12
_symmetry_cell_setting 'monoclinic'
loop_
_space_group_symop_operation_xyz
x,y,z
-x,y,-z
-x,-y,-z
x,-y,z
1/2+x,1/2+y,z
1/2-x,1/2+y,-z
1/2-x,1/2-y,-z
1/2+x,1/2-y,z
loop_
_atom_site_type_symbol
_atom_site_label
_atom_site_fract_x
_atom_site_fract_y
_atom_site_fract_z
Si Si1 0.691278 0.665438 0.138419
Si Si2 0.312851 0.167542 0.124080
Si Si3 0.607615 0.332102 0.372478
Si Si4 0.892043 0.668962 0.350006
Si Si5 0.991448 0.657693 0.659771
O O1 0.686308 0.500000 0.098673
O O2 0.752175 0.707504 0.165633
O O3 0.657561 0.701691 0.273546
O O4 0.668902 0.754681 0.014105
O O5 0.349384 0.221653 0.243891
O O6 0.320805 0.000000 0.099400
O O7 0.599433 0.500000 0.398558
O O8 0.619339 0.254916 0.512373
O O9 0.554521 0.271789 0.302559
O O10 0.886911 0.500000 0.382915
O O11 0.950986 0.703564 0.284677
O O12 0.974585 0.500000 0.715705
O O13 0.000000 0.649750 0.500000
#
# Coordination Sequence:
#
# PCOD8085531 Si02
#       5
#     8   8   8   8   8
#     4   9  19  34  49  69  97 124 154 193 233 277
#     4   9  18  34  53  69  90 124 160 193 233 277
#     4  10  19  30  47  72  99 125 153 188 232 280
#     4   9  18  32  50  72  95 120 156 198 232 269
#     4   8  15  29  47  67  93 123 155 192 230 269
#
# _framework density 17.25628
#
# number of rings (size 3 to 8) (size 9 to 14) (size 15 to 20)
#    0.000    3.000    0.000    1.800    0.000    6.800 
#    0.000    1.000    0.000    6.000    0.000    0.000 
#    0.000    0.000    0.000    0.000    0.000    0.000 
#
# Total GULP energy -247947.133435 kJ/mol
# GULP energy per Si atom -12397.356672 kJ/mol
# Density = 1.721700 g / cm^3
# Si number density = 17.256280 Si / 1000 Ang^3
#
#
#
# Elastic Constant Matrix: (Units=GPa)
#
#
# Indices 1 2 3 4 5 6 
#
# 1 106.2188 48.2380 63.6813 0.0000 23.2999 0.0000
# 2 48.2380 68.9552 51.5224 0.0000 8.9280 0.0000
# 3 63.6813 51.5224 88.4209 0.0000 19.4187 0.0000
# 4 0.0000 0.0000 0.0000 27.4703 0.0000 -1.9749
# 5 23.2999 8.9280 19.4187 0.0000 15.0533 0.0000
# 6 0.0000 0.0000 0.0000 -1.9749 0.0000 26.1562
#
#
#
# Elastic Compliance Matrix: (Units=1/GPa)
#
#
# Indices 1 2 3 4 5 6 
#
# 1 0.020928 -0.007189 -0.006566 0.000000 -0.019659 0.000000
# 2 -0.007189 0.028508 -0.014182 0.000000 0.012514 0.000000
# 3 -0.006566 -0.014182 0.028217 0.000000 -0.017825 0.000000
# 4 0.000000 0.000000 0.000000 0.036602 0.000000 0.002764
# 5 -0.019659 0.012514 -0.017825 0.000000 0.112432 0.000000
# 6 0.000000 0.000000 0.000000 0.002764 0.000000 0.038440
#
#
# Mechanical properties :
#
#
# Convention : Reuss Voigt Hill
#
# Bulk Modulus (GPa) = 45.91667 65.60869 55.76268
# Shear Modulus (GPa) = 15.23174 20.41284 17.82229
#
# Velocity S-wave (km/s) = 2.97421 3.44309 3.21721
# Velocity P-wave (km/s) = 6.20170 7.34229 6.79597
#
# Compressibility (1/GPa) = 0.02177858
#
# Stress axis : x y z
#
# Youngs Moduli (GPa) = 47.78193 35.07847 35.43933
#
# Poissons Ratio (x) = 0.25218 0.23271
# Poissons Ratio (y) = 0.34350 0.50260
# Poissons Ratio (z) = 0.31375 0.49748
#
# Static dielectric constant tensor:
#      x y z
#    x 3.667050 0.000000 0.153160 
#    y 0.000000 3.228280 0.000000 
#    z 0.153160 0.000000 2.978590 
# 
# 
# High freq. dielectric constant tensor:
#      x y z
#    x 1.675970 0.000000 0.005340 
#    y 0.000000 1.665260 0.000000 
#    z 0.005340 0.000000 1.638940 
# 
# From -- ./inp_files/100998.got.cif
#   From: 2010.06.25/outbox.cif.g09.slc.cpg/sg12_51_cif.got.tgz:100998.got - 2010.06.28 00:19:55.
