data_PCOD8085020
_publ_section_title
;
Structure prediction by ZEFSAII (Michael W. Deem and Ramdas Pophale) SiO2 
 PCOD8085020
Probable space group: C 2/M
;
_chemical_formula_sum "Si O2"
_cell_formula_units_Z 64
_cell_length_a 16.368904
_cell_length_b 25.867080
_cell_length_c 17.218927
_cell_angle_alpha 90.000000
_cell_angle_beta 147.585863
_cell_angle_gamma 90.000000
_cell_volume 3908.105922
_symmetry_space_group_name_H-M "C 2/M"
_symmetry_group_IT_number 12
_symmetry_cell_setting 'monoclinic'
loop_
_space_group_symop_operation_xyz
x,y,z
-x,y,-z
-x,-y,-z
x,-y,z
1/2+x,1/2+y,z
1/2-x,1/2+y,-z
1/2-x,1/2-y,-z
1/2+x,1/2-y,z
loop_
_atom_site_type_symbol
_atom_site_label
_atom_site_fract_x
_atom_site_fract_y
_atom_site_fract_z
Si Si1 0.828088 0.774271 0.343346
Si Si2 0.073134 0.813823 0.726701
Si Si3 0.747569 0.198260 0.447441
Si Si4 0.854656 0.151704 0.054593
Si Si5 0.891095 0.182438 0.840359
Si Si6 0.631669 0.886198 0.662344
Si Si7 0.939702 0.690407 0.264662
Si Si8 0.639776 0.558539 0.053462
O O1 0.841864 0.819875 0.288767
O O2 0.744568 0.793152 0.353096
O O3 0.712074 0.730986 0.218260
O O4 0.000000 0.753418 0.500000
O O5 0.158505 0.845927 0.862364
O O6 0.063592 0.751866 0.728801
O O7 0.899499 0.835285 0.586770
O O8 0.750000 0.250000 0.500000
O O9 0.592598 0.169027 0.345571
O O10 0.998636 0.188565 0.145883
O O11 0.700924 0.175708 0.900933
O O12 0.880077 0.094803 0.038645
O O13 0.776454 0.135064 0.729977
O O14 0.000000 0.167791 0.000000
O O15 0.500000 0.908712 0.500000
O O16 0.564167 0.837545 0.655477
O O17 0.698370 0.929865 0.773799
O O18 0.644321 0.500000 0.026481
O O19 0.500000 0.567046 0.000000
#
# Coordination Sequence:
#
# PCOD8085020 Si02
#       8
#     8   8   8   8   8   8   8   8
#     4  10  20  32  43  65  99 138 172 201 235 275
#     4  10  19  29  46  64  96 130 165 202 231 284
#     4   9  19  29  43  64  92 134 165 198 235 277
#     4  11  20  32  48  70  92 127 171 201 245 296
#     4  12  18  30  44  68  94 131 169 200 235 283
#     4  11  21  30  51  72  99 128 169 200 244 298
#     4  10  19  31  41  68  96 128 163 201 236 276
#     4  10  20  38  54  70  97 126 163 213 262 299
#
# _framework density 16.37622
#
# number of rings (size 3 to 8) (size 9 to 14) (size 15 to 20)
#    0.000    1.625    5.000    2.250    5.250    1.250 
#    0.000    0.000    0.000    0.000    0.000    0.000 
#    0.000   12.500    0.000    0.000    0.000    0.000 
#
# Total GULP energy -396418.301905 kJ/mol
# GULP energy per Si atom -12388.071935 kJ/mol
# Density = 1.633895 g / cm^3
# Si number density = 16.376220 Si / 1000 Ang^3
#
#
#
# Elastic Constant Matrix: (Units=GPa)
#
#
# Indices 1 2 3 4 5 6 
#
# 1 105.7273 22.4366 44.0881 0.0000 -4.4351 0.0000
# 2 22.4366 50.1812 22.9241 0.0000 -2.8258 0.0000
# 3 44.0881 22.9241 89.2317 0.0000 1.8305 0.0000
# 4 0.0000 0.0000 0.0000 12.4737 0.0000 -0.5121
# 5 -4.4351 -2.8258 1.8305 0.0000 35.1599 0.0000
# 6 0.0000 0.0000 0.0000 -0.5121 0.0000 13.4965
#
#
#
# Elastic Compliance Matrix: (Units=1/GPa)
#
#
# Indices 1 2 3 4 5 6 
#
# 1 0.012411 -0.002994 -0.005396 0.000000 0.001606 0.000000
# 2 -0.002994 0.023458 -0.004583 0.000000 0.001746 0.000000
# 3 -0.005396 -0.004583 0.015088 0.000000 -0.001835 0.000000
# 4 0.000000 0.000000 0.000000 0.080294 0.000000 0.003047
# 5 0.001606 0.001746 -0.001835 0.000000 0.028880 0.000000
# 6 0.000000 0.000000 0.000000 0.003047 0.000000 0.074209
#
#
# Mechanical properties :
#
#
# Convention : Reuss Voigt Hill
#
# Bulk Modulus (GPa) = 39.98154 47.11533 43.54843
# Shear Modulus (GPa) = 18.61344 22.60544 20.60944
#
# Velocity S-wave (km/s) = 3.37503 3.71938 3.55138
# Velocity P-wave (km/s) = 6.29723 6.87591 6.59292
#
# Compressibility (1/GPa) = 0.02501154
#
# Stress axis : x y z
#
# Youngs Moduli (GPa) = 80.57327 42.62861 66.27801
#
# Poissons Ratio (x) = 0.12762 0.35763
# Poissons Ratio (y) = 0.24121 0.30377
# Poissons Ratio (z) = 0.43477 0.19538
#
# Static dielectric constant tensor:
#      x y z
#    x 3.502060 0.000000 0.192530 
#    y 0.000000 2.439580 0.000000 
#    z 0.192530 0.000000 3.329490 
# 
# 
# High freq. dielectric constant tensor:
#      x y z
#    x 1.634970 0.000000 0.010930 
#    y 0.000000 1.556770 0.000000 
#    z 0.010930 0.000000 1.647470 
# 
# From -- ./inp_files/78813.got.cif
#   From: 2010.06.25/outbox.cif.g09.slc.cpg/sg12_40_cif.got.tgz:78813.got - 2010.06.28 00:19:55.
