data_PCOD8085738
_publ_section_title
;
Structure prediction by ZEFSAII (Michael W. Deem and Ramdas Pophale) SiO2 
 PCOD8085738
Probable space group: C 2/M
;
_chemical_formula_sum "Si O2"
_cell_formula_units_Z 64
_cell_length_a 30.380291
_cell_length_b 8.587379
_cell_length_c 16.322930
_cell_angle_alpha 90.000000
_cell_angle_beta 132.367960
_cell_angle_gamma 90.000000
_cell_volume 3146.274065
_symmetry_space_group_name_H-M "C 2/M"
_symmetry_group_IT_number 12
_symmetry_cell_setting 'monoclinic'
loop_
_space_group_symop_operation_xyz
x,y,z
-x,y,-z
-x,-y,-z
x,-y,z
1/2+x,1/2+y,z
1/2-x,1/2+y,-z
1/2-x,1/2-y,-z
1/2+x,1/2-y,z
loop_
_atom_site_type_symbol
_atom_site_label
_atom_site_fract_x
_atom_site_fract_y
_atom_site_fract_z
Si Si1 0.797304 0.182072 0.289889
Si Si2 0.829902 0.814258 0.863336
Si Si3 0.519048 0.316685 0.240255
Si Si4 0.198462 0.321370 0.880931
Si Si5 0.403921 0.322355 0.807453
Si Si6 0.811958 0.327664 0.585029
Si Si7 0.387604 0.171610 0.523446
Si Si8 0.891270 0.322474 0.092237
O O1 0.736567 0.262560 0.247602
O O2 0.808508 0.223549 0.209847
O O3 0.857699 0.231107 0.412762
O O4 0.788081 0.000000 0.288644
O O5 0.883039 0.750329 0.868937
O O6 0.831426 0.000000 0.867284
O O7 0.842467 0.743456 0.967944
O O8 0.530250 0.500000 0.253780
O O9 0.541982 0.247662 0.179578
O O10 0.554002 0.249172 0.362586
O O11 0.450096 0.280759 0.162733
O O12 0.214246 0.500000 0.879202
O O13 0.136348 0.310827 0.852056
O O14 0.250000 0.250000 0.000000
O O15 0.420047 0.500000 0.844033
O O16 0.346988 0.301839 0.679270
O O17 0.810619 0.500000 0.625523
O O18 0.750000 0.250000 0.500000
O O19 0.836916 0.346556 0.526428
O O20 0.406163 0.000000 0.514014
O O21 0.906921 0.500000 0.089409
#
# Coordination Sequence:
#
# PCOD8085738 Si02
#       8
#     8   8   8   8   8   8   8   8
#     4  12  24  38  60  92 125 155 195 246 302 360
#     4  11  22  37  59  87 121 159 201 248 299 351
#     4  10  21  40  63  86 118 160 204 246 292 348
#     4  11  23  41  65  91 121 154 193 241 299 359
#     4   9  20  36  54  80 114 155 200 243 288 344
#     4  10  19  30  49  76 109 151 195 241 292 346
#     4  10  21  38  58  83 117 157 199 243 295 350
#     4  11  24  41  62  89 119 154 197 245 298 358
#
# _framework density 20.341521
#
# number of rings (size 3 to 8) (size 9 to 14) (size 15 to 20)
#    0.000    1.500    1.250    4.125    0.000    8.000 
#    0.000    3.125    0.000    3.750    0.000    0.000 
#    0.000    0.000    0.000    0.000    0.000    0.000 
#
# Total GULP energy -396558.585515 kJ/mol
# GULP energy per Si atom -12392.455797 kJ/mol
# Density = 2.029522 g / cm^3
# Si number density = 20.341521 Si / 1000 Ang^3
#
#
#
# Elastic Constant Matrix: (Units=GPa)
#
#
# Indices 1 2 3 4 5 6 
#
# 1 82.8171 19.7467 21.4382 0.0000 1.2930 0.0000
# 2 19.7467 81.0812 15.6897 0.0000 -4.8908 0.0000
# 3 21.4382 15.6897 65.8440 0.0000 -9.6165 0.0000
# 4 0.0000 0.0000 0.0000 34.5238 0.0000 1.9787
# 5 1.2930 -4.8908 -9.6165 0.0000 30.4809 0.0000
# 6 0.0000 0.0000 0.0000 1.9787 0.0000 22.8936
#
#
#
# Elastic Compliance Matrix: (Units=1/GPa)
#
#
# Indices 1 2 3 4 5 6 
#
# 1 0.013844 -0.002699 -0.004207 0.000000 -0.002348 0.000000
# 2 -0.002699 0.013495 -0.002101 0.000000 0.001617 0.000000
# 3 -0.004207 -0.002101 0.017857 0.000000 0.005475 0.000000
# 4 0.000000 0.000000 0.000000 0.029110 0.000000 -0.002516
# 5 -0.002348 0.001617 0.005475 0.000000 0.034894 0.000000
# 6 0.000000 0.000000 0.000000 -0.002516 0.000000 0.043898
#
#
# Mechanical properties :
#
#
# Convention : Reuss Voigt Hill
#
# Bulk Modulus (GPa) = 36.78864 38.16575 37.47720
# Shear Modulus (GPa) = 27.75117 29.10414 28.42766
#
# Velocity S-wave (km/s) = 3.69760 3.78666 3.74240
# Velocity P-wave (km/s) = 6.02946 6.15805 6.09410
#
# Compressibility (1/GPa) = 0.02718230
#
# Stress axis : x y z
#
# Youngs Moduli (GPa) = 72.23282 74.10320 55.99902
#
# Poissons Ratio (x) = 0.20001 0.23560
# Poissons Ratio (y) = 0.19497 0.11763
# Poissons Ratio (z) = 0.30390 0.15566
#
# Static dielectric constant tensor:
#      x y z
#    x 3.748220 0.000000 -0.281500 
#    y 0.000000 3.730370 0.000000 
#    z -0.281500 0.000000 3.399800 
# 
# 
# High freq. dielectric constant tensor:
#      x y z
#    x 1.794650 0.000000 -0.002880 
#    y 0.000000 1.799450 0.000000 
#    z -0.002880 0.000000 1.786830 
# 
# From -- ./inp_files/249931.got.cif
#   From: 2010.06.25/outbox.cif.g09.slc.cpg/sg12_125_cif.got.tgz:249931.got - 2010.06.28 00:19:55.
