data_PCOD8085547
_publ_section_title
;
Structure prediction by ZEFSAII (Michael W. Deem and Ramdas Pophale) SiO2 
 PCOD8085547
Probable space group: C 2/M
;
_chemical_formula_sum "Si O2"
_cell_formula_units_Z 64
_cell_length_a 23.332089
_cell_length_b 8.884524
_cell_length_c 21.168786
_cell_angle_alpha 90.000000
_cell_angle_beta 59.562069
_cell_angle_gamma 90.000000
_cell_volume 3783.388314
_symmetry_space_group_name_H-M "C 2/M"
_symmetry_group_IT_number 12
_symmetry_cell_setting 'monoclinic'
loop_
_space_group_symop_operation_xyz
x,y,z
-x,y,-z
-x,-y,-z
x,-y,z
1/2+x,1/2+y,z
1/2-x,1/2+y,-z
1/2-x,1/2-y,-z
1/2+x,1/2-y,z
loop_
_atom_site_type_symbol
_atom_site_label
_atom_site_fract_x
_atom_site_fract_y
_atom_site_fract_z
Si Si1 0.289669 0.324495 0.921433
Si Si2 0.437395 0.820498 0.273331
Si Si3 0.239652 0.325567 0.418363
Si Si4 0.938802 0.822768 0.855127
Si Si5 0.059445 0.673165 0.014686
Si Si6 0.822158 0.174187 0.256888
Si Si7 0.146747 0.326181 0.569908
Si Si8 0.808882 0.324857 0.131772
O O1 0.287670 0.500000 0.936783
O O2 0.365266 0.265658 0.877382
O O3 0.256300 0.287152 0.872850
O O4 0.250000 0.250000 0.000000
O O5 0.510084 0.755474 0.220896
O O6 0.384661 0.763250 0.250662
O O7 0.415953 0.757932 0.355987
O O8 0.439799 0.000000 0.266838
O O9 0.254310 0.500000 0.428776
O O10 0.253878 0.302501 0.336024
O O11 0.164026 0.283722 0.486291
O O12 0.288047 0.213564 0.427265
O O13 0.955199 0.776500 0.917302
O O14 0.946172 0.000000 0.843895
O O15 0.064085 0.500000 0.034137
O O16 0.127296 0.725803 0.944029
O O17 0.000000 0.699257 0.000000
O O18 0.804443 0.229932 0.197573
O O19 0.842619 0.000000 0.243322
O O20 0.132796 0.500000 0.582351
O O21 0.813868 0.500000 0.146685
#
# Coordination Sequence:
#
# PCOD8085547 Si02
#       8
#     8   8   8   8   8   8   8   8
#     4  10  21  37  55  72  90 120 159 203 246 283
#     4  10  19  31  48  70  99 133 163 192 233 286
#     4   8  14  25  41  64  95 126 155 190 230 271
#     4  11  22  34  50  72  95 120 157 202 244 280
#     4  10  20  33  50  70  93 125 159 188 229 285
#     4  10  19  30  47  73 103 130 157 195 239 280
#     4   8  14  25  42  64  91 126 162 189 221 275
#     4  10  20  34  50  69  96 127 159 194 237 287
#
# _framework density 16.916053999999999
#
# number of rings (size 3 to 8) (size 9 to 14) (size 15 to 20)
#    0.000    2.375    1.250    1.875    0.000    3.750 
#    0.000    0.000    0.000    0.000    0.000    0.875 
#    0.000    7.000    0.000    0.000    0.000    0.000 
#
# Total GULP energy -396427.450133 kJ/mol
# GULP energy per Si atom -12388.357817 kJ/mol
# Density = 1.687755 g / cm^3
# Si number density = 16.916054 Si / 1000 Ang^3
#
#
#
# Elastic Constant Matrix: (Units=GPa)
#
#
# Indices 1 2 3 4 5 6 
#
# 1 65.2691 23.2265 48.2105 0.0000 -19.4098 0.0009
# 2 23.2265 37.9694 38.5788 0.0004 -7.9434 0.0022
# 3 48.2105 38.5788 154.0979 0.0001 -26.9994 -0.0001
# 4 0.0000 0.0004 0.0001 23.4393 0.0000 0.2651
# 5 -19.4098 -7.9434 -26.9994 0.0000 11.5554 0.0000
# 6 0.0009 0.0022 -0.0001 0.2651 0.0000 15.6170
#
#
#
# Elastic Compliance Matrix: (Units=1/GPa)
#
#
# Indices 1 2 3 4 5 6 
#
# 1 0.033865 -0.011152 0.001389 0.000000 0.052464 0.000000
# 2 -0.011152 0.039252 -0.008283 -0.000001 -0.011103 -0.000005
# 3 0.001389 -0.008283 0.012766 0.000000 0.026466 0.000001
# 4 0.000000 -0.000001 0.000000 0.042672 0.000000 -0.000724
# 5 0.052464 -0.011103 0.026466 0.000000 0.228870 -0.000001
# 6 0.000000 -0.000005 0.000001 -0.000724 -0.000001 0.064045
#
#
# Mechanical properties :
#
#
# Convention : Reuss Voigt Hill
#
# Bulk Modulus (GPa) = 20.08386 53.04088 36.56237
# Shear Modulus (GPa) = 10.54499 19.94370 15.24435
#
# Velocity S-wave (km/s) = 2.49945 3.43735 3.00522
# Velocity P-wave (km/s) = 4.49757 6.86857 5.80540
#
# Compressibility (1/GPa) = 0.04979122
#
# Stress axis : x y z
#
# Youngs Moduli (GPa) = 29.52867 25.47632 78.33479
#
# Poissons Ratio (x) = 0.28410 -0.10880
# Poissons Ratio (y) = 0.32929 0.64888
# Poissons Ratio (z) = -0.04101 0.21103
#
# Static dielectric constant tensor:
#      x y z
#    x 2.936530 0.000000 -0.108970 
#    y 0.000000 3.183260 0.000000 
#    z -0.108970 0.000000 3.756220 
# 
# 
# High freq. dielectric constant tensor:
#      x y z
#    x 1.603910 0.000000 -0.005830 
#    y 0.000000 1.654550 0.000000 
#    z -0.005830 0.000000 1.676170 
# 
# From -- ./inp_files/320056.got.cif
#   From: 2010.06.25/outbox.cif.g09.slc.cpg/sg12_161_cif.got.tgz:320056.got - 2010.06.28 00:19:55.
