data_PCOD8085580
_publ_section_title
;
Structure prediction by ZEFSAII (Michael W. Deem and Ramdas Pophale) SiO2 
 PCOD8085580
Probable space group: C 2/M
;
_chemical_formula_sum "Si O2"
_cell_formula_units_Z 64
_cell_length_a 25.267095
_cell_length_b 9.368317
_cell_length_c 14.745936
_cell_angle_alpha 90.000000
_cell_angle_beta 75.293563
_cell_angle_gamma 90.000000
_cell_volume 3376.160945
_symmetry_space_group_name_H-M "C 2/M"
_symmetry_group_IT_number 12
_symmetry_cell_setting 'monoclinic'
loop_
_space_group_symop_operation_xyz
x,y,z
-x,y,-z
-x,-y,-z
x,-y,z
1/2+x,1/2+y,z
1/2-x,1/2+y,-z
1/2-x,1/2-y,-z
1/2+x,1/2-y,z
loop_
_atom_site_type_symbol
_atom_site_label
_atom_site_fract_x
_atom_site_fract_y
_atom_site_fract_z
Si Si1 0.528558 0.837236 0.146010
Si Si2 0.575213 0.337536 0.599952
Si Si3 0.683185 0.663692 0.869589
Si Si4 0.578076 0.332172 0.804398
Si Si5 0.375178 0.661444 0.602357
Si Si6 0.864396 0.835247 0.918232
Si Si7 0.472065 0.160936 0.639166
Si Si8 0.209853 0.835339 0.216101
O O1 0.474500 0.753932 0.136028
O O2 0.582279 0.759113 0.085058
O O3 0.530150 0.831593 0.252596
O O4 0.527068 0.000000 0.110670
O O5 0.554187 0.500000 0.611251
O O6 0.592470 0.291418 0.693646
O O7 0.625893 0.319514 0.507042
O O8 0.525837 0.243207 0.581171
O O9 0.693849 0.500000 0.839856
O O10 0.629059 0.718594 0.842052
O O11 0.734344 0.750362 0.811241
O O12 0.676691 0.685038 0.979852
O O13 0.566179 0.500000 0.821237
O O14 0.393220 0.500000 0.619760
O O15 0.417556 0.769412 0.626504
O O16 0.316069 0.691482 0.672826
O O17 0.832817 0.781988 0.842145
O O18 0.882899 0.000000 0.900293
O O19 0.475692 0.000000 0.601685
O O20 0.223668 0.000000 0.192484
#
# Coordination Sequence:
#
# PCOD8085580 Si02
#       8
#     8   8   8   8   8   8   8   8
#     4  10  20  33  53  82 111 140 171 213 264 312
#     4   9  18  32  52  74 101 139 177 210 248 306
#     4  10  22  38  57  78 101 137 182 222 261 308
#     4   9  19  37  56  75 105 143 179 215 256 306
#     4  10  19  32  51  76 103 136 176 210 252 312
#     4  10  20  36  57  80 106 137 173 214 265 320
#     4  10  19  30  47  76 111 139 166 208 262 311
#     4  10  21  36  55  78 106 137 172 218 267 312
#
# _framework density 18.956441999999999
#
# number of rings (size 3 to 8) (size 9 to 14) (size 15 to 20)
#    0.000    2.250    1.250    1.500    0.000    5.500 
#    0.000    3.125    0.000    0.000    0.000    0.000 
#    0.000    0.000    0.000    0.000    0.000    0.000 
#
# Total GULP energy -396796.976000 kJ/mol
# GULP energy per Si atom -12399.905500 kJ/mol
# Density = 1.891330 g / cm^3
# Si number density = 18.956442 Si / 1000 Ang^3
#
#
#
# Elastic Constant Matrix: (Units=GPa)
#
#
# Indices 1 2 3 4 5 6 
#
# 1 91.3769 43.0710 24.6538 0.0000 -11.7570 0.0000
# 2 43.0710 78.0744 24.6472 0.0000 -9.9995 0.0000
# 3 24.6538 24.6472 44.5785 0.0000 -19.5380 0.0000
# 4 0.0000 0.0000 0.0000 20.1500 0.0000 -8.4668
# 5 -11.7570 -9.9995 -19.5380 0.0000 24.3908 0.0000
# 6 0.0000 0.0000 0.0000 -8.4668 0.0000 33.3810
#
#
#
# Elastic Compliance Matrix: (Units=1/GPa)
#
#
# Indices 1 2 3 4 5 6 
#
# 1 0.015580 -0.007133 -0.004103 0.000000 0.001299 0.000000
# 2 -0.007133 0.018792 -0.007051 0.000000 -0.001382 0.000000
# 3 -0.004103 -0.007051 0.040785 0.000000 0.027802 0.000000
# 4 0.000000 0.000000 0.000000 0.055548 0.000000 0.014089
# 5 0.001299 -0.001382 0.027802 0.000000 0.063329 0.000000
# 6 0.000000 0.000000 0.000000 0.014089 0.000000 0.033531
#
#
# Mechanical properties :
#
#
# Convention : Reuss Voigt Hill
#
# Bulk Modulus (GPa) = 25.91843 44.30818 35.11330
# Shear Modulus (GPa) = 18.05040 23.69487 20.87263
#
# Velocity S-wave (km/s) = 3.08913 3.53932 3.32186
# Velocity P-wave (km/s) = 5.14061 6.33457 5.76857
#
# Compressibility (1/GPa) = 0.03858259
#
# Stress axis : x y z
#
# Youngs Moduli (GPa) = 64.18391 53.21295 24.51861
#
# Poissons Ratio (x) = 0.37959 0.10061
# Poissons Ratio (y) = 0.45785 0.17288
# Poissons Ratio (z) = 0.26337 0.37520
#
# Static dielectric constant tensor:
#      x y z
#    x 3.226570 0.000000 -0.002740 
#    y 0.000000 3.525430 0.000000 
#    z -0.002740 0.000000 3.669670 
# 
# 
# High freq. dielectric constant tensor:
#      x y z
#    x 1.710090 0.000000 -0.005500 
#    y 0.000000 1.733640 0.000000 
#    z -0.005500 0.000000 1.747750 
# 
# From -- ./inp_files/243889.got.cif
#   From: 2010.06.25/outbox.cif.g09.slc.cpg/sg12_122_cif.got.tgz:243889.got - 2010.06.28 00:19:55.
