data_PCOD8085980
_publ_section_title
;
Structure prediction by ZEFSAII (Michael W. Deem and Ramdas Pophale) SiO2 
 PCOD8085980
Probable space group: C 2/M
;
_chemical_formula_sum "Si O2"
_cell_formula_units_Z 56
_cell_length_a 21.007100
_cell_length_b 26.903271
_cell_length_c 17.507704
_cell_angle_alpha 90.000000
_cell_angle_beta 161.691302
_cell_angle_gamma 90.000000
_cell_volume 3108.271173
_symmetry_space_group_name_H-M "C 2/M"
_symmetry_group_IT_number 12
_symmetry_cell_setting 'monoclinic'
loop_
_space_group_symop_operation_xyz
x,y,z
-x,y,-z
-x,-y,-z
x,-y,z
1/2+x,1/2+y,z
1/2-x,1/2+y,-z
1/2-x,1/2-y,-z
1/2+x,1/2-y,z
loop_
_atom_site_type_symbol
_atom_site_label
_atom_site_fract_x
_atom_site_fract_y
_atom_site_fract_z
Si Si1 0.743298 0.816258 0.414975
Si Si2 0.445760 0.555800 0.357644
Si Si3 0.925813 0.785070 0.829767
Si Si4 0.676715 0.703746 0.967093
Si Si5 0.424644 0.847744 0.620131
Si Si6 0.048141 0.443926 0.831317
Si Si7 0.354034 0.917658 0.763284
O O1 0.714539 0.762555 0.345509
O O2 0.597909 0.820488 0.323424
O O3 0.678678 0.858489 0.281710
O O4 0.980829 0.822236 0.705631
O O5 0.500000 0.583671 0.500000
O O6 0.369633 0.500000 0.290007
O O7 0.643494 0.554776 0.532663
O O8 0.266891 0.580264 0.103480
O O9 0.779266 0.833502 0.658287
O O10 0.112927 0.784657 0.982534
O O11 0.000000 0.782288 0.000000
O O12 0.750000 0.750000 0.000000
O O13 0.869541 0.667252 0.189025
O O14 0.436676 0.907594 0.644278
O O15 0.060474 0.500000 0.810981
O O16 0.929748 0.445110 0.775148
O O17 0.500000 0.928526 0.000000
#
# Coordination Sequence:
#
# PCOD8085980 Si02
#       7
#     8   8   8   8   8   8   8
#     4  10  20  34  51  78 112 144 182 218 255 317
#     4  10  19  31  46  69 101 138 184 229 261 305
#     4  11  22  36  55  84 114 137 179 230 268 317
#     4  11  18  36  60  76 104 149 181 215 268 323
#     4  10  20  37  57  77 107 148 180 218 270 321
#     4  10  21  35  54  76 102 139 185 226 266 323
#     4  11  20  31  48  73 109 148 177 214 268 310
#
# _framework density 18.016445999999998
#
# number of rings (size 3 to 8) (size 9 to 14) (size 15 to 20)
#    0.000    1.571    4.286    2.571    0.000    1.143 
#    0.000    0.000    0.000    0.429    0.000    1.000 
#    0.000    0.000    0.000    0.000    0.000    0.000 
#
# Total GULP energy -347020.955842 kJ/mol
# GULP energy per Si atom -12393.605566 kJ/mol
# Density = 1.797544 g / cm^3
# Si number density = 18.016446 Si / 1000 Ang^3
#
#
#
# Elastic Constant Matrix: (Units=GPa)
#
#
# Indices 1 2 3 4 5 6 
#
# 1 84.5894 19.6382 40.3996 0.0014 11.2748 0.0006
# 2 19.6382 73.9305 22.4895 -0.0006 -3.0198 -0.0004
# 3 40.3996 22.4895 81.5280 0.0051 20.0996 -0.0003
# 4 0.0014 -0.0006 0.0051 33.2289 0.0027 -16.0492
# 5 11.2748 -3.0198 20.0996 0.0027 34.1281 0.0003
# 6 0.0006 -0.0004 -0.0003 -16.0492 0.0003 49.2015
#
#
#
# Elastic Compliance Matrix: (Units=1/GPa)
#
#
# Indices 1 2 3 4 5 6 
#
# 1 0.015797 -0.002151 -0.006903 0.000000 -0.001344 0.000000
# 2 -0.002151 0.015627 -0.004400 0.000001 0.004685 0.000000
# 3 -0.006903 -0.004400 0.019225 -0.000002 -0.009431 0.000000
# 4 0.000000 0.000001 -0.000002 0.035722 -0.000002 0.011652
# 5 -0.001344 0.004685 -0.009431 -0.000002 0.035714 -0.000001
# 6 0.000000 0.000000 0.000000 0.011652 -0.000001 0.024125
#
#
# Mechanical properties :
#
#
# Convention : Reuss Voigt Hill
#
# Bulk Modulus (GPa) = 42.12049 45.01139 43.56594
# Shear Modulus (GPa) = 27.61901 33.81309 30.71605
#
# Velocity S-wave (km/s) = 3.91959 4.33689 4.13351
# Velocity P-wave (km/s) = 6.62676 7.07926 6.85674
#
# Compressibility (1/GPa) = 0.02374141
#
# Stress axis : x y z
#
# Youngs Moduli (GPa) = 63.30174 63.99022 52.01438
#
# Poissons Ratio (x) = 0.13765 0.35908
# Poissons Ratio (y) = 0.13617 0.22885
# Poissons Ratio (z) = 0.43700 0.28154
#
# Static dielectric constant tensor:
#      x y z
#    x 3.230220 0.000000 0.200570 
#    y 0.000000 3.299020 -0.000010 
#    z 0.200570 -0.000010 3.451030 
# 
# 
# High freq. dielectric constant tensor:
#      x y z
#    x 1.677740 0.000000 0.026900 
#    y 0.000000 1.685210 0.000000 
#    z 0.026900 0.000000 1.699710 
# 
# From -- ./inp_files/13140.got.cif
#   From: 2010.06.25/outbox.cif.g09.slc.cpg/sg12_7_cif.got.tgz:13140.got - 2010.06.28 00:19:55.
