data_PCOD8085080
_publ_section_title
;
Structure prediction by ZEFSAII (Michael W. Deem and Ramdas Pophale) SiO2 
 PCOD8085080
Probable space group: C 2/M
;
_chemical_formula_sum "Si O2"
_cell_formula_units_Z 64
_cell_length_a 20.246130
_cell_length_b 9.359392
_cell_length_c 26.623334
_cell_angle_alpha 90.000000
_cell_angle_beta 48.706214
_cell_angle_gamma 90.000000
_cell_volume 3790.409478
_symmetry_space_group_name_H-M "C 2/M"
_symmetry_group_IT_number 12
_symmetry_cell_setting 'monoclinic'
loop_
_space_group_symop_operation_xyz
x,y,z
-x,y,-z
-x,-y,-z
x,-y,z
1/2+x,1/2+y,z
1/2-x,1/2+y,-z
1/2-x,1/2-y,-z
1/2+x,1/2-y,z
loop_
_atom_site_type_symbol
_atom_site_label
_atom_site_fract_x
_atom_site_fract_y
_atom_site_fract_z
Si Si1 0.281841 0.164715 0.184593
Si Si2 0.900415 0.167985 0.058332
Si Si3 0.101344 0.334910 0.451330
Si Si4 0.346398 0.333220 0.667004
Si Si5 0.647566 0.839557 0.191277
Si Si6 0.484811 0.836204 0.663882
Si Si7 0.242160 0.838084 0.953536
Si Si8 0.835936 0.664366 0.468835
O O1 0.367700 0.255758 0.126142
O O2 0.249237 0.187807 0.258374
O O3 0.201646 0.215848 0.190638
O O4 0.301857 0.000000 0.163304
O O5 0.838346 0.212769 0.042239
O O6 0.895558 0.000000 0.069929
O O7 0.000000 0.219454 0.000000
O O8 0.112971 0.500000 0.430478
O O9 0.159007 0.238481 0.384831
O O10 0.135453 0.301773 0.489306
O O11 0.000000 0.288750 0.500000
O O12 0.369242 0.500000 0.650980
O O13 0.423648 0.258507 0.659388
O O14 0.546848 0.824081 0.261549
O O15 0.664156 0.822056 0.123215
O O16 0.682189 0.000000 0.188860
O O17 0.585698 0.786544 0.608241
O O18 0.477708 0.000000 0.647961
O O19 0.224989 0.000000 0.978538
O O20 0.250000 0.750000 0.000000
O O21 0.813344 0.500000 0.472114
O O22 0.750000 0.750000 0.500000
#
# Coordination Sequence:
#
# PCOD8085080 Si02
#       8
#     8   8   8   8   8   8   8   8
#     4   9  17  28  44  72 104 127 155 197 247 291
#     4   9  18  33  52  72  95 129 170 202 231 282
#     4  10  19  34  53  74  98 127 167 205 240 292
#     4  10  19  29  47  77 105 126 156 205 254 289
#     4   8  15  28  48  70  92 123 166 202 232 282
#     4   9  16  31  52  71  94 128 166 202 241 289
#     4   9  17  29  47  73  98 122 155 195 239 283
#     4  10  21  35  52  73  98 130 164 201 246 296
#
# _framework density 16.884717999999999
#
# number of rings (size 3 to 8) (size 9 to 14) (size 15 to 20)
#    0.000    2.750    1.250    1.500    0.000    5.000 
#    0.000    0.000    2.750    0.000    0.000    0.000 
#    0.000    0.000    0.000    0.000    0.000    0.000 
#
# Total GULP energy -396498.563020 kJ/mol
# GULP energy per Si atom -12390.580094 kJ/mol
# Density = 1.684629 g / cm^3
# Si number density = 16.884718 Si / 1000 Ang^3
#
#
#
# Elastic Constant Matrix: (Units=GPa)
#
#
# Indices 1 2 3 4 5 6 
#
# 1 66.4324 32.4418 59.0776 -0.0001 -11.3904 -0.0001
# 2 32.4418 68.6419 64.5239 -0.0004 -4.1421 -0.0006
# 3 59.0776 64.5239 168.6763 0.0000 -13.3151 0.0001
# 4 -0.0001 -0.0004 0.0000 31.5418 0.0000 1.9758
# 5 -11.3904 -4.1421 -13.3151 0.0000 24.0502 -0.0001
# 6 -0.0001 -0.0006 0.0001 1.9758 -0.0001 23.3700
#
#
#
# Elastic Compliance Matrix: (Units=1/GPa)
#
#
# Indices 1 2 3 4 5 6 
#
# 1 0.024131 -0.005561 -0.005749 0.000000 0.007288 0.000000
# 2 -0.005561 0.024050 -0.007459 0.000000 -0.002621 0.000001
# 3 -0.005749 -0.007459 0.010958 0.000000 0.002059 0.000000
# 4 0.000000 0.000000 0.000000 0.031873 0.000000 -0.002695
# 5 0.007288 -0.002621 0.002059 0.000000 0.045720 0.000000
# 6 0.000000 0.000001 0.000000 -0.002695 0.000000 0.043018
#
#
# Mechanical properties :
#
#
# Convention : Reuss Voigt Hill
#
# Bulk Modulus (GPa) = 46.29505 68.42638 57.36071
# Shear Modulus (GPa) = 22.27295 25.63953 23.95624
#
# Velocity S-wave (km/s) = 3.63591 3.90103 3.77080
# Velocity P-wave (km/s) = 6.71597 7.80412 7.28040
#
# Compressibility (1/GPa) = 0.02160058
#
# Stress axis : x y z
#
# Youngs Moduli (GPa) = 41.44112 41.57998 91.25713
#
# Poissons Ratio (x) = 0.23121 0.52465
# Poissons Ratio (y) = 0.23044 0.68071
# Poissons Ratio (z) = 0.23825 0.31015
#
# Static dielectric constant tensor:
#      x y z
#    x 2.631950 0.000000 -0.082170 
#    y 0.000000 3.174160 0.000000 
#    z -0.082170 0.000000 3.729750 
# 
# 
# High freq. dielectric constant tensor:
#      x y z
#    x 1.593950 0.000000 -0.003250 
#    y 0.000000 1.653470 0.000000 
#    z -0.003250 0.000000 1.674870 
# 
# From -- ./inp_files/365160.got.cif
#   From: 2010.06.25/outbox.cif.g09.slc.cpg/sg12_183_cif.got.tgz:365160.got - 2010.06.28 00:19:55.
