data_PCOD8085931
_publ_section_title
;
Structure prediction by ZEFSAII (Michael W. Deem and Ramdas Pophale) SiO2 
 PCOD8085931
Probable space group: C 2/M
;
_chemical_formula_sum "Si O2"
_cell_formula_units_Z 64
_cell_length_a 26.306564
_cell_length_b 12.991178
_cell_length_c 19.679410
_cell_angle_alpha 90.000000
_cell_angle_beta 148.044284
_cell_angle_gamma 90.000000
_cell_volume 3559.563955
_symmetry_space_group_name_H-M "C 2/M"
_symmetry_group_IT_number 12
_symmetry_cell_setting 'monoclinic'
loop_
_space_group_symop_operation_xyz
x,y,z
-x,y,-z
-x,-y,-z
x,-y,z
1/2+x,1/2+y,z
1/2-x,1/2+y,-z
1/2-x,1/2-y,-z
1/2+x,1/2-y,z
loop_
_atom_site_type_symbol
_atom_site_label
_atom_site_fract_x
_atom_site_fract_y
_atom_site_fract_z
Si Si1 0.843255 0.884270 0.157945
Si Si2 0.292417 0.380023 0.337324
Si Si3 0.075488 0.386392 0.645056
Si Si4 0.604732 0.294564 0.339637
Si Si5 0.530406 0.282279 0.400455
Si Si6 0.289372 0.883753 0.606808
Si Si7 0.902624 0.118849 0.075256
Si Si8 0.753343 0.748124 0.840328
O O1 0.844853 0.858606 0.079577
O O2 0.771726 0.810753 0.118077
O O3 0.952959 0.873942 0.307968
O O4 0.808586 0.000000 0.131588
O O5 0.311207 0.500000 0.343915
O O6 0.394025 0.320212 0.457353
O O7 0.234577 0.365057 0.341380
O O8 0.234654 0.331266 0.208587
O O9 0.102213 0.500000 0.702967
O O10 0.172033 0.331210 0.729492
O O11 0.000000 0.395492 0.500000
O O12 0.024527 0.322874 0.646275
O O13 0.581549 0.255413 0.388362
O O14 0.627054 0.195916 0.318112
O O15 0.697586 0.368275 0.452872
O O16 0.515732 0.356437 0.207225
O O17 0.326601 0.000000 0.638352
O O18 0.892218 0.000000 0.042456
O O19 0.853775 0.191766 0.963433
#
# Coordination Sequence:
#
# PCOD8085931 Si02
#       8
#     8   8   8   8   8   8   8   8
#     4   9  18  31  50  75 102 132 169 208 247 290
#     4  10  19  32  51  75 102 130 163 206 257 305
#     4  10  19  31  45  67 102 140 172 205 242 283
#     4   9  18  34  57  78 102 126 164 209 251 301
#     4   9  17  31  50  77 100 130 167 208 250 297
#     4   9  18  34  57  82 103 124 156 207 265 306
#     4  10  20  35  53  73 100 137 172 204 244 295
#     4  11  20  32  49  72 104 139 173 204 241 295
#
# _framework density 17.979731000000001
#
# number of rings (size 3 to 8) (size 9 to 14) (size 15 to 20)
#    0.000    2.375    1.250    1.875    0.000    3.500 
#    0.000    3.750    0.000    5.250    0.000    0.000 
#    0.000    0.000    0.000    0.000    0.000    0.000 
#
# Total GULP energy -396708.565849 kJ/mol
# GULP energy per Si atom -12397.142683 kJ/mol
# Density = 1.793881 g / cm^3
# Si number density = 17.979731 Si / 1000 Ang^3
#
#
#
# Elastic Constant Matrix: (Units=GPa)
#
#
# Indices 1 2 3 4 5 6 
#
# 1 50.1634 43.4036 23.6916 0.0000 -0.0980 0.0000
# 2 43.4036 122.5967 37.7530 0.0000 -3.0621 0.0000
# 3 23.6916 37.7530 73.8683 0.0000 -3.4983 0.0000
# 4 0.0000 0.0000 0.0000 25.5487 0.0000 0.7558
# 5 -0.0980 -3.0621 -3.4983 0.0000 18.4914 0.0000
# 6 0.0000 0.0000 0.0000 0.7558 0.0000 11.4831
#
#
#
# Elastic Compliance Matrix: (Units=1/GPa)
#
#
# Indices 1 2 3 4 5 6 
#
# 1 0.030326 -0.009216 -0.005127 0.000000 -0.002335 0.000000
# 2 -0.009216 0.012489 -0.003362 0.000000 0.001383 0.000000
# 3 -0.005127 -0.003362 0.017025 0.000000 0.002637 0.000000
# 4 0.000000 0.000000 0.000000 0.039217 0.000000 -0.002581
# 5 -0.002335 0.001383 0.002637 0.000000 0.054795 0.000000
# 6 0.000000 0.000000 0.000000 -0.002581 0.000000 0.087254
#
#
# Mechanical properties :
#
#
# Convention : Reuss Voigt Hill
#
# Bulk Modulus (GPa) = 40.93165 50.70278 45.81722
# Shear Modulus (GPa) = 17.56488 20.55666 19.06077
#
# Velocity S-wave (km/s) = 3.12897 3.38498 3.25949
# Velocity P-wave (km/s) = 5.98906 6.59838 6.30109
#
# Compressibility (1/GPa) = 0.02443097
#
# Stress axis : x y z
#
# Youngs Moduli (GPa) = 32.97542 80.06785 58.73725
#
# Poissons Ratio (x) = 0.73790 0.30113
# Poissons Ratio (y) = 0.30390 0.19746
# Poissons Ratio (z) = 0.16906 0.26917
#
# Static dielectric constant tensor:
#      x y z
#    x 3.165350 0.000000 -0.060490 
#    y 0.000000 3.463360 0.000000 
#    z -0.060490 0.000000 3.226930 
# 
# 
# High freq. dielectric constant tensor:
#      x y z
#    x 1.674410 0.000000 -0.003990 
#    y 0.000000 1.703750 0.000000 
#    z -0.003990 0.000000 1.684140 
# 
# From -- ./inp_files/327829.got.cif
#   From: 2010.06.25/outbox.cif.g09.slc.cpg/sg12_164_cif.got.tgz:327829.got - 2010.06.28 00:19:55.
