data_PCOD8085251
_publ_section_title
;
Structure prediction by ZEFSAII (Michael W. Deem and Ramdas Pophale) SiO2 
 PCOD8085251
Probable space group: C 2/M
;
_chemical_formula_sum "Si O2"
_cell_formula_units_Z 56
_cell_length_a 28.672518
_cell_length_b 9.003737
_cell_length_c 13.560232
_cell_angle_alpha 90.000000
_cell_angle_beta 77.183213
_cell_angle_gamma 90.000000
_cell_volume 3413.484724
_symmetry_space_group_name_H-M "C 2/M"
_symmetry_group_IT_number 12
_symmetry_cell_setting 'monoclinic'
loop_
_space_group_symop_operation_xyz
x,y,z
-x,y,-z
-x,-y,-z
x,-y,z
1/2+x,1/2+y,z
1/2-x,1/2+y,-z
1/2-x,1/2-y,-z
1/2+x,1/2-y,z
loop_
_atom_site_type_symbol
_atom_site_label
_atom_site_fract_x
_atom_site_fract_y
_atom_site_fract_z
Si Si1 0.037152 0.827270 0.277634
Si Si2 0.109385 0.674483 0.371497
Si Si3 0.303951 0.672080 0.582275
Si Si4 0.982404 0.822812 0.112877
Si Si5 0.888289 0.832307 0.254548
Si Si6 0.057099 0.165507 0.566110
Si Si7 0.304282 0.171537 0.374941
O O1 0.084659 0.736963 0.284062
O O2 0.017257 0.763773 0.183101
O O3 0.998206 0.801854 0.382719
O O4 0.049951 0.000000 0.261501
O O5 0.114843 0.500000 0.360290
O O6 0.162148 0.745151 0.355833
O O7 0.077147 0.714418 0.481094
O O8 0.318062 0.500000 0.572506
O O9 0.312725 0.735003 0.469412
O O10 0.249184 0.696421 0.641256
O O11 0.927457 0.772333 0.157341
O O12 0.983654 0.000000 0.115166
O O13 0.000000 0.758545 0.000000
O O14 0.912670 0.825690 0.349063
O O15 0.841395 0.728036 0.274467
O O16 0.872501 0.000000 0.236093
O O17 0.061995 0.000000 0.517552
O O18 0.313579 0.000000 0.395523
#
# Coordination Sequence:
#
# PCOD8085251 Si02
#       7
#     8   8   8   8   8   8   8
#     4   9  18  31  47  65  89 123 155 187 228 273
#     4  12  22  29  41  64  92 124 159 193 227 264
#     4  10  20  32  45  61  89 126 161 193 227 269
#     4   8  15  30  52  76  95 116 154 193 224 272
#     4   9  16  27  47  70  94 125 153 187 230 270
#     4   9  17  29  43  61  88 125 160 184 217 270
#     4  10  19  30  45  67  91 120 157 195 230 269
#
# _framework density 16.405522000000001
#
# number of rings (size 3 to 8) (size 9 to 14) (size 15 to 20)
#    0.000    2.429    1.429    4.286    0.000    4.000 
#    0.000    2.143    0.000    1.714    0.000    1.000 
#    0.000    0.000    0.000    0.000    0.000    0.000 
#
# Total GULP energy -347144.452033 kJ/mol
# GULP energy per Si atom -12398.016144 kJ/mol
# Density = 1.636818 g / cm^3
# Si number density = 16.405522 Si / 1000 Ang^3
#
#
#
# Elastic Constant Matrix: (Units=GPa)
#
#
# Indices 1 2 3 4 5 6 
#
# 1 123.6533 56.5383 41.5198 0.0000 -7.8243 0.0000
# 2 56.5383 91.0216 26.7674 0.0000 -3.0894 0.0000
# 3 41.5198 26.7674 68.6874 0.0000 -10.0776 0.0000
# 4 0.0000 0.0000 0.0000 8.4707 0.0000 -1.2866
# 5 -7.8243 -3.0894 -10.0776 0.0000 17.4221 0.0000
# 6 0.0000 0.0000 0.0000 -1.2866 0.0000 25.7622
#
#
#
# Elastic Compliance Matrix: (Units=1/GPa)
#
#
# Indices 1 2 3 4 5 6 
#
# 1 0.012812 -0.006434 -0.004983 0.000000 0.001730 0.000000
# 2 -0.006434 0.015646 -0.002431 0.000000 -0.001521 0.000000
# 3 -0.004983 -0.002431 0.019808 0.000000 0.008788 0.000000
# 4 0.000000 0.000000 0.000000 0.118956 0.000000 0.005941
# 5 0.001730 -0.001521 0.008788 0.000000 0.062989 0.000000
# 6 0.000000 0.000000 0.000000 0.005941 0.000000 0.039113
#
#
# Mechanical properties :
#
#
# Convention : Reuss Voigt Hill
#
# Bulk Modulus (GPa) = 48.61728 59.22372 53.92050
# Shear Modulus (GPa) = 16.45401 20.90012 18.67706
#
# Velocity S-wave (km/s) = 3.17038 3.57314 3.37777
# Velocity P-wave (km/s) = 6.56512 7.29393 6.93910
#
# Compressibility (1/GPa) = 0.02056882
#
# Stress axis : x y z
#
# Youngs Moduli (GPa) = 78.05438 63.91339 50.48500
#
# Poissons Ratio (x) = 0.41120 0.25157
# Poissons Ratio (y) = 0.50219 0.12275
# Poissons Ratio (z) = 0.38896 0.15540
#
# Static dielectric constant tensor:
#      x y z
#    x 3.356750 0.000000 -0.106070 
#    y 0.000000 2.959160 0.000000 
#    z -0.106070 0.000000 2.934850 
# 
# 
# High freq. dielectric constant tensor:
#      x y z
#    x 1.640120 0.000000 -0.002710 
#    y 0.000000 1.619050 0.000000 
#    z -0.002710 0.000000 1.582120 
# 
# From -- ./inp_files/247832.got.cif
#   From: 2010.06.25/outbox.cif.g09.slc.cpg/sg12_124_cif.got.tgz:247832.got - 2010.06.28 00:19:55.
