data_PCOD8085683
_publ_section_title
;
Structure prediction by ZEFSAII (Michael W. Deem and Ramdas Pophale) SiO2 
 PCOD8085683
Probable space group: C 2/M
;
_chemical_formula_sum "Si O2"
_cell_formula_units_Z 64
_cell_length_a 27.646192
_cell_length_b 9.570241
_cell_length_c 18.058653
_cell_angle_alpha 90.000000
_cell_angle_beta 45.805026
_cell_angle_gamma 90.000000
_cell_volume 3425.670577
_symmetry_space_group_name_H-M "C 2/M"
_symmetry_group_IT_number 12
_symmetry_cell_setting 'monoclinic'
loop_
_space_group_symop_operation_xyz
x,y,z
-x,y,-z
-x,-y,-z
x,-y,z
1/2+x,1/2+y,z
1/2-x,1/2+y,-z
1/2-x,1/2-y,-z
1/2+x,1/2-y,z
loop_
_atom_site_type_symbol
_atom_site_label
_atom_site_fract_x
_atom_site_fract_y
_atom_site_fract_z
Si Si1 0.069223 0.164276 0.027929
Si Si2 0.419790 0.349438 0.818492
Si Si3 0.658237 0.839474 0.820841
Si Si4 0.200416 0.837200 0.276535
Si Si5 0.940089 0.660646 0.201249
Si Si6 0.928205 0.663958 0.539905
Si Si7 0.462689 0.160878 0.341183
Si Si8 0.722716 0.651500 0.091160
O O1 0.101499 0.188760 0.074664
O O2 0.995915 0.238370 0.105216
O O3 0.061059 0.000000 0.017143
O O4 0.118859 0.236011 0.917080
O O5 0.457668 0.500000 0.780203
O O6 0.465895 0.234915 0.732274
O O7 0.356855 0.360538 0.832586
O O8 0.738504 0.804928 0.731224
O O9 0.629568 0.818531 0.768541
O O10 0.647752 0.000000 0.858840
O O11 0.133962 0.746085 0.358599
O O12 0.234623 0.794998 0.161554
O O13 0.179204 0.000000 0.300755
O O14 0.965604 0.500000 0.167901
O O15 0.925130 0.699151 0.303786
O O16 0.916866 0.500000 0.565636
O O17 0.923184 0.703360 0.457804
O O18 0.000000 0.709504 0.500000
O O19 0.480436 0.000000 0.326445
O O20 0.757200 0.500000 0.043599
O O21 0.750000 0.750000 0.000000
#
# Coordination Sequence:
#
# PCOD8085683 Si02
#       8
#     8   8   8   8   8   8   8   8
#     4  10  19  30  48  76 106 134 168 209 250 294
#     4   9  18  31  47  71 101 129 159 200 249 296
#     4  10  20  34  50  70 100 137 174 208 245 293
#     4  10  22  37  53  76 103 133 171 209 246 296
#     4   9  18  33  52  72  99 136 172 207 247 292
#     4  10  21  37  57  80 103 127 160 206 258 307
#     4   9  18  33  53  75  96 123 163 205 246 296
#     4  10  20  33  49  71 100 133 166 198 238 291
#
# _framework density 18.682473000000002
#
# number of rings (size 3 to 8) (size 9 to 14) (size 15 to 20)
#    0.000    2.375    0.000    2.250    0.000    4.750 
#    0.000    0.625    0.000    0.000    0.000    0.000 
#    0.000    0.000    0.000    0.000    0.000    0.000 
#
# Total GULP energy -396584.330588 kJ/mol
# GULP energy per Si atom -12393.260331 kJ/mol
# Density = 1.863995 g / cm^3
# Si number density = 18.682473 Si / 1000 Ang^3
#
#
#
# Elastic Constant Matrix: (Units=GPa)
#
#
# Indices 1 2 3 4 5 6 
#
# 1 101.5444 37.9530 38.1975 0.0055 -7.1735 -0.0021
# 2 37.9530 71.9686 57.2267 0.0164 3.7749 -0.0108
# 3 38.1975 57.2267 96.1005 0.0051 2.4978 -0.0061
# 4 0.0055 0.0164 0.0051 30.0942 -0.0049 -1.4580
# 5 -7.1735 3.7749 2.4978 -0.0049 20.0326 0.0024
# 6 -0.0021 -0.0108 -0.0061 -1.4580 0.0024 21.5435
#
#
#
# Elastic Compliance Matrix: (Units=1/GPa)
#
#
# Indices 1 2 3 4 5 6 
#
# 1 0.013141 -0.005637 -0.002023 0.000002 0.006020 -0.000003
# 2 -0.005637 0.028994 -0.014878 -0.000013 -0.005627 0.000010
# 3 -0.002023 -0.014878 0.020081 0.000005 -0.000424 -0.000002
# 4 0.000002 -0.000013 0.000005 0.033338 0.000010 0.002256
# 5 0.006020 -0.005627 -0.000424 0.000010 0.053188 -0.000008
# 6 -0.000003 0.000010 -0.000002 0.002256 -0.000008 0.046570
#
#
# Mechanical properties :
#
#
# Convention : Reuss Voigt Hill
#
# Bulk Modulus (GPa) = 58.34836 59.59642 58.97239
# Shear Modulus (GPa) = 20.31677 23.41648 21.86662
#
# Velocity S-wave (km/s) = 3.30127 3.54417 3.42487
# Velocity P-wave (km/s) = 6.76983 6.97976 6.87560
#
# Compressibility (1/GPa) = 0.01713844
#
# Stress axis : x y z
#
# Youngs Moduli (GPa) = 76.09706 34.49010 49.79896
#
# Poissons Ratio (x) = 0.19444 0.10073
# Poissons Ratio (y) = 0.42899 0.74093
# Poissons Ratio (z) = 0.15392 0.51316
#
# Static dielectric constant tensor:
#      x y z
#    x 3.748550 -0.000010 0.223230 
#    y -0.000010 3.445060 0.000010 
#    z 0.223230 0.000010 3.209110 
# 
# 
# High freq. dielectric constant tensor:
#      x y z
#    x 1.736310 0.000000 0.016430 
#    y 0.000000 1.727650 0.000000 
#    z 0.016430 0.000000 1.697210 
# 
# From -- ./inp_files/295485.got.cif
#   From: 2010.06.25/outbox.cif.g09.slc.cpg/sg12_148_cif.got.tgz:295485.got - 2010.06.28 00:19:55.
