data_PCOD8085088
_publ_section_title
;
Structure prediction by ZEFSAII (Michael W. Deem and Ramdas Pophale) SiO2 
 PCOD8085088
Probable space group: C 2/M
;
_chemical_formula_sum "Si O2"
_cell_formula_units_Z 40
_cell_length_a 12.875013
_cell_length_b 21.455643
_cell_length_c 8.603997
_cell_angle_alpha 90.000000
_cell_angle_beta 75.762492
_cell_angle_gamma 90.000000
_cell_volume 2303.778672
_symmetry_space_group_name_H-M "C 2/M"
_symmetry_group_IT_number 12
_symmetry_cell_setting 'monoclinic'
loop_
_space_group_symop_operation_xyz
x,y,z
-x,y,-z
-x,-y,-z
x,-y,z
1/2+x,1/2+y,z
1/2-x,1/2+y,-z
1/2-x,1/2-y,-z
1/2+x,1/2-y,z
loop_
_atom_site_type_symbol
_atom_site_label
_atom_site_fract_x
_atom_site_fract_y
_atom_site_fract_z
Si Si1 0.727193 0.835606 0.118597
Si Si2 0.296588 0.788602 0.220680
Si Si3 0.987688 0.296517 0.687818
Si Si4 0.080702 0.163737 0.333871
Si Si5 0.610663 0.570467 0.048495
O O1 0.789517 0.786341 0.206843
O O2 0.605975 0.844269 0.226430
O O3 0.716247 0.814984 0.945966
O O4 0.796442 0.898912 0.093377
O O5 0.403901 0.813216 0.261994
O O6 0.197450 0.816069 0.359497
O O7 0.959343 0.225190 0.745234
O O8 0.000000 0.302019 0.500000
O O9 0.092771 0.105334 0.217140
O O10 0.000000 0.144725 0.500000
O O11 0.646348 0.500000 0.071381
O O12 0.500000 0.572576 0.000000
#
# Coordination Sequence:
#
# PCOD8085088 Si02
#       5
#     8   8   8   8   8
#     4   9  18  31  49  68  95 128 157 196 232 277
#     4   9  17  30  48  72  98 126 156 187 237 289
#     4  10  19  29  48  76 100 124 152 189 241 290
#     4   9  19  31  47  72 100 125 151 191 235 282
#     4  10  20  33  50  70  92 124 163 196 229 272
#
# _framework density 17.362779
#
# number of rings (size 3 to 8) (size 9 to 14) (size 15 to 20)
#    0.000    2.600    0.000    3.000    0.000    9.200 
#    0.000    0.000    0.000   10.200    0.000    0.000 
#    0.000    0.000    0.000    0.000    0.000    0.000 
#
# Total GULP energy -247870.937210 kJ/mol
# GULP energy per Si atom -12393.546860 kJ/mol
# Density = 1.732326 g / cm^3
# Si number density = 17.362779 Si / 1000 Ang^3
#
#
#
# Elastic Constant Matrix: (Units=GPa)
#
#
# Indices 1 2 3 4 5 6 
#
# 1 135.4651 47.4118 47.1651 0.0000 -19.4748 0.0000
# 2 47.4118 109.0336 43.7573 0.0000 -18.4730 0.0000
# 3 47.1651 43.7573 70.1601 0.0000 -22.4303 0.0000
# 4 0.0000 0.0000 0.0000 16.6122 0.0000 -4.0727
# 5 -19.4748 -18.4730 -22.4303 0.0000 32.1756 0.0000
# 6 0.0000 0.0000 0.0000 -4.0727 0.0000 15.9888
#
#
#
# Elastic Compliance Matrix: (Units=1/GPa)
#
#
# Indices 1 2 3 4 5 6 
#
# 1 0.010068 -0.002140 -0.004990 0.000000 0.001386 0.000000
# 2 -0.002140 0.012810 -0.005936 0.000000 0.001921 0.000000
# 3 -0.004990 -0.005936 0.024777 0.000000 0.010844 0.000000
# 4 0.000000 0.000000 0.000000 0.064206 0.000000 0.016355
# 5 0.001386 0.001921 0.010844 0.000000 0.040581 0.000000
# 6 0.000000 0.000000 0.000000 0.016355 0.000000 0.066710
#
#
# Mechanical properties :
#
#
# Convention : Reuss Voigt Hill
#
# Bulk Modulus (GPa) = 46.46601 65.70304 56.08452
# Shear Modulus (GPa) = 19.80525 24.71030 22.25777
#
# Velocity S-wave (km/s) = 3.38105 3.77659 3.58428
# Velocity P-wave (km/s) = 6.48552 7.54588 7.03570
#
# Compressibility (1/GPa) = 0.02152111
#
# Stress axis : x y z
#
# Youngs Moduli (GPa) = 99.32713 78.06390 40.36033
#
# Poissons Ratio (x) = 0.16709 0.20140
# Poissons Ratio (y) = 0.21260 0.23959
# Poissons Ratio (z) = 0.49564 0.46342
#
# Static dielectric constant tensor:
#      x y z
#    x 3.632120 0.000000 -0.422780 
#    y 0.000000 3.109290 0.000000 
#    z -0.422780 0.000000 3.229060 
# 
# 
# High freq. dielectric constant tensor:
#      x y z
#    x 1.685370 0.000000 -0.015450 
#    y 0.000000 1.625950 0.000000 
#    z -0.015450 0.000000 1.667470 
# 
# From -- ./inp_files/48492.got.cif
#   From: 2010.06.25/outbox.cif.g09.slc.cpg/sg12_25_cif.got.tgz:48492.got - 2010.06.28 00:19:55.
