data_PCOD8085995
_publ_section_title
;
Structure prediction by ZEFSAII (Michael W. Deem and Ramdas Pophale) SiO2 
 PCOD8085995
Probable space group: C 2/M
;
_chemical_formula_sum "Si O2"
_cell_formula_units_Z 64
_cell_length_a 15.304488
_cell_length_b 17.932379
_cell_length_c 13.486829
_cell_angle_alpha 90.000000
_cell_angle_beta 95.639550
_cell_angle_gamma 90.000000
_cell_volume 3683.489117
_symmetry_space_group_name_H-M "C 2/M"
_symmetry_group_IT_number 12
_symmetry_cell_setting 'monoclinic'
loop_
_space_group_symop_operation_xyz
x,y,z
-x,y,-z
-x,-y,-z
x,-y,z
1/2+x,1/2+y,z
1/2-x,1/2+y,-z
1/2-x,1/2-y,-z
1/2+x,1/2-y,z
loop_
_atom_site_type_symbol
_atom_site_label
_atom_site_fract_x
_atom_site_fract_y
_atom_site_fract_z
Si Si1 0.242280 0.084513 0.918759
Si Si2 0.435801 0.415187 0.637998
Si Si3 0.081820 0.723932 0.821399
Si Si4 0.418835 0.085067 0.058905
Si Si5 0.606155 0.284170 0.227834
Si Si6 0.771678 0.808642 0.268362
Si Si7 0.098177 0.829560 0.006974
Si Si8 0.372512 0.414715 0.412956
O O1 0.241970 0.135761 0.823477
O O2 0.230224 0.000000 0.881658
O O3 0.332175 0.096503 0.985692
O O4 0.162637 0.104219 0.983353
O O5 0.412793 0.500000 0.663867
O O6 0.395057 0.363693 0.718101
O O7 0.393385 0.393944 0.528235
O O8 0.540773 0.405064 0.644791
O O9 0.085309 0.635383 0.842537
O O10 0.154594 0.746878 0.749062
O O11 0.987033 0.744430 0.767252
O O12 0.101266 0.762748 0.928707
O O13 0.430531 0.000000 0.095800
O O14 0.500000 0.110848 0.000000
O O15 0.681123 0.232664 0.284373
O O16 0.628947 0.296503 0.115242
O O17 0.799154 0.857342 0.366637
O O18 0.000000 0.863289 0.000000
O O19 0.338849 0.500000 0.401624
#
# Coordination Sequence:
#
# PCOD8085995 Si02
#       8
#     8   8   8   8   8   8   8   8
#     4  10  20  32  46  71 102 136 174 208 244 293
#     4   9  19  36  57  77 101 130 165 207 261 317
#     4  10  19  34  48  70 103 139 171 204 249 297
#     4  10  19  31  47  64  91 136 180 210 236 278
#     4  11  20  32  52  79 103 132 171 209 253 300
#     4  11  20  31  52  77 104 132 167 211 255 301
#     4   9  19  32  47  69 102 138 166 202 253 300
#     4   9  18  36  57  77 102 131 161 208 266 313
#
# _framework density 17.374831
#
# number of rings (size 3 to 8) (size 9 to 14) (size 15 to 20)
#    0.000    2.125    1.250    4.500    0.000    3.250 
#    0.000    1.250    0.000    0.000    0.000    0.000 
#    0.000    3.000    0.000    0.000    0.000    0.000 
#
# Total GULP energy -396889.093187 kJ/mol
# GULP energy per Si atom -12402.784162 kJ/mol
# Density = 1.733529 g / cm^3
# Si number density = 17.374831 Si / 1000 Ang^3
#
#
#
# Elastic Constant Matrix: (Units=GPa)
#
#
# Indices 1 2 3 4 5 6 
#
# 1 90.9816 44.6017 21.1378 0.0000 10.4529 0.0000
# 2 44.6017 91.2455 24.3862 0.0000 13.6695 0.0000
# 3 21.1378 24.3862 43.9196 0.0000 11.9085 0.0000
# 4 0.0000 0.0000 0.0000 31.5665 0.0000 6.3295
# 5 10.4529 13.6695 11.9085 0.0000 16.0222 0.0000
# 6 0.0000 0.0000 0.0000 6.3295 0.0000 34.5008
#
#
#
# Elastic Compliance Matrix: (Units=1/GPa)
#
#
# Indices 1 2 3 4 5 6 
#
# 1 0.015002 -0.006150 -0.003224 0.000000 -0.002144 0.000000
# 2 -0.006150 0.016069 -0.004174 0.000000 -0.006595 0.000000
# 3 -0.003224 -0.004174 0.031438 0.000000 -0.017702 0.000000
# 4 0.000000 0.000000 0.000000 0.032889 0.000000 -0.006034
# 5 -0.002144 -0.006595 -0.017702 0.000000 0.082595 0.000000
# 6 0.000000 0.000000 0.000000 -0.006034 0.000000 0.030092
#
#
# Mechanical properties :
#
#
# Convention : Reuss Voigt Hill
#
# Bulk Modulus (GPa) = 28.23897 45.15536 36.69717
# Shear Modulus (GPa) = 20.24413 25.48598 22.86505
#
# Velocity S-wave (km/s) = 3.41712 3.83408 3.63159
# Velocity P-wave (km/s) = 5.64420 6.75615 6.22506
#
# Compressibility (1/GPa) = 0.03541205
#
# Stress axis : x y z
#
# Youngs Moduli (GPa) = 66.65998 62.23064 31.80871
#
# Poissons Ratio (x) = 0.38273 0.10255
# Poissons Ratio (y) = 0.40997 0.13278
# Poissons Ratio (z) = 0.21490 0.25977
#
# Static dielectric constant tensor:
#      x y z
#    x 3.377740 0.000000 0.213900 
#    y 0.000000 3.266040 0.000000 
#    z 0.213900 0.000000 3.163350 
# 
# 
# High freq. dielectric constant tensor:
#      x y z
#    x 1.673470 0.000000 0.011680 
#    y 0.000000 1.673250 0.000000 
#    z 0.011680 0.000000 1.644250 
# 
# From -- ./inp_files/146155.got.cif
#   From: 2010.06.25/outbox.cif.g09.slc.cpg/sg12_74_cif.got.tgz:146155.got - 2010.06.28 00:19:55.
