data_PCOD8085596
_publ_section_title
;
Structure prediction by ZEFSAII (Michael W. Deem and Ramdas Pophale) SiO2 
 PCOD8085596
Probable space group: C 2/M
;
_chemical_formula_sum "Si O2"
_cell_formula_units_Z 64
_cell_length_a 30.057999
_cell_length_b 14.034921
_cell_length_c 8.745795
_cell_angle_alpha 90.000000
_cell_angle_beta 77.613810
_cell_angle_gamma 90.000000
_cell_volume 3603.638301
_symmetry_space_group_name_H-M "C 2/M"
_symmetry_group_IT_number 12
_symmetry_cell_setting 'monoclinic'
loop_
_space_group_symop_operation_xyz
x,y,z
-x,y,-z
-x,-y,-z
x,-y,z
1/2+x,1/2+y,z
1/2-x,1/2+y,-z
1/2-x,1/2-y,-z
1/2+x,1/2-y,z
loop_
_atom_site_type_symbol
_atom_site_label
_atom_site_fract_x
_atom_site_fract_y
_atom_site_fract_z
Si Si1 0.371792 0.718755 0.127784
Si Si2 0.451029 0.776085 0.484938
Si Si3 0.127968 0.250071 0.223933
Si Si4 0.333611 0.395899 0.583540
Si Si5 0.712461 0.386905 0.681809
Si Si6 0.618088 0.111405 0.657466
Si Si7 0.075069 0.893519 0.679342
Si Si8 0.685827 0.890220 0.337728
O O1 0.322369 0.672139 0.187977
O O2 0.374242 0.824698 0.198133
O O3 0.411462 0.650840 0.166582
O O4 0.382228 0.725895 0.942028
O O5 0.500000 0.815308 0.500000
O O6 0.420470 0.756949 0.656577
O O7 0.427920 0.855931 0.394844
O O8 0.459127 0.677442 0.384315
O O9 0.161436 0.172560 0.276456
O O10 0.157472 0.346131 0.217911
O O11 0.322601 0.500000 0.658521
O O12 0.294381 0.363037 0.493787
O O13 0.379310 0.396969 0.451740
O O14 0.704716 0.500000 0.713621
O O15 0.762690 0.352166 0.691036
O O16 0.660765 0.132795 0.515886
O O17 0.614362 0.000000 0.704907
O O18 0.053962 0.000000 0.713660
O O19 0.686224 0.000000 0.301226
#
# Coordination Sequence:
#
# PCOD8085596 Si02
#       8
#     8   8   8   8   8   8   8   8
#     4  10  19  30  48  72 101 131 154 190 243 292
#     4   9  18  34  55  74  92 122 165 205 238 281
#     4  10  20  31  47  73 100 125 156 200 249 287
#     4   8  15  28  46  67  91 123 162 196 226 272
#     4   9  17  31  51  72  95 128 167 199 231 280
#     4   9  19  35  52  70  94 127 164 199 239 284
#     4   8  15  30  49  69  96 127 156 188 232 285
#     4   9  18  33  51  69  92 126 168 207 237 274
#
# _framework density 17.759827999999999
#
# number of rings (size 3 to 8) (size 9 to 14) (size 15 to 20)
#    0.000    3.000    0.000    3.375    0.000    4.500 
#    0.000    2.500    0.000    4.500    0.000    0.000 
#    0.000    0.000    0.000    0.000    0.000    0.000 
#
# Total GULP energy -396640.402744 kJ/mol
# GULP energy per Si atom -12395.012586 kJ/mol
# Density = 1.771941 g / cm^3
# Si number density = 17.759828 Si / 1000 Ang^3
#
#
#
# Elastic Constant Matrix: (Units=GPa)
#
#
# Indices 1 2 3 4 5 6 
#
# 1 98.5350 25.4493 31.8945 0.0000 4.6271 0.0000
# 2 25.4493 81.4789 37.1207 0.0000 2.3585 0.0000
# 3 31.8945 37.1207 99.4668 0.0000 16.9058 0.0000
# 4 0.0000 0.0000 0.0000 13.6509 0.0000 4.7344
# 5 4.6271 2.3585 16.9058 0.0000 13.8097 0.0000
# 6 0.0000 0.0000 0.0000 4.7344 0.0000 19.0688
#
#
#
# Elastic Compliance Matrix: (Units=1/GPa)
#
#
# Indices 1 2 3 4 5 6 
#
# 1 0.011683 -0.002340 -0.002873 0.000000 0.000003 0.000000
# 2 -0.002340 0.015575 -0.005990 0.000000 0.005456 0.000000
# 3 -0.002873 -0.005990 0.016255 0.000000 -0.017913 0.000000
# 4 0.000000 0.000000 0.000000 0.080157 0.000000 -0.019902
# 5 0.000003 0.005456 -0.017913 0.000000 0.093409 0.000000
# 6 0.000000 0.000000 0.000000 -0.019902 0.000000 0.057383
#
#
# Mechanical properties :
#
#
# Convention : Reuss Voigt Hill
#
# Bulk Modulus (GPa) = 47.37817 52.04553 49.71185
# Shear Modulus (GPa) = 16.45258 21.64031 19.04644
#
# Velocity S-wave (km/s) = 3.04697 3.49449 3.27837
# Velocity P-wave (km/s) = 6.25410 6.75653 6.51017
#
# Compressibility (1/GPa) = 0.02110677
#
# Stress axis : x y z
#
# Youngs Moduli (GPa) = 85.59432 64.20613 61.52012
#
# Poissons Ratio (x) = 0.15025 0.17677
# Poissons Ratio (y) = 0.20030 0.36847
# Poissons Ratio (z) = 0.24594 0.38456
#
# Static dielectric constant tensor:
#      x y z
#    x 3.204510 0.000000 0.177530 
#    y 0.000000 3.618290 0.000000 
#    z 0.177530 0.000000 2.949040 
# 
# 
# High freq. dielectric constant tensor:
#      x y z
#    x 1.672870 0.000000 0.017320 
#    y 0.000000 1.697770 0.000000 
#    z 0.017320 0.000000 1.654020 
# 
# From -- ./inp_files/111171.got.cif
#   From: 2010.06.25/outbox.cif.g09.slc.cpg/sg12_56_cif.got.tgz:111171.got - 2010.06.28 00:19:55.
