data_PCOD8085332
_publ_section_title
;
Structure prediction by ZEFSAII (Michael W. Deem and Ramdas Pophale) SiO2 
 PCOD8085332
Probable space group: C 2/M
;
_chemical_formula_sum "Si O2"
_cell_formula_units_Z 64
_cell_length_a 18.546677
_cell_length_b 8.992314
_cell_length_c 20.601847
_cell_angle_alpha 90.000000
_cell_angle_beta 86.509575
_cell_angle_gamma 90.000000
_cell_volume 3429.551741
_symmetry_space_group_name_H-M "C 2/M"
_symmetry_group_IT_number 12
_symmetry_cell_setting 'monoclinic'
loop_
_space_group_symop_operation_xyz
x,y,z
-x,y,-z
-x,-y,-z
x,-y,z
1/2+x,1/2+y,z
1/2-x,1/2+y,-z
1/2-x,1/2-y,-z
1/2+x,1/2-y,z
loop_
_atom_site_type_symbol
_atom_site_label
_atom_site_fract_x
_atom_site_fract_y
_atom_site_fract_z
Si Si1 0.326369 0.674723 0.505855
Si Si2 0.791907 0.826215 0.646416
Si Si3 0.394731 0.832777 0.890687
Si Si4 0.565032 0.831967 0.859366
Si Si5 0.122939 0.827155 0.236161
Si Si6 0.867255 0.323073 0.381863
Si Si7 0.955154 0.827385 0.267841
Si Si8 0.414653 0.332196 0.015563
O O1 0.322679 0.500000 0.490632
O O2 0.250000 0.750000 0.500000
O O3 0.344280 0.703296 0.581092
O O4 0.381732 0.754386 0.453132
O O5 0.828334 0.756916 0.708736
O O6 0.710815 0.764843 0.639657
O O7 0.785367 0.000000 0.658387
O O8 0.480144 0.830503 0.876443
O O9 0.356426 0.757111 0.831104
O O10 0.365693 0.000000 0.899155
O O11 0.374358 0.744083 0.957080
O O12 0.583613 0.739532 0.793738
O O13 0.605522 0.756632 0.917948
O O14 0.593693 0.000000 0.849521
O O15 0.040273 0.801658 0.259818
O O16 0.138673 0.000000 0.223711
O O17 0.871390 0.500000 0.385923
O O18 0.928859 0.261204 0.332018
O O19 0.934708 0.000000 0.274431
O O20 0.386129 0.500000 0.023832
O O21 0.500000 0.330399 0.000000
#
# Coordination Sequence:
#
# PCOD8085332 Si02
#       8
#     8   8   8   8   8   8   8   8
#     4   9  16  29  49  71  93 117 150 191 232 272
#     4   8  16  31  51  71  89 116 154 191 226 268
#     4   9  16  25  38  60  89 119 150 185 229 273
#     4   9  16  26  40  59  87 120 151 187 229 271
#     4   9  17  31  48  66  91 122 155 189 227 272
#     4  10  19  32  50  70  93 121 154 191 229 272
#     4  10  19  30  46  68  94 123 153 188 230 275
#     4   9  15  23  37  58  84 116 154 191 225 264
#
# _framework density 18.66133
#
# number of rings (size 3 to 8) (size 9 to 14) (size 15 to 20)
#    0.000    2.875    0.000    3.000    0.000    5.000 
#    0.000    4.375    0.000    3.750    0.000    0.875 
#    0.000    0.000    0.000    0.000    0.000    0.000 
#
# Total GULP energy -396640.246491 kJ/mol
# GULP energy per Si atom -12395.007703 kJ/mol
# Density = 1.861886 g / cm^3
# Si number density = 18.661330 Si / 1000 Ang^3
#
#
#
# Elastic Constant Matrix: (Units=GPa)
#
#
# Indices 1 2 3 4 5 6 
#
# 1 12.3247 9.9012 4.6705 0.0000 8.7935 0.0000
# 2 9.9012 101.4732 21.8098 0.0000 9.5248 0.0000
# 3 4.6705 21.8098 62.1713 0.0000 26.2773 0.0000
# 4 0.0000 0.0000 0.0000 37.5374 0.0000 -3.9138
# 5 8.7935 9.5248 26.2773 0.0000 22.9536 0.0000
# 6 0.0000 0.0000 0.0000 -3.9138 0.0000 12.4263
#
#
#
# Elastic Compliance Matrix: (Units=1/GPa)
#
#
# Indices 1 2 3 4 5 6 
#
# 1 0.136028 -0.011725 0.026860 0.000000 -0.077996 0.000000
# 2 -0.011725 0.011670 -0.005938 0.000000 0.006447 0.000000
# 3 0.026860 -0.005938 0.037698 0.000000 -0.050983 0.000000
# 4 0.000000 0.000000 0.000000 0.027545 0.000000 0.008675
# 5 -0.077996 0.006447 -0.050983 0.000000 0.129137 0.000000
# 6 0.000000 0.000000 0.000000 0.008675 0.000000 0.083207
#
#
# Mechanical properties :
#
#
# Convention : Reuss Voigt Hill
#
# Bulk Modulus (GPa) = 4.90699 27.63689 16.27194
# Shear Modulus (GPa) = 10.53032 23.88932 17.20982
#
# Velocity S-wave (km/s) = 2.37805 3.58180 3.04010
# Velocity P-wave (km/s) = 3.18988 5.65222 4.58928
#
# Compressibility (1/GPa) = 0.20379094
#
# Stress axis : x y z
#
# Youngs Moduli (GPa) = 7.35144 85.69013 26.52640
#
# Poissons Ratio (x) = 1.00470 -0.71250
# Poissons Ratio (y) = 0.08619 0.15751
# Poissons Ratio (z) = -0.19746 0.50882
#
# Static dielectric constant tensor:
#      x y z
#    x 2.886410 0.000000 0.141770 
#    y 0.000000 3.520760 0.000000 
#    z 0.141770 0.000000 3.895680 
# 
# 
# High freq. dielectric constant tensor:
#      x y z
#    x 1.655670 0.000000 0.003090 
#    y 0.000000 1.726920 0.000000 
#    z 0.003090 0.000000 1.744500 
# 
# From -- ./inp_files/319171.got.cif
#   From: 2010.06.25/outbox.cif.g09.slc.cpg/sg12_160_cif.got.tgz:319171.got - 2010.06.28 00:19:55.
