data_PCOD8085150
_publ_section_title
;
Structure prediction by ZEFSAII (Michael W. Deem and Ramdas Pophale) SiO2 
 PCOD8085150
Probable space group: C 2/M
;
_chemical_formula_sum "Si O2"
_cell_formula_units_Z 64
_cell_length_a 26.494099
_cell_length_b 19.772094
_cell_length_c 9.149572
_cell_angle_alpha 90.000000
_cell_angle_beta 54.996720
_cell_angle_gamma 90.000000
_cell_volume 3925.994711
_symmetry_space_group_name_H-M "C 2/M"
_symmetry_group_IT_number 12
_symmetry_cell_setting 'monoclinic'
loop_
_space_group_symop_operation_xyz
x,y,z
-x,y,-z
-x,-y,-z
x,-y,z
1/2+x,1/2+y,z
1/2-x,1/2+y,-z
1/2-x,1/2-y,-z
1/2+x,1/2-y,z
loop_
_atom_site_type_symbol
_atom_site_label
_atom_site_fract_x
_atom_site_fract_y
_atom_site_fract_z
Si Si1 0.570261 0.713716 0.863325
Si Si2 0.920717 0.923115 0.990583
Si Si3 0.470148 0.421996 0.406150
Si Si4 0.179805 0.709020 0.773022
Si Si5 0.710816 0.423269 0.912361
Si Si6 0.238832 0.846429 0.585573
Si Si7 0.259445 0.316966 0.894154
Si Si8 0.358768 0.338714 0.496474
O O1 0.608515 0.767690 0.897203
O O2 0.596318 0.718148 0.653587
O O3 0.500000 0.734976 0.000000
O O4 0.583697 0.634860 0.880197
O O5 0.984738 0.907755 0.803905
O O6 0.921276 0.000000 0.056401
O O7 0.863269 0.915434 0.975965
O O8 0.500000 0.386646 0.500000
O O9 0.462559 0.500000 0.452365
O O10 0.401634 0.397129 0.488798
O O11 0.222330 0.775763 0.690272
O O12 0.195336 0.661295 0.607055
O O13 0.199256 0.671909 0.890947
O O14 0.729704 0.500000 0.912872
O O15 0.742499 0.402479 0.705943
O O16 0.735257 0.380505 0.007688
O O17 0.188009 0.867387 0.548709
O O18 0.320519 0.307444 0.693847
O O19 0.250000 0.250000 0.000000
#
# Coordination Sequence:
#
# PCOD8085150 Si02
#       8
#     8   8   8   8   8   8   8   8
#     4  11  19  32  51  74  99 127 176 225 249 291
#     4  10  19  30  43  65 103 145 176 207 245 284
#     4  10  20  31  42  61 100 148 184 211 243 285
#     4   9  18  32  52  72  95 133 173 207 260 316
#     4  11  21  33  51  78 107 136 178 222 258 300
#     4   9  17  33  51  72  97 128 173 215 264 309
#     4  11  20  34  54  73 100 143 175 209 269 320
#     4  10  20  31  49  72  92 134 183 219 247 293
#
# _framework density 16.301601000000002
#
# number of rings (size 3 to 8) (size 9 to 14) (size 15 to 20)
#    0.000    1.875    5.000    1.500    0.000    2.750 
#    0.000    1.875    0.000    0.000    0.000    0.000 
#    0.000    3.000    0.000    0.000    0.000    0.000 
#
# Total GULP energy -396574.855954 kJ/mol
# GULP energy per Si atom -12392.964249 kJ/mol
# Density = 1.626450 g / cm^3
# Si number density = 16.301601 Si / 1000 Ang^3
#
#
#
# Elastic Constant Matrix: (Units=GPa)
#
#
# Indices 1 2 3 4 5 6 
#
# 1 92.6725 46.0244 54.8021 0.0000 -2.4592 0.0000
# 2 46.0244 67.5227 46.1848 0.0000 -0.6140 0.0000
# 3 54.8021 46.1848 102.5025 0.0000 -1.4933 0.0000
# 4 0.0000 0.0000 0.0000 23.3637 0.0000 0.6954
# 5 -2.4592 -0.6140 -1.4933 0.0000 27.4416 0.0000
# 6 0.0000 0.0000 0.0000 0.6954 0.0000 29.0767
#
#
#
# Elastic Compliance Matrix: (Units=1/GPa)
#
#
# Indices 1 2 3 4 5 6 
#
# 1 0.018682 -0.008533 -0.006127 0.000000 0.001150 0.000000
# 2 -0.008533 0.025305 -0.006848 0.000000 -0.000571 0.000000
# 3 -0.006127 -0.006848 0.016120 0.000000 0.000175 0.000000
# 4 0.000000 0.000000 0.000000 0.042832 0.000000 -0.001024
# 5 0.001150 -0.000571 0.000175 0.000000 0.036541 0.000000
# 6 0.000000 0.000000 0.000000 -0.001024 0.000000 0.034416
#
#
# Mechanical properties :
#
#
# Convention : Reuss Voigt Hill
#
# Bulk Modulus (GPa) = 58.50975 61.85783 60.18379
# Shear Modulus (GPa) = 22.46110 23.68881 23.07495
#
# Velocity S-wave (km/s) = 3.71596 3.81617 3.76640
# Velocity P-wave (km/s) = 7.37435 7.57930 7.47753
#
# Compressibility (1/GPa) = 0.01709117
#
# Stress axis : x y z
#
# Youngs Moduli (GPa) = 53.52755 39.51854 62.03665
#
# Poissons Ratio (x) = 0.33720 0.38008
# Poissons Ratio (y) = 0.45674 0.42482
# Poissons Ratio (z) = 0.32795 0.27062
#
# Static dielectric constant tensor:
#      x y z
#    x 3.159380 0.000000 0.039420 
#    y 0.000000 2.894790 0.000000 
#    z 0.039420 0.000000 3.293680 
# 
# 
# High freq. dielectric constant tensor:
#      x y z
#    x 1.617970 0.000000 0.010530 
#    y 0.000000 1.586370 0.000000 
#    z 0.010530 0.000000 1.634600 
# 
# From -- ./inp_files/106235.got.cif
#   From: 2010.06.25/outbox.cif.g09.slc.cpg/sg12_54_cif.got.tgz:106235.got - 2010.06.28 00:19:55.
