data_PCOD8085021
_publ_section_title
;
Structure prediction by ZEFSAII (Michael W. Deem and Ramdas Pophale) SiO2 
 PCOD8085021
Probable space group: C 2/M
;
_chemical_formula_sum "Si O2"
_cell_formula_units_Z 64
_cell_length_a 30.401952
_cell_length_b 14.276787
_cell_length_c 19.773025
_cell_angle_alpha 90.000000
_cell_angle_beta 154.774582
_cell_angle_gamma 90.000000
_cell_volume 3657.621809
_symmetry_space_group_name_H-M "C 2/M"
_symmetry_group_IT_number 12
_symmetry_cell_setting 'monoclinic'
loop_
_space_group_symop_operation_xyz
x,y,z
-x,y,-z
-x,-y,-z
x,-y,z
1/2+x,1/2+y,z
1/2-x,1/2+y,-z
1/2-x,1/2-y,-z
1/2+x,1/2-y,z
loop_
_atom_site_type_symbol
_atom_site_label
_atom_site_fract_x
_atom_site_fract_y
_atom_site_fract_z
Si Si1 0.926085 0.891392 0.458721
Si Si2 0.181964 0.717648 0.235287
Si Si3 0.497822 0.891503 0.762727
Si Si4 0.881884 0.892332 0.653473
Si Si5 0.810923 0.607623 0.884069
Si Si6 0.577000 0.717645 0.413779
Si Si7 0.393380 0.600634 0.818202
Si Si8 0.141420 0.607401 0.303056
O O1 0.809572 0.868764 0.271071
O O2 0.967020 0.828958 0.578906
O O3 0.000000 0.865611 0.500000
O O4 0.935358 0.000000 0.492921
O O5 0.144243 0.674443 0.112113
O O6 0.301989 0.700672 0.410975
O O7 0.168700 0.829252 0.220035
O O8 0.112969 0.669326 0.197940
O O9 0.465621 0.824039 0.654948
O O10 0.425234 0.863010 0.724743
O O11 0.479738 0.000000 0.716106
O O12 0.618319 0.875764 0.950878
O O13 0.950541 0.837338 0.693583
O O14 0.914936 0.857540 0.773731
O O15 0.760301 0.872562 0.483660
O O16 0.907902 0.000000 0.676964
O O17 0.823155 0.500000 0.877126
O O18 0.333050 0.500000 0.728325
O O19 0.500000 0.579221 0.000000
O O20 0.119827 0.500000 0.254475
#
# Coordination Sequence:
#
# PCOD8085021 Si02
#       8
#     8   8   8   8   8   8   8   8
#     4   9  18  36  60  80  97 118 149 193 248 307
#     4  10  19  29  46  66  93 132 169 206 238 274
#     4  10  20  31  45  69 101 133 161 195 236 280
#     4   9  17  30  45  63  94 128 165 208 237 270
#     4   9  19  33  49  74 102 124 154 199 250 294
#     4  10  19  31  50  76  95 122 162 198 242 289
#     4  10  21  31  39  58  90 135 178 205 231 263
#     4   9  17  28  44  67  93 126 166 202 238 275
#
# _framework density 17.497709
#
# number of rings (size 3 to 8) (size 9 to 14) (size 15 to 20)
#    0.000    2.500    0.000    2.250    3.500    6.500 
#    0.000    2.500    0.000    0.375    0.000    0.000 
#    0.000    0.000    0.000    0.000    0.000    0.000 
#
# Total GULP energy -396569.095891 kJ/mol
# GULP energy per Si atom -12392.784247 kJ/mol
# Density = 1.745788 g / cm^3
# Si number density = 17.497709 Si / 1000 Ang^3
#
#
#
# Elastic Constant Matrix: (Units=GPa)
#
#
# Indices 1 2 3 4 5 6 
#
# 1 86.1925 45.9165 23.4622 0.0000 -1.6378 0.0000
# 2 45.9165 82.4222 17.7620 0.0000 -8.7480 0.0000
# 3 23.4622 17.7620 41.4247 0.0000 -5.0401 0.0000
# 4 0.0000 0.0000 0.0000 26.0096 0.0000 -6.5459
# 5 -1.6378 -8.7480 -5.0401 0.0000 12.0414 0.0000
# 6 0.0000 0.0000 0.0000 -6.5459 0.0000 23.4220
#
#
#
# Elastic Compliance Matrix: (Units=1/GPa)
#
#
# Indices 1 2 3 4 5 6 
#
# 1 0.018535 -0.009542 -0.007315 0.000000 -0.007473 0.000000
# 2 -0.009542 0.018995 -0.001285 0.000000 0.011964 0.000000
# 3 -0.007315 -0.001285 0.030134 0.000000 0.010685 0.000000
# 4 0.000000 0.000000 0.000000 0.041356 0.000000 0.011558
# 5 -0.007473 0.011964 0.010685 0.000000 0.095195 0.000000
# 6 0.000000 0.000000 0.000000 0.011558 0.000000 0.045925
#
#
# Mechanical properties :
#
#
# Convention : Reuss Voigt Hill
#
# Bulk Modulus (GPa) = 31.86762 42.70233 37.28497
# Shear Modulus (GPa) = 16.84158 20.48783 18.66471
#
# Velocity S-wave (km/s) = 3.10579 3.42553 3.26957
# Velocity P-wave (km/s) = 5.57792 6.33271 5.96726
#
# Compressibility (1/GPa) = 0.03137982
#
# Stress axis : x y z
#
# Youngs Moduli (GPa) = 53.95343 52.64511 33.18477
#
# Poissons Ratio (x) = 0.50234 0.24276
# Poissons Ratio (y) = 0.51483 0.04263
# Poissons Ratio (z) = 0.39469 0.06762
#
# Static dielectric constant tensor:
#      x y z
#    x 3.053220 0.000000 -0.183270 
#    y 0.000000 3.517780 0.000000 
#    z -0.183270 0.000000 3.181750 
# 
# 
# High freq. dielectric constant tensor:
#      x y z
#    x 1.631310 0.000000 -0.010190 
#    y 0.000000 1.683890 0.000000 
#    z -0.010190 0.000000 1.669970 
# 
# From -- ./inp_files/225305.got.cif
#   From: 2010.06.25/outbox.cif.g09.slc.cpg/sg12_113_cif.got.tgz:225305.got - 2010.06.28 00:19:55.
