data_PCOD8085629
_publ_section_title
;
Structure prediction by ZEFSAII (Michael W. Deem and Ramdas Pophale) SiO2 
 PCOD8085629
Probable space group: C 2/M
;
_chemical_formula_sum "Si O2"
_cell_formula_units_Z 56
_cell_length_a 27.317081
_cell_length_b 9.301726
_cell_length_c 13.695689
_cell_angle_alpha 90.000000
_cell_angle_beta 61.628989
_cell_angle_gamma 90.000000
_cell_volume 3062.031528
_symmetry_space_group_name_H-M "C 2/M"
_symmetry_group_IT_number 12
_symmetry_cell_setting 'monoclinic'
loop_
_space_group_symop_operation_xyz
x,y,z
-x,y,-z
-x,-y,-z
x,-y,z
1/2+x,1/2+y,z
1/2-x,1/2+y,-z
1/2-x,1/2-y,-z
1/2+x,1/2-y,z
loop_
_atom_site_type_symbol
_atom_site_label
_atom_site_fract_x
_atom_site_fract_y
_atom_site_fract_z
Si Si1 0.365882 0.331997 0.937004
Si Si2 0.530327 0.334977 0.281581
Si Si3 0.300391 0.330981 0.178591
Si Si4 0.305350 0.163230 0.836118
Si Si5 0.415276 0.162992 0.606579
Si Si6 0.299755 0.329651 0.398356
Si Si7 0.407360 0.664568 0.417677
O O1 0.357799 0.500000 0.927331
O O2 0.427689 0.282345 0.844348
O O3 0.317560 0.255880 0.920580
O O4 0.355408 0.293820 0.061347
O O5 0.543276 0.500000 0.295857
O O6 0.538231 0.244002 0.373133
O O7 0.466766 0.315851 0.305985
O O8 0.293132 0.500000 0.197252
O O9 0.246745 0.269274 0.172620
O O10 0.304214 0.267103 0.283861
O O11 0.357025 0.171224 0.715402
O O12 0.293212 0.000000 0.880573
O O13 0.406038 0.235123 0.511967
O O14 0.435446 0.000000 0.572624
O O15 0.288556 0.500000 0.412159
O O16 0.250000 0.250000 0.500000
O O17 0.358369 0.288990 0.391740
O O18 0.399768 0.500000 0.458849
#
# Coordination Sequence:
#
# PCOD8085629 Si02
#       7
#     8   8   8   8   8   8   8
#     4   9  17  30  49  71  95 124 157 192 233 283
#     4   9  18  32  48  70 100 128 157 196 240 286
#     4   9  17  31  50  70  94 125 158 195 238 280
#     4   9  17  29  46  70  99 125 151 191 241 285
#     4  10  19  30  48  74 100 128 162 198 238 285
#     4  10  21  37  54  72  96 126 161 199 239 284
#     4  10  20  33  49  69  96 130 162 196 241 286
#
# _framework density 18.288512000000001
#
# number of rings (size 3 to 8) (size 9 to 14) (size 15 to 20)
#    0.000    2.571    0.000    2.143    0.000    4.571 
#    0.000    2.143    0.000    4.286    0.000    0.000 
#    0.000    6.857    0.000    0.000    0.000    0.000 
#
# Total GULP energy -347100.225524 kJ/mol
# GULP energy per Si atom -12396.436626 kJ/mol
# Density = 1.824689 g / cm^3
# Si number density = 18.288512 Si / 1000 Ang^3
#
#
#
# Elastic Constant Matrix: (Units=GPa)
#
#
# Indices 1 2 3 4 5 6 
#
# 1 129.1330 39.4010 74.6465 0.0000 -1.3539 0.0000
# 2 39.4010 51.8154 40.2222 0.0000 3.2034 0.0000
# 3 74.6465 40.2222 125.3588 0.0000 21.9212 0.0000
# 4 0.0000 0.0000 0.0000 21.5547 0.0000 -0.4931
# 5 -1.3539 3.2034 21.9212 0.0000 16.7975 0.0000
# 6 0.0000 0.0000 0.0000 -0.4931 0.0000 18.7621
#
#
#
# Elastic Compliance Matrix: (Units=1/GPa)
#
#
# Indices 1 2 3 4 5 6 
#
# 1 0.015301 -0.004534 -0.010396 0.000000 0.015664 0.000000
# 2 -0.004534 0.027814 -0.006781 0.000000 0.003179 0.000000
# 3 -0.010396 -0.006781 0.021072 0.000000 -0.027045 0.000000
# 4 0.000000 0.000000 0.000000 0.046421 0.000000 0.001220
# 5 0.015664 0.003179 -0.027045 0.000000 0.095483 0.000000
# 6 0.000000 0.000000 0.000000 0.001220 0.000000 0.053331
#
#
# Mechanical properties :
#
#
# Convention : Reuss Voigt Hill
#
# Bulk Modulus (GPa) = 48.15334 68.31629 58.23482
# Shear Modulus (GPa) = 16.14132 21.55869 18.85001
#
# Velocity S-wave (km/s) = 2.97407 3.43711 3.21394
# Velocity P-wave (km/s) = 6.17903 7.29297 6.75899
#
# Compressibility (1/GPa) = 0.02076699
#
# Stress axis : x y z
#
# Youngs Moduli (GPa) = 65.35623 35.95364 47.45600
#
# Poissons Ratio (x) = 0.16300 0.49333
# Poissons Ratio (y) = 0.29630 0.32178
# Poissons Ratio (z) = 0.67942 0.24379
#
# Static dielectric constant tensor:
#      x y z
#    x 3.448880 0.000000 -0.128660 
#    y 0.000000 3.316100 0.000000 
#    z -0.128660 0.000000 3.603580 
# 
# 
# High freq. dielectric constant tensor:
#      x y z
#    x 1.698440 0.000000 -0.016590 
#    y 0.000000 1.689630 0.000000 
#    z -0.016590 0.000000 1.718000 
# 
# From -- ./inp_files/180998.got.cif
#   From: 2010.06.25/outbox.cif.g09.slc.cpg/sg12_91_cif.got.tgz:180998.got - 2010.06.28 00:19:55.
