data_PCOD8085162
_publ_section_title
;
Structure prediction by ZEFSAII (Michael W. Deem and Ramdas Pophale) SiO2 
 PCOD8085162
Probable space group: C 2/M
;
_chemical_formula_sum "Si O2"
_cell_formula_units_Z 64
_cell_length_a 31.923466
_cell_length_b 8.887318
_cell_length_c 30.406648
_cell_angle_alpha 90.000000
_cell_angle_beta 150.734124
_cell_angle_gamma 90.000000
_cell_volume 4217.319036
_symmetry_space_group_name_H-M "C 2/M"
_symmetry_group_IT_number 12
_symmetry_cell_setting 'monoclinic'
loop_
_space_group_symop_operation_xyz
x,y,z
-x,y,-z
-x,-y,-z
x,-y,z
1/2+x,1/2+y,z
1/2-x,1/2+y,-z
1/2-x,1/2-y,-z
1/2+x,1/2-y,z
loop_
_atom_site_type_symbol
_atom_site_label
_atom_site_fract_x
_atom_site_fract_y
_atom_site_fract_z
Si Si1 0.332294 0.175714 0.171516
Si Si2 0.546455 0.829185 0.800004
Si Si3 0.784243 0.824864 0.464154
Si Si4 0.075296 0.177077 0.663492
Si Si5 0.369875 0.674341 0.633873
Si Si6 0.204234 0.326122 0.998551
Si Si7 0.108320 0.322200 0.511137
Si Si8 0.600186 0.165355 0.599890
O O1 0.397554 0.210291 0.191598
O O2 0.363017 0.259940 0.242834
O O3 0.237628 0.241038 0.072848
O O4 0.324187 0.000000 0.173746
O O5 0.468287 0.714877 0.731603
O O6 0.512236 0.000000 0.764790
O O7 0.602385 0.810257 0.896034
O O8 0.688021 0.771638 0.386189
O O9 0.845518 0.787782 0.561397
O O10 0.817676 0.732948 0.453204
O O11 0.783575 0.000000 0.451984
O O12 0.118256 0.218806 0.655849
O O13 0.981143 0.245219 0.583351
O O14 0.067883 0.000000 0.660882
O O15 0.354526 0.500000 0.630237
O O16 0.231056 0.500000 0.025775
O O17 0.250000 0.250000 0.000000
O O18 0.094514 0.500000 0.494134
O O19 0.139402 0.279170 0.589179
O O20 0.500000 0.151692 0.500000
O O21 0.636345 0.000000 0.645937
#
# Coordination Sequence:
#
# PCOD8085162 Si02
#       8
#     8   8   8   8   8   8   8   8
#     4  10  19  30  44  62  86 116 147 179 215 254
#     4   9  18  30  44  61  83 113 144 176 214 253
#     4  10  20  32  45  62  85 112 144 182 218 250
#     4  11  20  28  42  64  88 114 145 179 213 253
#     4  10  20  31  44  62  84 112 145 180 215 252
#     4   9  17  29  43  61  85 112 143 177 214 255
#     4  10  19  31  46  62  84 114 146 178 214 256
#     4   8  16  30  44  59  82 112 142 174 212 252
#
# _framework density 15.175518
#
# number of rings (size 3 to 8) (size 9 to 14) (size 15 to 20)
#    0.000    2.375    0.000    5.250    0.000    9.250 
#    0.000    0.000    0.000    0.000    0.000    0.000 
#    0.000    1.000    0.000   10.500    0.000    4.500 
#
# Total GULP energy -396712.826856 kJ/mol
# GULP energy per Si atom -12397.275839 kJ/mol
# Density = 1.514098 g / cm^3
# Si number density = 15.175518 Si / 1000 Ang^3
#
#
#
# Elastic Constant Matrix: (Units=GPa)
#
#
# Indices 1 2 3 4 5 6 
#
# 1 85.2844 43.4889 35.7621 0.0000 -10.3859 0.0000
# 2 43.4889 94.5474 39.5522 0.0001 -8.4794 -0.0001
# 3 35.7621 39.5522 75.5134 0.0000 -9.1115 0.0000
# 4 0.0000 0.0001 0.0000 26.9597 0.0000 -0.9148
# 5 -10.3859 -8.4794 -9.1115 0.0000 18.4820 0.0000
# 6 0.0000 -0.0001 0.0000 -0.9148 0.0000 23.4892
#
#
#
# Elastic Compliance Matrix: (Units=1/GPa)
#
#
# Indices 1 2 3 4 5 6 
#
# 1 0.017038 -0.005473 -0.004625 0.000000 0.004783 0.000000
# 2 -0.005473 0.015449 -0.005333 0.000000 0.001383 0.000000
# 3 -0.004625 -0.005333 0.018732 0.000000 0.004189 0.000000
# 4 0.000000 0.000000 0.000000 0.037142 0.000000 0.001446
# 5 0.004783 0.001383 0.004189 0.000000 0.059494 0.000000
# 6 0.000000 0.000000 0.000000 0.001446 0.000000 0.042629
#
#
# Mechanical properties :
#
#
# Convention : Reuss Voigt Hill
#
# Bulk Modulus (GPa) = 49.12429 54.77240 51.94835
# Shear Modulus (GPa) = 21.91703 22.88897 22.40300
#
# Velocity S-wave (km/s) = 3.80443 3.88787 3.84638
# Velocity P-wave (km/s) = 7.19300 7.50500 7.35066
#
# Compressibility (1/GPa) = 0.02035653
#
# Stress axis : x y z
#
# Youngs Moduli (GPa) = 58.69075 64.72796 53.38500
#
# Poissons Ratio (x) = 0.35427 0.24692
# Poissons Ratio (y) = 0.32123 0.28470
# Poissons Ratio (z) = 0.27146 0.34520
#
# Static dielectric constant tensor:
#      x y z
#    x 2.958730 0.000000 -0.216030 
#    y 0.000000 3.064400 0.000000 
#    z -0.216030 0.000000 2.958710 
# 
# 
# High freq. dielectric constant tensor:
#      x y z
#    x 1.555540 0.000000 -0.014840 
#    y 0.000000 1.598350 0.000000 
#    z -0.014840 0.000000 1.560100 
# 
# From -- ./inp_files/249029.got.cif
#   From: 2010.06.25/outbox.cif.g09.slc.cpg/sg12_125_cif.got.tgz:249029.got - 2010.06.28 00:19:55.
