data_PCOD8085589
_publ_section_title
;
Structure prediction by ZEFSAII (Michael W. Deem and Ramdas Pophale) SiO2 
 PCOD8085589
Probable space group: C 2/M
;
_chemical_formula_sum "Si O2"
_cell_formula_units_Z 64
_cell_length_a 25.211398
_cell_length_b 8.604925
_cell_length_c 23.447881
_cell_angle_alpha 90.000000
_cell_angle_beta 133.469855
_cell_angle_gamma 90.000000
_cell_volume 3691.701226
_symmetry_space_group_name_H-M "C 2/M"
_symmetry_group_IT_number 12
_symmetry_cell_setting 'monoclinic'
loop_
_space_group_symop_operation_xyz
x,y,z
-x,y,-z
-x,-y,-z
x,-y,z
1/2+x,1/2+y,z
1/2-x,1/2+y,-z
1/2-x,1/2-y,-z
1/2+x,1/2-y,z
loop_
_atom_site_type_symbol
_atom_site_label
_atom_site_fract_x
_atom_site_fract_y
_atom_site_fract_z
Si Si1 0.827902 0.682232 0.342640
Si Si2 0.065016 0.822415 0.667030
Si Si3 0.695071 0.181844 0.190107
Si Si4 0.218564 0.180733 0.085419
Si Si5 0.031024 0.316304 0.081833
Si Si6 0.911872 0.682513 0.081055
Si Si7 0.946496 0.327538 0.513936
Si Si8 0.130950 0.820946 0.834923
O O1 0.811462 0.500000 0.331375
O O2 0.878357 0.716109 0.325250
O O3 0.752143 0.776474 0.282346
O O4 0.868650 0.733678 0.431664
O O5 0.075588 0.791378 0.741753
O O6 0.980899 0.782005 0.588234
O O7 0.081443 0.000000 0.662976
O O8 0.718460 0.276243 0.151671
O O9 0.615044 0.234114 0.152079
O O10 0.697511 0.000000 0.177364
O O11 0.297527 0.215143 0.117373
O O12 0.200476 0.000000 0.063762
O O13 0.159687 0.283652 0.008973
O O14 0.023215 0.500000 0.072750
O O15 0.982837 0.255980 0.099042
O O16 0.000000 0.243680 0.000000
O O17 0.915928 0.500000 0.096530
O O18 0.912164 0.775338 0.140191
O O19 0.937410 0.500000 0.533045
O O20 0.000000 0.332697 0.500000
O O21 0.155686 0.000000 0.855633
#
# Coordination Sequence:
#
# PCOD8085589 Si02
#       8
#     8   8   8   8   8   8   8   8
#     4  10  19  31  47  72 105 135 165 204 252 302
#     4  10  19  30  48  71 100 136 170 204 246 298
#     4  11  20  33  54  77 101 134 172 211 253 301
#     4  12  23  35  52  75 103 136 171 210 254 303
#     4   9  18  35  56  75  98 129 167 213 260 302
#     4  11  22  38  57  74  97 134 175 213 254 303
#     4   8  16  29  45  67 100 135 164 200 246 300
#     4  11  23  37  51  74 106 137 171 211 253 299
#
# _framework density 17.336179999999999
#
# number of rings (size 3 to 8) (size 9 to 14) (size 15 to 20)
#    0.000    1.750    2.500    4.125    0.000    4.250 
#    0.000    3.125    0.000    0.000    0.000    0.875 
#    0.000    0.000    0.000    0.000    0.000    0.000 
#
# Total GULP energy -396797.744107 kJ/mol
# GULP energy per Si atom -12399.929503 kJ/mol
# Density = 1.729672 g / cm^3
# Si number density = 17.336180 Si / 1000 Ang^3
#
#
#
# Elastic Constant Matrix: (Units=GPa)
#
#
# Indices 1 2 3 4 5 6 
#
# 1 95.9208 15.5096 47.0019 0.0000 7.7421 0.0000
# 2 15.5096 46.5268 20.3295 -0.0001 2.5654 0.0000
# 3 47.0019 20.3295 121.2913 0.0000 18.9132 0.0000
# 4 0.0000 -0.0001 0.0000 28.2167 0.0000 -1.4578
# 5 7.7421 2.5654 18.9132 0.0000 13.7992 0.0000
# 6 0.0000 0.0000 0.0000 -1.4578 0.0000 18.6231
#
#
#
# Elastic Compliance Matrix: (Units=1/GPa)
#
#
# Indices 1 2 3 4 5 6 
#
# 1 0.013101 -0.002327 -0.004589 0.000000 -0.000628 0.000000
# 2 -0.002327 0.023623 -0.003277 0.000000 0.001405 0.000000
# 3 -0.004589 -0.003277 0.012814 0.000000 -0.014380 0.000000
# 4 0.000000 0.000000 0.000000 0.035584 0.000000 0.002785
# 5 -0.000628 0.001405 -0.014380 0.000000 0.092268 0.000000
# 6 0.000000 0.000000 0.000000 0.002785 0.000000 0.053915
#
#
# Mechanical properties :
#
#
# Convention : Reuss Voigt Hill
#
# Bulk Modulus (GPa) = 34.30223 47.71343 41.00783
# Shear Modulus (GPa) = 19.12721 24.18767 21.65744
#
# Velocity S-wave (km/s) = 3.32522 3.73931 3.53833
# Velocity P-wave (km/s) = 5.87981 6.79893 6.35601
#
# Compressibility (1/GPa) = 0.02915262
#
# Stress axis : x y z
#
# Youngs Moduli (GPa) = 76.33138 42.33153 78.03851
#
# Poissons Ratio (x) = 0.09853 0.35809
# Poissons Ratio (y) = 0.17766 0.25570
# Poissons Ratio (z) = 0.35026 0.13870
#
# Static dielectric constant tensor:
#      x y z
#    x 3.052780 0.000000 0.122030 
#    y 0.000000 3.176880 0.000000 
#    z 0.122030 0.000000 3.603790 
# 
# 
# High freq. dielectric constant tensor:
#      x y z
#    x 1.627460 0.000000 0.008530 
#    y 0.000000 1.670330 0.000000 
#    z 0.008530 0.000000 1.677740 
# 
# From -- ./inp_files/348591.got.cif
#   From: 2010.06.25/outbox.cif.g09.slc.cpg/sg12_175_cif.got.tgz:348591.got - 2010.06.28 00:19:55.
