data_PCOD8085394
_publ_section_title
;
Structure prediction by ZEFSAII (Michael W. Deem and Ramdas Pophale) SiO2 
 PCOD8085394
Probable space group: C 2/M
;
_chemical_formula_sum "Si O2"
_cell_formula_units_Z 56
_cell_length_a 28.975195
_cell_length_b 9.421458
_cell_length_c 13.263663
_cell_angle_alpha 90.000000
_cell_angle_beta 123.083038
_cell_angle_gamma 90.000000
_cell_volume 3033.821103
_symmetry_space_group_name_H-M "C 2/M"
_symmetry_group_IT_number 12
_symmetry_cell_setting 'monoclinic'
loop_
_space_group_symop_operation_xyz
x,y,z
-x,y,-z
-x,-y,-z
x,-y,z
1/2+x,1/2+y,z
1/2-x,1/2+y,-z
1/2-x,1/2-y,-z
1/2+x,1/2-y,z
loop_
_atom_site_type_symbol
_atom_site_label
_atom_site_fract_x
_atom_site_fract_y
_atom_site_fract_z
Si Si1 0.446743 0.331268 0.996016
Si Si2 0.367354 0.664824 0.296180
Si Si3 0.933311 0.835740 0.575218
Si Si4 0.053390 0.167795 0.778370
Si Si5 0.780209 0.339140 0.296682
Si Si6 0.655691 0.833974 0.424963
Si Si7 0.834224 0.165058 0.757930
O O1 0.450039 0.500000 0.004996
O O2 0.391359 0.282161 0.874097
O O3 0.500000 0.271145 0.000000
O O4 0.445622 0.267295 0.107876
O O5 0.353379 0.500000 0.270429
O O6 0.410779 0.694332 0.437071
O O7 0.395342 0.724892 0.227234
O O8 0.309587 0.742913 0.247602
O O9 0.902597 0.739185 0.620451
O O10 0.997035 0.791290 0.654551
O O11 0.925135 0.000000 0.596706
O O12 0.058832 0.000000 0.790981
O O13 0.794498 0.500000 0.285072
O O14 0.802151 0.303498 0.434393
O O15 0.714555 0.312424 0.218423
O O16 0.680349 0.760659 0.355432
O O17 0.646822 0.000000 0.394921
O O18 0.836901 0.000000 0.728537
#
# Coordination Sequence:
#
# PCOD8085394 Si02
#       7
#     8   8   8   8   8   8   8
#     4   9  17  29  48  73  95 117 151 195 235 271
#     4   9  17  29  48  73  97 122 154 194 235 273
#     4   9  16  28  48  72  97 124 154 189 232 281
#     4   9  16  28  48  73  97 121 156 198 233 269
#     4   9  19  33  47  67  96 126 155 190 233 282
#     4  10  19  30  46  70  98 124 152 191 238 281
#     4  10  19  32  50  69  91 124 162 194 229 275
#
# _framework density 18.458570000000002
#
# number of rings (size 3 to 8) (size 9 to 14) (size 15 to 20)
#    0.000    2.714    0.000    2.143    0.000    5.143 
#    0.000    1.429    0.000    8.143    0.000    0.000 
#    0.000    0.000    0.000    0.000    0.000    0.000 
#
# Total GULP energy -347162.885401 kJ/mol
# GULP energy per Si atom -12398.674479 kJ/mol
# Density = 1.841656 g / cm^3
# Si number density = 18.458570 Si / 1000 Ang^3
#
#
#
# Elastic Constant Matrix: (Units=GPa)
#
#
# Indices 1 2 3 4 5 6 
#
# 1 159.3747 44.5784 54.7491 0.0000 2.5738 0.0000
# 2 44.5784 46.7910 21.3459 0.0000 -0.2081 0.0000
# 3 54.7491 21.3459 59.3340 0.0000 4.6345 0.0000
# 4 0.0000 0.0000 0.0000 11.1578 0.0000 1.8798
# 5 2.5738 -0.2081 4.6345 0.0000 31.5087 0.0000
# 6 0.0000 0.0000 0.0000 1.8798 0.0000 26.8083
#
#
#
# Elastic Compliance Matrix: (Units=1/GPa)
#
#
# Indices 1 2 3 4 5 6 
#
# 1 0.010751 -0.006831 -0.007476 0.000000 0.000176 0.000000
# 2 -0.006831 0.029982 -0.004595 0.000000 0.001432 0.000000
# 3 -0.007476 -0.004595 0.025655 0.000000 -0.003193 0.000000
# 4 0.000000 0.000000 0.000000 0.090695 0.000000 -0.006360
# 5 0.000176 0.001432 -0.003193 0.000000 0.032202 0.000000
# 6 0.000000 0.000000 0.000000 -0.006360 0.000000 0.037748
#
#
# Mechanical properties :
#
#
# Convention : Reuss Voigt Hill
#
# Bulk Modulus (GPa) = 34.98574 56.31629 45.65102
# Shear Modulus (GPa) = 18.22396 23.55004 20.88700
#
# Velocity S-wave (km/s) = 3.14553 3.57575 3.36752
# Velocity P-wave (km/s) = 5.67338 6.90100 6.31708
#
# Compressibility (1/GPa) = 0.02858307
#
# Stress axis : x y z
#
# Youngs Moduli (GPa) = 93.01865 33.35329 38.97914
#
# Poissons Ratio (x) = 0.22783 0.29141
# Poissons Ratio (y) = 0.63539 0.17912
# Poissons Ratio (z) = 0.69542 0.15327
#
# Static dielectric constant tensor:
#      x y z
#    x 3.630900 0.000000 -0.011180 
#    y 0.000000 3.074500 0.000000 
#    z -0.011180 0.000000 3.298310 
# 
# 
# High freq. dielectric constant tensor:
#      x y z
#    x 1.729430 0.000000 0.003930 
#    y 0.000000 1.675370 0.000000 
#    z 0.003930 0.000000 1.697280 
# 
# From -- ./inp_files/249302.got.cif
#   From: 2010.06.25/outbox.cif.g09.slc.cpg/sg12_125_cif.got.tgz:249302.got - 2010.06.28 00:19:55.
