data_PCOD8085266
_publ_section_title
;
Structure prediction by ZEFSAII (Michael W. Deem and Ramdas Pophale) SiO2 
 PCOD8085266
Probable space group: C 2/M
;
_chemical_formula_sum "Si O2"
_cell_formula_units_Z 56
_cell_length_a 30.973816
_cell_length_b 10.295800
_cell_length_c 29.225378
_cell_angle_alpha 90.000000
_cell_angle_beta 19.615387
_cell_angle_gamma 90.000000
_cell_volume 3128.759471
_symmetry_space_group_name_H-M "C 2/M"
_symmetry_group_IT_number 12
_symmetry_cell_setting 'monoclinic'
loop_
_space_group_symop_operation_xyz
x,y,z
-x,y,-z
-x,-y,-z
x,-y,z
1/2+x,1/2+y,z
1/2-x,1/2+y,-z
1/2-x,1/2-y,-z
1/2+x,1/2-y,z
loop_
_atom_site_type_symbol
_atom_site_label
_atom_site_fract_x
_atom_site_fract_y
_atom_site_fract_z
Si Si1 0.000505 0.847358 0.550216
Si Si2 0.216346 0.152852 0.167048
Si Si3 0.051207 0.220537 0.720155
Si Si4 0.991940 0.348187 0.871572
Si Si5 0.314233 0.858463 0.491485
Si Si6 0.680953 0.356087 0.099478
Si Si7 0.278666 0.651295 0.602190
O O1 0.883142 0.784253 0.697029
O O2 0.000000 0.784634 0.500000
O O3 0.139918 0.819014 0.433527
O O4 0.977257 0.000000 0.569502
O O5 0.174525 0.195765 0.157880
O O6 0.201206 0.000000 0.186542
O O7 0.365967 0.195137 0.027025
O O8 0.975663 0.282769 0.838339
O O9 0.165877 0.133752 0.624992
O O10 0.102554 0.337289 0.637088
O O11 0.961249 0.129350 0.779361
O O12 0.984428 0.500000 0.870368
O O13 0.127419 0.313325 0.761281
O O14 0.337247 0.741107 0.503955
O O15 0.350318 0.000000 0.476520
O O16 0.745949 0.500000 0.032603
O O17 0.750000 0.250000 0.000000
O O18 0.293782 0.500000 0.572473
#
# Coordination Sequence:
#
# PCOD8085266 Si02
#       7
#     8   8   8   8   8   8   8
#     4   9  17  31  51  74  98 126 163 207 257 312
#     4   9  17  29  46  68  97 131 162 200 251 298
#     4  10  19  30  45  67  99 134 172 208 244 287
#     4   9  16  28  45  66  96 130 162 198 248 299
#     4  10  20  31  48  72 100 134 173 212 249 294
#     4  11  21  32  48  70 100 136 172 204 243 294
#     4   9  18  32  50  71  97 129 165 208 257 304
#
# _framework density 17.898468000000001
#
# number of rings (size 3 to 8) (size 9 to 14) (size 15 to 20)
#    0.000    2.429    1.429    1.714    0.000    5.714 
#    0.000    0.714    0.000    4.714    0.000    0.000 
#    0.000    2.571    0.000    0.000    0.000    0.000 
#
# Total GULP energy -346924.328993 kJ/mol
# GULP energy per Si atom -12390.154607 kJ/mol
# Density = 1.785773 g / cm^3
# Si number density = 17.898468 Si / 1000 Ang^3
#
#
#
# Elastic Constant Matrix: (Units=GPa)
#
#
# Indices 1 2 3 4 5 6 
#
# 1 114.7271 26.5698 65.7524 0.0010 5.1467 -0.0005
# 2 26.5698 58.3143 17.1112 0.0004 5.1284 0.0000
# 3 65.7524 17.1112 120.1735 0.0007 7.8638 0.0003
# 4 0.0010 0.0004 0.0007 3.1548 0.0004 3.1927
# 5 5.1467 5.1284 7.8638 0.0004 25.0692 -0.0003
# 6 -0.0005 0.0000 0.0003 3.1927 -0.0003 13.5285
#
#
#
# Elastic Compliance Matrix: (Units=1/GPa)
#
#
# Indices 1 2 3 4 5 6 
#
# 1 0.013615 -0.004209 -0.006865 -0.000003 0.000219 0.000001
# 2 -0.004209 0.019409 -0.000263 -0.000001 -0.003024 0.000000
# 3 -0.006865 -0.000263 0.012271 0.000000 -0.002386 -0.000001
# 4 -0.000003 -0.000001 0.000000 0.416436 -0.000006 -0.098278
# 5 0.000219 -0.003024 -0.002386 -0.000006 0.041212 0.000002
# 6 0.000001 0.000000 -0.000001 -0.098278 0.000002 0.097111
#
#
# Mechanical properties :
#
#
# Convention : Reuss Voigt Hill
#
# Bulk Modulus (GPa) = 44.20313 56.89796 50.55055
# Shear Modulus (GPa) = 7.93314 20.60262 14.26788
#
# Velocity S-wave (km/s) = 2.10759 3.39644 2.82646
# Velocity P-wave (km/s) = 5.53830 6.87309 6.24148
#
# Compressibility (1/GPa) = 0.02262283
#
# Stress axis : x y z
#
# Youngs Moduli (GPa) = 73.44575 51.52213 81.49365
#
# Poissons Ratio (x) = 0.21683 0.55943
# Poissons Ratio (y) = 0.30910 0.02144
# Poissons Ratio (z) = 0.50419 0.01355
#
# Static dielectric constant tensor:
#      x y z
#    x 3.369850 0.000000 -0.168440 
#    y 0.000000 2.932040 0.000010 
#    z -0.168440 0.000010 3.732040 
# 
# 
# High freq. dielectric constant tensor:
#      x y z
#    x 1.672690 0.000000 -0.020680 
#    y 0.000000 1.649990 0.000000 
#    z -0.020680 0.000000 1.701540 
# 
# From -- ./inp_files/370742.got.cif
#   From: 2010.06.25/outbox.cif.g09.slc.cpg/sg12_186_cif.got.tgz:370742.got - 2010.06.28 00:19:55.
