data_PCOD8085561
_publ_section_title
;
Structure prediction by ZEFSAII (Michael W. Deem and Ramdas Pophale) SiO2 
 PCOD8085561
Probable space group: C 2/M
;
_chemical_formula_sum "Si O2"
_cell_formula_units_Z 56
_cell_length_a 19.278774
_cell_length_b 9.098684
_cell_length_c 22.054433
_cell_angle_alpha 90.000000
_cell_angle_beta 125.873804
_cell_angle_gamma 90.000000
_cell_volume 3134.764369
_symmetry_space_group_name_H-M "C 2/M"
_symmetry_group_IT_number 12
_symmetry_cell_setting 'monoclinic'
loop_
_space_group_symop_operation_xyz
x,y,z
-x,y,-z
-x,-y,-z
x,-y,z
1/2+x,1/2+y,z
1/2-x,1/2+y,-z
1/2-x,1/2-y,-z
1/2+x,1/2-y,z
loop_
_atom_site_type_symbol
_atom_site_label
_atom_site_fract_x
_atom_site_fract_y
_atom_site_fract_z
Si Si1 0.198100 0.827060 0.921053
Si Si2 0.337787 0.173164 0.751700
Si Si3 0.533277 0.668585 0.678059
Si Si4 0.719049 0.673159 0.798409
Si Si5 0.767407 0.830450 0.602654
Si Si6 0.495225 0.667131 0.196016
Si Si7 0.621374 0.169240 0.439758
O O1 0.232712 0.766838 0.873751
O O2 0.097983 0.786528 0.876091
O O3 0.212136 0.000000 0.933845
O O4 0.250000 0.750000 0.000000
O O5 0.299167 0.215935 0.797604
O O6 0.276704 0.247175 0.670681
O O7 0.434833 0.229154 0.799542
O O8 0.336175 0.000000 0.740252
O O9 0.528044 0.500000 0.653705
O O10 0.629991 0.731997 0.723931
O O11 0.499101 0.685407 0.729024
O O12 0.474680 0.767434 0.603584
O O13 0.705448 0.500000 0.797483
O O14 0.669919 0.813681 0.528938
O O15 0.831402 0.763534 0.586738
O O16 0.792815 0.000000 0.624857
O O17 0.515467 0.500000 0.187972
O O18 0.619375 0.000000 0.418019
#
# Coordination Sequence:
#
# PCOD8085561 Si02
#       7
#     8   8   8   8   8   8   8
#     4   9  18  36  59  80 104 133 167 205 246 299
#     4  11  20  32  52  77 103 132 174 216 248 297
#     4   9  16  31  53  71  95 134 174 211 255 303
#     4   8  18  35  53  75 104 138 168 203 254 304
#     4  10  20  32  46  68 103 139 167 208 266 308
#     4   9  18  32  52  76 102 134 167 205 256 302
#     4  10  19  30  47  73  99 128 174 222 256 295
#
# _framework density 17.864182
#
# number of rings (size 3 to 8) (size 9 to 14) (size 15 to 20)
#    0.000    2.571    1.429    3.000    0.000    2.286 
#    0.000    6.429    0.000    8.571    0.000    0.000 
#    0.000    0.000    0.000    0.000    0.000    0.000 
#
# Total GULP energy -347126.123824 kJ/mol
# GULP energy per Si atom -12397.361565 kJ/mol
# Density = 1.782352 g / cm^3
# Si number density = 17.864182 Si / 1000 Ang^3
#
#
#
# Elastic Constant Matrix: (Units=GPa)
#
#
# Indices 1 2 3 4 5 6 
#
# 1 96.7178 50.6878 49.3344 0.0000 1.3338 0.0000
# 2 50.6878 86.5496 54.1639 0.0000 3.1747 0.0000
# 3 49.3344 54.1639 125.9560 0.0000 9.6258 0.0000
# 4 0.0000 0.0000 0.0000 32.2880 0.0000 4.7172
# 5 1.3338 3.1747 9.6258 0.0000 21.5305 0.0000
# 6 0.0000 0.0000 0.0000 4.7172 0.0000 23.2307
#
#
#
# Elastic Compliance Matrix: (Units=1/GPa)
#
#
# Indices 1 2 3 4 5 6 
#
# 1 0.015755 -0.007317 -0.003139 0.000000 0.001506 0.000000
# 2 -0.007317 0.019218 -0.005401 0.000000 0.000034 0.000000
# 3 -0.003139 -0.005401 0.011819 0.000000 -0.004293 0.000000
# 4 0.000000 0.000000 0.000000 0.031918 0.000000 -0.006481
# 5 0.001506 0.000034 -0.004293 0.000000 0.048267 0.000000
# 6 0.000000 0.000000 0.000000 -0.006481 0.000000 0.044363
#
#
# Mechanical properties :
#
#
# Convention : Reuss Voigt Hill
#
# Bulk Modulus (GPa) = 66.32445 68.62173 67.47309
# Shear Modulus (GPa) = 24.02912 25.74565 24.88739
#
# Velocity S-wave (km/s) = 3.67154 3.80042 3.73653
# Velocity P-wave (km/s) = 7.42841 7.59960 7.51449
#
# Compressibility (1/GPa) = 0.01507740
#
# Stress axis : x y z
#
# Youngs Moduli (GPa) = 63.47264 52.03422 84.60645
#
# Poissons Ratio (x) = 0.38076 0.26561
# Poissons Ratio (y) = 0.46446 0.45694
# Poissons Ratio (z) = 0.19926 0.28102
#
# Static dielectric constant tensor:
#      x y z
#    x 3.200490 0.000000 0.122520 
#    y 0.000000 3.209110 0.000000 
#    z 0.122520 0.000000 3.390900 
# 
# 
# High freq. dielectric constant tensor:
#      x y z
#    x 1.673390 0.000000 0.016100 
#    y 0.000000 1.682530 0.000000 
#    z 0.016100 0.000000 1.687080 
# 
# From -- ./inp_files/345663.got.cif
#   From: 2010.06.25/outbox.cif.g09.slc.cpg/sg12_173_cif.got.tgz:345663.got - 2010.06.28 00:19:55.
