data_PCOD8085265
_publ_section_title
;
Structure prediction by ZEFSAII (Michael W. Deem and Ramdas Pophale) SiO2 
 PCOD8085265
Probable space group: C 2/M
;
_chemical_formula_sum "Si O2"
_cell_formula_units_Z 56
_cell_length_a 29.886577
_cell_length_b 8.938018
_cell_length_c 19.120608
_cell_angle_alpha 90.000000
_cell_angle_beta 141.868187
_cell_angle_gamma 90.000000
_cell_volume 3153.819791
_symmetry_space_group_name_H-M "C 2/M"
_symmetry_group_IT_number 12
_symmetry_cell_setting 'monoclinic'
loop_
_space_group_symop_operation_xyz
x,y,z
-x,y,-z
-x,-y,-z
x,-y,z
1/2+x,1/2+y,z
1/2-x,1/2+y,-z
1/2-x,1/2-y,-z
1/2+x,1/2-y,z
loop_
_atom_site_type_symbol
_atom_site_label
_atom_site_fract_x
_atom_site_fract_y
_atom_site_fract_z
Si Si1 0.810270 0.675419 0.527145
Si Si2 0.133633 0.827779 0.796305
Si Si3 0.477340 0.330943 0.606086
Si Si4 0.613201 0.323419 0.929656
Si Si5 0.529377 0.827882 0.261547
Si Si6 0.253025 0.178662 0.839307
Si Si7 0.179872 0.171296 0.608946
O O1 0.796681 0.500000 0.506778
O O2 0.750000 0.750000 0.500000
O O3 0.888074 0.710810 0.659698
O O4 0.804745 0.735793 0.441588
O O5 0.130979 0.765339 0.872617
O O6 0.196323 0.752123 0.826592
O O7 0.054400 0.804940 0.661494
O O8 0.154110 0.000000 0.825965
O O9 0.480313 0.500000 0.643195
O O10 0.472569 0.204775 0.658735
O O11 0.404969 0.316413 0.470318
O O12 0.619212 0.500000 0.944151
O O13 0.531901 0.272244 0.851970
O O14 0.668325 0.246197 0.050642
O O15 0.510682 0.000000 0.224311
O O16 0.228096 0.232620 0.731908
O O17 0.255265 0.000000 0.845244
O O18 0.199419 0.000000 0.616187
#
# Coordination Sequence:
#
# PCOD8085265 Si02
#       7
#     8   8   8   8   8   8   8
#     4  10  20  34  56  81 102 122 148 187 236 290
#     4   8  15  27  44  67  93 125 170 213 245 274
#     4   8  14  27  45  66  94 126 160 200 240 282
#     4  10  19  31  47  67  94 131 171 209 242 276
#     4   9  17  30  49  73  96 121 154 193 236 282
#     4  10  19  30  45  67  97 134 170 205 241 280
#     4   9  18  31  48  71 100 131 161 194 240 291
#
# _framework density 17.756245
#
# number of rings (size 3 to 8) (size 9 to 14) (size 15 to 20)
#    0.000    2.857    0.000    2.571    0.000    2.857 
#    0.000    5.714    0.000    0.857    0.000   20.000 
#    0.000    0.000    0.000    0.000    0.000    0.000 
#
# Total GULP energy -346886.932424 kJ/mol
# GULP energy per Si atom -12388.819015 kJ/mol
# Density = 1.771583 g / cm^3
# Si number density = 17.756245 Si / 1000 Ang^3
#
#
#
# Elastic Constant Matrix: (Units=GPa)
#
#
# Indices 1 2 3 4 5 6 
#
# 1 73.1442 31.2583 58.9521 0.0000 19.2850 0.0000
# 2 31.2583 46.8846 43.6627 0.0000 7.8710 0.0000
# 3 58.9521 43.6627 145.9369 0.0000 17.0741 0.0000
# 4 0.0000 0.0000 0.0000 26.4473 0.0000 2.7558
# 5 19.2850 7.8710 17.0741 0.0000 22.1834 0.0000
# 6 0.0000 0.0000 0.0000 2.7558 0.0000 17.9098
#
#
#
# Elastic Compliance Matrix: (Units=1/GPa)
#
#
# Indices 1 2 3 4 5 6 
#
# 1 0.026684 -0.009515 -0.006169 0.000000 -0.015073 0.000000
# 2 -0.009515 0.033294 -0.006268 0.000000 0.001283 0.000000
# 3 -0.006169 -0.006268 0.011354 0.000000 -0.001152 0.000000
# 4 0.000000 0.000000 0.000000 0.038427 0.000000 -0.005913
# 5 -0.015073 0.001283 -0.001152 0.000000 0.058615 0.000000
# 6 0.000000 0.000000 0.000000 -0.005913 0.000000 0.056745
#
#
# Mechanical properties :
#
#
# Convention : Reuss Voigt Hill
#
# Bulk Modulus (GPa) = 36.45698 59.30132 47.87915
# Shear Modulus (GPa) = 17.97487 22.11426 20.04456
#
# Velocity S-wave (km/s) = 3.18514 3.53290 3.36352
# Velocity P-wave (km/s) = 5.83980 7.07897 6.48903
#
# Compressibility (1/GPa) = 0.02742959
#
# Stress axis : x y z
#
# Youngs Moduli (GPa) = 37.47566 30.03513 88.07248
#
# Poissons Ratio (x) = 0.28578 0.54331
# Poissons Ratio (y) = 0.35658 0.55201
# Poissons Ratio (z) = 0.23118 0.18825
#
# Static dielectric constant tensor:
#      x y z
#    x 3.178650 0.000000 0.353410 
#    y 0.000000 3.132060 0.000000 
#    z 0.353410 0.000000 3.436640 
# 
# 
# High freq. dielectric constant tensor:
#      x y z
#    x 1.653330 0.000000 0.031150 
#    y 0.000000 1.674610 0.000000 
#    z 0.031150 0.000000 1.687180 
# 
# From -- ./inp_files/287873.got.cif
#   From: 2010.06.25/outbox.cif.g09.slc.cpg/sg12_144_cif.got.tgz:287873.got - 2010.06.28 00:19:55.
