data_PCOD8085280
_publ_section_title
;
Structure prediction by ZEFSAII (Michael W. Deem and Ramdas Pophale) SiO2 
 PCOD8085280
Probable space group: C 2/M
;
_chemical_formula_sum "Si O2"
_cell_formula_units_Z 56
_cell_length_a 32.847632
_cell_length_b 8.851450
_cell_length_c 18.298814
_cell_angle_alpha 90.000000
_cell_angle_beta 142.766138
_cell_angle_gamma 90.000000
_cell_volume 3219.191994
_symmetry_space_group_name_H-M "C 2/M"
_symmetry_group_IT_number 12
_symmetry_cell_setting 'monoclinic'
loop_
_space_group_symop_operation_xyz
x,y,z
-x,y,-z
-x,-y,-z
x,-y,z
1/2+x,1/2+y,z
1/2-x,1/2+y,-z
1/2-x,1/2-y,-z
1/2+x,1/2-y,z
loop_
_atom_site_type_symbol
_atom_site_label
_atom_site_fract_x
_atom_site_fract_y
_atom_site_fract_z
Si Si1 0.448538 0.169871 0.322384
Si Si2 0.487190 0.178927 0.089921
Si Si3 0.745150 0.323534 0.414614
Si Si4 0.901625 0.821137 0.846061
Si Si5 0.507611 0.326794 0.751104
Si Si6 0.900485 0.330246 0.405078
Si Si7 0.357552 0.327149 0.480202
O O1 0.442902 0.280221 0.244754
O O2 0.523908 0.170913 0.458908
O O3 0.399891 0.225151 0.319343
O O4 0.428586 0.000000 0.270305
O O5 0.555606 0.259106 0.161153
O O6 0.474114 0.221123 0.154898
O O7 0.493879 0.000000 0.090225
O O8 0.424766 0.239344 0.953192
O O9 0.749413 0.500000 0.433201
O O10 0.750000 0.250000 0.500000
O O11 0.675563 0.277695 0.276693
O O12 0.805796 0.273768 0.450278
O O13 0.913125 0.000000 0.868988
O O14 0.521462 0.500000 0.791186
O O15 0.430512 0.299912 0.619044
O O16 0.871239 0.500000 0.368388
O O17 0.856129 0.221140 0.392813
O O18 0.335245 0.500000 0.453880
#
# Coordination Sequence:
#
# PCOD8085280 Si02
#       7
#     8   8   8   8   8   8   8
#     4   8  14  25  42  65  92 124 159 196 236 279
#     4  11  21  33  52  74  94 122 158 197 238 281
#     4  11  23  36  52  72  96 127 160 195 236 279
#     4  10  21  37  53  70  94 124 157 195 239 283
#     4  10  19  30  45  69 100 131 160 195 238 281
#     4   8  14  26  43  63  92 126 159 195 236 280
#     4  10  20  31  46  69  98 131 164 196 234 280
#
# _framework density 17.395669000000002
#
# number of rings (size 3 to 8) (size 9 to 14) (size 15 to 20)
#    0.000    2.286    0.000    5.571    0.000    8.000 
#    0.000    2.857    0.000    0.000    0.000    1.000 
#    0.000    0.000    0.000    0.000    0.000    0.000 
#
# Total GULP energy -347144.603782 kJ/mol
# GULP energy per Si atom -12398.021564 kJ/mol
# Density = 1.735608 g / cm^3
# Si number density = 17.395669 Si / 1000 Ang^3
#
#
#
# Elastic Constant Matrix: (Units=GPa)
#
#
# Indices 1 2 3 4 5 6 
#
# 1 111.4629 32.3965 40.5977 0.0000 -19.9512 0.0000
# 2 32.3965 75.5064 38.7796 0.0000 -5.8848 0.0000
# 3 40.5977 38.7796 50.5611 0.0000 -9.3665 0.0000
# 4 0.0000 0.0000 0.0000 22.5006 0.0000 -6.2411
# 5 -19.9512 -5.8848 -9.3665 0.0000 22.9637 0.0000
# 6 0.0000 0.0000 0.0000 -6.2411 0.0000 33.6264
#
#
#
# Elastic Compliance Matrix: (Units=1/GPa)
#
#
# Indices 1 2 3 4 5 6 
#
# 1 0.013987 -0.000618 -0.009232 0.000000 0.008228 0.000000
# 2 -0.000618 0.021917 -0.016629 0.000000 -0.001703 0.000000
# 3 -0.009232 -0.016629 0.040749 0.000000 0.004338 0.000000
# 4 0.000000 0.000000 0.000000 0.046855 0.000000 0.008696
# 5 0.008228 -0.001703 0.004338 0.000000 0.052028 0.000000
# 6 0.000000 0.000000 0.000000 0.008696 0.000000 0.031353
#
#
# Mechanical properties :
#
#
# Convention : Reuss Voigt Hill
#
# Bulk Modulus (GPa) = 42.20559 51.23089 46.71824
# Shear Modulus (GPa) = 18.67444 24.20191 21.43818
#
# Velocity S-wave (km/s) = 3.28000 3.73401 3.51434
# Velocity P-wave (km/s) = 6.21766 6.93576 6.58650
#
# Compressibility (1/GPa) = 0.02369354
#
# Stress axis : x y z
#
# Youngs Moduli (GPa) = 71.49726 45.62653 24.54057
#
# Poissons Ratio (x) = 0.02821 0.22656
# Poissons Ratio (y) = 0.04420 0.40809
# Poissons Ratio (z) = 0.66006 0.75873
#
# Static dielectric constant tensor:
#      x y z
#    x 3.630450 0.000000 -0.250670 
#    y 0.000000 3.345370 0.000000 
#    z -0.250670 0.000000 2.993710 
# 
# 
# High freq. dielectric constant tensor:
#      x y z
#    x 1.678060 0.000000 -0.022820 
#    y 0.000000 1.682780 0.000000 
#    z -0.022820 0.000000 1.629400 
# 
# From -- ./inp_files/295182.got.cif
#   From: 2010.06.25/outbox.cif.g09.slc.cpg/sg12_148_cif.got.tgz:295182.got - 2010.06.28 00:19:55.
