data_PCOD8085452
_publ_section_title
;
Structure prediction by ZEFSAII (Michael W. Deem and Ramdas Pophale) SiO2 
 PCOD8085452
Probable space group: C 2/M
;
_chemical_formula_sum "Si O2"
_cell_formula_units_Z 64
_cell_length_a 18.662779
_cell_length_b 9.322087
_cell_length_c 22.223171
_cell_angle_alpha 90.000000
_cell_angle_beta 113.389579
_cell_angle_gamma 90.000000
_cell_volume 3548.593466
_symmetry_space_group_name_H-M "C 2/M"
_symmetry_group_IT_number 12
_symmetry_cell_setting 'monoclinic'
loop_
_space_group_symop_operation_xyz
x,y,z
-x,y,-z
-x,-y,-z
x,-y,z
1/2+x,1/2+y,z
1/2-x,1/2+y,-z
1/2-x,1/2-y,-z
1/2+x,1/2-y,z
loop_
_atom_site_type_symbol
_atom_site_label
_atom_site_fract_x
_atom_site_fract_y
_atom_site_fract_z
Si Si1 0.921146 0.660486 0.512139
Si Si2 0.441481 0.665642 0.107898
Si Si3 0.878180 0.166168 0.860059
Si Si4 0.590863 0.162374 0.015677
Si Si5 0.000699 0.840191 0.367716
Si Si6 0.751636 0.830741 0.247294
Si Si7 0.097113 0.170426 0.772598
Si Si8 0.844534 0.158223 0.392826
O O1 0.894497 0.500000 0.517994
O O2 0.851172 0.734112 0.451231
O O3 0.000000 0.662855 0.500000
O O4 0.933780 0.740706 0.579904
O O5 0.417230 0.500000 0.091208
O O6 0.533735 0.683823 0.132578
O O7 0.415873 0.726486 0.164252
O O8 0.395373 0.759497 0.043389
O O9 0.863728 0.248908 0.918053
O O10 0.825165 0.238842 0.791532
O O11 0.856113 0.000000 0.861542
O O12 0.623807 0.000000 0.023979
O O13 0.500000 0.161721 0.000000
O O14 0.973008 0.773733 0.294264
O O15 0.925308 0.848375 0.384428
O O16 0.036030 0.000000 0.371970
O O17 0.818767 0.778573 0.223294
O O18 0.776917 0.793304 0.324009
O O19 0.734909 0.000000 0.234453
O O20 0.093305 0.000000 0.768146
O O21 0.825682 0.000000 0.412066
#
# Coordination Sequence:
#
# PCOD8085452 Si02
#       8
#     8   8   8   8   8   8   8   8
#     4   9  15  21  32  54  83 112 141 175 215 255
#     4   9  17  31  50  70  91 114 145 183 221 263
#     4  10  19  30  47  70  93 117 144 178 222 267
#     4   9  17  30  48  68  89 114 147 185 220 255
#     4   8  13  23  39  57  79 109 144 177 211 254
#     4   9  17  30  47  66  90 119 150 183 218 259
#     4   8  15  29  48  67  88 118 151 182 218 260
#     4   8  14  24  38  56  79 110 145 178 212 251
#
# _framework density 18.035315000000001
#
# number of rings (size 3 to 8) (size 9 to 14) (size 15 to 20)
#    0.000    3.250    0.000    2.625    0.000    4.000 
#    0.000    3.750    0.000    0.000    0.000    0.875 
#    0.000    0.000    0.000    0.000    0.000    0.000 
#
# Total GULP energy -396651.437166 kJ/mol
# GULP energy per Si atom -12395.357411 kJ/mol
# Density = 1.799427 g / cm^3
# Si number density = 18.035315 Si / 1000 Ang^3
#
#
#
# Elastic Constant Matrix: (Units=GPa)
#
#
# Indices 1 2 3 4 5 6 
#
# 1 11.3845 8.2426 1.3259 0.0000 4.5963 0.0000
# 2 8.2426 92.0681 31.3402 0.0000 17.6593 0.0000
# 3 1.3259 31.3402 55.7471 0.0000 23.0845 0.0000
# 4 0.0000 0.0000 0.0000 30.4093 0.0000 6.1536
# 5 4.5963 17.6593 23.0845 0.0000 21.5683 0.0000
# 6 0.0000 0.0000 0.0000 6.1536 0.0000 12.6186
#
#
#
# Elastic Compliance Matrix: (Units=1/GPa)
#
#
# Indices 1 2 3 4 5 6 
#
# 1 0.105191 -0.008574 0.015614 0.000000 -0.032108 0.000000
# 2 -0.008574 0.014468 -0.006791 0.000000 -0.002751 0.000000
# 3 0.015614 -0.006791 0.036746 0.000000 -0.037096 0.000000
# 4 0.000000 0.000000 0.000000 0.036485 0.000000 -0.017793
# 5 -0.032108 -0.002751 -0.037096 0.000000 0.095163 0.000000
# 6 0.000000 0.000000 0.000000 -0.017793 0.000000 0.087925
#
#
# Mechanical properties :
#
#
# Convention : Reuss Voigt Hill
#
# Bulk Modulus (GPa) = 6.37332 26.77968 16.57650
# Shear Modulus (GPa) = 11.68821 20.80530 16.24675
#
# Velocity S-wave (km/s) = 2.54849 3.40013 3.00464
# Velocity P-wave (km/s) = 3.49302 5.50411 4.60958
#
# Compressibility (1/GPa) = 0.15690405
#
# Stress axis : x y z
#
# Youngs Moduli (GPa) = 9.50649 69.11618 27.21398
#
# Poissons Ratio (x) = 0.59260 -0.42492
# Poissons Ratio (y) = 0.08151 0.18481
# Poissons Ratio (z) = -0.14844 0.46936
#
# Static dielectric constant tensor:
#      x y z
#    x 2.791770 0.000000 -0.006550 
#    y 0.000000 3.370680 0.000000 
#    z -0.006550 0.000000 3.645420 
# 
# 
# High freq. dielectric constant tensor:
#      x y z
#    x 1.634970 0.000000 0.008030 
#    y 0.000000 1.688440 0.000000 
#    z 0.008030 0.000000 1.713770 
# 
# From -- ./inp_files/323761.got.cif
#   From: 2010.06.25/outbox.cif.g09.slc.cpg/sg12_162_cif.got.tgz:323761.got - 2010.06.28 00:19:55.
