data_PCOD8085395
_publ_section_title
;
Structure prediction by ZEFSAII (Michael W. Deem and Ramdas Pophale) SiO2 
 PCOD8085395
Probable space group: C 2/M
;
_chemical_formula_sum "Si O2"
_cell_formula_units_Z 64
_cell_length_a 29.992179
_cell_length_b 8.692266
_cell_length_c 15.185207
_cell_angle_alpha 90.000000
_cell_angle_beta 100.641228
_cell_angle_gamma 90.000000
_cell_volume 3890.703163
_symmetry_space_group_name_H-M "C 2/M"
_symmetry_group_IT_number 12
_symmetry_cell_setting 'monoclinic'
loop_
_space_group_symop_operation_xyz
x,y,z
-x,y,-z
-x,-y,-z
x,-y,z
1/2+x,1/2+y,z
1/2-x,1/2+y,-z
1/2-x,1/2-y,-z
1/2+x,1/2-y,z
loop_
_atom_site_type_symbol
_atom_site_label
_atom_site_fract_x
_atom_site_fract_y
_atom_site_fract_z
Si Si1 0.563590 0.818427 0.580029
Si Si2 0.057363 0.317682 0.884085
Si Si3 0.708393 0.821740 0.884614
Si Si4 0.533886 0.818180 0.384774
Si Si5 0.809227 0.822972 0.937442
Si Si6 0.377832 0.818562 0.245298
Si Si7 0.461951 0.679976 0.798900
Si Si8 0.899396 0.680310 0.917272
O O1 0.563627 0.757134 0.479361
O O2 0.518095 0.772612 0.615436
O O3 0.605880 0.753219 0.653368
O O4 0.565002 0.000000 0.571928
O O5 0.056968 0.500000 0.880661
O O6 0.090579 0.250091 0.820929
O O7 0.006649 0.260895 0.852023
O O8 0.075971 0.261272 0.984974
O O9 0.760185 0.792024 0.873988
O O10 0.674839 0.777232 0.791671
O O11 0.701290 0.000000 0.909783
O O12 0.694669 0.716746 0.961348
O O13 0.550365 0.730281 0.304463
O O14 0.539131 0.000000 0.371376
O O15 0.845922 0.716904 0.902793
O O16 0.823681 0.000000 0.933338
O O17 0.385291 0.000000 0.249430
O O18 0.469699 0.500000 0.805554
O O19 0.419568 0.727514 0.842955
O O20 0.906468 0.500000 0.904937
#
# Coordination Sequence:
#
# PCOD8085395 Si02
#       8
#     8   8   8   8   8   8   8   8
#     4   8  14  25  49  74  92 117 158 203 231 266
#     4  10  19  33  51  68  92 128 168 198 224 271
#     4   9  17  30  48  70  97 130 162 192 234 286
#     4   9  16  30  49  70  92 122 161 197 233 274
#     4  10  19  30  46  70  99 126 158 201 241 277
#     4   9  14  26  49  74  95 123 162 196 226 273
#     4  12  24  34  46  68  98 129 160 198 241 280
#     4  11  22  36  52  67  89 128 171 202 234 279
#
# _framework density 16.449468
#
# number of rings (size 3 to 8) (size 9 to 14) (size 15 to 20)
#    0.000    2.250    2.500    3.000    0.000    3.000 
#    0.000    1.250    0.000    0.000    0.000    0.875 
#    0.000    0.000    0.000    0.000    0.000    0.000 
#
# Total GULP energy -396672.327517 kJ/mol
# GULP energy per Si atom -12396.010235 kJ/mol
# Density = 1.641203 g / cm^3
# Si number density = 16.449468 Si / 1000 Ang^3
#
#
#
# Elastic Constant Matrix: (Units=GPa)
#
#
# Indices 1 2 3 4 5 6 
#
# 1 83.5815 2.7800 54.0515 0.0000 11.3884 0.0000
# 2 2.7800 10.0573 15.0577 0.0000 -0.5014 0.0000
# 3 54.0515 15.0577 125.3663 0.0000 12.2914 0.0000
# 4 0.0000 0.0000 0.0000 11.0741 0.0000 -1.1083
# 5 11.3884 -0.5014 12.2914 0.0000 26.8260 0.0000
# 6 0.0000 0.0000 0.0000 -1.1083 0.0000 21.8100
#
#
#
# Elastic Compliance Matrix: (Units=1/GPa)
#
#
# Indices 1 2 3 4 5 6 
#
# 1 0.017382 0.006960 -0.007978 0.000000 -0.003594 0.000000
# 2 0.006960 0.126304 -0.018965 0.000000 0.008095 0.000000
# 3 -0.007978 -0.018965 0.014027 0.000000 -0.003395 0.000000
# 4 0.000000 0.000000 0.000000 0.090763 0.000000 0.004612
# 5 -0.003594 0.008095 -0.003395 0.000000 0.040510 0.000000
# 6 0.000000 0.000000 0.000000 0.004612 0.000000 0.046085
#
#
# Mechanical properties :
#
#
# Convention : Reuss Voigt Hill
#
# Bulk Modulus (GPa) = 8.49272 40.30927 24.40099
# Shear Modulus (GPa) = 12.06902 21.74973 16.90937
#
# Velocity S-wave (km/s) = 2.71163 3.64017 3.20966
# Velocity P-wave (km/s) = 3.87015 6.49815 5.34808
#
# Compressibility (1/GPa) = 0.11774797
#
# Stress axis : x y z
#
# Youngs Moduli (GPa) = 57.53193 7.91740 71.29148
#
# Poissons Ratio (x) = -0.05511 0.56875
# Poissons Ratio (y) = -0.40045 1.35204
# Poissons Ratio (z) = 0.45898 0.15015
#
# Static dielectric constant tensor:
#      x y z
#    x 3.114200 0.000000 0.236410 
#    y 0.000000 2.879070 0.000000 
#    z 0.236410 0.000000 3.356700 
# 
# 
# High freq. dielectric constant tensor:
#      x y z
#    x 1.616260 0.000000 0.014640 
#    y 0.000000 1.612690 0.000000 
#    z 0.014640 0.000000 1.624840 
# 
# From -- ./inp_files/248329.got.cif
#   From: 2010.06.25/outbox.cif.g09.slc.cpg/sg12_125_cif.got.tgz:248329.got - 2010.06.28 00:19:55.
