data_PCOD8085099
_publ_section_title
;
Structure prediction by ZEFSAII (Michael W. Deem and Ramdas Pophale) SiO2 
 PCOD8085099
Probable space group: C 2/M
;
_chemical_formula_sum "Si O2"
_cell_formula_units_Z 64
_cell_length_a 26.036680
_cell_length_b 14.402846
_cell_length_c 9.508437
_cell_angle_alpha 90.000000
_cell_angle_beta 112.594594
_cell_angle_gamma 90.000000
_cell_volume 3292.006718
_symmetry_space_group_name_H-M "C 2/M"
_symmetry_group_IT_number 12
_symmetry_cell_setting 'monoclinic'
loop_
_space_group_symop_operation_xyz
x,y,z
-x,y,-z
-x,-y,-z
x,-y,z
1/2+x,1/2+y,z
1/2-x,1/2+y,-z
1/2-x,1/2-y,-z
1/2+x,1/2-y,z
loop_
_atom_site_type_symbol
_atom_site_label
_atom_site_fract_x
_atom_site_fract_y
_atom_site_fract_z
Si Si1 0.095351 0.717250 0.530230
Si Si2 0.932769 0.102641 0.124023
Si Si3 0.974265 0.608314 0.757839
Si Si4 0.125063 0.392540 0.142454
Si Si5 0.951405 0.899494 0.612355
Si Si6 0.126674 0.900638 0.217410
Si Si7 0.313710 0.237334 0.602124
Si Si8 0.408827 0.798773 0.162009
O O1 0.061212 0.637835 0.414549
O O2 0.057738 0.812840 0.503791
O O3 0.152528 0.739144 0.509087
O O4 0.106702 0.672258 0.695217
O O5 0.899259 0.187391 0.157799
O O6 0.996880 0.115836 0.229920
O O7 0.911465 0.000000 0.150909
O O8 0.922997 0.114789 0.946537
O O9 0.990742 0.500000 0.764532
O O10 0.936585 0.626848 0.857112
O O11 0.029133 0.671004 0.818249
O O12 0.135778 0.500000 0.131746
O O13 0.172726 0.357177 0.299564
O O14 0.131463 0.344300 0.996434
O O15 0.898236 0.902726 0.654148
O O16 0.956418 0.000000 0.536799
O O17 0.170609 0.817542 0.268296
O O18 0.156553 0.000000 0.218469
O O19 0.250000 0.250000 0.500000
#
# Coordination Sequence:
#
# PCOD8085099 Si02
#       8
#     8   8   8   8   8   8   8   8
#     4  10  22  35  52  83 114 144 186 224 274 325
#     4  10  19  29  49  80 114 147 177 213 263 322
#     4  10  21  36  55  80 114 155 192 223 262 324
#     4  10  22  39  59  83 111 146 191 233 274 328
#     4   9  17  30  49  76 113 149 178 210 258 322
#     4   9  17  31  53  80 105 135 179 223 265 320
#     4  10  21  40  62  82 102 139 183 238 284 325
#     4  12  21  33  54  83 117 153 177 220 271 332
#
# _framework density 19.441030000000001
#
# number of rings (size 3 to 8) (size 9 to 14) (size 15 to 20)
#    0.000    2.000    2.500    1.500    0.000    6.000 
#    0.000    1.875    0.000    0.000    0.000    0.000 
#    0.000    0.000    0.000    0.000    0.000    0.000 
#
# Total GULP energy -396446.655979 kJ/mol
# GULP energy per Si atom -12388.957999 kJ/mol
# Density = 1.939678 g / cm^3
# Si number density = 19.441030 Si / 1000 Ang^3
#
#
#
# Elastic Constant Matrix: (Units=GPa)
#
#
# Indices 1 2 3 4 5 6 
#
# 1 54.0089 25.1408 41.5764 0.0000 11.8751 0.0000
# 2 25.1408 122.7300 46.0096 0.0000 0.8230 0.0000
# 3 41.5764 46.0096 116.6288 0.0000 -7.5969 0.0000
# 4 0.0000 0.0000 0.0000 10.5292 0.0000 4.4698
# 5 11.8751 0.8230 -7.5969 0.0000 27.9658 0.0000
# 6 0.0000 0.0000 0.0000 4.4698 0.0000 9.6803
#
#
#
# Elastic Compliance Matrix: (Units=1/GPa)
#
#
# Indices 1 2 3 4 5 6 
#
# 1 0.032245 -0.002080 -0.011770 0.000000 -0.016828 0.000000
# 2 -0.002080 0.009745 -0.003119 0.000000 -0.000251 0.000000
# 3 -0.011770 -0.003119 0.014590 0.000000 0.009053 0.000000
# 4 0.000000 0.000000 0.000000 0.118129 0.000000 -0.054545
# 5 -0.016828 -0.000251 0.009053 0.000000 0.045370 0.000000
# 6 0.000000 0.000000 0.000000 -0.054545 0.000000 0.128489
#
#
# Mechanical properties :
#
#
# Convention : Reuss Voigt Hill
#
# Bulk Modulus (GPa) = 44.16748 57.64682 50.90715
# Shear Modulus (GPa) = 12.81874 21.67778 17.24826
#
# Velocity S-wave (km/s) = 2.57060 3.34286 2.98184
# Velocity P-wave (km/s) = 5.61949 6.67953 6.17231
#
# Compressibility (1/GPa) = 0.02264109
#
# Stress axis : x y z
#
# Youngs Moduli (GPa) = 31.01295 102.61587 68.53802
#
# Poissons Ratio (x) = 0.21342 0.80672
# Poissons Ratio (y) = 0.06450 0.21379
# Poissons Ratio (z) = 0.36503 0.32009
#
# Static dielectric constant tensor:
#      x y z
#    x 2.963330 0.000000 -0.073660 
#    y 0.000000 4.123980 0.000000 
#    z -0.073660 0.000000 3.534850 
# 
# 
# High freq. dielectric constant tensor:
#      x y z
#    x 1.687420 0.000000 -0.011330 
#    y 0.000000 1.778390 0.000000 
#    z -0.011330 0.000000 1.761390 
# 
# From -- ./inp_files/111659.got.cif
#   From: 2010.06.25/outbox.cif.g09.slc.cpg/sg12_56_cif.got.tgz:111659.got - 2010.06.28 00:19:55.
