data_PCOD8085297
_publ_section_title
;
Structure prediction by ZEFSAII (Michael W. Deem and Ramdas Pophale) SiO2 
 PCOD8085297
Probable space group: C 2/M
;
_chemical_formula_sum "Si O2"
_cell_formula_units_Z 64
_cell_length_a 23.620062
_cell_length_b 9.019910
_cell_length_c 18.235016
_cell_angle_alpha 90.000000
_cell_angle_beta 90.918897
_cell_angle_gamma 90.000000
_cell_volume 3884.485738
_symmetry_space_group_name_H-M "C 2/M"
_symmetry_group_IT_number 12
_symmetry_cell_setting 'monoclinic'
loop_
_space_group_symop_operation_xyz
x,y,z
-x,y,-z
-x,-y,-z
x,-y,z
1/2+x,1/2+y,z
1/2-x,1/2+y,-z
1/2-x,1/2-y,-z
1/2+x,1/2-y,z
loop_
_atom_site_type_symbol
_atom_site_label
_atom_site_fract_x
_atom_site_fract_y
_atom_site_fract_z
Si Si1 0.064100 0.324580 0.008456
Si Si2 0.935790 0.828014 0.723482
Si Si3 0.129991 0.324144 0.868130
Si Si4 0.130514 0.826967 0.136621
Si Si5 0.444725 0.827513 0.265021
Si Si6 0.750036 0.825190 0.921202
Si Si7 0.943747 0.327422 0.426773
Si Si8 0.063944 0.173207 0.437379
O O1 0.068448 0.500000 0.013621
O O2 0.098412 0.262610 0.939462
O O3 0.088755 0.259031 0.082848
O O4 0.000000 0.270120 0.000000
O O5 0.887127 0.786080 0.780721
O O6 0.909442 0.791251 0.642222
O O7 0.993507 0.742515 0.742281
O O8 0.952032 0.000000 0.727751
O O9 0.126286 0.500000 0.865940
O O10 0.099230 0.258960 0.794962
O O11 0.195346 0.272346 0.873378
O O12 0.195147 0.776527 0.124322
O O13 0.123563 0.000000 0.120625
O O14 0.417009 0.802701 0.345467
O O15 0.453996 0.000000 0.249792
O O16 0.748069 0.000000 0.934865
O O17 0.750000 0.750000 0.000000
O O18 0.956979 0.500000 0.440367
O O19 0.905856 0.263232 0.494244
O O20 0.999958 0.229539 0.429807
O O21 0.066392 0.000000 0.455758
#
# Coordination Sequence:
#
# PCOD8085297 Si02
#       8
#     8   8   8   8   8   8   8   8
#     4  10  19  30  46  66  88 116 147 176 213 265
#     4   9  18  30  42  62  92 119 144 177 215 260
#     4   9  17  30  46  64  86 112 145 182 218 258
#     4  10  20  32  46  65  88 114 146 185 225 258
#     4   9  17  29  45  65  89 117 146 177 216 260
#     4  10  19  33  51  66  83 111 148 190 227 260
#     4   9  15  23  38  61  87 111 140 176 209 248
#     4   9  15  24  39  57  83 118 146 167 203 256
#
# _framework density 16.475797
#
# number of rings (size 3 to 8) (size 9 to 14) (size 15 to 20)
#    0.000    2.625    1.250    2.250    0.000    2.750 
#    0.000    1.250    0.000    0.000    0.000    0.875 
#    0.000    0.000    0.000    0.000    0.000    0.000 
#
# Total GULP energy -396513.630741 kJ/mol
# GULP energy per Si atom -12391.050961 kJ/mol
# Density = 1.643830 g / cm^3
# Si number density = 16.475797 Si / 1000 Ang^3
#
#
#
# Elastic Constant Matrix: (Units=GPa)
#
#
# Indices 1 2 3 4 5 6 
#
# 1 92.0475 21.5336 56.9175 0.0000 -13.7624 0.0000
# 2 21.5336 27.0072 30.2553 0.0000 -2.6307 0.0000
# 3 56.9175 30.2553 152.0570 0.0000 -8.2343 0.0000
# 4 0.0000 0.0000 0.0000 24.4343 0.0000 0.8948
# 5 -13.7624 -2.6307 -8.2343 0.0000 11.8287 0.0000
# 6 0.0000 0.0000 0.0000 0.8948 0.0000 6.8800
#
#
#
# Elastic Compliance Matrix: (Units=1/GPa)
#
#
# Indices 1 2 3 4 5 6 
#
# 1 0.017667 -0.007842 -0.004192 0.000000 0.015893 0.000000
# 2 -0.007842 0.051326 -0.007433 0.000000 -0.002884 0.000000
# 3 -0.004192 -0.007433 0.009634 0.000000 0.000176 0.000000
# 4 0.000000 0.000000 0.000000 0.041122 0.000000 -0.005348
# 5 0.015893 -0.002884 0.000176 0.000000 0.102512 0.000000
# 6 0.000000 0.000000 0.000000 -0.005348 0.000000 0.146044
#
#
# Mechanical properties :
#
#
# Convention : Reuss Voigt Hill
#
# Bulk Modulus (GPa) = 25.19362 54.28049 39.73706
# Shear Modulus (GPa) = 11.89146 19.45564 15.67355
#
# Velocity S-wave (km/s) = 2.68946 3.44010 3.08767
# Velocity P-wave (km/s) = 4.99687 6.98542 6.07309
#
# Compressibility (1/GPa) = 0.03969258
#
# Stress axis : x y z
#
# Youngs Moduli (GPa) = 56.60335 19.48321 103.79695
#
# Poissons Ratio (x) = 0.15279 0.43512
# Poissons Ratio (y) = 0.44388 0.77155
# Poissons Ratio (z) = 0.23728 0.14482
#
# Static dielectric constant tensor:
#      x y z
#    x 2.987780 0.000000 0.027190 
#    y 0.000000 3.017040 0.000000 
#    z 0.027190 0.000000 4.023070 
# 
# 
# High freq. dielectric constant tensor:
#      x y z
#    x 1.590340 0.000000 0.001760 
#    y 0.000000 1.624870 0.000000 
#    z 0.001760 0.000000 1.653910 
# 
# From -- ./inp_files/323369.got.cif
#   From: 2010.06.25/outbox.cif.g09.slc.cpg/sg12_162_cif.got.tgz:323369.got - 2010.06.28 00:19:55.
