data_PCOD8085825
_publ_section_title
;
Structure prediction by ZEFSAII (Michael W. Deem and Ramdas Pophale) SiO2 
 PCOD8085825
Probable space group: C 2/M
;
_chemical_formula_sum "Si O2"
_cell_formula_units_Z 64
_cell_length_a 24.137483
_cell_length_b 8.844897
_cell_length_c 21.222019
_cell_angle_alpha 90.000000
_cell_angle_beta 51.351956
_cell_angle_gamma 90.000000
_cell_volume 3538.513509
_symmetry_space_group_name_H-M "C 2/M"
_symmetry_group_IT_number 12
_symmetry_cell_setting 'monoclinic'
loop_
_space_group_symop_operation_xyz
x,y,z
-x,y,-z
-x,-y,-z
x,-y,z
1/2+x,1/2+y,z
1/2-x,1/2+y,-z
1/2-x,1/2-y,-z
1/2+x,1/2-y,z
loop_
_atom_site_type_symbol
_atom_site_label
_atom_site_fract_x
_atom_site_fract_y
_atom_site_fract_z
Si Si1 0.856253 0.176908 0.439308
Si Si2 0.357060 0.823560 0.841331
Si Si3 0.746149 0.322523 0.599411
Si Si4 0.483772 0.827150 0.293913
Si Si5 0.276300 0.824215 0.123305
Si Si6 0.971912 0.676060 0.158417
Si Si7 0.615273 0.322127 0.045371
Si Si8 0.316247 0.174072 0.236322
O O1 0.821435 0.251567 0.525721
O O2 0.814335 0.231899 0.406561
O O3 0.938101 0.227022 0.374669
O O4 0.852487 0.000000 0.451167
O O5 0.432961 0.797713 0.754172
O O6 0.301807 0.725956 0.841271
O O7 0.358264 0.767396 0.912164
O O8 0.336030 0.000000 0.856687
O O9 0.754640 0.500000 0.592366
O O10 0.726737 0.271968 0.683165
O O11 0.463370 0.780555 0.237521
O O12 0.463785 0.000000 0.320663
O O13 0.282289 0.793878 0.193087
O O14 0.288616 0.000000 0.098246
O O15 0.334229 0.721947 0.047802
O O16 0.991937 0.500000 0.136591
O O17 0.899310 0.719571 0.174822
O O18 0.035352 0.774195 0.083473
O O19 0.619251 0.500000 0.055418
O O20 0.310013 0.000000 0.261239
#
# Coordination Sequence:
#
# PCOD8085825 Si02
#       8
#     8   8   8   8   8   8   8   8
#     4  10  19  30  50  80 111 141 174 213 259 311
#     4  10  21  38  58  80 106 138 177 224 272 316
#     4  10  20  32  50  78 111 144 176 214 257 310
#     4   9  17  31  54  79 106 137 172 216 265 314
#     4  11  23  38  56  78 104 141 183 221 266 319
#     4   9  18  34  54  77 107 142 176 215 265 320
#     4  11  22  36  56  80 107 137 175 227 272 314
#     4  10  21  37  56  76 107 146 180 216 262 320
#
# _framework density 18.086690000000001
#
# number of rings (size 3 to 8) (size 9 to 14) (size 15 to 20)
#    0.000    2.000    1.250    3.750    0.000    5.500 
#    0.000    2.500    0.000    0.750    0.000    5.250 
#    0.000    0.000    0.000    0.000    0.000    0.000 
#
# Total GULP energy -396910.531185 kJ/mol
# GULP energy per Si atom -12403.454100 kJ/mol
# Density = 1.804552 g / cm^3
# Si number density = 18.086690 Si / 1000 Ang^3
#
#
#
# Elastic Constant Matrix: (Units=GPa)
#
#
# Indices 1 2 3 4 5 6 
#
# 1 48.1995 25.8280 38.7289 0.0053 5.2408 -0.0033
# 2 25.8280 65.6986 44.2518 -0.0044 -5.2609 0.0044
# 3 38.7289 44.2518 104.8405 -0.0002 -14.6307 0.0020
# 4 0.0053 -0.0044 -0.0002 35.8394 -0.0001 -4.6478
# 5 5.2408 -5.2609 -14.6307 -0.0001 17.8316 -0.0011
# 6 -0.0033 0.0044 0.0020 -4.6478 -0.0011 26.8322
#
#
#
# Elastic Compliance Matrix: (Units=1/GPa)
#
#
# Indices 1 2 3 4 5 6 
#
# 1 0.039932 -0.007537 -0.015266 -0.000006 -0.026486 0.000005
# 2 -0.007537 0.022714 -0.006278 0.000003 0.003766 -0.000003
# 3 -0.015266 -0.006278 0.020548 0.000001 0.019494 -0.000001
# 4 -0.000006 0.000003 0.000001 0.028543 0.000005 0.004944
# 5 -0.026486 0.003766 0.019494 0.000005 0.080971 -0.000001
# 6 0.000005 -0.000003 -0.000001 0.004944 -0.000001 0.038125
#
#
# Mechanical properties :
#
#
# Convention : Reuss Voigt Hill
#
# Bulk Modulus (GPa) = 39.94756 48.48401 44.21579
# Shear Modulus (GPa) = 16.81586 23.42930 20.12258
#
# Velocity S-wave (km/s) = 3.05247 3.60306 3.33913
# Velocity P-wave (km/s) = 5.87861 6.64635 6.27424
#
# Compressibility (1/GPa) = 0.02503282
#
# Stress axis : x y z
#
# Youngs Moduli (GPa) = 25.04248 44.02622 48.66668
#
# Poissons Ratio (x) = 0.33181 0.74296
# Poissons Ratio (y) = 0.18874 0.30551
# Poissons Ratio (z) = 0.38231 0.27638
#
# Static dielectric constant tensor:
#      x y z
#    x 3.247380 -0.000010 -0.196370 
#    y -0.000010 3.324980 0.000010 
#    z -0.196370 0.000010 3.275180 
# 
# 
# High freq. dielectric constant tensor:
#      x y z
#    x 1.677350 0.000000 -0.018890 
#    y 0.000000 1.707310 0.000000 
#    z -0.018890 0.000000 1.699370 
# 
# From -- ./inp_files/295636.got.cif
#   From: 2010.06.25/outbox.cif.g09.slc.cpg/sg12_148_cif.got.tgz:295636.got - 2010.06.28 00:19:55.
