data_PCOD8085027
_publ_section_title
;
Structure prediction by ZEFSAII (Michael W. Deem and Ramdas Pophale) SiO2 
 PCOD8085027
Probable space group: C 2/M
;
_chemical_formula_sum "Si O2"
_cell_formula_units_Z 48
_cell_length_a 23.998958
_cell_length_b 9.194352
_cell_length_c 14.925945
_cell_angle_alpha 90.000000
_cell_angle_beta 63.208838
_cell_angle_gamma 90.000000
_cell_volume 2939.944721
_symmetry_space_group_name_H-M "C 2/M"
_symmetry_group_IT_number 12
_symmetry_cell_setting 'monoclinic'
loop_
_space_group_symop_operation_xyz
x,y,z
-x,y,-z
-x,-y,-z
x,-y,z
1/2+x,1/2+y,z
1/2-x,1/2+y,-z
1/2-x,1/2-y,-z
1/2+x,1/2-y,z
loop_
_atom_site_type_symbol
_atom_site_label
_atom_site_fract_x
_atom_site_fract_y
_atom_site_fract_z
Si Si1 0.649802 0.831766 0.218876
Si Si2 0.839477 0.169904 0.485242
Si Si3 0.297732 0.830620 0.346992
Si Si4 0.314210 0.667905 0.966713
Si Si5 0.288755 0.665739 0.179086
Si Si6 0.427088 0.831918 0.554434
O O1 0.635988 0.739924 0.137823
O O2 0.717498 0.790858 0.209042
O O3 0.597946 0.789057 0.329231
O O4 0.646691 0.000000 0.194575
O O5 0.774941 0.202489 0.582936
O O6 0.840040 0.248892 0.389031
O O7 0.895835 0.232451 0.502283
O O8 0.849889 0.000000 0.462011
O O9 0.315493 0.770479 0.236295
O O10 0.313377 0.000000 0.340517
O O11 0.305405 0.500000 0.947798
O O12 0.250000 0.750000 0.000000
O O13 0.332209 0.684307 0.058816
O O14 0.290901 0.500000 0.212422
O O15 0.500000 0.800446 0.500000
O O16 0.411201 0.000000 0.545149
#
# Coordination Sequence:
#
# PCOD8085027 Si02
#       6
#     8   8   8   8   8   8
#     4   9  17  29  44  64  92 124 156 193 232 273
#     4  10  20  32  46  67  94 124 157 195 235 277
#     4  10  19  29  46  69  93 124 156 189 233 283
#     4   9  17  27  41  63  91 123 154 187 230 279
#     4   9  16  27  43  65  93 123 152 187 230 278
#     4  10  20  34  51  69  93 127 164 199 234 274
#
# _framework density 16.326837999999999
#
# number of rings (size 3 to 8) (size 9 to 14) (size 15 to 20)
#    0.000    2.500    1.667    2.500    0.000    5.667 
#    0.000    0.000    0.000    0.000    0.000    1.167 
#    0.000    9.333    0.000    0.000    0.000    0.000 
#
# Total GULP energy -297558.067346 kJ/mol
# GULP energy per Si atom -12398.252806 kJ/mol
# Density = 1.628968 g / cm^3
# Si number density = 16.326838 Si / 1000 Ang^3
#
#
#
# Elastic Constant Matrix: (Units=GPa)
#
#
# Indices 1 2 3 4 5 6 
#
# 1 54.3397 44.0884 47.8246 0.0000 8.1270 0.0000
# 2 44.0884 102.2406 67.2740 0.0000 19.4114 0.0000
# 3 47.8246 67.2740 133.8035 0.0000 18.0027 0.0000
# 4 0.0000 0.0000 0.0000 32.7975 0.0000 8.9559
# 5 8.1270 19.4114 18.0027 0.0000 21.0839 0.0000
# 6 0.0000 0.0000 0.0000 8.9559 0.0000 21.7366
#
#
#
# Elastic Compliance Matrix: (Units=1/GPa)
#
#
# Indices 1 2 3 4 5 6 
#
# 1 0.031981 -0.009749 -0.006867 0.000000 0.002512 0.000000
# 2 -0.009749 0.018930 -0.004738 0.000000 -0.009625 0.000000
# 3 -0.006867 -0.004738 0.012843 0.000000 -0.003957 0.000000
# 4 0.000000 0.000000 0.000000 0.034355 0.000000 -0.014155
# 5 0.002512 -0.009625 -0.003957 0.000000 0.058701 0.000000
# 6 0.000000 0.000000 0.000000 -0.014155 0.000000 0.051838
#
#
# Mechanical properties :
#
#
# Convention : Reuss Voigt Hill
#
# Bulk Modulus (GPa) = 47.51774 67.63978 57.57876
# Shear Modulus (GPa) = 19.35206 23.87005 21.61106
#
# Velocity S-wave (km/s) = 3.44654 3.82778 3.64215
# Velocity P-wave (km/s) = 6.70861 7.81373 7.28216
#
# Compressibility (1/GPa) = 0.02104477
#
# Stress axis : x y z
#
# Youngs Moduli (GPa) = 31.26886 52.82641 77.86600
#
# Poissons Ratio (x) = 0.51502 0.53470
# Poissons Ratio (y) = 0.30485 0.36893
# Poissons Ratio (z) = 0.21472 0.25029
#
# Static dielectric constant tensor:
#      x y z
#    x 2.623620 0.000000 0.162110 
#    y 0.000000 3.185660 0.000000 
#    z 0.162110 0.000000 3.481960 
# 
# 
# High freq. dielectric constant tensor:
#      x y z
#    x 1.570240 0.000000 0.023820 
#    y 0.000000 1.638860 0.000000 
#    z 0.023820 0.000000 1.635150 
# 
# From -- ./inp_files/229967.got.cif
#   From: 2010.06.25/outbox.cif.g09.slc.cpg/sg12_115_cif.got.tgz:229967.got - 2010.06.28 00:19:55.
