data_PCOD8085102
_publ_section_title
;
Structure prediction by ZEFSAII (Michael W. Deem and Ramdas Pophale) SiO2 
 PCOD8085102
Probable space group: C 2/M
;
_chemical_formula_sum "Si O2"
_cell_formula_units_Z 48
_cell_length_a 18.853497
_cell_length_b 30.115329
_cell_length_c 9.299816
_cell_angle_alpha 90.000000
_cell_angle_beta 30.977415
_cell_angle_gamma 90.000000
_cell_volume 2717.741730
_symmetry_space_group_name_H-M "C 2/M"
_symmetry_group_IT_number 12
_symmetry_cell_setting 'monoclinic'
loop_
_space_group_symop_operation_xyz
x,y,z
-x,y,-z
-x,-y,-z
x,-y,z
1/2+x,1/2+y,z
1/2-x,1/2+y,-z
1/2-x,1/2-y,-z
1/2+x,1/2-y,z
loop_
_atom_site_type_symbol
_atom_site_label
_atom_site_fract_x
_atom_site_fract_y
_atom_site_fract_z
Si Si1 0.353520 0.303320 0.211638
Si Si2 0.639248 0.203353 0.833753
Si Si3 0.642678 0.866057 0.068317
Si Si4 0.338974 0.950765 0.129897
Si Si5 0.181631 0.630341 0.326698
Si Si6 0.666045 0.048855 0.539037
O O1 0.381734 0.255049 0.091286
O O2 0.266749 0.300977 0.506777
O O3 0.273111 0.331324 0.234369
O O4 0.500000 0.325036 0.000000
O O5 0.500000 0.184114 0.000000
O O6 0.680472 0.176434 0.905520
O O7 0.478312 0.865015 0.360346
O O8 0.709446 0.864835 0.109398
O O9 0.710848 0.910789 0.884472
O O10 0.283986 0.939833 0.386016
O O11 0.284820 0.000000 0.176694
O O12 0.502489 0.950928 0.832719
O O13 0.227630 0.583122 0.315260
O O14 0.718205 0.000000 0.401570
#
# Coordination Sequence:
#
# PCOD8085102 Si02
#       6
#     8   8   8   8   8   8
#     4  10  21  35  54  75  97 130 173 216 250 294
#     4  10  19  35  56  74  95 132 175 211 251 299
#     4  10  19  29  50  75 103 137 162 206 257 301
#     4   8  14  24  41  70 101 130 165 204 250 294
#     4  10  19  31  47  75 106 132 167 206 254 302
#     4   8  14  25  44  68  98 133 167 205 243 291
#
# _framework density 17.661722000000001
#
# number of rings (size 3 to 8) (size 9 to 14) (size 15 to 20)
#    0.000    2.667    1.667    2.000    2.333    1.333 
#    0.000    4.167    0.000    0.500    0.000    0.000 
#    0.000    5.333    0.000    0.000    0.000    0.000 
#
# Total GULP energy -297398.670024 kJ/mol
# GULP energy per Si atom -12391.611251 kJ/mol
# Density = 1.762152 g / cm^3
# Si number density = 17.661722 Si / 1000 Ang^3
#
#
#
# Elastic Constant Matrix: (Units=GPa)
#
#
# Indices 1 2 3 4 5 6 
#
# 1 116.3910 76.7013 29.2613 0.0000 25.6504 0.0000
# 2 76.7013 121.7682 24.7249 0.0000 24.5311 0.0000
# 3 29.2613 24.7249 40.9231 0.0000 7.0291 0.0000
# 4 0.0000 0.0000 0.0000 16.0264 0.0000 2.9949
# 5 25.6504 24.5311 7.0291 0.0000 25.2423 0.0000
# 6 0.0000 0.0000 0.0000 2.9949 0.0000 12.8706
#
#
#
# Elastic Compliance Matrix: (Units=1/GPa)
#
#
# Indices 1 2 3 4 5 6 
#
# 1 0.017104 -0.007935 -0.006065 0.000000 -0.007981 0.000000
# 2 -0.007935 0.014828 -0.002305 0.000000 -0.005705 0.000000
# 3 -0.006065 -0.002305 0.030165 0.000000 0.000004 0.000000
# 4 0.000000 0.000000 0.000000 0.065234 0.000000 -0.015180
# 5 -0.007981 -0.005705 0.000004 0.000000 0.053269 0.000000
# 6 0.000000 0.000000 0.000000 -0.015180 0.000000 0.081229
#
#
# Mechanical properties :
#
#
# Convention : Reuss Voigt Hill
#
# Bulk Modulus (GPa) = 33.91346 60.05082 46.98214
# Shear Modulus (GPa) = 16.43287 20.72084 18.57686
#
# Velocity S-wave (km/s) = 3.05359 3.42893 3.24669
# Velocity P-wave (km/s) = 5.62814 7.05344 6.38071
#
# Compressibility (1/GPa) = 0.02948682
#
# Stress axis : x y z
#
# Youngs Moduli (GPa) = 58.46504 67.44144 33.15085
#
# Poissons Ratio (x) = 0.53512 0.20107
# Poissons Ratio (y) = 0.46389 0.07642
# Poissons Ratio (z) = 0.35461 0.15547
#
# Static dielectric constant tensor:
#      x y z
#    x 3.185960 0.000000 0.217540 
#    y 0.000000 3.664440 0.000000 
#    z 0.217540 0.000000 2.972220 
# 
# 
# High freq. dielectric constant tensor:
#      x y z
#    x 1.662870 0.000000 0.023330 
#    y 0.000000 1.696000 0.000000 
#    z 0.023330 0.000000 1.641690 
# 
# From -- ./inp_files/68070.got.cif
#   From: 2010.06.25/outbox.cif.g09.slc.cpg/sg12_35_cif.got.tgz:68070.got - 2010.06.28 00:19:55.
