data_PCOD8085968
_publ_section_title
;
Structure prediction by ZEFSAII (Michael W. Deem and Ramdas Pophale) SiO2 
 PCOD8085968
Probable space group: C 2/M
;
_chemical_formula_sum "Si O2"
_cell_formula_units_Z 64
_cell_length_a 22.442312
_cell_length_b 9.174007
_cell_length_c 20.966877
_cell_angle_alpha 90.000000
_cell_angle_beta 122.290624
_cell_angle_gamma 90.000000
_cell_volume 3649.190953
_symmetry_space_group_name_H-M "C 2/M"
_symmetry_group_IT_number 12
_symmetry_cell_setting 'monoclinic'
loop_
_space_group_symop_operation_xyz
x,y,z
-x,y,-z
-x,-y,-z
x,-y,z
1/2+x,1/2+y,z
1/2-x,1/2+y,-z
1/2-x,1/2-y,-z
1/2+x,1/2-y,z
loop_
_atom_site_type_symbol
_atom_site_label
_atom_site_fract_x
_atom_site_fract_y
_atom_site_fract_z
Si Si1 0.155049 0.257993 0.822226
Si Si2 0.589150 0.836519 0.912432
Si Si3 0.488605 0.659066 0.299210
Si Si4 0.189837 0.666818 0.077784
Si Si5 0.547188 0.326205 0.587005
Si Si6 0.183321 0.663734 0.698678
Si Si7 0.954863 0.175388 0.797726
Si Si8 0.324496 0.174822 0.788427
O O1 0.126839 0.352334 0.865224
O O2 0.093571 0.143662 0.769128
O O3 0.226820 0.182000 0.885861
O O4 0.169394 0.351405 0.766687
O O5 0.521720 0.730796 0.876314
O O6 0.565090 0.000000 0.917816
O O7 0.643901 0.763281 0.994386
O O8 0.521050 0.500000 0.325097
O O9 0.492913 0.732684 0.371706
O O10 0.533944 0.734408 0.268913
O O11 0.170192 0.500000 0.064974
O O12 0.166118 0.728308 0.133039
O O13 0.500000 0.283657 0.500000
O O14 0.561201 0.500000 0.599391
O O15 0.620449 0.240882 0.623946
O O16 0.194064 0.500000 0.678397
O O17 0.250569 0.763257 0.721060
O O18 0.884868 0.251445 0.781720
O O19 0.950439 0.000000 0.799802
O O20 0.325192 0.000000 0.782033
#
# Coordination Sequence:
#
# PCOD8085968 Si02
#       8
#     8   8   8   8   8   8   8   8
#     4   9  16  28  46  69  95 125 158 196 237 285
#     4  10  19  31  46  67  94 124 159 199 245 293
#     4   8  15  28  48  72  97 124 155 191 231 277
#     4   9  18  30  46  67  92 124 160 201 248 292
#     4   9  17  31  53  80 107 132 155 181 220 275
#     4  10  19  31  49  75 103 128 156 192 234 279
#     4  10  20  34  50  68  91 123 162 202 242 280
#     4  10  20  35  52  68  89 123 166 206 241 279
#
# _framework density 17.538133999999999
#
# number of rings (size 3 to 8) (size 9 to 14) (size 15 to 20)
#    0.000    2.625    0.000    2.250    0.000    4.250 
#    0.000    6.875    0.000    0.750    0.000    0.000 
#    0.000    0.000    0.000    0.000    0.000    0.000 
#
# Total GULP energy -396427.796982 kJ/mol
# GULP energy per Si atom -12388.368656 kJ/mol
# Density = 1.749822 g / cm^3
# Si number density = 17.538134 Si / 1000 Ang^3
#
#
#
# Elastic Constant Matrix: (Units=GPa)
#
#
# Indices 1 2 3 4 5 6 
#
# 1 129.1590 41.7390 60.4414 0.0000 5.7903 0.0000
# 2 41.7390 73.8339 37.7614 0.0000 2.5325 0.0000
# 3 60.4414 37.7614 128.6895 0.0000 8.8578 0.0000
# 4 0.0000 0.0000 0.0000 18.5811 0.0000 4.2619
# 5 5.7903 2.5325 8.8578 0.0000 15.3195 0.0000
# 6 0.0000 0.0000 0.0000 4.2619 0.0000 25.7914
#
#
#
# Elastic Compliance Matrix: (Units=1/GPa)
#
#
# Indices 1 2 3 4 5 6 
#
# 1 0.010940 -0.004186 -0.003825 0.000000 -0.001231 0.000000
# 2 -0.004186 0.017537 -0.003217 0.000000 0.000543 0.000000
# 3 -0.003825 -0.003217 0.010805 0.000000 -0.004270 0.000000
# 4 0.000000 0.000000 0.000000 0.055938 0.000000 -0.009244
# 5 -0.001231 0.000543 -0.004270 0.000000 0.068121 0.000000
# 6 0.000000 0.000000 0.000000 -0.009244 0.000000 0.040300
#
#
# Mechanical properties :
#
#
# Convention : Reuss Voigt Hill
#
# Bulk Modulus (GPa) = 59.43357 67.95175 63.69266
# Shear Modulus (GPa) = 21.57889 24.72110 23.14999
#
# Velocity S-wave (km/s) = 3.51151 3.75849 3.63710
# Velocity P-wave (km/s) = 7.09948 7.59370 7.35075
#
# Compressibility (1/GPa) = 0.01682551
#
# Stress axis : x y z
#
# Youngs Moduli (GPa) = 91.40372 57.02180 92.54801
#
# Poissons Ratio (x) = 0.23870 0.35402
# Poissons Ratio (y) = 0.38263 0.29775
# Poissons Ratio (z) = 0.34965 0.18345
#
# Static dielectric constant tensor:
#      x y z
#    x 3.238740 0.000000 -0.104030 
#    y 0.000000 3.043420 0.000000 
#    z -0.104030 0.000000 3.322490 
# 
# 
# High freq. dielectric constant tensor:
#      x y z
#    x 1.670960 0.000000 -0.001910 
#    y 0.000000 1.662650 0.000000 
#    z -0.001910 0.000000 1.664550 
# 
# From -- ./inp_files/320078.got.cif
#   From: 2010.06.25/outbox.cif.g09.slc.cpg/sg12_161_cif.got.tgz:320078.got - 2010.06.28 00:19:55.
