data_PCOD8085172
_publ_section_title
;
Structure prediction by ZEFSAII (Michael W. Deem and Ramdas Pophale) SiO2 
 PCOD8085172
Probable space group: C 2/M
;
_chemical_formula_sum "Si O2"
_cell_formula_units_Z 56
_cell_length_a 9.562947
_cell_length_b 25.550201
_cell_length_c 14.789406
_cell_angle_alpha 90.000000
_cell_angle_beta 71.783339
_cell_angle_gamma 90.000000
_cell_volume 3432.464765
_symmetry_space_group_name_H-M "C 2/M"
_symmetry_group_IT_number 12
_symmetry_cell_setting 'monoclinic'
loop_
_space_group_symop_operation_xyz
x,y,z
-x,y,-z
-x,-y,-z
x,-y,z
1/2+x,1/2+y,z
1/2-x,1/2+y,-z
1/2-x,1/2-y,-z
1/2+x,1/2-y,z
loop_
_atom_site_type_symbol
_atom_site_label
_atom_site_fract_x
_atom_site_fract_y
_atom_site_fract_z
Si Si1 0.101277 0.835329 0.285681
Si Si2 0.580264 0.792617 0.109650
Si Si3 0.427110 0.211188 0.688511
Si Si4 0.311976 0.858395 0.403131
Si Si5 0.772469 0.307029 0.090784
Si Si6 0.223208 0.138804 0.625308
Si Si7 0.541552 0.058048 0.387722
O O1 0.078985 0.773450 0.304358
O O2 0.188343 0.858918 0.352117
O O3 0.189658 0.847814 0.174259
O O4 0.945461 0.864007 0.310484
O O5 0.595880 0.815225 0.207499
O O6 0.653239 0.736047 0.088560
O O7 0.408875 0.783750 0.120750
O O8 0.661907 0.829904 0.017667
O O9 0.586419 0.193596 0.619140
O O10 0.299072 0.191403 0.648191
O O11 0.232086 0.860702 0.515413
O O12 0.414334 0.909031 0.363641
O O13 0.303133 0.088162 0.651978
O O14 0.500000 0.054077 0.500000
O O15 0.554596 0.000000 0.342062
#
# Coordination Sequence:
#
# PCOD8085172 Si02
#       7
#     8   8   8   8   8   8   8
#     4  11  20  29  42  67  99 130 151 186 225 264
#     4   9  17  30  44  61  83 122 165 200 226 256
#     4  10  19  30  44  63  93 135 164 183 214 262
#     4  10  19  32  45  67  92 123 159 191 218 268
#     4   9  18  29  44  61  86 122 162 199 227 256
#     4  10  21  30  45  67  95 122 158 189 220 270
#     4   8  16  34  54  66  82 114 154 197 240 276
#
# _framework density 16.314807999999999
#
# number of rings (size 3 to 8) (size 9 to 14) (size 15 to 20)
#    0.000    2.429    1.429    2.571    6.000    3.429 
#    0.000    0.714    0.000    3.429    0.000    0.000 
#    0.000   18.286    0.000    0.000    0.000    0.000 
#
# Total GULP energy -346975.564482 kJ/mol
# GULP energy per Si atom -12391.984446 kJ/mol
# Density = 1.627768 g / cm^3
# Si number density = 16.314808 Si / 1000 Ang^3
#
#
#
# Elastic Constant Matrix: (Units=GPa)
#
#
# Indices 1 2 3 4 5 6 
#
# 1 118.7151 27.7381 38.5836 0.0000 -13.2231 0.0000
# 2 27.7381 68.5784 16.8156 0.0000 -3.2712 0.0000
# 3 38.5836 16.8156 93.5969 0.0000 -8.0774 0.0000
# 4 0.0000 0.0000 0.0000 5.7123 0.0000 -1.7767
# 5 -13.2231 -3.2712 -8.0774 0.0000 25.6835 0.0000
# 6 0.0000 0.0000 0.0000 -1.7767 0.0000 5.5802
#
#
#
# Elastic Compliance Matrix: (Units=1/GPa)
#
#
# Indices 1 2 3 4 5 6 
#
# 1 0.010784 -0.003311 -0.003503 0.000000 0.004029 0.000000
# 2 -0.003311 0.016301 -0.001574 0.000000 -0.000124 0.000000
# 3 -0.003503 -0.001574 0.012580 0.000000 0.001952 0.000000
# 4 0.000000 0.000000 0.000000 0.194302 0.000000 0.061865
# 5 0.004029 -0.000124 0.001952 0.000000 0.041608 0.000000
# 6 0.000000 0.000000 0.000000 0.061865 0.000000 0.198904
#
#
# Mechanical properties :
#
#
# Convention : Reuss Voigt Hill
#
# Bulk Modulus (GPa) = 43.69067 49.68498 46.68783
# Shear Modulus (GPa) = 10.02233 20.57873 15.30053
#
# Velocity S-wave (km/s) = 2.48121 3.55541 3.06572
# Velocity P-wave (km/s) = 5.92001 6.88292 6.41954
#
# Compressibility (1/GPa) = 0.02288818
#
# Stress axis : x y z
#
# Youngs Moduli (GPa) = 92.72615 61.34531 79.49396
#
# Poissons Ratio (x) = 0.20310 0.27848
# Poissons Ratio (y) = 0.30700 0.12516
# Poissons Ratio (z) = 0.32484 0.09659
#
# Static dielectric constant tensor:
#      x y z
#    x 3.180090 0.000000 -0.047670 
#    y 0.000000 2.858000 0.000000 
#    z -0.047670 0.000000 3.519170 
# 
# 
# High freq. dielectric constant tensor:
#      x y z
#    x 1.643960 0.000000 -0.002630 
#    y 0.000000 1.562600 0.000000 
#    z -0.002630 0.000000 1.633560 
# 
# From -- ./inp_files/199302.got.cif
#   From: 2010.06.25/outbox.cif.g09.slc.cpg/sg12_100_cif.got.tgz:199302.got - 2010.06.28 00:19:55.
