data_PCOD8085658
_publ_section_title
;
Structure prediction by ZEFSAII (Michael W. Deem and Ramdas Pophale) SiO2 
 PCOD8085658
Probable space group: C 2/M
;
_chemical_formula_sum "Si O2"
_cell_formula_units_Z 64
_cell_length_a 20.398961
_cell_length_b 9.215200
_cell_length_c 25.252545
_cell_angle_alpha 90.000000
_cell_angle_beta 130.653946
_cell_angle_gamma 90.000000
_cell_volume 3601.340193
_symmetry_space_group_name_H-M "C 2/M"
_symmetry_group_IT_number 12
_symmetry_cell_setting 'monoclinic'
loop_
_space_group_symop_operation_xyz
x,y,z
-x,y,-z
-x,-y,-z
x,-y,z
1/2+x,1/2+y,z
1/2-x,1/2+y,-z
1/2-x,1/2-y,-z
1/2+x,1/2-y,z
loop_
_atom_site_type_symbol
_atom_site_label
_atom_site_fract_x
_atom_site_fract_y
_atom_site_fract_z
Si Si1 0.766664 0.169408 0.591063
Si Si2 0.042518 0.830028 0.910417
Si Si3 0.626246 0.830826 0.164169
Si Si4 0.198930 0.835717 0.930434
Si Si5 0.960473 0.170525 0.424940
Si Si6 0.350064 0.830713 0.942792
Si Si7 0.233336 0.170146 0.677422
Si Si8 0.375211 0.331957 0.549504
O O1 0.781000 0.248620 0.654288
O O2 0.682206 0.233033 0.518604
O O3 0.850962 0.196765 0.598144
O O4 0.751933 0.000000 0.593243
O O5 0.097255 0.799965 0.884581
O O6 0.951048 0.758214 0.850095
O O7 0.031087 0.000000 0.915768
O O8 0.088483 0.759181 0.985761
O O9 0.635832 0.776237 0.109130
O O10 0.714170 0.796209 0.241590
O O11 0.603695 0.000000 0.154852
O O12 0.246513 0.805011 0.899456
O O13 0.213255 0.000000 0.954424
O O14 0.250000 0.750000 0.000000
O O15 0.863916 0.232355 0.364823
O O16 0.000000 0.236470 0.500000
O O17 0.024264 0.207869 0.409147
O O18 0.951383 0.000000 0.426626
O O19 0.374405 0.000000 0.961846
O O20 0.233171 0.000000 0.664107
O O21 0.357181 0.500000 0.525080
#
# Coordination Sequence:
#
# PCOD8085658 Si02
#       8
#     8   8   8   8   8   8   8   8
#     4  10  19  30  48  75 103 127 154 195 245 293
#     4  10  19  31  50  76 102 129 162 200 248 298
#     4  10  21  34  49  70  96 131 169 204 246 292
#     4   8  15  28  47  71  96 122 154 196 242 284
#     4   9  15  28  53  76  92 120 164 206 238 277
#     4   9  17  32  52  73  98 127 166 210 243 281
#     4  10  20  35  52  69  95 131 168 205 247 295
#     4   9  17  31  51  75  99 125 160 198 238 285
#
# _framework density 17.771162
#
# number of rings (size 3 to 8) (size 9 to 14) (size 15 to 20)
#    0.000    2.625    1.250    1.125    0.000    3.500 
#    0.000    2.500    0.000    4.500    0.000    0.000 
#    0.000    0.000    0.000    0.000    0.000    0.000 
#
# Total GULP energy -396498.469395 kJ/mol
# GULP energy per Si atom -12390.577169 kJ/mol
# Density = 1.773071 g / cm^3
# Si number density = 17.771162 Si / 1000 Ang^3
#
#
#
# Elastic Constant Matrix: (Units=GPa)
#
#
# Indices 1 2 3 4 5 6 
#
# 1 137.5097 35.9539 43.3690 0.0000 18.8648 0.0000
# 2 35.9539 48.4080 25.3037 0.0000 5.3168 0.0000
# 3 43.3690 25.3037 68.8573 0.0000 16.1824 0.0000
# 4 0.0000 0.0000 0.0000 18.5892 0.0000 -0.6478
# 5 18.8648 5.3168 16.1824 0.0000 20.6509 0.0000
# 6 0.0000 0.0000 0.0000 -0.6478 0.0000 25.7287
#
#
#
# Elastic Compliance Matrix: (Units=1/GPa)
#
#
# Indices 1 2 3 4 5 6 
#
# 1 0.010510 -0.005470 -0.003290 0.000000 -0.005615 0.000000
# 2 -0.005470 0.028431 -0.007914 0.000000 0.003879 0.000000
# 3 -0.003290 -0.007914 0.022453 0.000000 -0.012551 0.000000
# 4 0.000000 0.000000 0.000000 0.053842 0.000000 0.001356
# 5 -0.005615 0.003879 -0.012551 0.000000 0.062390 0.000000
# 6 0.000000 0.000000 0.000000 0.001356 0.000000 0.038901
#
#
# Mechanical properties :
#
#
# Convention : Reuss Voigt Hill
#
# Bulk Modulus (GPa) = 35.65558 51.55868 43.60713
# Shear Modulus (GPa) = 19.28820 23.00364 21.14592
#
# Velocity S-wave (km/s) = 3.29806 3.60173 3.45324
# Velocity P-wave (km/s) = 5.88305 6.80971 6.36327
#
# Compressibility (1/GPa) = 0.02804610
#
# Stress axis : x y z
#
# Youngs Moduli (GPa) = 95.14419 35.17250 44.53695
#
# Poissons Ratio (x) = 0.19239 0.14654
# Poissons Ratio (y) = 0.52042 0.35248
# Poissons Ratio (z) = 0.31305 0.27837
#
# Static dielectric constant tensor:
#      x y z
#    x 5.626400 0.000000 -0.182490 
#    y 0.000000 3.190430 0.000000 
#    z -0.182490 0.000000 2.994120 
# 
# 
# High freq. dielectric constant tensor:
#      x y z
#    x 1.711660 0.000000 0.001620 
#    y 0.000000 1.674660 0.000000 
#    z 0.001620 0.000000 1.645940 
# 
# From -- ./inp_files/346103.got.cif
#   From: 2010.06.25/outbox.cif.g09.slc.cpg/sg12_174_cif.got.tgz:346103.got - 2010.06.28 00:19:55.
