data_PCOD8085148
_publ_section_title
;
Structure prediction by ZEFSAII (Michael W. Deem and Ramdas Pophale) SiO2 
 PCOD8085148
Probable space group: C 2/M
;
_chemical_formula_sum "Si O2"
_cell_formula_units_Z 64
_cell_length_a 23.483348
_cell_length_b 9.205742
_cell_length_c 21.428022
_cell_angle_alpha 90.000000
_cell_angle_beta 123.230272
_cell_angle_gamma 90.000000
_cell_volume 3874.840293
_symmetry_space_group_name_H-M "C 2/M"
_symmetry_group_IT_number 12
_symmetry_cell_setting 'monoclinic'
loop_
_space_group_symop_operation_xyz
x,y,z
-x,y,-z
-x,-y,-z
x,-y,z
1/2+x,1/2+y,z
1/2-x,1/2+y,-z
1/2-x,1/2-y,-z
1/2+x,1/2-y,z
loop_
_atom_site_type_symbol
_atom_site_label
_atom_site_fract_x
_atom_site_fract_y
_atom_site_fract_z
Si Si1 0.787850 0.329599 0.078650
Si Si2 0.195972 0.833790 0.137422
Si Si3 0.703295 0.331215 0.284370
Si Si4 0.422115 0.827241 0.732476
Si Si5 0.065376 0.671503 0.868417
Si Si6 0.069863 0.328215 0.011236
Si Si7 0.282974 0.338052 0.430144
Si Si8 0.648351 0.160542 0.431611
O O1 0.782169 0.500000 0.061410
O O2 0.755512 0.286069 0.125548
O O3 0.867151 0.281436 0.128885
O O4 0.750000 0.250000 0.000000
O O5 0.222336 0.811155 0.223398
O O6 0.130256 0.736358 0.088042
O O7 0.175193 0.000000 0.112868
O O8 0.697282 0.500000 0.299561
O O9 0.631726 0.253379 0.255576
O O10 0.765428 0.259367 0.359608
O O11 0.497338 0.768427 0.794389
O O12 0.409518 0.787689 0.652053
O O13 0.413010 0.000000 0.737651
O O14 0.058176 0.500000 0.867601
O O15 0.071880 0.734075 0.942257
O O16 0.077800 0.500000 0.017289
O O17 0.000000 0.276630 0.000000
O O18 0.303731 0.500000 0.421082
O O19 0.346320 0.268612 0.506336
O O20 0.218522 0.344075 0.436268
O O21 0.631368 0.000000 0.447216
#
# Coordination Sequence:
#
# PCOD8085148 Si02
#       8
#     8   8   8   8   8   8   8   8
#     4  10  19  34  52  68  87 116 156 198 236 274
#     4  10  21  33  46  66  92 121 153 191 235 276
#     4  10  19  30  43  64  95 125 151 185 229 272
#     4   9  17  30  47  68  93 121 153 187 225 273
#     4   9  17  30  48  68  89 116 151 192 232 266
#     4  10  19  30  47  69  91 119 154 187 224 275
#     4   9  16  26  42  64  90 122 155 183 216 265
#     4   8  14  24  40  63  91 120 147 179 222 269
#
# _framework density 16.516808999999999
#
# number of rings (size 3 to 8) (size 9 to 14) (size 15 to 20)
#    0.000    2.625    1.250    2.250    0.000    5.250 
#    0.000    1.250    0.000    0.000    0.000    0.875 
#    0.000    7.000    0.000    0.000    0.000    0.000 
#
# Total GULP energy -396712.103342 kJ/mol
# GULP energy per Si atom -12397.253229 kJ/mol
# Density = 1.647922 g / cm^3
# Si number density = 16.516809 Si / 1000 Ang^3
#
#
#
# Elastic Constant Matrix: (Units=GPa)
#
#
# Indices 1 2 3 4 5 6 
#
# 1 84.2130 32.8740 44.3083 0.0000 -11.4396 0.0000
# 2 32.8740 60.3329 45.4392 0.0000 -3.9569 0.0000
# 3 44.3083 45.4392 120.4941 0.0000 -4.5593 0.0000
# 4 0.0000 0.0000 0.0000 28.0525 0.0000 1.0354
# 5 -11.4396 -3.9569 -4.5593 0.0000 11.5692 0.0000
# 6 0.0000 0.0000 0.0000 1.0354 0.0000 8.1081
#
#
#
# Elastic Compliance Matrix: (Units=1/GPa)
#
#
# Indices 1 2 3 4 5 6 
#
# 1 0.018245 -0.006080 -0.003870 0.000000 0.014436 0.000000
# 2 -0.006080 0.025413 -0.007356 0.000000 -0.000219 0.000000
# 3 -0.003870 -0.007356 0.012442 0.000000 -0.001440 0.000000
# 4 0.000000 0.000000 0.000000 0.035816 0.000000 -0.004574
# 5 0.014436 -0.000219 -0.001440 0.000000 0.100068 0.000000
# 6 0.000000 0.000000 0.000000 -0.004574 0.000000 0.123917
#
#
# Mechanical properties :
#
#
# Convention : Reuss Voigt Hill
#
# Bulk Modulus (GPa) = 46.53720 56.69812 51.61766
# Shear Modulus (GPa) = 13.97907 19.04054 16.50981
#
# Velocity S-wave (km/s) = 2.91237 3.39897 3.16504
# Velocity P-wave (km/s) = 6.28856 7.05734 6.68401
#
# Compressibility (1/GPa) = 0.02148819
#
# Stress axis : x y z
#
# Youngs Moduli (GPa) = 54.80844 39.34936 80.37357
#
# Poissons Ratio (x) = 0.23924 0.31106
# Poissons Ratio (y) = 0.33323 0.59124
# Poissons Ratio (z) = 0.21212 0.28946
#
# Static dielectric constant tensor:
#      x y z
#    x 2.973320 0.000000 0.043160 
#    y 0.000000 3.114200 0.000000 
#    z 0.043160 0.000000 3.335680 
# 
# 
# High freq. dielectric constant tensor:
#      x y z
#    x 1.596920 0.000000 0.000600 
#    y 0.000000 1.628230 0.000000 
#    z 0.000600 0.000000 1.644220 
# 
# From -- ./inp_files/323763.got.cif
#   From: 2010.06.25/outbox.cif.g09.slc.cpg/sg12_162_cif.got.tgz:323763.got - 2010.06.28 00:19:55.
