data_PCOD8085915
_publ_section_title
;
Structure prediction by ZEFSAII (Michael W. Deem and Ramdas Pophale) SiO2 
 PCOD8085915
Probable space group: C 2/M
;
_chemical_formula_sum "Si O2"
_cell_formula_units_Z 56
_cell_length_a 19.986799
_cell_length_b 14.935104
_cell_length_c 11.108654
_cell_angle_alpha 90.000000
_cell_angle_beta 76.662925
_cell_angle_gamma 90.000000
_cell_volume 3226.555063
_symmetry_space_group_name_H-M "C 2/M"
_symmetry_group_IT_number 12
_symmetry_cell_setting 'monoclinic'
loop_
_space_group_symop_operation_xyz
x,y,z
-x,y,-z
-x,-y,-z
x,-y,z
1/2+x,1/2+y,z
1/2-x,1/2+y,-z
1/2-x,1/2-y,-z
1/2+x,1/2-y,z
loop_
_atom_site_type_symbol
_atom_site_label
_atom_site_fract_x
_atom_site_fract_y
_atom_site_fract_z
Si Si1 0.693763 0.270712 0.120710
Si Si2 0.037140 0.105095 0.368959
Si Si3 0.215211 0.598301 0.230268
Si Si4 0.190943 0.900032 0.312572
Si Si5 0.220052 0.843169 0.556950
Si Si6 0.360333 0.400191 0.034931
Si Si7 0.086443 0.104763 0.739856
O O1 0.667473 0.177228 0.192479
O O2 0.731760 0.331704 0.208041
O O3 0.750000 0.250000 0.000000
O O4 0.634539 0.329340 0.077529
O O5 0.114146 0.143101 0.329989
O O6 0.000000 0.148207 0.500000
O O7 0.990357 0.128055 0.272616
O O8 0.045565 0.000000 0.386172
O O9 0.180373 0.500000 0.229625
O O10 0.228252 0.614525 0.366798
O O11 0.286664 0.600507 0.129925
O O12 0.216864 0.903669 0.438479
O O13 0.196526 0.000000 0.257252
O O14 0.250000 0.750000 0.500000
O O15 0.143356 0.836279 0.645343
O O16 0.375996 0.500000 0.976874
O O17 0.414537 0.374344 0.117042
O O18 0.104817 0.000000 0.708475
#
# Coordination Sequence:
#
# PCOD8085915 Si02
#       7
#     8   8   8   8   8   8   8
#     4  10  19  31  44  62  90 128 166 199 231 277
#     4   9  16  27  45  70  98 128 158 185 228 293
#     4   9  17  29  43  60  87 123 156 187 231 282
#     4  11  20  30  47  72 101 128 157 197 237 281
#     4  11  18  27  43  69  98 127 155 193 235 284
#     4   8  15  27  44  62  86 122 154 183 225 273
#     4   9  16  29  47  67  96 133 158 182 232 292
#
# _framework density 17.355972000000001
#
# number of rings (size 3 to 8) (size 9 to 14) (size 15 to 20)
#    0.000    2.429    2.857    2.571    0.000    0.571 
#    0.000    0.714    0.000    3.429    0.000    0.000 
#    0.000    9.714    0.000    0.000    0.000    0.000 
#
# Total GULP energy -346865.850798 kJ/mol
# GULP energy per Si atom -12388.066100 kJ/mol
# Density = 1.731647 g / cm^3
# Si number density = 17.355972 Si / 1000 Ang^3
#
#
#
# Elastic Constant Matrix: (Units=GPa)
#
#
# Indices 1 2 3 4 5 6 
#
# 1 51.1383 30.4729 24.7515 0.0000 21.2032 0.0000
# 2 30.4729 119.2799 47.3235 0.0000 19.4047 0.0000
# 3 24.7515 47.3235 89.1129 0.0000 32.1991 0.0000
# 4 0.0000 0.0000 0.0000 31.1758 0.0000 7.8695
# 5 21.2032 19.4047 32.1991 0.0000 31.7021 0.0000
# 6 0.0000 0.0000 0.0000 7.8695 0.0000 11.3013
#
#
#
# Elastic Compliance Matrix: (Units=1/GPa)
#
#
# Indices 1 2 3 4 5 6 
#
# 1 0.029348 -0.004977 0.000763 0.000000 -0.017358 0.000000
# 2 -0.004977 0.011495 -0.005344 0.000000 0.001720 0.000000
# 3 0.000763 -0.005344 0.020300 0.000000 -0.017858 0.000000
# 4 0.000000 0.000000 0.000000 0.038917 0.000000 -0.027099
# 5 -0.017358 0.001720 -0.017858 0.000000 0.060238 0.000000
# 6 0.000000 0.000000 0.000000 -0.027099 0.000000 0.107355
#
#
# Mechanical properties :
#
#
# Convention : Reuss Voigt Hill
#
# Bulk Modulus (GPa) = 23.79315 51.62521 37.70918
# Shear Modulus (GPa) = 16.62359 25.30139 20.96249
#
# Velocity S-wave (km/s) = 3.09820 3.82225 3.47911
# Velocity P-wave (km/s) = 5.15142 7.02061 6.15735
#
# Compressibility (1/GPa) = 0.04202890
#
# Stress axis : x y z
#
# Youngs Moduli (GPa) = 34.07407 86.99162 49.26070
#
# Poissons Ratio (x) = 0.43292 -0.03759
# Poissons Ratio (y) = 0.16957 0.26324
# Poissons Ratio (z) = -0.02600 0.46486
#
# Static dielectric constant tensor:
#      x y z
#    x 3.112340 0.000000 0.412500 
#    y 0.000000 3.520310 0.000000 
#    z 0.412500 0.000000 3.553020 
# 
# 
# High freq. dielectric constant tensor:
#      x y z
#    x 1.623020 0.000000 0.032600 
#    y 0.000000 1.648840 0.000000 
#    z 0.032600 0.000000 1.686790 
# 
# From -- ./inp_files/166636.got.cif
#   From: 2010.06.25/outbox.cif.g09.slc.cpg/sg12_84_cif.got.tgz:166636.got - 2010.06.28 00:19:55.
