data_PCOD8085854
_publ_section_title
;
Structure prediction by ZEFSAII (Michael W. Deem and Ramdas Pophale) SiO2 
 PCOD8085854
Probable space group: C 2/M
;
_chemical_formula_sum "Si O2"
_cell_formula_units_Z 64
_cell_length_a 25.672850
_cell_length_b 9.246417
_cell_length_c 14.229603
_cell_angle_alpha 90.000000
_cell_angle_beta 89.371269
_cell_angle_gamma 90.000000
_cell_volume 3377.646493
_symmetry_space_group_name_H-M "C 2/M"
_symmetry_group_IT_number 12
_symmetry_cell_setting 'monoclinic'
loop_
_space_group_symop_operation_xyz
x,y,z
-x,y,-z
-x,-y,-z
x,-y,z
1/2+x,1/2+y,z
1/2-x,1/2+y,-z
1/2-x,1/2-y,-z
1/2+x,1/2-y,z
loop_
_atom_site_type_symbol
_atom_site_label
_atom_site_fract_x
_atom_site_fract_y
_atom_site_fract_z
Si Si1 0.524156 0.829354 0.594978
Si Si2 0.546549 0.341237 0.926025
Si Si3 0.736121 0.168832 0.711984
Si Si4 0.726864 0.332987 0.087528
Si Si5 0.210336 0.667111 0.435038
Si Si6 0.390741 0.670239 0.903383
Si Si7 0.361567 0.833775 0.401549
Si Si8 0.479803 0.169646 0.793420
O O1 0.500000 0.762271 0.500000
O O2 0.581723 0.760286 0.611806
O O3 0.486473 0.794796 0.683106
O O4 0.531237 0.000000 0.581342
O O5 0.556650 0.500000 0.880599
O O6 0.531695 0.227400 0.845530
O O7 0.500000 0.353089 0.000000
O O8 0.595902 0.290015 0.987786
O O9 0.736493 0.196003 0.823294
O O10 0.785723 0.254557 0.666261
O O11 0.682126 0.231934 0.668800
O O12 0.743327 0.000000 0.687309
O O13 0.725457 0.500000 0.059732
O O14 0.668418 0.280808 0.112833
O O15 0.750000 0.250000 0.000000
O O16 0.226017 0.500000 0.423864
O O17 0.250000 0.750000 0.500000
O O18 0.154450 0.682383 0.487763
O O19 0.399711 0.500000 0.885639
O O20 0.427185 0.754968 0.829443
O O21 0.365620 0.000000 0.372361
O O22 0.475685 0.000000 0.812996
#
# Coordination Sequence:
#
# PCOD8085854 Si02
#       8
#     8   8   8   8   8   8   8   8
#     4   9  18  31  45  67 102 135 162 198 247 300
#     4   8  15  30  51  71  96 131 164 197 245 305
#     4   9  18  33  52  74 101 132 167 208 256 305
#     4  10  22  38  54  74 102 136 171 210 257 309
#     4   9  16  28  50  76 100 128 166 210 252 299
#     4   9  19  36  54  72 101 139 168 197 253 316
#     4   8  15  29  48  69  96 131 164 198 248 300
#     4  10  19  30  51  80 101 125 170 219 252 288
#
# _framework density 18.948104000000001
#
# number of rings (size 3 to 8) (size 9 to 14) (size 15 to 20)
#    0.000    3.000    0.000    2.250    0.000    5.250 
#    0.000    2.500    0.000    9.000    0.000    0.000 
#    0.000    0.000    0.000    0.000    0.000    0.000 
#
# Total GULP energy -396536.849969 kJ/mol
# GULP energy per Si atom -12391.776562 kJ/mol
# Density = 1.890498 g / cm^3
# Si number density = 18.948104 Si / 1000 Ang^3
#
#
#
# Elastic Constant Matrix: (Units=GPa)
#
#
# Indices 1 2 3 4 5 6 
#
# 1 113.9463 37.0627 63.3042 0.0000 1.9966 0.0000
# 2 37.0627 65.7570 49.5224 0.0000 -9.7344 0.0000
# 3 63.3042 49.5224 130.1510 0.0000 -0.8861 0.0000
# 4 0.0000 0.0000 0.0000 25.6424 0.0000 -3.2142
# 5 1.9966 -9.7344 -0.8861 0.0000 26.2436 0.0000
# 6 0.0000 0.0000 0.0000 -3.2142 0.0000 15.9211
#
#
#
# Elastic Compliance Matrix: (Units=1/GPa)
#
#
# Indices 1 2 3 4 5 6 
#
# 1 0.012734 -0.004048 -0.004671 0.000000 -0.002628 0.000000
# 2 -0.004048 0.024250 -0.007196 0.000000 0.009060 0.000000
# 3 -0.004671 -0.007196 0.012681 0.000000 -0.001886 0.000000
# 4 0.000000 0.000000 0.000000 0.040010 0.000000 0.008077
# 5 -0.002628 0.009060 -0.001886 0.000000 0.041601 0.000000
# 6 0.000000 0.000000 0.000000 0.008077 0.000000 0.064440
#
#
# Mechanical properties :
#
#
# Convention : Reuss Voigt Hill
#
# Bulk Modulus (GPa) = 56.07573 67.73700 61.90636
# Shear Modulus (GPa) = 21.41384 24.22575 22.81980
#
# Velocity S-wave (km/s) = 3.36539 3.57954 3.47411
# Velocity P-wave (km/s) = 6.69027 7.27395 6.98821
#
# Compressibility (1/GPa) = 0.01783303
#
# Stress axis : x y z
#
# Youngs Moduli (GPa) = 78.52956 41.23665 78.85942
#
# Poissons Ratio (x) = 0.16694 0.36837
# Poissons Ratio (y) = 0.31792 0.56750
# Poissons Ratio (z) = 0.36683 0.29676
#
# Static dielectric constant tensor:
#      x y z
#    x 3.687070 0.000000 0.129920 
#    y 0.000000 3.416030 0.000000 
#    z 0.129920 0.000000 3.902570 
# 
# 
# High freq. dielectric constant tensor:
#      x y z
#    x 1.726920 0.000000 0.002730 
#    y 0.000000 1.707630 0.000000 
#    z 0.002730 0.000000 1.733980 
# 
# From -- ./inp_files/244035.got.cif
#   From: 2010.06.25/outbox.cif.g09.slc.cpg/sg12_123_cif.got.tgz:244035.got - 2010.06.28 00:19:55.
