data_PCOD8085797
_publ_section_title
;
Structure prediction by ZEFSAII (Michael W. Deem and Ramdas Pophale) SiO2 
 PCOD8085797
Probable space group: C 2/M
;
_chemical_formula_sum "Si O2"
_cell_formula_units_Z 48
_cell_length_a 12.622166
_cell_length_b 13.777053
_cell_length_c 15.459757
_cell_angle_alpha 90.000000
_cell_angle_beta 58.704258
_cell_angle_gamma 90.000000
_cell_volume 2297.225582
_symmetry_space_group_name_H-M "C 2/M"
_symmetry_group_IT_number 12
_symmetry_cell_setting 'monoclinic'
loop_
_space_group_symop_operation_xyz
x,y,z
-x,y,-z
-x,-y,-z
x,-y,z
1/2+x,1/2+y,z
1/2-x,1/2+y,-z
1/2-x,1/2-y,-z
1/2+x,1/2-y,z
loop_
_atom_site_type_symbol
_atom_site_label
_atom_site_fract_x
_atom_site_fract_y
_atom_site_fract_z
Si Si1 0.123421 0.777949 0.395547
Si Si2 0.360132 0.611835 0.782541
Si Si3 0.891109 0.387613 0.717897
Si Si4 0.164396 0.394073 0.633387
Si Si5 0.087788 0.394272 0.862932
Si Si6 0.626936 0.223972 0.103102
O O1 0.099427 0.859154 0.331740
O O2 0.173944 0.679396 0.327489
O O3 0.227229 0.814036 0.420676
O O4 0.000000 0.757637 0.500000
O O5 0.395307 0.500000 0.783071
O O6 0.213135 0.632937 0.861025
O O7 0.427117 0.679444 0.825862
O O8 0.856124 0.500000 0.719139
O O9 0.848153 0.356530 0.832553
O O10 0.037882 0.367040 0.637372
O O11 0.213144 0.500000 0.581317
O O12 0.125412 0.401122 0.748454
O O13 0.038915 0.500000 0.914034
O O14 0.975958 0.316543 0.921606
O O15 0.750000 0.250000 0.000000
#
# Coordination Sequence:
#
# PCOD8085797 Si02
#       6
#     8   8   8   8   8   8
#     4  10  19  30  52  79 102 127 164 208 248 286
#     4   9  19  34  51  73 101 132 166 203 243 292
#     4   9  19  36  53  70  98 134 168 201 241 292
#     4   8  15  30  51  72  97 131 166 200 241 290
#     4   8  15  31  52  71  95 130 168 202 239 287
#     4  10  19  30  50  77  98 121 161 210 250 284
#
# _framework density 20.894770999999999
#
# number of rings (size 3 to 8) (size 9 to 14) (size 15 to 20)
#    0.000    3.000    0.000    3.000    0.000    4.333 
#    0.000    1.667    0.000   27.000    0.000   30.333 
#    0.000    0.000    0.000    0.000    0.000    0.000 
#
# Total GULP energy -297331.210638 kJ/mol
# GULP energy per Si atom -12388.800443 kJ/mol
# Density = 2.084721 g / cm^3
# Si number density = 20.894771 Si / 1000 Ang^3
#
#
#
# Elastic Constant Matrix: (Units=GPa)
#
#
# Indices 1 2 3 4 5 6 
#
# 1 47.8429 33.4372 9.1071 0.0000 -4.0259 0.0000
# 2 33.4372 145.8146 19.2148 0.0000 -1.0480 0.0000
# 3 9.1071 19.2148 60.1762 0.0000 -16.8279 0.0000
# 4 0.0000 0.0000 0.0000 58.6631 0.0000 17.1586
# 5 -4.0259 -1.0480 -16.8279 0.0000 18.9900 0.0000
# 6 0.0000 0.0000 0.0000 17.1586 0.0000 42.0836
#
#
#
# Elastic Compliance Matrix: (Units=1/GPa)
#
#
# Indices 1 2 3 4 5 6 
#
# 1 0.025396 -0.005685 -0.000811 0.000000 0.004351 0.000000
# 2 -0.005685 0.008500 -0.002738 0.000000 -0.003163 0.000000
# 3 -0.000811 -0.002738 0.023298 0.000000 0.020322 0.000000
# 4 0.000000 0.000000 0.000000 0.019355 0.000000 -0.007891
# 5 0.004351 -0.003163 0.020322 0.000000 0.071415 0.000000
# 6 0.000000 0.000000 0.000000 -0.007891 0.000000 0.026980
#
#
# Mechanical properties :
#
#
# Convention : Reuss Voigt Hill
#
# Bulk Modulus (GPa) = 25.82357 41.92800 33.87578
# Shear Modulus (GPa) = 24.23411 36.75233 30.49322
#
# Velocity S-wave (km/s) = 3.40930 4.19850 3.82432
# Velocity P-wave (km/s) = 5.28048 6.60402 5.97899
#
# Compressibility (1/GPa) = 0.03872431
#
# Stress axis : x y z
#
# Youngs Moduli (GPa) = 39.37655 117.64926 42.92239
#
# Poissons Ratio (x) = 0.66889 0.03482
# Poissons Ratio (y) = 0.22387 0.11752
# Poissons Ratio (z) = 0.03194 0.32213
#
# Static dielectric constant tensor:
#      x y z
#    x 4.190400 0.000000 0.025720 
#    y 0.000000 4.019890 0.000000 
#    z 0.025720 0.000000 3.451710 
# 
# 
# High freq. dielectric constant tensor:
#      x y z
#    x 1.785470 0.000000 0.000660 
#    y 0.000000 1.821200 0.000000 
#    z 0.000660 0.000000 1.803650 
# 
# From -- ./inp_files/204303.got.cif
#   From: 2010.06.25/outbox.cif.g09.slc.cpg/sg12_103_cif.got.tgz:204303.got - 2010.06.28 00:19:55.
