data_PCOD8085305
_publ_section_title
;
Structure prediction by ZEFSAII (Michael W. Deem and Ramdas Pophale) SiO2 
 PCOD8085305
Probable space group: C 2/M
;
_chemical_formula_sum "Si O2"
_cell_formula_units_Z 56
_cell_length_a 28.858322
_cell_length_b 9.277355
_cell_length_c 11.630437
_cell_angle_alpha 90.000000
_cell_angle_beta 91.258939
_cell_angle_gamma 90.000000
_cell_volume 3113.052443
_symmetry_space_group_name_H-M "C 2/M"
_symmetry_group_IT_number 12
_symmetry_cell_setting 'monoclinic'
loop_
_space_group_symop_operation_xyz
x,y,z
-x,y,-z
-x,-y,-z
x,-y,z
1/2+x,1/2+y,z
1/2-x,1/2+y,-z
1/2-x,1/2-y,-z
1/2+x,1/2-y,z
loop_
_atom_site_type_symbol
_atom_site_label
_atom_site_fract_x
_atom_site_fract_y
_atom_site_fract_z
Si Si1 0.825193 0.834591 0.663629
Si Si2 0.360602 0.335187 0.911256
Si Si3 0.188904 0.662919 0.910047
Si Si4 0.951718 0.168571 0.050723
Si Si5 0.643327 0.335170 0.581671
Si Si6 0.763648 0.832386 0.275563
Si Si7 0.095025 0.337431 0.761342
O O1 0.858439 0.809799 0.774777
O O2 0.855406 0.796558 0.553085
O O3 0.781196 0.730774 0.664586
O O4 0.807563 0.000000 0.656396
O O5 0.349820 0.500000 0.944357
O O6 0.411825 0.292340 0.956542
O O7 0.321106 0.237475 0.968231
O O8 0.206145 0.500000 0.931098
O O9 0.228628 0.750454 0.845064
O O10 0.142274 0.667865 0.834469
O O11 0.952490 0.000000 0.079846
O O12 0.944139 0.252502 0.169797
O O13 0.000000 0.221034 0.000000
O O14 0.629014 0.500000 0.602410
O O15 0.693839 0.304677 0.636671
O O16 0.603982 0.237444 0.638867
O O17 0.756354 0.000000 0.248611
O O18 0.077991 0.500000 0.739504
#
# Coordination Sequence:
#
# PCOD8085305 Si02
#       7
#     8   8   8   8   8   8   8
#     4  10  20  32  46  65  92 125 157 192 231 269
#     4   9  18  32  48  68  94 121 150 185 230 280
#     4   9  17  30  47  66  91 122 155 192 232 272
#     4   9  17  31  53  77  97 117 144 182 228 278
#     4   9  18  32  48  66  91 124 160 194 226 263
#     4  10  19  30  46  67  90 120 160 200 232 263
#     4   9  17  29  48  73  96 119 150 189 229 268
#
# _framework density 17.988775
#
# number of rings (size 3 to 8) (size 9 to 14) (size 15 to 20)
#    0.000    2.714    0.000    1.714    0.000    6.000 
#    0.000    0.000    0.000    0.857    0.000    6.000 
#    0.000    0.000    0.000    0.000    0.000    0.000 
#
# Total GULP energy -347241.141693 kJ/mol
# GULP energy per Si atom -12401.469346 kJ/mol
# Density = 1.794783 g / cm^3
# Si number density = 17.988775 Si / 1000 Ang^3
#
#
#
# Elastic Constant Matrix: (Units=GPa)
#
#
# Indices 1 2 3 4 5 6 
#
# 1 36.4807 35.0380 44.8936 0.0000 -13.6075 0.0000
# 2 35.0380 107.5424 73.3628 0.0000 -15.8656 0.0000
# 3 44.8936 73.3628 154.1577 0.0000 -19.1711 0.0000
# 4 0.0000 0.0000 0.0000 27.2589 0.0000 -7.3717
# 5 -13.6075 -15.8656 -19.1711 0.0000 23.8888 0.0000
# 6 0.0000 0.0000 0.0000 -7.3717 0.0000 18.5005
#
#
#
# Elastic Compliance Matrix: (Units=1/GPa)
#
#
# Indices 1 2 3 4 5 6 
#
# 1 0.053628 -0.008485 -0.009422 0.000000 0.017351 0.000000
# 2 -0.008485 0.015524 -0.004705 0.000000 0.001701 0.000000
# 3 -0.009422 -0.004705 0.011568 0.000000 0.000792 0.000000
# 4 0.000000 0.000000 0.000000 0.041116 0.000000 0.016383
# 5 0.017351 0.001701 0.000792 0.000000 0.053509 0.000000
# 6 0.000000 0.000000 0.000000 0.016383 0.000000 0.060580
#
#
# Mechanical properties :
#
#
# Convention : Reuss Voigt Hill
#
# Bulk Modulus (GPa) = 28.17228 67.19663 47.68446
# Shear Modulus (GPa) = 17.06593 23.58873 20.32733
#
# Velocity S-wave (km/s) = 3.08344 3.62512 3.36520
# Velocity P-wave (km/s) = 5.32652 7.41336 6.45483
#
# Compressibility (1/GPa) = 0.03549588
#
# Stress axis : x y z
#
# Youngs Moduli (GPa) = 18.64704 64.41693 86.44358
#
# Poissons Ratio (x) = 0.54660 0.81443
# Poissons Ratio (y) = 0.15823 0.40673
# Poissons Ratio (z) = 0.17568 0.30309
#
# Static dielectric constant tensor:
#      x y z
#    x 2.972980 0.000000 -0.084370 
#    y 0.000000 3.429670 0.000000 
#    z -0.084370 0.000000 3.421660 
# 
# 
# High freq. dielectric constant tensor:
#      x y z
#    x 1.654040 0.000000 -0.009770 
#    y 0.000000 1.700630 0.000000 
#    z -0.009770 0.000000 1.700510 
# 
# From -- ./inp_files/186417.got.cif
#   From: 2010.06.25/outbox.cif.g09.slc.cpg/sg12_94_cif.got.tgz:186417.got - 2010.06.28 00:19:55.
