data_PCOD8085260
_publ_section_title
;
Structure prediction by ZEFSAII (Michael W. Deem and Ramdas Pophale) SiO2 
 PCOD8085260
Probable space group: C 2/M
;
_chemical_formula_sum "Si O2"
_cell_formula_units_Z 48
_cell_length_a 30.450622
_cell_length_b 9.223190
_cell_length_c 10.325923
_cell_angle_alpha 90.000000
_cell_angle_beta 78.363766
_cell_angle_gamma 90.000000
_cell_volume 2840.452567
_symmetry_space_group_name_H-M "C 2/M"
_symmetry_group_IT_number 12
_symmetry_cell_setting 'monoclinic'
loop_
_space_group_symop_operation_xyz
x,y,z
-x,y,-z
-x,-y,-z
x,-y,z
1/2+x,1/2+y,z
1/2-x,1/2+y,-z
1/2-x,1/2-y,-z
1/2+x,1/2-y,z
loop_
_atom_site_type_symbol
_atom_site_label
_atom_site_fract_x
_atom_site_fract_y
_atom_site_fract_z
Si Si1 0.530688 0.670630 0.864563
Si Si2 0.304009 0.665956 0.834506
Si Si3 0.207682 0.665168 0.901611
Si Si4 0.888802 0.336005 0.082922
Si Si5 0.110479 0.669553 0.220888
Si Si6 0.524086 0.331071 0.351850
O O1 0.536141 0.500000 0.869039
O O2 0.580215 0.736478 0.846428
O O3 0.508738 0.720692 0.743276
O O4 0.500000 0.729376 0.000000
O O5 0.320333 0.500000 0.820717
O O6 0.254759 0.683938 0.794398
O O7 0.343064 0.764458 0.749076
O O8 0.294974 0.713204 0.987031
O O9 0.205850 0.500000 0.961949
O O10 0.163060 0.684637 0.839800
O O11 0.905076 0.500000 0.092594
O O12 0.892961 0.292442 0.929118
O O13 0.110269 0.500000 0.248460
O O14 0.069731 0.741397 0.321492
O O15 0.500000 0.296034 0.500000
O O16 0.535854 0.500000 0.329871
#
# Coordination Sequence:
#
# PCOD8085260 Si02
#       6
#     8   8   8   8   8   8
#     4  10  19  31  48  70  93 119 157 196 230 276
#     4   9  15  24  41  62  90 125 157 189 231 278
#     4   8  15  26  38  61  94 124 154 190 231 278
#     4   9  17  28  44  67  95 125 155 188 230 276
#     4  10  19  30  45  67  95 124 158 195 233 279
#     4  10  21  36  51  68  93 124 158 196 237 280
#
# _framework density 16.898716
#
# number of rings (size 3 to 8) (size 9 to 14) (size 15 to 20)
#    0.000    2.667    1.667    2.000    0.000    4.667 
#    0.000    0.000    0.000    0.000    0.000    1.167 
#    0.000    0.000    0.000    0.000    0.000    0.000 
#
# Total GULP energy -297420.059828 kJ/mol
# GULP energy per Si atom -12392.502493 kJ/mol
# Density = 1.686025 g / cm^3
# Si number density = 16.898716 Si / 1000 Ang^3
#
#
#
# Elastic Constant Matrix: (Units=GPa)
#
#
# Indices 1 2 3 4 5 6 
#
# 1 156.6007 59.1562 51.4343 0.0000 -26.9739 0.0000
# 2 59.1562 66.0009 32.0541 0.0000 -16.2358 0.0000
# 3 51.4343 32.0541 62.7584 0.0000 -5.3148 0.0000
# 4 0.0000 0.0000 0.0000 12.6462 0.0000 -4.7316
# 5 -26.9739 -16.2358 -5.3148 0.0000 20.4742 0.0000
# 6 0.0000 0.0000 0.0000 -4.7316 0.0000 33.4923
#
#
#
# Elastic Compliance Matrix: (Units=1/GPa)
#
#
# Indices 1 2 3 4 5 6 
#
# 1 0.012309 -0.005353 -0.006483 0.000000 0.010289 0.000000
# 2 -0.005353 0.027020 -0.008380 0.000000 0.012198 0.000000
# 3 -0.006483 -0.008380 0.024786 0.000000 -0.008752 0.000000
# 4 0.000000 0.000000 0.000000 0.083488 0.000000 0.011795
# 5 0.010289 0.012198 -0.008752 0.000000 0.069799 0.000000
# 6 0.000000 0.000000 0.000000 0.011795 0.000000 0.031524
#
#
# Mechanical properties :
#
#
# Convention : Reuss Voigt Hill
#
# Bulk Modulus (GPa) = 42.22406 63.40547 52.81477
# Shear Modulus (GPa) = 16.82068 22.83689 19.82878
#
# Velocity S-wave (km/s) = 3.15839 3.68012 3.42919
# Velocity P-wave (km/s) = 6.19204 7.46057 6.85571
#
# Compressibility (1/GPa) = 0.02368318
#
# Stress axis : x y z
#
# Youngs Moduli (GPa) = 81.23905 37.00934 40.34514
#
# Poissons Ratio (x) = 0.19812 0.26154
# Poissons Ratio (y) = 0.43490 0.33810
# Poissons Ratio (z) = 0.52664 0.31015
#
# Static dielectric constant tensor:
#      x y z
#    x 3.562010 0.000000 -0.228090 
#    y 0.000000 3.160450 0.000000 
#    z -0.228090 0.000000 2.673990 
# 
# 
# High freq. dielectric constant tensor:
#      x y z
#    x 1.672010 0.000000 -0.025650 
#    y 0.000000 1.658360 0.000000 
#    z -0.025650 0.000000 1.579200 
# 
# From -- ./inp_files/185720.got.cif
#   From: 2010.06.25/outbox.cif.g09.slc.cpg/sg12_93_cif.got.tgz:185720.got - 2010.06.28 00:19:55.
