data_PCOD8085615
_publ_section_title
;
Structure prediction by ZEFSAII (Michael W. Deem and Ramdas Pophale) SiO2 
 PCOD8085615
Probable space group: C 2/M
;
_chemical_formula_sum "Si O2"
_cell_formula_units_Z 64
_cell_length_a 23.837322
_cell_length_b 9.110736
_cell_length_c 19.881649
_cell_angle_alpha 90.000000
_cell_angle_beta 57.574172
_cell_angle_gamma 90.000000
_cell_volume 3644.602578
_symmetry_space_group_name_H-M "C 2/M"
_symmetry_group_IT_number 12
_symmetry_cell_setting 'monoclinic'
loop_
_space_group_symop_operation_xyz
x,y,z
-x,y,-z
-x,-y,-z
x,-y,z
1/2+x,1/2+y,z
1/2-x,1/2+y,-z
1/2-x,1/2-y,-z
1/2+x,1/2-y,z
loop_
_atom_site_type_symbol
_atom_site_label
_atom_site_fract_x
_atom_site_fract_y
_atom_site_fract_z
Si Si1 0.640330 0.674538 0.963474
Si Si2 0.370693 0.171470 0.164717
Si Si3 0.402521 0.171840 0.877903
Si Si4 0.551497 0.167618 0.753839
Si Si5 0.237304 0.329656 0.276184
Si Si6 0.709361 0.828522 0.148338
Si Si7 0.294395 0.831490 0.558084
Si Si8 0.650985 0.328685 0.596156
O O1 0.633931 0.500000 0.965410
O O2 0.609275 0.740518 0.915282
O O3 0.717300 0.726763 0.919587
O O4 0.599870 0.738871 0.051555
O O5 0.426924 0.203993 0.183847
O O6 0.301642 0.228157 0.239607
O O7 0.364829 0.000000 0.151307
O O8 0.473310 0.198417 0.797585
O O9 0.347049 0.240741 0.863155
O O10 0.391474 0.000000 0.900583
O O11 0.588014 0.266863 0.675882
O O12 0.569254 0.000000 0.725404
O O13 0.260960 0.500000 0.257778
O O14 0.195720 0.289375 0.235657
O O15 0.192244 0.302663 0.371220
O O16 0.704857 0.000000 0.140228
O O17 0.345650 0.736441 0.481515
O O18 0.218261 0.785630 0.592116
O O19 0.305936 0.000000 0.531201
O O20 0.641007 0.500000 0.596116
#
# Coordination Sequence:
#
# PCOD8085615 Si02
#       8
#     8   8   8   8   8   8   8   8
#     4  10  20  34  52  74  97 123 159 208 251 288
#     4  10  19  31  48  71  98 130 161 196 241 290
#     4  10  20  35  52  71  95 129 166 201 242 289
#     4  10  21  34  49  69 100 134 164 197 237 290
#     4   9  16  30  51  76 101 125 156 200 248 288
#     4   8  16  31  53  75  96 122 159 205 247 285
#     4   9  17  29  48  74 103 129 155 195 243 288
#     4  10  19  30  48  73 101 132 162 196 237 286
#
# _framework density 17.560213999999998
#
# number of rings (size 3 to 8) (size 9 to 14) (size 15 to 20)
#    0.000    2.500    1.250    2.250    0.000    2.500 
#    0.000    5.000    0.000    0.750    0.000    5.250 
#    0.000    0.000    0.000    0.000    0.000    0.000 
#
# Total GULP energy -396763.916732 kJ/mol
# GULP energy per Si atom -12398.872398 kJ/mol
# Density = 1.752025 g / cm^3
# Si number density = 17.560214 Si / 1000 Ang^3
#
#
#
# Elastic Constant Matrix: (Units=GPa)
#
#
# Indices 1 2 3 4 5 6 
#
# 1 42.8992 21.2369 24.4418 0.0003 0.1357 0.0004
# 2 21.2369 66.8188 49.4225 0.0005 2.3323 0.0009
# 3 24.4418 49.4225 116.0264 0.0003 11.7222 0.0001
# 4 0.0003 0.0005 0.0003 33.0698 0.0000 0.3156
# 5 0.1357 2.3323 11.7222 0.0000 19.6422 0.0000
# 6 0.0004 0.0009 0.0001 0.3156 0.0000 15.7333
#
#
#
# Elastic Compliance Matrix: (Units=1/GPa)
#
#
# Indices 1 2 3 4 5 6 
#
# 1 0.028546 -0.006598 -0.003472 0.000000 0.002658 0.000000
# 2 -0.006598 0.023560 -0.008904 0.000000 0.002562 -0.000001
# 3 -0.003472 -0.008904 0.013870 0.000000 -0.007196 0.000001
# 4 0.000000 0.000000 0.000000 0.030245 0.000000 -0.000607
# 5 0.002658 0.002562 -0.007196 0.000000 0.054883 0.000000
# 6 0.000000 -0.000001 0.000001 -0.000607 0.000000 0.063572
#
#
# Mechanical properties :
#
#
# Convention : Reuss Voigt Hill
#
# Bulk Modulus (GPa) = 35.67845 46.21630 40.94738
# Shear Modulus (GPa) = 19.08652 22.39861 20.74256
#
# Velocity S-wave (km/s) = 3.30042 3.57533 3.44062
# Velocity P-wave (km/s) = 5.90640 6.58938 6.25722
#
# Compressibility (1/GPa) = 0.02802812
#
# Stress axis : x y z
#
# Youngs Moduli (GPa) = 35.03102 42.44571 72.09818
#
# Poissons Ratio (x) = 0.28005 0.25030
# Poissons Ratio (y) = 0.23113 0.64199
# Poissons Ratio (z) = 0.12161 0.37795
#
# Static dielectric constant tensor:
#      x y z
#    x 3.257200 0.000000 0.205740 
#    y 0.000000 3.169580 0.000000 
#    z 0.205740 0.000000 3.251490 
# 
# 
# High freq. dielectric constant tensor:
#      x y z
#    x 1.653370 0.000000 0.018350 
#    y 0.000000 1.671970 0.000000 
#    z 0.018350 0.000000 1.679660 
# 
# From -- ./inp_files/324270.got.cif
#   From: 2010.06.25/outbox.cif.g09.slc.cpg/sg12_163_cif.got.tgz:324270.got - 2010.06.28 00:19:55.
