data_PCOD8085723
_publ_section_title
;
Structure prediction by ZEFSAII (Michael W. Deem and Ramdas Pophale) SiO2 
 PCOD8085723
Probable space group: C 2/M
;
_chemical_formula_sum "Si O2"
_cell_formula_units_Z 64
_cell_length_a 14.147616
_cell_length_b 27.898355
_cell_length_c 10.058290
_cell_angle_alpha 90.000000
_cell_angle_beta 110.545571
_cell_angle_gamma 90.000000
_cell_volume 3717.443135
_symmetry_space_group_name_H-M "C 2/M"
_symmetry_group_IT_number 12
_symmetry_cell_setting 'monoclinic'
loop_
_space_group_symop_operation_xyz
x,y,z
-x,y,-z
-x,-y,-z
x,-y,z
1/2+x,1/2+y,z
1/2-x,1/2+y,-z
1/2-x,1/2-y,-z
1/2+x,1/2-y,z
loop_
_atom_site_type_symbol
_atom_site_label
_atom_site_fract_x
_atom_site_fract_y
_atom_site_fract_z
Si Si1 0.960076 0.676549 0.340445
Si Si2 0.578983 0.553040 0.838646
Si Si3 0.544688 0.713637 0.660363
Si Si4 0.246538 0.856745 0.167731
Si Si5 0.083191 0.217430 0.145829
Si Si6 0.705476 0.360247 0.837476
Si Si7 0.135732 0.053130 0.174048
Si Si8 0.414794 0.172535 0.855850
O O1 0.923092 0.731150 0.338439
O O2 0.865090 0.646410 0.246082
O O3 0.000000 0.656436 0.500000
O O4 0.048481 0.669274 0.277219
O O5 0.599192 0.500000 0.789214
O O6 0.643280 0.590481 0.781443
O O7 0.459474 0.565173 0.777217
O O8 0.607260 0.553997 0.006161
O O9 0.500000 0.693680 0.500000
O O10 0.458421 0.710341 0.727635
O O11 0.643070 0.684301 0.750272
O O12 0.186283 0.811976 0.197284
O O13 0.217581 0.905210 0.233018
O O14 0.221359 0.856057 0.001037
O O15 0.109699 0.272138 0.120618
O O16 0.000000 0.197204 0.000000
O O17 0.814608 0.360024 0.820024
O O18 0.178261 0.000000 0.231173
O O19 0.500000 0.153445 0.000000
#
# Coordination Sequence:
#
# PCOD8085723 Si02
#       8
#     8   8   8   8   8   8   8   8
#     4  10  22  37  49  69 103 138 171 210 248 286
#     4   8  15  28  47  75 106 128 152 201 258 301
#     4  10  21  34  48  73 107 134 163 206 254 299
#     4  11  19  29  53  76  97 133 174 206 245 299
#     4  10  19  30  49  75 101 127 167 210 246 294
#     4  11  19  30  53  75  98 134 173 204 245 300
#     4   8  15  27  46  75 106 127 154 202 255 301
#     4  10  20  33  48  71 100 133 172 212 243 280
#
# _framework density 17.216135000000001
#
# number of rings (size 3 to 8) (size 9 to 14) (size 15 to 20)
#    0.000    2.250    2.500    2.250    1.750    2.000 
#    0.000    3.750    0.000    1.875    0.000    1.750 
#    0.000    0.000    0.000    0.000    0.000    0.000 
#
# Total GULP energy -396692.126172 kJ/mol
# GULP energy per Si atom -12396.628943 kJ/mol
# Density = 1.717695 g / cm^3
# Si number density = 17.216135 Si / 1000 Ang^3
#
#
#
# Elastic Constant Matrix: (Units=GPa)
#
#
# Indices 1 2 3 4 5 6 
#
# 1 107.0038 58.5465 22.1708 0.0000 -2.8198 0.0000
# 2 58.5465 83.2083 19.2991 0.0000 0.4181 0.0000
# 3 22.1708 19.2991 73.6628 0.0000 -2.9583 0.0000
# 4 0.0000 0.0000 0.0000 -32.2703 0.0000 -57.1249
# 5 -2.8198 0.4181 -2.9583 0.0000 18.2918 0.0000
# 6 0.0000 0.0000 0.0000 -57.1249 0.0000 -42.7483
#
#
#
# Elastic Compliance Matrix: (Units=1/GPa)
#
#
# Indices 1 2 3 4 5 6 
#
# 1 0.015545 -0.010525 -0.001827 0.000000 0.002341 0.000000
# 2 -0.010525 0.019935 -0.002152 0.000000 -0.002426 0.000000
# 3 -0.001827 -0.002152 0.014776 0.000000 0.002157 0.000000
# 4 0.000000 0.000000 0.000000 0.022693 0.000000 -0.030325
# 5 0.002341 -0.002426 0.002157 0.000000 0.055435 0.000000
# 6 0.000000 0.000000 0.000000 -0.030325 0.000000 0.017131
#
#
# Mechanical properties :
#
#
# Convention : Reuss Voigt Hill
#
# Bulk Modulus (GPa) = 47.06750 51.54530 49.30640
# Shear Modulus (GPa) = 27.53215 -0.42145 13.55535
#
# Velocity S-wave (km/s) = 4.00335 -0.49531 2.80904
# Velocity P-wave (km/s) = 6.98338 5.44775 6.26281
#
# Compressibility (1/GPa) = 0.02124608
#
# Stress axis : x y z
#
# Youngs Moduli (GPa) = 64.33086 50.16231 67.67826
#
# Poissons Ratio (x) = 0.52798 0.12365
# Poissons Ratio (y) = 0.67711 0.14567
# Poissons Ratio (z) = 0.11753 0.10797
#
# Static dielectric constant tensor:
#      x y z
#    x 3.451360 0.000000 0.031290 
#    y 0.000000 3.367160 0.000000 
#    z 0.031290 0.000000 3.044000 
# 
# 
# High freq. dielectric constant tensor:
#      x y z
#    x 1.662330 0.000000 -0.007570 
#    y 0.000000 1.648040 0.000000 
#    z -0.007570 0.000000 1.637590 
# 
# From -- ./inp_files/66983.got.cif
#   From: 2010.06.25/outbox.cif.g09.slc.cpg/sg12_34_cif.got.tgz:66983.got - 2010.06.28 00:19:55.
