data_PCOD8085522
_publ_section_title
;
Structure prediction by ZEFSAII (Michael W. Deem and Ramdas Pophale) SiO2 
 PCOD8085522
Probable space group: C 2/M
;
_chemical_formula_sum "Si O2"
_cell_formula_units_Z 64
_cell_length_a 29.324971
_cell_length_b 15.457088
_cell_length_c 18.493661
_cell_angle_alpha 90.000000
_cell_angle_beta 27.014732
_cell_angle_gamma 90.000000
_cell_volume 3807.623658
_symmetry_space_group_name_H-M "C 2/M"
_symmetry_group_IT_number 12
_symmetry_cell_setting 'monoclinic'
loop_
_space_group_symop_operation_xyz
x,y,z
-x,y,-z
-x,-y,-z
x,-y,z
1/2+x,1/2+y,z
1/2-x,1/2+y,-z
1/2-x,1/2-y,-z
1/2+x,1/2-y,z
loop_
_atom_site_type_symbol
_atom_site_label
_atom_site_fract_x
_atom_site_fract_y
_atom_site_fract_z
Si Si1 0.083463 0.764413 0.329952
Si Si2 0.120998 0.401520 0.523296
Si Si3 0.578212 0.813037 0.190679
Si Si4 0.839596 0.897075 0.238907
Si Si5 0.219287 0.902405 0.076195
Si Si6 0.487523 0.600229 0.908648
Si Si7 0.659545 0.901912 0.303344
Si Si8 0.638053 0.351632 0.037214
O O1 0.043380 0.749051 0.305770
O O2 0.173364 0.834250 0.198589
O O3 0.112448 0.669457 0.317625
O O4 0.000000 0.806024 0.500000
O O5 0.115813 0.500000 0.556074
O O6 0.225951 0.358202 0.401670
O O7 0.112468 0.393482 0.448811
O O8 0.022939 0.356563 0.697090
O O9 0.662329 0.881235 0.098982
O O10 0.629850 0.751978 0.057488
O O11 0.900703 0.868180 0.225074
O O12 0.826535 0.000000 0.249495
O O13 0.901853 0.859329 0.082285
O O14 0.206796 0.000000 0.123081
O O15 0.163312 0.896454 0.077996
O O16 0.486683 0.500000 0.926145
O O17 0.466204 0.619076 0.853844
O O18 0.777919 0.881419 0.139025
O O19 0.640654 0.000000 0.300352
#
# Coordination Sequence:
#
# PCOD8085522 Si02
#       8
#     8   8   8   8   8   8   8   8
#     4  11  21  35  48  67  97 124 163 204 234 271
#     4  10  19  30  47  72  96 124 156 190 239 288
#     4  11  21  32  46  67  98 130 154 195 242 276
#     4   8  15  26  43  70  96 117 149 193 235 280
#     4  11  22  35  49  66  94 131 166 196 232 280
#     4   9  15  26  46  69  94 122 152 189 234 284
#     4  11  19  29  50  73  96 125 155 193 237 284
#     4  11  19  31  47  71  95 127 158 195 235 281
#
# _framework density 16.808384
#
# number of rings (size 3 to 8) (size 9 to 14) (size 15 to 20)
#    0.000    1.750    5.000    3.000    0.000    1.000 
#    0.000    0.625    0.000    0.000    0.000    0.000 
#    0.000    0.000    0.000    8.500    0.000    4.750 
#
# Total GULP energy -396418.730642 kJ/mol
# GULP energy per Si atom -12388.085333 kJ/mol
# Density = 1.677013 g / cm^3
# Si number density = 16.808384 Si / 1000 Ang^3
#
#
#
# Elastic Constant Matrix: (Units=GPa)
#
#
# Indices 1 2 3 4 5 6 
#
# 1 82.0943 17.7490 29.2613 0.0000 -25.2347 0.0000
# 2 17.7490 70.2013 35.4714 0.0000 -10.0748 0.0000
# 3 29.2613 35.4714 79.9522 0.0000 -19.6480 0.0000
# 4 0.0000 0.0000 0.0000 22.7339 0.0000 -4.5350
# 5 -25.2347 -10.0748 -19.6480 0.0000 24.2326 0.0000
# 6 0.0000 0.0000 0.0000 -4.5350 0.0000 15.5517
#
#
#
# Elastic Compliance Matrix: (Units=1/GPa)
#
#
# Indices 1 2 3 4 5 6 
#
# 1 0.018389 -0.001185 -0.002022 0.000000 0.017017 0.000000
# 2 -0.001185 0.018469 -0.007713 0.000000 0.000190 0.000000
# 3 -0.002022 -0.007713 0.019187 0.000000 0.010244 0.000000
# 4 0.000000 0.000000 0.000000 0.046704 0.000000 0.013619
# 5 0.017017 0.000190 0.010244 0.000000 0.067373 0.000000
# 6 0.000000 0.000000 0.000000 0.013619 0.000000 0.068273
#
#
# Mechanical properties :
#
#
# Convention : Reuss Voigt Hill
#
# Bulk Modulus (GPa) = 29.23704 44.13460 36.68582
# Shear Modulus (GPa) = 18.40683 22.48806 20.44744
#
# Velocity S-wave (km/s) = 3.31282 3.66171 3.49162
# Velocity P-wave (km/s) = 5.66260 6.64770 6.17483
#
# Compressibility (1/GPa) = 0.03420319
#
# Stress axis : x y z
#
# Youngs Moduli (GPa) = 54.38038 54.14423 52.11779
#
# Poissons Ratio (x) = 0.06418 0.10540
# Poissons Ratio (y) = 0.06446 0.40201
# Poissons Ratio (z) = 0.10998 0.41764
#
# Static dielectric constant tensor:
#      x y z
#    x 3.122060 0.000000 -0.265380 
#    y 0.000000 3.002930 0.000000 
#    z -0.265380 0.000000 3.290880 
# 
# 
# High freq. dielectric constant tensor:
#      x y z
#    x 1.632230 0.000000 -0.022530 
#    y 0.000000 1.618230 0.000000 
#    z -0.022530 0.000000 1.635660 
# 
# From -- ./inp_files/296668.got.cif
#   From: 2010.06.25/outbox.cif.g09.slc.cpg/sg12_149_cif.got.tgz:296668.got - 2010.06.28 00:19:55.
