data_PCOD8085520
_publ_section_title
;
Structure prediction by ZEFSAII (Michael W. Deem and Ramdas Pophale) SiO2 
 PCOD8085520
Probable space group: C 2/M
;
_chemical_formula_sum "Si O2"
_cell_formula_units_Z 60
_cell_length_a 17.814617
_cell_length_b 13.655746
_cell_length_c 14.596761
_cell_angle_alpha 90.000000
_cell_angle_beta 102.427176
_cell_angle_gamma 90.000000
_cell_volume 3467.783189
_symmetry_space_group_name_H-M "C 2/M"
_symmetry_group_IT_number 12
_symmetry_cell_setting 'monoclinic'
loop_
_space_group_symop_operation_xyz
x,y,z
-x,y,-z
-x,-y,-z
x,-y,z
1/2+x,1/2+y,z
1/2-x,1/2+y,-z
1/2-x,1/2-y,-z
1/2+x,1/2-y,z
loop_
_atom_site_type_symbol
_atom_site_label
_atom_site_fract_x
_atom_site_fract_y
_atom_site_fract_z
Si Si1 0.000000 0.746415 0.000000
Si Si2 0.230683 0.385683 0.814113
Si Si3 0.585984 0.111341 0.891314
Si Si4 0.427714 0.203988 0.544846
Si Si5 0.935825 0.610225 0.740342
Si Si6 0.703718 0.111381 0.600803
Si Si7 0.381271 0.610429 0.631064
Si Si8 0.386802 0.702926 0.823329
O O1 0.065488 0.678577 0.972029
O O2 0.956728 0.812567 0.913368
O O3 0.252574 0.500000 0.825201
O O4 0.168239 0.355655 0.873408
O O5 0.196180 0.361492 0.705492
O O6 0.306831 0.321810 0.852381
O O7 0.524014 0.122418 0.794005
O O8 0.589436 0.000000 0.927570
O O9 0.500000 0.183283 0.500000
O O10 0.431299 0.131476 0.631734
O O11 0.349720 0.184390 0.469436
O O12 0.428238 0.316694 0.577937
O O13 0.905830 0.500000 0.750900
O O14 0.883539 0.685024 0.785397
O O15 0.790920 0.126715 0.590882
O O16 0.676999 0.000000 0.576606
O O17 0.406121 0.500000 0.613471
O O18 0.401626 0.629920 0.742679
#
# Coordination Sequence:
#
# PCOD8085520 Si02
#       8
#     4   8   8   8   8   8   8   8
#     4  10  19  30  47  72  96 118 152 194 238 284
#     4   9  17  31  50  70  93 125 161 192 226 271
#     4   9  17  30  48  69  96 127 155 187 231 282
#     4  11  20  28  46  75 100 123 155 195 232 268
#     4   9  18  31  46  69 101 130 152 184 236 284
#     4   9  17  30  49  70  93 124 159 192 226 270
#     4   9  19  36  51  64  90 127 162 192 228 277
#     4   9  18  32  50  71  91 119 157 196 238 279
#
# _framework density 17.302118
#
# number of rings (size 3 to 8) (size 9 to 14) (size 15 to 20)
#    0.000    2.667    0.000    3.000    0.000    3.467 
#    0.000    1.333    0.000    0.000    0.000   12.133 
#    0.000    0.000    0.000    0.000    0.000    0.000 
#
# Total GULP energy -372010.096284 kJ/mol
# GULP energy per Si atom -12400.336543 kJ/mol
# Density = 1.726274 g / cm^3
# Si number density = 17.302118 Si / 1000 Ang^3
#
#
#
# Elastic Constant Matrix: (Units=GPa)
#
#
# Indices 1 2 3 4 5 6 
#
# 1 81.6292 33.3104 33.8151 0.0000 -2.0705 0.0000
# 2 33.3104 77.0332 25.2736 0.0000 6.0721 0.0000
# 3 33.8151 25.2736 80.0939 0.0000 10.7882 0.0000
# 4 0.0000 0.0000 0.0000 17.4155 0.0000 1.0744
# 5 -2.0705 6.0721 10.7882 0.0000 22.2627 0.0000
# 6 0.0000 0.0000 0.0000 1.0744 0.0000 22.7983
#
#
#
# Elastic Compliance Matrix: (Units=1/GPa)
#
#
# Indices 1 2 3 4 5 6 
#
# 1 0.017478 -0.005975 -0.006347 0.000000 0.006331 0.000000
# 2 -0.005975 0.016595 -0.002171 0.000000 -0.004030 0.000000
# 3 -0.006347 -0.002171 0.016956 0.000000 -0.008215 0.000000
# 4 0.000000 0.000000 0.000000 0.057588 0.000000 -0.002714
# 5 0.006331 -0.004030 -0.008215 0.000000 0.050587 0.000000
# 6 0.000000 0.000000 0.000000 -0.002714 0.000000 0.043991
#
#
# Mechanical properties :
#
#
# Convention : Reuss Voigt Hill
#
# Bulk Modulus (GPa) = 45.36257 47.06164 46.21210
# Shear Modulus (GPa) = 20.87437 22.25245 21.56341
#
# Velocity S-wave (km/s) = 3.47719 3.59013 3.53411
# Velocity P-wave (km/s) = 6.51122 6.66666 6.58940
#
# Compressibility (1/GPa) = 0.02204461
#
# Stress axis : x y z
#
# Youngs Moduli (GPa) = 57.21394 60.25926 58.97448
#
# Poissons Ratio (x) = 0.36003 0.37429
# Poissons Ratio (y) = 0.34183 0.12805
# Poissons Ratio (z) = 0.36311 0.13084
#
# Static dielectric constant tensor:
#      x y z
#    x 3.127500 0.000000 -0.005950 
#    y 0.000000 3.197630 0.000000 
#    z -0.005950 0.000000 3.165450 
# 
# 
# High freq. dielectric constant tensor:
#      x y z
#    x 1.655110 0.000000 -0.000390 
#    y 0.000000 1.658520 0.000000 
#    z -0.000390 0.000000 1.667060 
# 
# From -- ./inp_files/224860.got.cif
#   From: 2010.06.25/outbox.cif.g09.slc.cpg/sg12_113_cif.got.tgz:224860.got - 2010.06.28 00:19:55.
