data_PCOD8085573
_publ_section_title
;
Structure prediction by ZEFSAII (Michael W. Deem and Ramdas Pophale) SiO2 
 PCOD8085573
Probable space group: C 2/M
;
_chemical_formula_sum "Si O2"
_cell_formula_units_Z 56
_cell_length_a 21.222114
_cell_length_b 9.678206
_cell_length_c 18.961599
_cell_angle_alpha 90.000000
_cell_angle_beta 131.963367
_cell_angle_gamma 90.000000
_cell_volume 2895.888115
_symmetry_space_group_name_H-M "C 2/M"
_symmetry_group_IT_number 12
_symmetry_cell_setting 'monoclinic'
loop_
_space_group_symop_operation_xyz
x,y,z
-x,y,-z
-x,-y,-z
x,-y,z
1/2+x,1/2+y,z
1/2-x,1/2+y,-z
1/2-x,1/2-y,-z
1/2+x,1/2-y,z
loop_
_atom_site_type_symbol
_atom_site_label
_atom_site_fract_x
_atom_site_fract_y
_atom_site_fract_z
Si Si1 0.481876 0.655253 0.068913
Si Si2 0.477413 0.838606 0.284909
Si Si3 0.812026 0.347429 0.088506
Si Si4 0.593689 0.841355 0.252171
Si Si5 0.255023 0.159143 0.723901
Si Si6 0.064995 0.838036 0.610076
Si Si7 0.188640 0.153101 0.113552
O O1 0.498005 0.500000 0.108659
O O2 0.538794 0.755761 0.156345
O O3 0.500000 0.670491 0.000000
O O4 0.381496 0.694705 0.998678
O O5 0.409035 0.799206 0.172072
O O6 0.567991 0.806196 0.314328
O O7 0.465068 0.744713 0.343865
O O8 0.469318 0.000000 0.300435
O O9 0.807505 0.500000 0.050600
O O10 0.779744 0.350549 0.145175
O O11 0.750000 0.250000 0.000000
O O12 0.694962 0.817089 0.313314
O O13 0.570232 0.000000 0.220035
O O14 0.157484 0.209795 0.650301
O O15 0.310637 0.240677 0.822155
O O16 0.256968 0.000000 0.747578
O O17 0.000000 0.801765 0.500000
O O18 0.064031 0.000000 0.628272
O O19 0.165197 0.000000 0.125979
#
# Coordination Sequence:
#
# PCOD8085573 Si02
#       7
#     8   8   8   8   8   8   8
#     4  10  19  30  47  74 111 154 193 228 267 317
#     4  10  21  38  58  83 115 147 183 230 281 335
#     4  10  20  32  49  74 108 147 185 225 267 316
#     4  10  21  35  53  80 114 149 184 226 276 329
#     4  10  20  35  56  80 106 140 179 223 275 329
#     4  10  22  41  64  87 109 139 184 236 288 342
#     4  10  19  32  49  73 106 143 186 231 267 310
#
# _framework density 19.337765000000001
#
# number of rings (size 3 to 8) (size 9 to 14) (size 15 to 20)
#    0.000    2.000    2.857    0.857    0.000    2.857 
#    0.000    0.714    0.000    0.000    0.000    0.000 
#    0.000    0.000    0.000    0.000    0.000    0.000 
#
# Total GULP energy -346938.971756 kJ/mol
# GULP energy per Si atom -12390.677563 kJ/mol
# Density = 1.929375 g / cm^3
# Si number density = 19.337765 Si / 1000 Ang^3
#
#
#
# Elastic Constant Matrix: (Units=GPa)
#
#
# Indices 1 2 3 4 5 6 
#
# 1 142.9859 45.3189 52.7553 0.0000 9.8391 0.0000
# 2 45.3189 69.9801 49.3342 0.0000 -2.8437 0.0000
# 3 52.7553 49.3342 86.6158 0.0000 -0.1710 0.0000
# 4 0.0000 0.0000 0.0000 22.8772 0.0000 -5.1583
# 5 9.8391 -2.8437 -0.1710 0.0000 19.2450 0.0000
# 6 0.0000 0.0000 0.0000 -5.1583 0.0000 24.5978
#
#
#
# Elastic Compliance Matrix: (Units=1/GPa)
#
#
# Indices 1 2 3 4 5 6 
#
# 1 0.010101 -0.004063 -0.003849 0.000000 -0.005799 0.000000
# 2 -0.004063 0.025738 -0.012173 0.000000 0.005772 0.000000
# 3 -0.003849 -0.012173 0.020824 0.000000 0.000354 0.000000
# 4 0.000000 0.000000 0.000000 0.045881 0.000000 0.009622
# 5 -0.005799 0.005772 0.000354 0.000000 0.055782 0.000000
# 6 0.000000 0.000000 0.000000 0.009622 0.000000 0.042672
#
#
# Mechanical properties :
#
#
# Convention : Reuss Voigt Hill
#
# Bulk Modulus (GPa) = 60.63978 66.04429 63.34203
# Shear Modulus (GPa) = 20.27036 23.48889 21.87962
#
# Velocity S-wave (km/s) = 3.24115 3.48898 3.36735
# Velocity P-wave (km/s) = 6.74040 7.10337 6.92426
#
# Compressibility (1/GPa) = 0.01649082
#
# Stress axis : x y z
#
# Youngs Moduli (GPa) = 99.00293 38.85380 48.02166
#
# Poissons Ratio (x) = 0.15787 0.18484
# Poissons Ratio (y) = 0.40227 0.58458
# Poissons Ratio (z) = 0.38108 0.47298
#
# Static dielectric constant tensor:
#      x y z
#    x 4.257820 0.000000 0.437740 
#    y 0.000000 3.500620 0.000000 
#    z 0.437740 0.000000 3.249760 
# 
# 
# High freq. dielectric constant tensor:
#      x y z
#    x 1.779600 0.000000 0.019730 
#    y 0.000000 1.749560 0.000000 
#    z 0.019730 0.000000 1.707460 
# 
# From -- ./inp_files/320207.got.cif
#   From: 2010.06.25/outbox.cif.g09.slc.cpg/sg12_161_cif.got.tgz:320207.got - 2010.06.28 00:19:55.
