data_PCOD8085179
_publ_section_title
;
Structure prediction by ZEFSAII (Michael W. Deem and Ramdas Pophale) SiO2 
 PCOD8085179
Probable space group: C 2/M
;
_chemical_formula_sum "Si O2"
_cell_formula_units_Z 56
_cell_length_a 23.484118
_cell_length_b 9.417665
_cell_length_c 18.841859
_cell_angle_alpha 90.000000
_cell_angle_beta 51.387721
_cell_angle_gamma 90.000000
_cell_volume 3256.171605
_symmetry_space_group_name_H-M "C 2/M"
_symmetry_group_IT_number 12
_symmetry_cell_setting 'monoclinic'
loop_
_space_group_symop_operation_xyz
x,y,z
-x,y,-z
-x,-y,-z
x,-y,z
1/2+x,1/2+y,z
1/2-x,1/2+y,-z
1/2-x,1/2-y,-z
1/2+x,1/2-y,z
loop_
_atom_site_type_symbol
_atom_site_label
_atom_site_fract_x
_atom_site_fract_y
_atom_site_fract_z
Si Si1 0.628368 0.167805 0.023002
Si Si2 0.111360 0.332212 0.194922
Si Si3 0.814603 0.168588 0.411807
Si Si4 0.666433 0.662344 0.764313
Si Si5 0.046724 0.340762 0.685177
Si Si6 0.745250 0.664947 0.841928
Si Si7 0.467223 0.156084 0.135867
O O1 0.632509 0.226474 0.100578
O O2 0.548878 0.205161 0.051530
O O3 0.642813 0.000000 0.008711
O O4 0.689151 0.246700 0.931471
O O5 0.105224 0.500000 0.192648
O O6 0.172570 0.284659 0.203973
O O7 0.031056 0.281120 0.283953
O O8 0.750000 0.250000 0.500000
O O9 0.807840 0.208628 0.333884
O O10 0.890021 0.230182 0.385263
O O11 0.810445 0.000000 0.428841
O O12 0.643017 0.500000 0.781106
O O13 0.731872 0.692040 0.768651
O O14 0.594351 0.742240 0.847973
O O15 0.065089 0.500000 0.641830
O O16 0.037868 0.348221 0.775904
O O17 0.734902 0.500000 0.869488
O O18 0.452001 0.000000 0.116198
#
# Coordination Sequence:
#
# PCOD8085179 Si02
#       7
#     8   8   8   8   8   8   8
#     4   9  17  29  44  65  89 118 159 199 224 250
#     4   8  15  29  48  66  89 121 157 190 219 253
#     4  10  19  32  51  74  94 112 138 178 223 271
#     4   9  19  32  45  65  93 118 145 181 224 271
#     4   8  14  28  49  70  89 114 147 183 220 259
#     4  10  19  30  44  64  91 124 154 185 224 263
#     4   8  15  28  45  62  86 119 153 187 224 262
#
# _framework density 17.198108999999999
#
# number of rings (size 3 to 8) (size 9 to 14) (size 15 to 20)
#    0.000    3.143    0.000    2.571    0.000    2.286 
#    0.000    5.714    0.000    0.857    0.000    6.000 
#    0.000    0.000    0.000    0.000    0.000    0.000 
#
# Total GULP energy -347004.932069 kJ/mol
# GULP energy per Si atom -12393.033288 kJ/mol
# Density = 1.715897 g / cm^3
# Si number density = 17.198109 Si / 1000 Ang^3
#
#
#
# Elastic Constant Matrix: (Units=GPa)
#
#
# Indices 1 2 3 4 5 6 
#
# 1 122.5651 49.6585 66.1906 -0.0002 -20.8343 -0.0002
# 2 49.6585 63.3726 45.8335 0.0039 -15.0707 -0.0053
# 3 66.1906 45.8335 83.1533 0.0009 -27.9927 -0.0010
# 4 -0.0002 0.0039 0.0009 25.7679 -0.0004 -7.0832
# 5 -20.8343 -15.0707 -27.9927 -0.0004 24.6455 0.0009
# 6 -0.0002 -0.0053 -0.0010 -7.0832 0.0009 20.9944
#
#
#
# Elastic Compliance Matrix: (Units=1/GPa)
#
#
# Indices 1 2 3 4 5 6 
#
# 1 0.015336 -0.005289 -0.009741 0.000001 -0.001334 -0.000001
# 2 -0.005289 0.028070 -0.011315 -0.000002 -0.000158 0.000006
# 3 -0.009741 -0.011315 0.033863 0.000000 0.023308 -0.000002
# 4 0.000001 -0.000002 0.000000 0.042775 0.000000 0.014432
# 5 -0.001334 -0.000158 0.023308 0.000000 0.065825 -0.000002
# 6 -0.000001 0.000006 -0.000002 0.014432 -0.000002 0.052501
#
#
# Mechanical properties :
#
#
# Convention : Reuss Voigt Hill
#
# Bulk Modulus (GPa) = 40.68619 65.82848 53.25733
# Shear Modulus (GPa) = 16.70825 21.44212 19.07519
#
# Velocity S-wave (km/s) = 3.12030 3.53480 3.33399
# Velocity P-wave (km/s) = 6.05726 7.41751 6.77162
#
# Compressibility (1/GPa) = 0.02457837
#
# Stress axis : x y z
#
# Youngs Moduli (GPa) = 65.20717 35.62505 29.53042
#
# Poissons Ratio (x) = 0.18843 0.28766
# Poissons Ratio (y) = 0.34489 0.33414
# Poissons Ratio (z) = 0.63519 0.40310
#
# Static dielectric constant tensor:
#      x y z
#    x 3.602830 0.000000 -0.230590 
#    y 0.000000 3.191750 0.000000 
#    z -0.230590 0.000000 3.037590 
# 
# 
# High freq. dielectric constant tensor:
#      x y z
#    x 1.665480 0.000000 -0.017260 
#    y 0.000000 1.648630 0.000000 
#    z -0.017260 0.000000 1.636190 
# 
# From -- ./inp_files/287403.got.cif
#   From: 2010.06.25/outbox.cif.g09.slc.cpg/sg12_144_cif.got.tgz:287403.got - 2010.06.28 00:19:55.
