data_PCOD8085988
_publ_section_title
;
Structure prediction by ZEFSAII (Michael W. Deem and Ramdas Pophale) SiO2 
 PCOD8085988
Probable space group: C 2/M
;
_chemical_formula_sum "Si O2"
_cell_formula_units_Z 64
_cell_length_a 23.103233
_cell_length_b 8.842655
_cell_length_c 17.871256
_cell_angle_alpha 90.000000
_cell_angle_beta 86.983473
_cell_angle_gamma 90.000000
_cell_volume 3645.930101
_symmetry_space_group_name_H-M "C 2/M"
_symmetry_group_IT_number 12
_symmetry_cell_setting 'monoclinic'
loop_
_space_group_symop_operation_xyz
x,y,z
-x,y,-z
-x,-y,-z
x,-y,z
1/2+x,1/2+y,z
1/2-x,1/2+y,-z
1/2-x,1/2-y,-z
1/2+x,1/2-y,z
loop_
_atom_site_type_symbol
_atom_site_label
_atom_site_fract_x
_atom_site_fract_y
_atom_site_fract_z
Si Si1 0.177015 0.330015 0.437781
Si Si2 0.371668 0.823446 0.117192
Si Si3 0.883832 0.679794 0.849294
Si Si4 0.499754 0.176288 0.916953
Si Si5 0.187873 0.179204 0.017080
Si Si6 0.314589 0.669457 0.415798
Si Si7 0.831987 0.177486 0.712853
Si Si8 0.801409 0.322899 0.266622
O O1 0.152896 0.500000 0.432256
O O2 0.245994 0.328700 0.430310
O O3 0.155871 0.261039 0.518176
O O4 0.152047 0.228853 0.372124
O O5 0.439458 0.792689 0.128912
O O6 0.334713 0.767373 0.190434
O O7 0.360066 0.000000 0.100799
O O8 0.354853 0.726911 0.046294
O O9 0.877856 0.500000 0.855364
O O10 0.947026 0.740701 0.870901
O O11 0.835178 0.758043 0.903078
O O12 0.874383 0.732921 0.765166
O O13 0.488081 0.000000 0.927767
O O14 0.500000 0.250705 0.000000
O O15 0.193090 0.000000 0.021540
O O16 0.250000 0.250000 0.000000
O O17 0.339118 0.500000 0.415745
O O18 0.331278 0.743632 0.335581
O O19 0.765779 0.222177 0.736876
O O20 0.842470 0.000000 0.719971
O O21 0.808605 0.500000 0.278624
#
# Coordination Sequence:
#
# PCOD8085988 Si02
#       8
#     8   8   8   8   8   8   8   8
#     4   9  16  27  44  67  96 132 170 201 237 291
#     4  10  19  35  55  74  98 131 170 210 252 297
#     4  11  21  35  54  74  98 131 170 210 253 300
#     4   9  17  33  56  76  95 126 169 214 256 298
#     4  12  24  36  51  73 100 131 165 203 251 306
#     4   9  16  26  43  67  98 132 163 198 240 289
#     4  10  19  31  46  71 105 135 166 206 252 298
#     4   9  18  30  47  70  99 132 164 201 244 295
#
# _framework density 17.553820000000002
#
# number of rings (size 3 to 8) (size 9 to 14) (size 15 to 20)
#    0.000    2.125    1.250    3.375    0.000    5.000 
#    0.000    1.875    0.000    0.000    0.000    0.875 
#    0.000    7.000    0.000    0.000    0.000    0.000 
#
# Total GULP energy -396825.820095 kJ/mol
# GULP energy per Si atom -12400.806878 kJ/mol
# Density = 1.751387 g / cm^3
# Si number density = 17.553820 Si / 1000 Ang^3
#
#
#
# Elastic Constant Matrix: (Units=GPa)
#
#
# Indices 1 2 3 4 5 6 
#
# 1 63.7283 23.8012 25.1223 0.0000 18.4842 0.0000
# 2 23.8012 84.5983 35.6802 0.0000 9.8019 0.0000
# 3 25.1223 35.6802 108.6317 0.0000 20.4627 0.0000
# 4 0.0000 0.0000 0.0000 34.6970 0.0000 3.0406
# 5 18.4842 9.8019 20.4627 0.0000 16.2092 0.0000
# 6 0.0000 0.0000 0.0000 3.0406 0.0000 13.7602
#
#
#
# Elastic Compliance Matrix: (Units=1/GPa)
#
#
# Indices 1 2 3 4 5 6 
#
# 1 0.024646 -0.004143 0.000634 0.000000 -0.026401 0.000000
# 2 -0.004143 0.014564 -0.004010 0.000000 0.000979 0.000000
# 3 0.000634 -0.004010 0.013192 0.000000 -0.014952 0.000000
# 4 0.000000 0.000000 0.000000 0.029390 0.000000 -0.006494
# 5 -0.026401 0.000979 -0.014952 0.000000 0.110083 0.000000
# 6 0.000000 0.000000 0.000000 -0.006494 0.000000 0.074108
#
#
# Mechanical properties :
#
#
# Convention : Reuss Voigt Hill
#
# Bulk Modulus (GPa) = 26.76271 47.35174 37.05723
# Shear Modulus (GPa) = 17.03716 24.42361 20.73038
#
# Velocity S-wave (km/s) = 3.11877 3.73413 3.44024
# Velocity P-wave (km/s) = 5.31490 6.75466 6.07757
#
# Compressibility (1/GPa) = 0.03736542
#
# Stress axis : x y z
#
# Youngs Moduli (GPa) = 40.57398 68.66324 75.80129
#
# Poissons Ratio (x) = 0.28444 -0.04805
# Poissons Ratio (y) = 0.16808 0.30396
# Poissons Ratio (z) = -0.02572 0.27534
#
# Static dielectric constant tensor:
#      x y z
#    x 3.052550 0.000000 0.078460 
#    y 0.000000 3.266010 0.000000 
#    z 0.078460 0.000000 3.430390 
# 
# 
# High freq. dielectric constant tensor:
#      x y z
#    x 1.637200 0.000000 0.009240 
#    y 0.000000 1.676150 0.000000 
#    z 0.009240 0.000000 1.686400 
# 
# From -- ./inp_files/281313.got.cif
#   From: 2010.06.25/outbox.cif.g09.slc.cpg/sg12_141_cif.got.tgz:281313.got - 2010.06.28 00:19:55.
