data_PCOD8085517
_publ_section_title
;
Structure prediction by ZEFSAII (Michael W. Deem and Ramdas Pophale) SiO2 
 PCOD8085517
Probable space group: C 2/M
;
_chemical_formula_sum "Si O2"
_cell_formula_units_Z 56
_cell_length_a 25.993564
_cell_length_b 22.301018
_cell_length_c 4.971420
_cell_angle_alpha 90.000000
_cell_angle_beta 85.115475
_cell_angle_gamma 90.000000
_cell_volume 2871.381437
_symmetry_space_group_name_H-M "C 2/M"
_symmetry_group_IT_number 12
_symmetry_cell_setting 'monoclinic'
loop_
_space_group_symop_operation_xyz
x,y,z
-x,y,-z
-x,-y,-z
x,-y,z
1/2+x,1/2+y,z
1/2-x,1/2+y,-z
1/2-x,1/2-y,-z
1/2+x,1/2-y,z
loop_
_atom_site_type_symbol
_atom_site_label
_atom_site_fract_x
_atom_site_fract_y
_atom_site_fract_z
Si Si1 0.689690 0.256441 0.059650
Si Si2 0.904903 0.680426 0.932868
Si Si3 0.535631 0.066853 0.238929
Si Si4 0.554690 0.432286 0.925077
Si Si5 0.348019 0.319487 0.414013
Si Si6 0.944034 0.251704 0.412509
Si Si7 0.118212 0.932880 0.381330
O O1 0.655739 0.197193 0.980939
O O2 0.679211 0.272908 0.373026
O O3 0.750000 0.250000 0.000000
O O4 0.674570 0.311566 0.872473
O O5 0.916443 0.610386 0.862108
O O6 0.914876 0.714066 0.655851
O O7 0.943361 0.704885 0.149865
O O8 0.500000 0.092422 0.500000
O O9 0.557032 0.000000 0.304804
O O10 0.500000 0.061181 0.000000
O O11 0.548578 0.500000 0.039331
O O12 0.599207 0.405917 0.102437
O O13 0.500000 0.398437 0.000000
O O14 0.569935 0.431854 0.607814
O O15 0.410519 0.308117 0.367028
O O16 0.338622 0.387502 0.520583
O O17 0.000000 0.233838 0.500000
O O18 0.142097 0.000000 0.349922
#
# Coordination Sequence:
#
# PCOD8085517 Si02
#       7
#     8   8   8   8   8   8   8
#     4  10  21  38  58  77  97 128 171 223 270 305
#     4  10  19  32  51  73 100 133 169 207 253 304
#     4  10  19  30  48  76 109 143 172 197 237 306
#     4   9  17  28  43  65  94 134 178 205 231 281
#     4  10  21  35  52  78 102 128 173 213 254 314
#     4  10  19  30  47  72 103 135 165 205 250 294
#     4  10  19  32  49  69  99 135 167 209 257 298
#
# _framework density 19.502807000000001
#
# number of rings (size 3 to 8) (size 9 to 14) (size 15 to 20)
#    0.000    2.143    0.000    4.286    0.000    2.857 
#    0.000    0.000    0.000    1.714    0.000    0.000 
#    0.000    0.000    0.000    0.000    0.000    0.000 
#
# Total GULP energy -346882.801614 kJ/mol
# GULP energy per Si atom -12388.671486 kJ/mol
# Density = 1.945842 g / cm^3
# Si number density = 19.502807 Si / 1000 Ang^3
#
#
#
# Elastic Constant Matrix: (Units=GPa)
#
#
# Indices 1 2 3 4 5 6 
#
# 1 117.0384 16.3367 20.7160 0.0000 -1.2275 0.0000
# 2 16.3367 102.6092 -14.6820 0.0000 -0.0301 0.0000
# 3 20.7160 -14.6820 87.7569 0.0000 11.1336 0.0000
# 4 0.0000 0.0000 0.0000 22.8874 0.0000 0.5701
# 5 -1.2275 -0.0301 11.1336 0.0000 24.7368 0.0000
# 6 0.0000 0.0000 0.0000 0.5701 0.0000 17.5525
#
#
#
# Elastic Compliance Matrix: (Units=1/GPa)
#
#
# Indices 1 2 3 4 5 6 
#
# 1 0.009305 -0.001871 -0.002723 0.000000 0.001685 0.000000
# 2 -0.001871 0.010375 0.002320 0.000000 -0.001124 0.000000
# 3 -0.002723 0.002320 0.013196 0.000000 -0.006072 0.000000
# 4 0.000000 0.000000 0.000000 0.043728 0.000000 -0.001420
# 5 0.001685 -0.001124 -0.006072 0.000000 0.043241 0.000000
# 6 0.000000 0.000000 0.000000 -0.001420 0.000000 0.057018
#
#
# Mechanical properties :
#
#
# Convention : Reuss Voigt Hill
#
# Bulk Modulus (GPa) = 35.29977 39.12733 37.21355
# Shear Modulus (GPa) = 26.19803 32.03757 29.11780
#
# Velocity S-wave (km/s) = 3.66908 4.05744 3.86813
# Velocity P-wave (km/s) = 6.00738 6.48509 6.25080
#
# Compressibility (1/GPa) = 0.02832880
#
# Stress axis : x y z
#
# Youngs Moduli (GPa) = 107.46881 96.38386 75.77785
#
# Poissons Ratio (x) = 0.18030 0.20637
# Poissons Ratio (y) = 0.20104 -0.17581
# Poissons Ratio (z) = 0.29267 -0.22361
#
# Static dielectric constant tensor:
#      x y z
#    x 3.344200 0.000000 0.037770 
#    y 0.000000 3.585170 0.000000 
#    z 0.037770 0.000000 3.874010 
# 
# 
# High freq. dielectric constant tensor:
#      x y z
#    x 1.707810 0.000000 0.012530 
#    y 0.000000 1.746230 0.000000 
#    z 0.012530 0.000000 1.786430 
# 
# From -- ./inp_files/25358.got.cif
#   From: 2010.06.25/outbox.cif.g09.slc.cpg/sg12_13_cif.got.tgz:25358.got - 2010.06.28 00:19:55.
