data_PCOD8085413
_publ_section_title
;
Structure prediction by ZEFSAII (Michael W. Deem and Ramdas Pophale) SiO2 
 PCOD8085413
Probable space group: C 2/M
;
_chemical_formula_sum "Si O2"
_cell_formula_units_Z 48
_cell_length_a 22.499730
_cell_length_b 8.955213
_cell_length_c 19.919321
_cell_angle_alpha 90.000000
_cell_angle_beta 44.009238
_cell_angle_gamma 90.000000
_cell_volume 2788.505652
_symmetry_space_group_name_H-M "C 2/M"
_symmetry_group_IT_number 12
_symmetry_cell_setting 'monoclinic'
loop_
_space_group_symop_operation_xyz
x,y,z
-x,y,-z
-x,-y,-z
x,-y,z
1/2+x,1/2+y,z
1/2-x,1/2+y,-z
1/2-x,1/2-y,-z
1/2+x,1/2-y,z
loop_
_atom_site_type_symbol
_atom_site_label
_atom_site_fract_x
_atom_site_fract_y
_atom_site_fract_z
Si Si1 0.348179 0.175401 0.273183
Si Si2 0.298023 0.328594 0.519948
Si Si3 0.596420 0.676539 0.908066
Si Si4 0.188030 0.325351 0.955268
Si Si5 0.366830 0.672346 0.869886
Si Si6 0.945943 0.827218 0.313740
O O1 0.247592 0.216327 0.372450
O O2 0.374257 0.269596 0.188100
O O3 0.408220 0.222071 0.286483
O O4 0.360536 0.000000 0.248367
O O5 0.277435 0.500000 0.526775
O O6 0.250000 0.250000 0.500000
O O7 0.399430 0.296188 0.424451
O O8 0.602304 0.500000 0.906762
O O9 0.660252 0.743691 0.910653
O O10 0.500000 0.732139 0.000000
O O11 0.172866 0.500000 0.958462
O O12 0.287532 0.284781 0.886750
O O13 0.132013 0.269463 0.063460
O O14 0.360391 0.500000 0.897188
O O15 0.453597 0.706646 0.758502
O O16 0.931968 0.000000 0.303689
#
# Coordination Sequence:
#
# PCOD8085413 Si02
#       6
#     8   8   8   8   8   8
#     4  10  19  30  46  71  99 123 152 191 232 271
#     4   8  15  27  44  67  94 122 151 186 226 268
#     4  11  23  36  49  66  91 124 158 189 227 278
#     4  10  20  33  49  70  95 122 154 192 231 269
#     4   9  18  32  50  71  95 123 154 188 226 272
#     4   9  16  29  49  71  96 125 155 185 224 274
#
# _framework density 17.213519999999999
#
# number of rings (size 3 to 8) (size 9 to 14) (size 15 to 20)
#    0.000    2.500    0.000    2.500    0.000    7.333 
#    0.000    0.000    0.000    1.000    0.000    7.000 
#    0.000    0.000    0.000    0.000    0.000    0.000 
#
# Total GULP energy -297371.255902 kJ/mol
# GULP energy per Si atom -12390.468996 kJ/mol
# Density = 1.717434 g / cm^3
# Si number density = 17.213520 Si / 1000 Ang^3
#
#
#
# Elastic Constant Matrix: (Units=GPa)
#
#
# Indices 1 2 3 4 5 6 
#
# 1 61.7996 19.5656 47.2739 -0.0001 -4.6520 -0.0005
# 2 19.5656 43.7777 31.3790 0.0000 0.2679 -0.0019
# 3 47.2739 31.3790 151.0865 -0.0002 -18.0559 -0.0004
# 4 -0.0001 0.0000 -0.0002 18.4898 0.0001 1.5889
# 5 -4.6520 0.2679 -18.0559 0.0001 26.7343 0.0002
# 6 -0.0005 -0.0019 -0.0004 1.5889 0.0002 25.1277
#
#
#
# Elastic Compliance Matrix: (Units=1/GPa)
#
#
# Indices 1 2 3 4 5 6 
#
# 1 0.022493 -0.005890 -0.005809 0.000000 0.000050 0.000000
# 2 -0.005890 0.028862 -0.004687 0.000000 -0.004479 0.000002
# 3 -0.005809 -0.004687 0.010111 0.000000 0.005865 0.000000
# 4 0.000000 0.000000 0.000000 0.054379 0.000000 -0.003439
# 5 0.000050 -0.004479 0.005865 0.000000 0.041420 -0.000001
# 6 0.000000 0.000002 0.000000 -0.003439 -0.000001 0.040014
#
#
# Mechanical properties :
#
#
# Convention : Reuss Voigt Hill
#
# Bulk Modulus (GPa) = 34.84916 50.34454 42.59685
# Shear Modulus (GPa) = 20.86691 24.63338 22.75014
#
# Velocity S-wave (km/s) = 3.48550 3.78702 3.63939
# Velocity P-wave (km/s) = 6.04048 6.95936 6.51614
#
# Compressibility (1/GPa) = 0.02869510
#
# Stress axis : x y z
#
# Youngs Moduli (GPa) = 44.45797 34.64801 98.90695
#
# Poissons Ratio (x) = 0.20406 0.57453
# Poissons Ratio (y) = 0.26184 0.46356
# Poissons Ratio (z) = 0.25825 0.16239
#
# Static dielectric constant tensor:
#      x y z
#    x 2.999540 0.000000 -0.314590 
#    y 0.000000 3.219050 0.000000 
#    z -0.314590 0.000000 3.836780 
# 
# 
# High freq. dielectric constant tensor:
#      x y z
#    x 1.626400 0.000000 -0.019590 
#    y 0.000000 1.673430 0.000000 
#    z -0.019590 0.000000 1.680570 
# 
# From -- ./inp_files/280792.got.cif
#   From: 2010.06.25/outbox.cif.g09.slc.cpg/sg12_141_cif.got.tgz:280792.got - 2010.06.28 00:19:55.
