data_PCOD8085173
_publ_section_title
;
Structure prediction by ZEFSAII (Michael W. Deem and Ramdas Pophale) SiO2 
 PCOD8085173
Probable space group: C 2/M
;
_chemical_formula_sum "Si O2"
_cell_formula_units_Z 56
_cell_length_a 9.831327
_cell_length_b 25.355760
_cell_length_c 15.049367
_cell_angle_alpha 90.000000
_cell_angle_beta 118.774230
_cell_angle_gamma 90.000000
_cell_volume 3288.292618
_symmetry_space_group_name_H-M "C 2/M"
_symmetry_group_IT_number 12
_symmetry_cell_setting 'monoclinic'
loop_
_space_group_symop_operation_xyz
x,y,z
-x,y,-z
-x,-y,-z
x,-y,z
1/2+x,1/2+y,z
1/2-x,1/2+y,-z
1/2-x,1/2-y,-z
1/2+x,1/2-y,z
loop_
_atom_site_type_symbol
_atom_site_label
_atom_site_fract_x
_atom_site_fract_y
_atom_site_fract_z
Si Si1 0.828136 0.678812 0.450148
Si Si2 0.837690 0.289604 0.800114
Si Si3 0.403221 0.058676 0.880002
Si Si4 0.378246 0.139398 0.129783
Si Si5 0.810311 0.140510 0.107362
Si Si6 0.664968 0.665106 0.222463
Si Si7 0.170743 0.803550 0.572095
O O1 0.722268 0.653088 0.340444
O O2 0.823795 0.741208 0.437245
O O3 0.772345 0.665446 0.531608
O O4 0.000000 0.655504 0.500000
O O5 0.760156 0.307229 0.868332
O O6 0.839391 0.226956 0.799068
O O7 0.733109 0.316161 0.689724
O O8 0.015294 0.308416 0.845556
O O9 0.507167 0.088843 0.839173
O O10 0.244883 0.090266 0.851482
O O11 0.362790 0.000000 0.832463
O O12 0.500000 0.055938 0.000000
O O13 0.285265 0.137808 0.192811
O O14 0.253038 0.138564 0.012091
O O15 0.995502 0.140162 0.159680
O O16 0.000000 0.825359 0.500000
#
# Coordination Sequence:
#
# PCOD8085173 Si02
#       7
#     8   8   8   8   8   8   8
#     4   9  17  28  41  58  85 121 155 189 227 258
#     4  10  19  30  44  63  94 134 163 183 215 264
#     4   8  16  34  54  66  83 115 152 193 238 275
#     4  10  20  31  45  67  94 125 159 185 216 275
#     4  10  20  31  45  68  94 122 157 190 219 265
#     4  11  20  29  43  67 100 128 152 188 224 261
#     4   9  16  27  42  59  81 116 162 199 222 248
#
# _framework density 17.030114999999999
#
# number of rings (size 3 to 8) (size 9 to 14) (size 15 to 20)
#    0.000    2.429    0.000    4.286    0.000    8.000 
#    0.000    0.714    0.000    3.429    0.000    0.000 
#    0.000   72.000    0.000    0.000    0.000    0.000 
#
# Total GULP energy -347105.501215 kJ/mol
# GULP energy per Si atom -12396.625043 kJ/mol
# Density = 1.699135 g / cm^3
# Si number density = 17.030115 Si / 1000 Ang^3
#
#
#
# Elastic Constant Matrix: (Units=GPa)
#
#
# Indices 1 2 3 4 5 6 
#
# 1 121.6151 28.0299 25.8104 0.0000 5.0806 0.0000
# 2 28.0299 72.6819 15.4392 0.0000 -0.0114 0.0000
# 3 25.8104 15.4392 71.3710 0.0000 5.5564 0.0000
# 4 0.0000 0.0000 0.0000 4.8994 0.0000 -1.9150
# 5 5.0806 -0.0114 5.5564 0.0000 32.5644 0.0000
# 6 0.0000 0.0000 0.0000 -1.9150 0.0000 6.3419
#
#
#
# Elastic Compliance Matrix: (Units=1/GPa)
#
#
# Indices 1 2 3 4 5 6 
#
# 1 0.009556 -0.003112 -0.002703 0.000000 -0.001031 0.000000
# 2 -0.003112 0.015444 -0.002284 0.000000 0.000881 0.000000
# 3 -0.002703 -0.002284 0.015658 0.000000 -0.002251 0.000000
# 4 0.000000 0.000000 0.000000 0.231419 0.000000 0.069880
# 5 -0.001031 0.000881 -0.002251 0.000000 0.031254 0.000000
# 6 0.000000 0.000000 0.000000 0.069880 0.000000 0.178784
#
#
# Mechanical properties :
#
#
# Convention : Reuss Voigt Hill
#
# Bulk Modulus (GPa) = 40.88024 44.91413 42.89719
# Shear Modulus (GPa) = 9.87234 21.85371 15.86303
#
# Velocity S-wave (km/s) = 2.41031 3.58612 3.05531
# Velocity P-wave (km/s) = 5.63941 6.60133 6.13924
#
# Compressibility (1/GPa) = 0.02446169
#
# Stress axis : x y z
#
# Youngs Moduli (GPa) = 104.64136 64.75052 63.86511
#
# Poissons Ratio (x) = 0.20147 0.17260
# Poissons Ratio (y) = 0.32560 0.14588
# Poissons Ratio (z) = 0.28280 0.14790
#
# Static dielectric constant tensor:
#      x y z
#    x 3.327380 0.000000 -0.023740 
#    y 0.000000 2.963490 0.000000 
#    z -0.023740 0.000000 3.292250 
# 
# 
# High freq. dielectric constant tensor:
#      x y z
#    x 1.671180 0.000000 0.000770 
#    y 0.000000 1.597470 0.000000 
#    z 0.000770 0.000000 1.658760 
# 
# From -- ./inp_files/198503.got.cif
#   From: 2010.06.25/outbox.cif.g09.slc.cpg/sg12_100_cif.got.tgz:198503.got - 2010.06.28 00:19:55.
