data_PCOD8085257
_publ_section_title
;
Structure prediction by ZEFSAII (Michael W. Deem and Ramdas Pophale) SiO2 
 PCOD8085257
Probable space group: C 2/M
;
_chemical_formula_sum "Si O2"
_cell_formula_units_Z 56
_cell_length_a 21.495368
_cell_length_b 9.612120
_cell_length_c 15.847416
_cell_angle_alpha 90.000000
_cell_angle_beta 94.900654
_cell_angle_gamma 90.000000
_cell_volume 3262.360701
_symmetry_space_group_name_H-M "C 2/M"
_symmetry_group_IT_number 12
_symmetry_cell_setting 'monoclinic'
loop_
_space_group_symop_operation_xyz
x,y,z
-x,y,-z
-x,-y,-z
x,-y,z
1/2+x,1/2+y,z
1/2-x,1/2+y,-z
1/2-x,1/2-y,-z
1/2+x,1/2-y,z
loop_
_atom_site_type_symbol
_atom_site_label
_atom_site_fract_x
_atom_site_fract_y
_atom_site_fract_z
Si Si1 0.781599 0.659520 0.381740
Si Si2 0.947251 0.166173 0.059532
Si Si3 0.161120 0.843269 0.477963
Si Si4 0.805892 0.840008 0.044014
Si Si5 0.812140 0.845817 0.241171
Si Si6 0.955837 0.159126 0.247318
Si Si7 0.474715 0.337844 0.584820
O O1 0.801796 0.500000 0.374372
O O2 0.833692 0.738909 0.442874
O O3 0.715342 0.678167 0.417412
O O4 0.775112 0.729963 0.289623
O O5 0.876176 0.212626 0.025806
O O6 0.964899 0.226705 0.154814
O O7 0.946511 0.000000 0.063822
O O8 0.000000 0.220666 0.000000
O O9 0.098820 0.811917 0.418887
O O10 0.161037 0.000000 0.514948
O O11 0.797847 0.823426 0.142349
O O12 0.797401 0.000000 0.014599
O O13 0.750000 0.750000 0.000000
O O14 0.884927 0.827397 0.268046
O O15 0.790381 0.000000 0.266755
O O16 0.996165 0.232144 0.326886
O O17 0.977162 0.000000 0.241519
O O18 0.500000 0.271199 0.500000
O O19 0.493409 0.500000 0.587277
#
# Coordination Sequence:
#
# PCOD8085257 Si02
#       7
#     8   8   8   8   8   8   8
#     4  10  19  30  45  67  93 123 157 190 229 274
#     4   8  14  27  46  70  97 125 156 198 252 294
#     4   9  18  31  45  65  94 121 151 190 232 279
#     4   9  18  32  50  74 101 127 160 201 245 296
#     4   9  17  31  50  68  90 123 158 189 228 280
#     4   8  14  25  44  68  89 113 153 195 230 277
#     4   9  15  24  42  66  88 112 147 191 231 267
#
# _framework density 17.165482999999998
#
# number of rings (size 3 to 8) (size 9 to 14) (size 15 to 20)
#    0.000    3.143    0.000    3.000    0.000    3.429 
#    2.571    0.000    0.000    4.286    0.000    0.000 
#    0.000    0.000    0.000    0.000    0.000    0.000 
#
# Total GULP energy -346963.443781 kJ/mol
# GULP energy per Si atom -12391.551564 kJ/mol
# Density = 1.712641 g / cm^3
# Si number density = 17.165483 Si / 1000 Ang^3
#
#
#
# Elastic Constant Matrix: (Units=GPa)
#
#
# Indices 1 2 3 4 5 6 
#
# 1 91.8432 37.7620 67.0335 0.0000 13.2913 0.0000
# 2 37.7620 66.4974 42.1294 0.0000 -1.2254 0.0000
# 3 67.0335 42.1294 107.8176 0.0000 8.7357 0.0000
# 4 0.0000 0.0000 0.0000 20.9972 0.0000 1.8729
# 5 13.2913 -1.2254 8.7357 0.0000 29.6905 0.0000
# 6 0.0000 0.0000 0.0000 1.8729 0.0000 16.9775
#
#
#
# Elastic Compliance Matrix: (Units=1/GPa)
#
#
# Indices 1 2 3 4 5 6 
#
# 1 0.022373 -0.005822 -0.011068 0.000000 -0.006999 0.000000
# 2 -0.005822 0.021802 -0.005310 0.000000 0.005068 0.000000
# 3 -0.011068 -0.005310 0.018283 0.000000 -0.000644 0.000000
# 4 0.000000 0.000000 0.000000 0.048099 0.000000 -0.005306
# 5 -0.006999 0.005068 -0.000644 0.000000 0.037213 0.000000
# 6 0.000000 0.000000 0.000000 -0.005306 0.000000 0.059487
#
#
# Mechanical properties :
#
#
# Convention : Reuss Voigt Hill
#
# Bulk Modulus (GPa) = 55.37610 62.22312 58.79961
# Shear Modulus (GPa) = 19.40428 21.48194 20.44311
#
# Velocity S-wave (km/s) = 3.36583 3.54144 3.45475
# Velocity P-wave (km/s) = 6.88732 7.28355 7.08820
#
# Compressibility (1/GPa) = 0.01805833
#
# Stress axis : x y z
#
# Youngs Moduli (GPa) = 44.69695 45.86780 54.69488
#
# Poissons Ratio (x) = 0.26703 0.60536
# Poissons Ratio (y) = 0.26022 0.29043
# Poissons Ratio (z) = 0.49470 0.24356
#
# Static dielectric constant tensor:
#      x y z
#    x 3.207570 0.000000 -0.004400 
#    y 0.000000 2.866550 0.000000 
#    z -0.004400 0.000000 3.377950 
# 
# 
# High freq. dielectric constant tensor:
#      x y z
#    x 1.659460 0.000000 -0.000680 
#    y 0.000000 1.611400 0.000000 
#    z -0.000680 0.000000 1.669280 
# 
# From -- ./inp_files/280457.got.cif
#   From: 2010.06.25/outbox.cif.g09.slc.cpg/sg12_141_cif.got.tgz:280457.got - 2010.06.28 00:19:55.
