data_PCOD8085390
_publ_section_title
;
Structure prediction by ZEFSAII (Michael W. Deem and Ramdas Pophale) SiO2 
 PCOD8085390
Probable space group: C 2/M
;
_chemical_formula_sum "Si O2"
_cell_formula_units_Z 40
_cell_length_a 20.432881
_cell_length_b 8.987219
_cell_length_c 23.836922
_cell_angle_alpha 90.000000
_cell_angle_beta 145.366972
_cell_angle_gamma 90.000000
_cell_volume 2487.692108
_symmetry_space_group_name_H-M "C 2/M"
_symmetry_group_IT_number 12
_symmetry_cell_setting 'monoclinic'
loop_
_space_group_symop_operation_xyz
x,y,z
-x,y,-z
-x,-y,-z
x,-y,z
1/2+x,1/2+y,z
1/2-x,1/2+y,-z
1/2-x,1/2-y,-z
1/2+x,1/2-y,z
loop_
_atom_site_type_symbol
_atom_site_label
_atom_site_fract_x
_atom_site_fract_y
_atom_site_fract_z
Si Si1 0.348725 0.675613 0.757571
Si Si2 0.228756 0.332150 0.194868
Si Si3 0.263682 0.673857 0.094442
Si Si4 0.430737 0.826672 0.131458
Si Si5 0.124778 0.168458 0.601881
O O1 0.354125 0.500000 0.760120
O O2 0.360137 0.734093 0.830361
O O3 0.450134 0.740924 0.791505
O O4 0.226741 0.733376 0.645451
O O5 0.178935 0.500000 0.156355
O O6 0.243082 0.266110 0.142884
O O7 0.352593 0.331519 0.314612
O O8 0.296040 0.500000 0.116738
O O9 0.369762 0.765773 0.144229
O O10 0.148627 0.706075 0.978322
O O11 0.455900 0.000000 0.156667
O O12 0.000000 0.238727 0.500000
O O13 0.131069 0.000000 0.582444
#
# Coordination Sequence:
#
# PCOD8085390 Si02
#       5
#     8   8   8   8   8
#     4  10  19  30  46  70  96 123 155 192 228 267
#     4   8  16  31  48  69  93 120 153 190 232 275
#     4   9  18  32  49  67  92 126 158 190 230 273
#     4  10  19  31  47  67  94 127 159 190 227 273
#     4   8  15  30  51  71  91 118 150 187 234 280
#
# _framework density 16.079160000000002
#
# number of rings (size 3 to 8) (size 9 to 14) (size 15 to 20)
#    1.200    1.800    0.000    1.800    0.000    2.800 
#    0.000    4.000    0.000    1.200    0.000    0.000 
#    0.000    0.000    0.000    0.000    0.000    0.000 
#
# Total GULP energy -247810.994675 kJ/mol
# GULP energy per Si atom -12390.549734 kJ/mol
# Density = 1.604256 g / cm^3
# Si number density = 16.079160 Si / 1000 Ang^3
#
#
#
# Elastic Constant Matrix: (Units=GPa)
#
#
# Indices 1 2 3 4 5 6 
#
# 1 49.4488 30.2317 16.2208 0.0000 22.2188 0.0000
# 2 30.2317 88.3925 25.8627 0.0000 23.7033 0.0000
# 3 16.2208 25.8627 50.0852 0.0000 25.0653 0.0000
# 4 0.0000 0.0000 0.0000 18.4704 0.0000 5.5928
# 5 22.2188 23.7033 25.0653 0.0000 26.0093 0.0000
# 6 0.0000 0.0000 0.0000 5.5928 0.0000 29.4711
#
#
#
# Elastic Compliance Matrix: (Units=1/GPa)
#
#
# Indices 1 2 3 4 5 6 
#
# 1 0.036047 -0.005744 0.007886 0.000000 -0.033158 0.000000
# 2 -0.005744 0.015967 -0.003010 0.000000 -0.006744 0.000000
# 3 0.007886 -0.003010 0.040495 0.000000 -0.043020 0.000000
# 4 0.000000 0.000000 0.000000 0.057441 0.000000 -0.010901
# 5 -0.033158 -0.006744 -0.043020 0.000000 0.114378 0.000000
# 6 0.000000 0.000000 0.000000 -0.010901 0.000000 0.036000
#
#
# Mechanical properties :
#
#
# Convention : Reuss Voigt Hill
#
# Bulk Modulus (GPa) = 11.01641 36.95078 23.98359
# Shear Modulus (GPa) = 15.04564 22.49758 18.77161
#
# Velocity S-wave (km/s) = 3.06228 3.74461 3.42050
# Velocity P-wave (km/s) = 4.40109 6.45961 5.52704
#
# Compressibility (1/GPa) = 0.09077370
#
# Stress axis : x y z
#
# Youngs Moduli (GPa) = 27.74157 62.63013 24.69415
#
# Poissons Ratio (x) = 0.35977 -0.19474
# Poissons Ratio (y) = 0.15936 0.07432
# Poissons Ratio (z) = -0.21877 0.18849
#
# Static dielectric constant tensor:
#      x y z
#    x 2.921560 0.000000 0.033310 
#    y 0.000000 2.960890 0.000000 
#    z 0.033310 0.000000 2.897820 
# 
# 
# High freq. dielectric constant tensor:
#      x y z
#    x 1.600760 0.000000 0.010850 
#    y 0.000000 1.617860 0.000000 
#    z 0.010850 0.000000 1.595900 
# 
# From -- ./inp_files/345806.got.cif
#   From: 2010.06.25/outbox.cif.g09.slc.cpg/sg12_173_cif.got.tgz:345806.got - 2010.06.28 00:19:55.
