data_PCOD8085009
_publ_section_title
;
Structure prediction by ZEFSAII (Michael W. Deem and Ramdas Pophale) SiO2 
 PCOD8085009
Probable space group: C 2/M
;
_chemical_formula_sum "Si O2"
_cell_formula_units_Z 64
_cell_length_a 19.517593
_cell_length_b 9.397424
_cell_length_c 25.170794
_cell_angle_alpha 90.000000
_cell_angle_beta 125.283624
_cell_angle_gamma 90.000000
_cell_volume 3768.627710
_symmetry_space_group_name_H-M "C 2/M"
_symmetry_group_IT_number 12
_symmetry_cell_setting 'monoclinic'
loop_
_space_group_symop_operation_xyz
x,y,z
-x,y,-z
-x,-y,-z
x,-y,z
1/2+x,1/2+y,z
1/2-x,1/2+y,-z
1/2-x,1/2-y,-z
1/2+x,1/2-y,z
loop_
_atom_site_type_symbol
_atom_site_label
_atom_site_fract_x
_atom_site_fract_y
_atom_site_fract_z
Si Si1 0.508953 0.330363 0.944971
Si Si2 0.310514 0.834278 0.681192
Si Si3 0.029522 0.666457 0.318840
Si Si4 0.666429 0.332323 0.948958
Si Si5 0.519930 0.668470 0.423347
Si Si6 0.101816 0.842097 0.196937
Si Si7 0.438623 0.657396 0.196350
Si Si8 0.370433 0.667790 0.430522
O O1 0.510325 0.500000 0.946075
O O2 0.595270 0.275448 0.957613
O O3 0.427998 0.281734 0.873814
O O4 0.500000 0.266223 0.000000
O O5 0.382251 0.802560 0.670367
O O6 0.329462 0.760311 0.746057
O O7 0.223015 0.770388 0.619794
O O8 0.302590 0.000000 0.689947
O O9 0.013210 0.500000 0.319428
O O10 0.033945 0.743987 0.376636
O O11 0.952363 0.729857 0.249828
O O12 0.680850 0.500000 0.962426
O O13 0.639387 0.297181 0.876002
O O14 0.750000 0.250000 0.000000
O O15 0.526031 0.500000 0.414521
O O16 0.429681 0.710135 0.407644
O O17 0.591385 0.721559 0.496609
O O18 0.019743 0.849534 0.196063
O O19 0.141139 0.000000 0.209202
O O20 0.422772 0.500000 0.213815
O O21 0.367176 0.500000 0.432950
#
# Coordination Sequence:
#
# PCOD8085009 Si02
#       8
#     8   8   8   8   8   8   8   8
#     4   8  14  27  47  67  88 117 151 184 219 263
#     4   9  17  30  47  67  92 117 144 184 229 267
#     4  10  19  29  45  71  96 115 141 185 237 272
#     4   9  17  29  47  69  91 118 151 186 224 265
#     4   9  17  32  52  67  85 120 159 185 210 260
#     4   8  14  26  45  67  88 114 151 186 216 260
#     4   8  15  29  46  63  87 122 158 183 210 261
#     4   8  16  32  51  67  85 119 160 184 209 262
#
# _framework density 16.982309999999998
#
# number of rings (size 3 to 8) (size 9 to 14) (size 15 to 20)
#    0.000    3.375    0.000    2.625    0.000    1.500 
#    0.000    5.625    0.000    4.500    0.000    0.000 
#    0.000    0.000    0.000    0.000    0.000    0.000 
#
# Total GULP energy -396589.860988 kJ/mol
# GULP energy per Si atom -12393.433156 kJ/mol
# Density = 1.694366 g / cm^3
# Si number density = 16.982310 Si / 1000 Ang^3
#
#
#
# Elastic Constant Matrix: (Units=GPa)
#
#
# Indices 1 2 3 4 5 6 
#
# 1 63.6970 37.2899 70.4792 0.0000 -1.3792 0.0000
# 2 37.2899 62.1030 65.0617 0.0000 -2.4264 0.0000
# 3 70.4792 65.0617 168.5864 0.0000 -0.3431 0.0000
# 4 0.0000 0.0000 0.0000 29.8781 0.0000 -0.0620
# 5 -1.3792 -2.4264 -0.3431 0.0000 30.5617 0.0000
# 6 0.0000 0.0000 0.0000 -0.0620 0.0000 13.4762
#
#
#
# Elastic Compliance Matrix: (Units=1/GPa)
#
#
# Indices 1 2 3 4 5 6 
#
# 1 0.031778 -0.008628 -0.009954 0.000000 0.000637 0.000000
# 2 -0.008628 0.029500 -0.007774 0.000000 0.001865 0.000000
# 3 -0.009954 -0.007774 0.013091 0.000000 -0.000919 0.000000
# 4 0.000000 0.000000 0.000000 0.033470 0.000000 0.000154
# 5 0.000637 0.001865 -0.000919 0.000000 0.032887 0.000000
# 6 0.000000 0.000000 0.000000 0.000154 0.000000 0.074205
#
#
# Mechanical properties :
#
#
# Convention : Reuss Voigt Hill
#
# Bulk Modulus (GPa) = 46.17334 71.11641 58.64488
# Shear Modulus (GPa) = 18.19081 22.88691 20.53886
#
# Velocity S-wave (km/s) = 3.27641 3.67507 3.48145
# Velocity P-wave (km/s) = 6.44680 7.74441 7.12521
#
# Compressibility (1/GPa) = 0.02165752
#
# Stress axis : x y z
#
# Youngs Moduli (GPa) = 31.46807 33.89790 76.38575
#
# Poissons Ratio (x) = 0.29247 0.76035
# Poissons Ratio (y) = 0.27151 0.59383
# Poissons Ratio (z) = 0.31324 0.26353
#
# Static dielectric constant tensor:
#      x y z
#    x 3.072760 0.000000 0.086880 
#    y 0.000000 2.996610 0.000000 
#    z 0.086880 0.000000 3.711000 
# 
# 
# High freq. dielectric constant tensor:
#      x y z
#    x 1.626480 0.000000 -0.001520 
#    y 0.000000 1.628560 0.000000 
#    z -0.001520 0.000000 1.670140 
# 
# From -- ./inp_files/365206.got.cif
#   From: 2010.06.25/outbox.cif.g09.slc.cpg/sg12_183_cif.got.tgz:365206.got - 2010.06.28 00:19:55.
