data_PCOD8085415
_publ_section_title
;
Structure prediction by ZEFSAII (Michael W. Deem and Ramdas Pophale) SiO2 
 PCOD8085415
Probable space group: C 2/M
;
_chemical_formula_sum "Si O2"
_cell_formula_units_Z 56
_cell_length_a 20.479210
_cell_length_b 8.801397
_cell_length_c 20.875210
_cell_angle_alpha 90.000000
_cell_angle_beta 49.118756
_cell_angle_gamma 90.000000
_cell_volume 2844.830420
_symmetry_space_group_name_H-M "C 2/M"
_symmetry_group_IT_number 12
_symmetry_cell_setting 'monoclinic'
loop_
_space_group_symop_operation_xyz
x,y,z
-x,y,-z
-x,-y,-z
x,-y,z
1/2+x,1/2+y,z
1/2-x,1/2+y,-z
1/2-x,1/2-y,-z
1/2+x,1/2-y,z
loop_
_atom_site_type_symbol
_atom_site_label
_atom_site_fract_x
_atom_site_fract_y
_atom_site_fract_z
Si Si1 0.954178 0.823851 0.415447
Si Si2 0.311079 0.321132 0.598541
Si Si3 0.653650 0.828532 0.620300
Si Si4 0.245366 0.680539 0.775633
Si Si5 0.393769 0.180445 0.751362
Si Si6 0.548644 0.818222 0.906045
Si Si7 0.992409 0.669529 0.809185
O O1 0.909454 0.784280 0.513044
O O2 0.881552 0.787720 0.409470
O O3 0.040836 0.728273 0.347930
O O4 0.979734 0.000000 0.395941
O O5 0.295111 0.500000 0.612362
O O6 0.244025 0.260174 0.587919
O O7 0.289674 0.254210 0.682214
O O8 0.590154 0.833300 0.721720
O O9 0.661265 0.000000 0.586889
O O10 0.250633 0.500000 0.776936
O O11 0.299259 0.751533 0.799942
O O12 0.147388 0.739751 0.843821
O O13 0.429520 0.247958 0.796533
O O14 0.391545 0.000000 0.754707
O O15 0.497466 0.752072 0.876347
O O16 0.548505 0.000000 0.903108
O O17 0.500000 0.756552 0.000000
O O18 0.956542 0.500000 0.841560
#
# Coordination Sequence:
#
# PCOD8085415 Si02
#       7
#     8   8   8   8   8   8   8
#     4  10  19  30  46  72 101 133 177 219 250 286
#     4   9  17  29  48  71 100 138 174 209 253 303
#     4   9  15  28  48  70 100 137 172 203 252 308
#     4  10  19  34  55  77 103 133 170 214 254 297
#     4  10  21  36  52  70 102 144 176 203 251 310
#     4   9  16  29  55  86 104 121 163 215 253 295
#     4   8  14  28  50  72  98 134 168 199 244 305
#
# _framework density 19.684830000000002
#
# number of rings (size 3 to 8) (size 9 to 14) (size 15 to 20)
#    0.000    2.714    1.429    2.143    0.000    0.571 
#    0.000    6.429    0.000    0.429    0.000    0.000 
#    0.000    0.000    0.000    0.000    0.000    0.000 
#
# Total GULP energy -346961.105887 kJ/mol
# GULP energy per Si atom -12391.468067 kJ/mol
# Density = 1.964003 g / cm^3
# Si number density = 19.684830 Si / 1000 Ang^3
#
#
#
# Elastic Constant Matrix: (Units=GPa)
#
#
# Indices 1 2 3 4 5 6 
#
# 1 112.7111 14.3735 56.7399 -0.0001 -9.4980 0.0001
# 2 14.3735 28.0565 18.3587 0.0000 -0.8154 0.0001
# 3 56.7399 18.3587 117.7224 0.0000 10.4140 0.0001
# 4 -0.0001 0.0000 0.0000 12.1787 0.0000 -3.7581
# 5 -9.4980 -0.8154 10.4140 0.0000 14.8686 0.0000
# 6 0.0001 0.0001 0.0001 -3.7581 0.0000 25.1894
#
#
#
# Elastic Compliance Matrix: (Units=1/GPa)
#
#
# Indices 1 2 3 4 5 6 
#
# 1 0.014308 -0.001725 -0.007918 0.000000 0.014591 0.000000
# 2 -0.001725 0.040585 -0.005967 0.000000 0.005303 0.000000
# 3 -0.007918 -0.005967 0.014624 0.000000 -0.015628 0.000000
# 4 0.000000 0.000000 0.000000 0.086073 0.000000 0.012842
# 5 0.014591 0.005303 -0.015628 0.000000 0.087813 0.000000
# 6 0.000000 0.000000 0.000000 0.012842 0.000000 0.041615
#
#
# Mechanical properties :
#
#
# Convention : Reuss Voigt Hill
#
# Bulk Modulus (GPa) = 26.11177 48.60378 37.35778
# Shear Modulus (GPa) = 15.19748 21.71518 18.45633
#
# Velocity S-wave (km/s) = 2.78158 3.32496 3.06533
# Velocity P-wave (km/s) = 4.85901 6.28372 5.61672
#
# Compressibility (1/GPa) = 0.03829691
#
# Stress axis : x y z
#
# Youngs Moduli (GPa) = 69.89285 24.63993 68.38203
#
# Poissons Ratio (x) = 0.04250 0.54143
# Poissons Ratio (y) = 0.12056 0.40803
# Poissons Ratio (z) = 0.55339 0.14702
#
# Static dielectric constant tensor:
#      x y z
#    x 3.721860 0.000000 0.119530 
#    y 0.000000 3.056870 0.000000 
#    z 0.119530 0.000000 3.614800 
# 
# 
# High freq. dielectric constant tensor:
#      x y z
#    x 1.774860 0.000000 0.004060 
#    y 0.000000 1.712240 0.000000 
#    z 0.004060 0.000000 1.751110 
# 
# From -- ./inp_files/319663.got.cif
#   From: 2010.06.25/outbox.cif.g09.slc.cpg/sg12_160_cif.got.tgz:319663.got - 2010.06.28 00:19:55.
