data_PCOD8085224
_publ_section_title
;
Structure prediction by ZEFSAII (Michael W. Deem and Ramdas Pophale) SiO2 
 PCOD8085224
Probable space group: C 2/M
;
_chemical_formula_sum "Si O2"
_cell_formula_units_Z 32
_cell_length_a 10.205313
_cell_length_b 19.797992
_cell_length_c 18.228563
_cell_angle_alpha 90.000000
_cell_angle_beta 147.109727
_cell_angle_gamma 90.000000
_cell_volume 1999.978150
_symmetry_space_group_name_H-M "C 2/M"
_symmetry_group_IT_number 12
_symmetry_cell_setting 'monoclinic'
loop_
_space_group_symop_operation_xyz
x,y,z
-x,y,-z
-x,-y,-z
x,-y,z
1/2+x,1/2+y,z
1/2-x,1/2+y,-z
1/2-x,1/2-y,-z
1/2+x,1/2-y,z
loop_
_atom_site_type_symbol
_atom_site_label
_atom_site_fract_x
_atom_site_fract_y
_atom_site_fract_z
Si Si1 0.000000 0.860075 0.000000
Si Si2 0.767382 0.810839 0.344983
Si Si3 0.670081 0.249943 0.779971
Si Si4 0.432549 0.922493 0.121676
Si Si5 0.000000 0.359958 0.000000
O O1 0.846265 0.813806 0.872522
O O2 0.829756 0.907161 0.968728
O O3 0.594574 0.765672 0.314271
O O4 0.847629 0.765546 0.314119
O O5 0.635921 0.878642 0.257282
O O6 0.000000 0.833101 0.500000
O O7 0.771375 0.313692 0.872485
O O8 0.423359 0.907040 0.031158
O O9 0.499487 0.000000 0.166199
#
# Coordination Sequence:
#
# PCOD8085224 Si02
#       5
#     4   8   8   8   4
#     4   9  17  30  48  68  87 109 142 184 224 255
#     4  10  19  30  45  65  90 118 145 175 212 257
#     4   9  17  30  48  68  87 109 142 184 224 255
#     4  10  19  30  45  65  90 118 145 175 212 257
#     4   9  17  30  48  68  87 109 142 184 224 255
#
# _framework density 16.000174000000001
#
# number of rings (size 3 to 8) (size 9 to 14) (size 15 to 20)
#    0.000    2.500    0.000    3.000    0.000    6.500 
#    0.000    0.000    0.000    0.000    0.000    0.000 
#    0.000   36.000    0.000    0.000    0.000    0.000 
#
# Total GULP energy -198435.086946 kJ/mol
# GULP energy per Si atom -12402.192934 kJ/mol
# Density = 1.596376 g / cm^3
# Si number density = 16.000174 Si / 1000 Ang^3
#
#
#
# Elastic Constant Matrix: (Units=GPa)
#
#
# Indices 1 2 3 4 5 6 
#
# 1 144.3729 63.8944 64.9710 -0.0007 -5.7073 0.0022
# 2 63.8944 98.6458 32.7006 0.0051 -3.1596 0.0032
# 3 64.9710 32.7006 98.2658 0.0067 1.4168 0.0267
# 4 -0.0007 0.0051 0.0067 8.9184 0.0036 -0.2119
# 5 -5.7073 -3.1596 1.4168 0.0036 12.3402 0.0060
# 6 0.0022 0.0032 0.0267 -0.2119 0.0060 11.5518
#
#
#
# Elastic Compliance Matrix: (Units=1/GPa)
#
#
# Indices 1 2 3 4 5 6 
#
# 1 0.012645 -0.005880 -0.006477 0.000007 0.005086 0.000012
# 2 -0.005880 0.014269 -0.000876 -0.000008 0.001035 -0.000002
# 3 -0.006477 -0.000876 0.014821 -0.000010 -0.004921 -0.000030
# 4 0.000007 -0.000008 -0.000010 0.112177 -0.000032 0.002057
# 5 0.005086 0.001035 -0.004921 -0.000032 0.084219 -0.000035
# 6 0.000012 -0.000002 -0.000030 0.002057 -0.000035 0.086604
#
#
# Mechanical properties :
#
#
# Convention : Reuss Voigt Hill
#
# Bulk Modulus (GPa) = 65.48841 73.82405 69.65623
# Shear Modulus (GPa) = 14.03350 18.54331 16.28841
#
# Velocity S-wave (km/s) = 2.96477 3.40802 3.19410
# Velocity P-wave (km/s) = 7.26213 7.85658 7.56519
#
# Compressibility (1/GPa) = 0.01526988
#
# Stress axis : x y z
#
# Youngs Moduli (GPa) = 79.08453 70.08022 67.47090
#
# Poissons Ratio (x) = 0.41209 0.43700
# Poissons Ratio (y) = 0.46503 0.05908
# Poissons Ratio (z) = 0.51222 0.06136
#
# Static dielectric constant tensor:
#      x y z
#    x 3.184700 0.000000 -0.032500 
#    y 0.000000 2.885450 0.000000 
#    z -0.032500 0.000000 2.888940 
# 
# 
# High freq. dielectric constant tensor:
#      x y z
#    x 1.630210 0.000000 -0.002750 
#    y 0.000000 1.605020 0.000000 
#    z -0.002750 0.000000 1.605310 
# 
# From -- ./inp_files/119570.got.cif
#   From: 2010.06.25/outbox.cif.g09.slc.cpg/sg12_60_cif.got.tgz:119570.got - 2010.06.28 00:19:55.
