data_PCOD8085862
_publ_section_title
;
Structure prediction by ZEFSAII (Michael W. Deem and Ramdas Pophale) SiO2 
 PCOD8085862
Probable space group: C 2/M
;
_chemical_formula_sum "Si O2"
_cell_formula_units_Z 48
_cell_length_a 27.379782
_cell_length_b 10.236137
_cell_length_c 18.962959
_cell_angle_alpha 90.000000
_cell_angle_beta 151.348001
_cell_angle_gamma 90.000000
_cell_volume 2548.298842
_symmetry_space_group_name_H-M "C 2/M"
_symmetry_group_IT_number 12
_symmetry_cell_setting 'monoclinic'
loop_
_space_group_symop_operation_xyz
x,y,z
-x,y,-z
-x,-y,-z
x,-y,z
1/2+x,1/2+y,z
1/2-x,1/2+y,-z
1/2-x,1/2-y,-z
1/2+x,1/2-y,z
loop_
_atom_site_type_symbol
_atom_site_label
_atom_site_fract_x
_atom_site_fract_y
_atom_site_fract_z
Si Si1 0.018710 0.647559 0.805531
Si Si2 0.365900 0.250552 0.238161
Si Si3 0.920554 0.651188 0.537489
Si Si4 0.786765 0.845636 0.285217
Si Si5 0.165158 0.137818 0.944524
Si Si6 0.554388 0.150819 0.001718
O O1 0.060170 0.500000 0.851063
O O2 0.115321 0.738497 0.917526
O O3 0.932866 0.673260 0.637921
O O4 0.983508 0.672801 0.842005
O O5 0.476337 0.182965 0.374488
O O6 0.346937 0.315212 0.289720
O O7 0.353842 0.362001 0.163565
O O8 0.284145 0.138840 0.115293
O O9 0.889413 0.500000 0.482520
O O10 0.834589 0.754262 0.406532
O O11 0.669133 0.799446 0.132383
O O12 0.799297 0.000000 0.319096
O O13 0.120000 0.000000 0.915262
O O14 0.564776 0.000000 0.033548
O O15 0.500000 0.221259 0.000000
#
# Coordination Sequence:
#
# PCOD8085862 Si02
#       6
#     8   8   8   8   8   8
#     4   9  18  36  57  78 107 142 180 220 265 320
#     4  10  20  32  50  77 111 149 182 213 256 316
#     4  10  22  36  52  77 114 152 179 208 260 328
#     4  11  22  36  55  80 109 141 180 228 268 308
#     4  10  19  30  51  81 109 140 180 223 263 308
#     4   9  18  36  62  84 100 131 183 232 272 321
#
# _framework density 18.836096000000001
#
# number of rings (size 3 to 8) (size 9 to 14) (size 15 to 20)
#    0.000    2.167    1.667    1.500    0.000   10.000 
#    0.000    0.833    0.000    2.000    0.000    0.000 
#    0.000    0.000    0.000    0.000    0.000    0.000 
#
# Total GULP energy -297326.100643 kJ/mol
# GULP energy per Si atom -12388.587527 kJ/mol
# Density = 1.879322 g / cm^3
# Si number density = 18.836096 Si / 1000 Ang^3
#
#
#
# Elastic Constant Matrix: (Units=GPa)
#
#
# Indices 1 2 3 4 5 6 
#
# 1 110.0356 30.4391 42.8571 0.0000 -24.8505 0.0000
# 2 30.4391 100.8248 40.9680 0.0000 -14.5468 0.0000
# 3 42.8571 40.9680 86.5925 0.0000 -19.4808 0.0000
# 4 0.0000 0.0000 0.0000 -32.7849 0.0000 6.9923
# 5 -24.8505 -14.5468 -19.4808 0.0000 20.6287 0.0000
# 6 0.0000 0.0000 0.0000 6.9923 0.0000 11.0898
#
#
#
# Elastic Compliance Matrix: (Units=1/GPa)
#
#
# Indices 1 2 3 4 5 6 
#
# 1 0.013468 -0.000874 -0.003480 0.000000 0.012321 0.000000
# 2 -0.000874 0.012605 -0.004785 0.000000 0.003317 0.000000
# 3 -0.003480 -0.004785 0.017564 0.000000 0.009020 0.000000
# 4 0.000000 0.000000 0.000000 -0.026886 0.000000 0.016952
# 5 0.012321 0.003317 0.009020 0.000000 0.074176 0.000000
# 6 0.000000 0.000000 0.000000 0.016952 0.000000 0.079485
#
#
# Mechanical properties :
#
#
# Convention : Reuss Voigt Hill
#
# Bulk Modulus (GPa) = 39.43442 58.44238 48.93840
# Shear Modulus (GPa) = 25.36245 11.99927 18.68086
#
# Velocity S-wave (km/s) = 3.67342 2.52670 3.15264
# Velocity P-wave (km/s) = 6.24284 6.29336 6.26815
#
# Compressibility (1/GPa) = 0.02535856
#
# Stress axis : x y z
#
# Youngs Moduli (GPa) = 74.25050 79.33473 56.93588
#
# Poissons Ratio (x) = 0.06936 0.19814
# Poissons Ratio (y) = 0.06491 0.27241
# Poissons Ratio (z) = 0.25840 0.37958
#
# Static dielectric constant tensor:
#      x y z
#    x 3.526880 0.000000 -0.228920 
#    y 0.000000 3.335170 0.000000 
#    z -0.228920 0.000000 3.435700 
# 
# 
# High freq. dielectric constant tensor:
#      x y z
#    x 1.709790 0.000000 -0.026990 
#    y 0.000000 1.720570 0.000000 
#    z -0.026990 0.000000 1.724360 
# 
# From -- ./inp_files/222587.got.cif
#   From: 2010.06.25/outbox.cif.g09.slc.cpg/sg12_112_cif.got.tgz:222587.got - 2010.06.28 00:19:55.
