data_PCOD8085352
_publ_section_title
;
Structure prediction by ZEFSAII (Michael W. Deem and Ramdas Pophale) SiO2 
 PCOD8085352
Probable space group: C 2/M
;
_chemical_formula_sum "Si O2"
_cell_formula_units_Z 64
_cell_length_a 30.574762
_cell_length_b 9.282507
_cell_length_c 14.206864
_cell_angle_alpha 90.000000
_cell_angle_beta 92.555155
_cell_angle_gamma 90.000000
_cell_volume 4028.047560
_symmetry_space_group_name_H-M "C 2/M"
_symmetry_group_IT_number 12
_symmetry_cell_setting 'monoclinic'
loop_
_space_group_symop_operation_xyz
x,y,z
-x,y,-z
-x,-y,-z
x,-y,z
1/2+x,1/2+y,z
1/2-x,1/2+y,-z
1/2-x,1/2-y,-z
1/2+x,1/2-y,z
loop_
_atom_site_type_symbol
_atom_site_label
_atom_site_fract_x
_atom_site_fract_y
_atom_site_fract_z
Si Si1 0.922018 0.167919 0.121880
Si Si2 0.993750 0.662748 0.888398
Si Si3 0.243552 0.833928 0.904239
Si Si4 0.909199 0.168379 0.902793
Si Si5 0.801480 0.831001 0.414537
Si Si6 0.668027 0.835496 0.198900
Si Si7 0.836997 0.829037 0.222811
Si Si8 0.700813 0.166658 0.403800
O O1 0.964893 0.257929 0.154627
O O2 0.883796 0.221713 0.187827
O O3 0.932805 0.000000 0.136316
O O4 0.907001 0.198994 0.013846
O O5 0.990333 0.500000 0.849029
O O6 0.949876 0.749490 0.858538
O O7 0.000000 0.663394 0.000000
O O8 0.284579 0.812904 0.840600
O O9 0.201306 0.767635 0.847579
O O10 0.236040 0.000000 0.929184
O O11 0.250000 0.750000 0.000000
O O12 0.865000 0.225818 0.852634
O O13 0.914303 0.000000 0.882106
O O14 0.830265 0.774363 0.329061
O O15 0.751104 0.789148 0.389516
O O16 0.818905 0.754689 0.510476
O O17 0.807272 0.000000 0.429369
O O18 0.671690 0.798270 0.309668
O O19 0.652007 0.000000 0.182336
O O20 0.832980 0.000000 0.220815
O O21 0.698170 0.000000 0.429795
#
# Coordination Sequence:
#
# PCOD8085352 Si02
#       8
#     8   8   8   8   8   8   8   8
#     4   9  17  29  46  67  92 122 154 190 226 265
#     4   9  17  30  47  66  90 120 152 188 230 273
#     4  10  19  31  44  61  90 127 161 188 217 261
#     4  10  19  30  46  69  94 120 155 194 226 263
#     4   9  16  29  48  66  85 116 155 193 230 270
#     4  10  19  31  46  64  91 126 157 186 228 276
#     4   9  16  29  47  65  89 123 157 185 224 273
#     4   9  17  30  46  65  88 117 152 193 235 270
#
# _framework density 15.888591999999999
#
# number of rings (size 3 to 8) (size 9 to 14) (size 15 to 20)
#    0.000    2.625    1.250    1.500    0.000    4.000 
#    0.000    1.875    0.000    0.000    0.000    0.875 
#    0.000    7.000    0.000    0.000    0.000    0.000 
#
# Total GULP energy -396784.956127 kJ/mol
# GULP energy per Si atom -12399.529879 kJ/mol
# Density = 1.585243 g / cm^3
# Si number density = 15.888592 Si / 1000 Ang^3
#
#
#
# Elastic Constant Matrix: (Units=GPa)
#
#
# Indices 1 2 3 4 5 6 
#
# 1 72.9955 35.7694 29.0263 0.0000 -22.9611 0.0000
# 2 35.7694 63.7279 34.2714 0.0000 -7.9809 0.0000
# 3 29.0263 34.2714 85.3258 0.0000 -20.3794 0.0000
# 4 0.0000 0.0000 0.0000 23.8745 0.0000 2.1423
# 5 -22.9611 -7.9809 -20.3794 0.0000 16.2439 0.0000
# 6 0.0000 0.0000 0.0000 2.1423 0.0000 26.7354
#
#
#
# Elastic Compliance Matrix: (Units=1/GPa)
#
#
# Indices 1 2 3 4 5 6 
#
# 1 0.034937 -0.017063 0.006798 0.000000 0.049531 0.000000
# 2 -0.017063 0.028350 -0.011446 0.000000 -0.024550 0.000000
# 3 0.006798 -0.011446 0.021356 0.000000 0.030778 0.000000
# 4 0.000000 0.000000 0.000000 0.042189 0.000000 -0.003381
# 5 0.049531 -0.024550 0.030778 0.000000 0.158127 0.000000
# 6 0.000000 0.000000 0.000000 -0.003381 0.000000 0.037674
#
#
# Mechanical properties :
#
#
# Convention : Reuss Voigt Hill
#
# Bulk Modulus (GPa) = 24.25894 46.68703 35.47299
# Shear Modulus (GPa) = 13.16502 21.56955 17.36729
#
# Velocity S-wave (km/s) = 2.88163 3.68849 3.30974
# Velocity P-wave (km/s) = 5.13547 6.89839 6.08115
#
# Compressibility (1/GPa) = 0.04122191
#
# Stress axis : x y z
#
# Youngs Moduli (GPa) = 28.62261 35.27387 46.82624
#
# Poissons Ratio (x) = 0.60187 -0.31834
# Poissons Ratio (y) = 0.48838 0.53596
# Poissons Ratio (z) = -0.19458 0.40374
#
# Static dielectric constant tensor:
#      x y z
#    x 3.007940 0.000000 -0.118100 
#    y 0.000000 3.028830 0.000000 
#    z -0.118100 0.000000 3.112780 
# 
# 
# High freq. dielectric constant tensor:
#      x y z
#    x 1.599730 0.000000 -0.005860 
#    y 0.000000 1.603020 0.000000 
#    z -0.005860 0.000000 1.591040 
# 
# From -- ./inp_files/248282.got.cif
#   From: 2010.06.25/outbox.cif.g09.slc.cpg/sg12_125_cif.got.tgz:248282.got - 2010.06.28 00:19:55.
