data_PCOD8085283
_publ_section_title
;
Structure prediction by ZEFSAII (Michael W. Deem and Ramdas Pophale) SiO2 
 PCOD8085283
Probable space group: C 2/M
;
_chemical_formula_sum "Si O2"
_cell_formula_units_Z 56
_cell_length_a 24.368272
_cell_length_b 8.897824
_cell_length_c 16.357724
_cell_angle_alpha 90.000000
_cell_angle_beta 66.188063
_cell_angle_gamma 90.000000
_cell_volume 3244.841242
_symmetry_space_group_name_H-M "C 2/M"
_symmetry_group_IT_number 12
_symmetry_cell_setting 'monoclinic'
loop_
_space_group_symop_operation_xyz
x,y,z
-x,y,-z
-x,-y,-z
x,-y,z
1/2+x,1/2+y,z
1/2-x,1/2+y,-z
1/2-x,1/2-y,-z
1/2+x,1/2-y,z
loop_
_atom_site_type_symbol
_atom_site_label
_atom_site_fract_x
_atom_site_fract_y
_atom_site_fract_z
Si Si1 0.731002 0.177882 0.095815
Si Si2 0.983045 0.170469 0.308315
Si Si3 0.830929 0.830364 0.623639
Si Si4 0.129454 0.170434 0.716173
Si Si5 0.883108 0.174651 0.764844
Si Si6 0.290216 0.173829 0.211157
Si Si7 0.122022 0.675703 0.560560
O O1 0.663022 0.225959 0.156129
O O2 0.776924 0.235522 0.136926
O O3 0.734988 0.000000 0.087818
O O4 0.750000 0.250000 0.000000
O O5 0.050067 0.230070 0.251632
O O6 0.943632 0.176507 0.247812
O O7 0.947933 0.269382 0.397897
O O8 0.986993 0.000000 0.339387
O O9 0.874733 0.799004 0.673390
O O10 0.762930 0.802231 0.692098
O O11 0.846057 0.715180 0.543106
O O12 0.839496 0.000000 0.586174
O O13 0.149348 0.263153 0.783839
O O14 0.156150 0.243417 0.616232
O O15 0.152914 0.000000 0.709516
O O16 0.871623 0.000000 0.793678
O O17 0.298283 0.000000 0.183124
O O18 0.125188 0.500000 0.573148
#
# Coordination Sequence:
#
# PCOD8085283 Si02
#       7
#     8   8   8   8   8   8   8
#     4  11  22  37  58  84 109 132 161 201 251 305
#     4   8  17  33  51  71  99 137 176 211 254 303
#     4   9  18  31  47  69  99 135 175 214 260 307
#     4   9  18  33  51  72  99 137 177 212 254 301
#     4   9  18  35  56  76 101 135 171 211 257 307
#     4  10  20  35  55  77 102 134 169 211 259 306
#     4  10  19  30  45  69 101 137 178 219 255 293
#
# _framework density 17.258161999999999
#
# number of rings (size 3 to 8) (size 9 to 14) (size 15 to 20)
#    0.857    1.714    0.000    3.857    0.000    4.571 
#    0.000    2.857    0.000    0.857    0.000    6.000 
#    0.000    0.000    0.000    0.000    0.000    0.000 
#
# Total GULP energy -347042.075828 kJ/mol
# GULP energy per Si atom -12394.359851 kJ/mol
# Density = 1.721888 g / cm^3
# Si number density = 17.258162 Si / 1000 Ang^3
#
#
#
# Elastic Constant Matrix: (Units=GPa)
#
#
# Indices 1 2 3 4 5 6 
#
# 1 93.6866 35.0893 31.1905 0.0000 11.1848 0.0000
# 2 35.0893 117.1748 42.7157 0.0000 9.8691 0.0000
# 3 31.1905 42.7157 74.6182 0.0000 17.6144 0.0000
# 4 0.0000 0.0000 0.0000 28.3936 0.0000 3.0300
# 5 11.1848 9.8691 17.6144 0.0000 10.5825 0.0000
# 6 0.0000 0.0000 0.0000 3.0300 0.0000 25.8993
#
#
#
# Elastic Compliance Matrix: (Units=1/GPa)
#
#
# Indices 1 2 3 4 5 6 
#
# 1 0.013311 -0.002493 -0.002248 0.000000 -0.008002 0.000000
# 2 -0.002493 0.011253 -0.005838 0.000000 0.001858 0.000000
# 3 -0.002248 -0.005838 0.026088 0.000000 -0.035602 0.000000
# 4 0.000000 0.000000 0.000000 0.035665 0.000000 -0.004172
# 5 -0.008002 0.001858 -0.035602 0.000000 0.160479 0.000000
# 6 0.000000 0.000000 0.000000 -0.004172 0.000000 0.039099
#
#
# Mechanical properties :
#
#
# Convention : Reuss Voigt Hill
#
# Bulk Modulus (GPa) = 33.90626 55.94119 44.92372
# Shear Modulus (GPa) = 15.77866 24.74067 20.25966
#
# Velocity S-wave (km/s) = 3.02697 3.79035 3.42997
# Velocity P-wave (km/s) = 5.64853 7.18612 6.46321
#
# Compressibility (1/GPa) = 0.02949308
#
# Stress axis : x y z
#
# Youngs Moduli (GPa) = 75.12408 88.86880 38.33225
#
# Poissons Ratio (x) = 0.22152 0.08618
# Poissons Ratio (y) = 0.18726 0.22380
# Poissons Ratio (z) = 0.16889 0.51885
#
# Static dielectric constant tensor:
#      x y z
#    x 3.287660 0.000000 -0.006160 
#    y 0.000000 3.214040 0.000000 
#    z -0.006160 0.000000 2.896420 
# 
# 
# High freq. dielectric constant tensor:
#      x y z
#    x 1.663640 0.000000 0.004350 
#    y 0.000000 1.673550 0.000000 
#    z 0.004350 0.000000 1.631320 
# 
# From -- ./inp_files/287380.got.cif
#   From: 2010.06.25/outbox.cif.g09.slc.cpg/sg12_144_cif.got.tgz:287380.got - 2010.06.28 00:19:55.
