data_PCOD8085545
_publ_section_title
;
Structure prediction by ZEFSAII (Michael W. Deem and Ramdas Pophale) SiO2 
 PCOD8085545
Probable space group: C 2/M
;
_chemical_formula_sum "Si O2"
_cell_formula_units_Z 64
_cell_length_a 33.831005
_cell_length_b 9.040030
_cell_length_c 25.669571
_cell_angle_alpha 90.000000
_cell_angle_beta 153.829120
_cell_angle_gamma 90.000000
_cell_volume 3462.509590
_symmetry_space_group_name_H-M "C 2/M"
_symmetry_group_IT_number 12
_symmetry_cell_setting 'monoclinic'
loop_
_space_group_symop_operation_xyz
x,y,z
-x,y,-z
-x,-y,-z
x,-y,z
1/2+x,1/2+y,z
1/2-x,1/2+y,-z
1/2-x,1/2-y,-z
1/2+x,1/2-y,z
loop_
_atom_site_type_symbol
_atom_site_label
_atom_site_fract_x
_atom_site_fract_y
_atom_site_fract_z
Si Si1 0.478264 0.326101 0.032132
Si Si2 0.293534 0.676844 0.341609
Si Si3 0.914204 0.675223 0.568137
Si Si4 0.280643 0.673590 0.958552
Si Si5 0.212266 0.175856 0.152055
Si Si6 0.884733 0.327766 0.166850
Si Si7 0.856655 0.339235 0.759577
Si Si8 0.709064 0.335733 0.499320
O O1 0.478423 0.500000 0.034872
O O2 0.562873 0.265900 0.164789
O O3 0.500000 0.265920 0.000000
O O4 0.385248 0.266526 0.944794
O O5 0.306100 0.500000 0.355989
O O6 0.376523 0.748496 0.471114
O O7 0.288247 0.743526 0.276977
O O8 0.200070 0.725215 0.258633
O O9 0.896777 0.500000 0.544607
O O10 0.869399 0.740211 0.567198
O O11 0.018884 0.714923 0.696144
O O12 0.296939 0.500000 0.979407
O O13 0.276091 0.728295 0.893581
O O14 0.187592 0.720951 0.875383
O O15 0.364099 0.746383 0.087823
O O16 0.223253 0.000000 0.171399
O O17 0.878576 0.500000 0.147390
O O18 0.896365 0.500000 0.821271
O O19 0.789445 0.356970 0.633411
O O20 0.673106 0.500000 0.441087
O O21 0.750000 0.250000 0.500000
#
# Coordination Sequence:
#
# PCOD8085545 Si02
#       8
#     8   8   8   8   8   8   8   8
#     4  10  19  30  47  73 102 133 172 211 250 305
#     4  10  20  34  52  76 105 139 180 220 262 317
#     4  10  20  35  57  80 105 141 181 222 270 322
#     4   9  19  36  58  82 108 139 175 221 274 328
#     4  10  20  34  52  77 108 141 177 218 268 322
#     4   9  19  37  59  82 107 137 178 222 272 330
#     4   9  19  33  48  68  97 134 174 212 254 303
#     4  10  21  36  52  76 107 140 179 220 264 313
#
# _framework density 18.483702999999998
#
# number of rings (size 3 to 8) (size 9 to 14) (size 15 to 20)
#    0.000    2.375    1.250    1.875    0.000    5.750 
#    0.000    3.125    0.000    3.750    0.000    0.000 
#    0.000    0.000    0.000    0.000    0.000    0.000 
#
# Total GULP energy -396699.601513 kJ/mol
# GULP energy per Si atom -12396.862547 kJ/mol
# Density = 1.844163 g / cm^3
# Si number density = 18.483703 Si / 1000 Ang^3
#
#
#
# Elastic Constant Matrix: (Units=GPa)
#
#
# Indices 1 2 3 4 5 6 
#
# 1 114.9627 45.0172 59.7318 0.0000 -16.5080 0.0000
# 2 45.0172 68.1924 49.4396 0.0000 -5.5446 0.0000
# 3 59.7318 49.4396 112.8162 0.0000 1.7275 0.0000
# 4 0.0000 0.0000 0.0000 31.8300 0.0000 -6.4442
# 5 -16.5080 -5.5446 1.7275 0.0000 22.7200 0.0000
# 6 0.0000 0.0000 0.0000 -6.4442 0.0000 22.4214
#
#
#
# Elastic Compliance Matrix: (Units=1/GPa)
#
#
# Indices 1 2 3 4 5 6 
#
# 1 0.015248 -0.004768 -0.006143 0.000000 0.010382 0.000000
# 2 -0.004768 0.023824 -0.007961 0.000000 0.002955 0.000000
# 3 -0.006143 -0.007961 0.015721 0.000000 -0.007601 0.000000
# 4 0.000000 0.000000 0.000000 0.033358 0.000000 0.009587
# 5 0.010382 0.002955 -0.007601 0.000000 0.052857 0.000000
# 6 0.000000 0.000000 0.000000 0.009587 0.000000 0.047356
#
#
# Mechanical properties :
#
#
# Convention : Reuss Voigt Hill
#
# Bulk Modulus (GPa) = 58.65241 67.14984 62.90112
# Shear Modulus (GPa) = 21.57107 24.84645 23.20876
#
# Velocity S-wave (km/s) = 3.41989 3.67036 3.54734
# Velocity P-wave (km/s) = 6.88441 7.37361 7.13320
#
# Compressibility (1/GPa) = 0.01704960
#
# Stress axis : x y z
#
# Youngs Moduli (GPa) = 65.58194 41.97379 63.60749
#
# Poissons Ratio (x) = 0.20015 0.39071
# Poissons Ratio (y) = 0.31273 0.50639
# Poissons Ratio (z) = 0.40284 0.33416
#
# Static dielectric constant tensor:
#      x y z
#    x 3.133340 0.000000 0.067620 
#    y 0.000000 3.367950 0.000000 
#    z 0.067620 0.000000 3.392410 
# 
# 
# High freq. dielectric constant tensor:
#      x y z
#    x 1.703220 0.000000 -0.007460 
#    y 0.000000 1.719480 0.000000 
#    z -0.007460 0.000000 1.716090 
# 
# From -- ./inp_files/353581.got.cif
#   From: 2010.06.25/outbox.cif.g09.slc.cpg/sg12_177_cif.got.tgz:353581.got - 2010.06.28 00:19:55.
