data_PCOD8085246
_publ_section_title
;
Structure prediction by ZEFSAII (Michael W. Deem and Ramdas Pophale) SiO2 
 PCOD8085246
Probable space group: C 2/M
;
_chemical_formula_sum "Si O2"
_cell_formula_units_Z 64
_cell_length_a 22.611064
_cell_length_b 18.137872
_cell_length_c 12.686864
_cell_angle_alpha 90.000000
_cell_angle_beta 134.691328
_cell_angle_gamma 90.000000
_cell_volume 3698.909894
_symmetry_space_group_name_H-M "C 2/M"
_symmetry_group_IT_number 12
_symmetry_cell_setting 'monoclinic'
loop_
_space_group_symop_operation_xyz
x,y,z
-x,y,-z
-x,-y,-z
x,-y,z
1/2+x,1/2+y,z
1/2-x,1/2+y,-z
1/2-x,1/2-y,-z
1/2+x,1/2-y,z
loop_
_atom_site_type_symbol
_atom_site_label
_atom_site_fract_x
_atom_site_fract_y
_atom_site_fract_z
Si Si1 0.661097 0.084514 0.478967
Si Si2 0.937077 0.722456 0.632142
Si Si3 0.201345 0.212594 0.687594
Si Si4 0.921160 0.148827 0.756276
Si Si5 0.217620 0.084760 0.560687
Si Si6 0.938518 0.812796 0.331656
Si Si7 0.415994 0.585245 0.105524
Si Si8 0.700048 0.351704 0.203063
O O1 0.577327 0.134747 0.371551
O O2 0.708807 0.099448 0.429827
O O3 0.720925 0.104045 0.652212
O O4 0.632608 0.000000 0.453846
O O5 0.855020 0.752046 0.472801
O O6 0.940922 0.766453 0.747550
O O7 0.019900 0.738981 0.667172
O O8 0.233535 0.133412 0.685642
O O9 0.151825 0.205782 0.735206
O O10 0.278539 0.267533 0.801171
O O11 0.869582 0.106553 0.601268
O O12 0.874900 0.148722 0.808377
O O13 0.007467 0.104894 0.875919
O O14 0.214622 0.000000 0.592473
O O15 0.928337 0.875103 0.232248
O O16 0.000000 0.843240 0.500000
O O17 0.412168 0.500000 0.125982
O O18 0.330473 0.608654 0.941386
#
# Coordination Sequence:
#
# PCOD8085246 Si02
#       8
#     8   8   8   8   8   8   8   8
#     4   9  16  27  46  71  97 120 144 184 232 269
#     4   8  15  29  47  67  91 117 154 191 222 262
#     4   9  17  30  48  66  90 123 153 186 222 260
#     4   9  17  29  45  67  95 125 150 182 223 267
#     4   9  16  26  45  74  98 117 147 185 226 268
#     4   9  19  34  50  66  85 116 156 194 226 259
#     4  11  22  32  45  68  95 122 151 182 221 273
#     4  10  19  30  45  66  95 126 153 178 219 274
#
# _framework density 17.302394
#
# number of rings (size 3 to 8) (size 9 to 14) (size 15 to 20)
#    0.000    2.750    0.000    2.625    0.000    6.250 
#    0.000    0.000    0.000   10.125    0.000    3.500 
#    0.000   13.000    0.000    0.000    0.000    0.000 
#
# Total GULP energy -396704.814304 kJ/mol
# GULP energy per Si atom -12397.025447 kJ/mol
# Density = 1.726301 g / cm^3
# Si number density = 17.302394 Si / 1000 Ang^3
#
#
#
# Elastic Constant Matrix: (Units=GPa)
#
#
# Indices 1 2 3 4 5 6 
#
# 1 68.9455 53.1143 27.0025 0.0000 -4.0191 0.0000
# 2 53.1143 147.9835 39.1906 0.0000 2.8970 0.0000
# 3 27.0025 39.1906 38.8512 0.0000 -3.1337 0.0000
# 4 0.0000 0.0000 0.0000 23.6924 0.0000 2.7843
# 5 -4.0191 2.8970 -3.1337 0.0000 13.5230 0.0000
# 6 0.0000 0.0000 0.0000 2.7843 0.0000 18.9412
#
#
#
# Elastic Compliance Matrix: (Units=1/GPa)
#
#
# Indices 1 2 3 4 5 6 
#
# 1 0.023165 -0.005856 -0.009718 0.000000 0.005887 0.000000
# 2 -0.005856 0.010942 -0.007436 0.000000 -0.005808 0.000000
# 3 -0.009718 -0.007436 0.040650 0.000000 0.008125 0.000000
# 4 0.000000 0.000000 0.000000 0.042950 0.000000 -0.006314
# 5 0.005887 -0.005808 0.008125 0.000000 0.078825 0.000000
# 6 0.000000 0.000000 0.000000 -0.006314 0.000000 0.053723
#
#
# Mechanical properties :
#
#
# Convention : Reuss Voigt Hill
#
# Bulk Modulus (GPa) = 34.79896 54.93279 44.86588
# Shear Modulus (GPa) = 16.34762 20.32950 18.33856
#
# Velocity S-wave (km/s) = 3.07712 3.43148 3.25912
# Velocity P-wave (km/s) = 5.72545 6.89330 6.33634
#
# Compressibility (1/GPa) = 0.02873649
#
# Stress axis : x y z
#
# Youngs Moduli (GPa) = 43.16891 91.38748 24.59997
#
# Poissons Ratio (x) = 0.53515 0.23907
# Poissons Ratio (y) = 0.25279 0.18294
# Poissons Ratio (z) = 0.41953 0.67960
#
# Static dielectric constant tensor:
#      x y z
#    x 3.213220 0.000000 -0.004750 
#    y 0.000000 3.317530 0.000000 
#    z -0.004750 0.000000 2.983680 
# 
# 
# High freq. dielectric constant tensor:
#      x y z
#    x 1.661910 0.000000 -0.007050 
#    y 0.000000 1.663040 0.000000 
#    z -0.007050 0.000000 1.635800 
# 
# From -- ./inp_files/168817.got.cif
#   From: 2010.06.25/outbox.cif.g09.slc.cpg/sg12_85_cif.got.tgz:168817.got - 2010.06.28 00:19:55.
