data_PCOD8085554
_publ_section_title
;
Structure prediction by ZEFSAII (Michael W. Deem and Ramdas Pophale) SiO2 
 PCOD8085554
Probable space group: C 2/M
;
_chemical_formula_sum "Si O2"
_cell_formula_units_Z 64
_cell_length_a 31.140438
_cell_length_b 9.043878
_cell_length_c 15.761534
_cell_angle_alpha 90.000000
_cell_angle_beta 54.257179
_cell_angle_gamma 90.000000
_cell_volume 3602.841689
_symmetry_space_group_name_H-M "C 2/M"
_symmetry_group_IT_number 12
_symmetry_cell_setting 'monoclinic'
loop_
_space_group_symop_operation_xyz
x,y,z
-x,y,-z
-x,-y,-z
x,-y,z
1/2+x,1/2+y,z
1/2-x,1/2+y,-z
1/2-x,1/2-y,-z
1/2+x,1/2-y,z
loop_
_atom_site_type_symbol
_atom_site_label
_atom_site_fract_x
_atom_site_fract_y
_atom_site_fract_z
Si Si1 0.041520 0.172756 0.768088
Si Si2 0.938654 0.664444 0.087794
Si Si3 0.294104 0.327054 0.640150
Si Si4 0.787401 0.331831 0.394874
Si Si5 0.669753 0.828184 0.054774
Si Si6 0.781286 0.828142 0.847128
Si Si7 0.079161 0.173648 0.059499
Si Si8 0.373203 0.827154 0.419804
O O1 0.068979 0.237500 0.820439
O O2 0.069524 0.248228 0.653687
O O3 0.979274 0.208485 0.837225
O O4 0.052612 0.000000 0.753311
O O5 0.913283 0.500000 0.129283
O O6 0.910361 0.744795 0.041768
O O7 0.000000 0.646574 0.000000
O O8 0.307370 0.500000 0.616603
O O9 0.233552 0.293905 0.676050
O O10 0.294961 0.276441 0.736381
O O11 0.338587 0.238671 0.536496
O O12 0.776283 0.500000 0.427195
O O13 0.750000 0.250000 0.500000
O O14 0.847027 0.295266 0.356011
O O15 0.683046 0.772459 0.133601
O O16 0.620214 0.734328 0.080174
O O17 0.654298 0.000000 0.076095
O O18 0.719374 0.799616 0.935769
O O19 0.794891 0.000000 0.846875
O O20 0.087090 0.000000 0.035973
O O21 0.381220 0.000000 0.428314
#
# Coordination Sequence:
#
# PCOD8085554 Si02
#       8
#     8   8   8   8   8   8   8   8
#     4  10  20  33  49  71 102 140 176 207 245 294
#     4   9  17  30  48  70  97 129 166 207 247 286
#     4   9  17  32  52  71  97 133 169 204 246 299
#     4   8  15  27  43  65  93 126 162 199 238 281
#     4  10  20  34  54  78 102 129 163 206 255 304
#     4   9  19  35  54  76 101 130 163 203 254 309
#     4  10  20  34  52  74 102 135 171 209 249 299
#     4  10  19  30  47  73 104 136 171 210 248 288
#
# _framework density 17.763756000000001
#
# number of rings (size 3 to 8) (size 9 to 14) (size 15 to 20)
#    0.000    2.625    0.000    1.875    0.000    5.500 
#    0.000    2.500    0.000    0.750    0.000    5.250 
#    0.000    0.000    0.000    0.000    0.000    0.000 
#
# Total GULP energy -396525.527328 kJ/mol
# GULP energy per Si atom -12391.422729 kJ/mol
# Density = 1.772333 g / cm^3
# Si number density = 17.763756 Si / 1000 Ang^3
#
#
#
# Elastic Constant Matrix: (Units=GPa)
#
#
# Indices 1 2 3 4 5 6 
#
# 1 88.5753 48.6566 48.0940 0.0000 6.5030 0.0000
# 2 48.6566 91.2379 47.8752 0.0001 -0.3036 0.0000
# 3 48.0940 47.8752 99.0014 0.0000 5.0439 0.0000
# 4 0.0000 0.0001 0.0000 27.1049 0.0000 2.3162
# 5 6.5030 -0.3036 5.0439 0.0000 18.8748 0.0000
# 6 0.0000 0.0000 0.0000 2.3162 0.0000 27.8966
#
#
#
# Elastic Compliance Matrix: (Units=1/GPa)
#
#
# Indices 1 2 3 4 5 6 
#
# 1 0.018401 -0.007068 -0.005264 0.000000 -0.005047 0.000000
# 2 -0.007068 0.017490 -0.005234 0.000000 0.004115 0.000000
# 3 -0.005264 -0.005234 0.015309 0.000000 -0.002362 0.000000
# 4 0.000000 0.000000 0.000000 0.037157 0.000000 -0.003085
# 5 -0.005047 0.004115 -0.002362 0.000000 0.055417 0.000000
# 6 0.000000 0.000000 0.000000 -0.003085 0.000000 0.036103
#
#
# Mechanical properties :
#
#
# Convention : Reuss Voigt Hill
#
# Bulk Modulus (GPa) = 62.23283 63.11848 62.67565
# Shear Modulus (GPa) = 22.68963 23.72117 23.20540
#
# Velocity S-wave (km/s) = 3.57781 3.65823 3.61825
# Velocity P-wave (km/s) = 7.22338 7.31115 7.26740
#
# Compressibility (1/GPa) = 0.01606869
#
# Stress axis : x y z
#
# Youngs Moduli (GPa) = 54.34444 57.17684 65.31912
#
# Poissons Ratio (x) = 0.40411 0.34385
# Poissons Ratio (y) = 0.38409 0.34187
# Poissons Ratio (z) = 0.28608 0.29925
#
# Static dielectric constant tensor:
#      x y z
#    x 3.186620 0.000000 0.005870 
#    y 0.000000 3.374260 0.000000 
#    z 0.005870 0.000000 3.147160 
# 
# 
# High freq. dielectric constant tensor:
#      x y z
#    x 1.671210 0.000000 -0.003630 
#    y 0.000000 1.699060 0.000000 
#    z -0.003630 0.000000 1.674050 
# 
# From -- ./inp_files/249048.got.cif
#   From: 2010.06.25/outbox.cif.g09.slc.cpg/sg12_125_cif.got.tgz:249048.got - 2010.06.28 00:19:55.
