data_PCOD8085753
_publ_section_title
;
Structure prediction by ZEFSAII (Michael W. Deem and Ramdas Pophale) SiO2 
 PCOD8085753
Probable space group: C 2/M
;
_chemical_formula_sum "Si O2"
_cell_formula_units_Z 56
_cell_length_a 28.569513
_cell_length_b 9.267828
_cell_length_c 14.099985
_cell_angle_alpha 90.000000
_cell_angle_beta 120.299581
_cell_angle_gamma 90.000000
_cell_volume 3223.377094
_symmetry_space_group_name_H-M "C 2/M"
_symmetry_group_IT_number 12
_symmetry_cell_setting 'monoclinic'
loop_
_space_group_symop_operation_xyz
x,y,z
-x,y,-z
-x,-y,-z
x,-y,z
1/2+x,1/2+y,z
1/2-x,1/2+y,-z
1/2-x,1/2-y,-z
1/2+x,1/2-y,z
loop_
_atom_site_type_symbol
_atom_site_label
_atom_site_fract_x
_atom_site_fract_y
_atom_site_fract_z
Si Si1 0.582829 0.841692 0.346802
Si Si2 0.538166 0.834733 0.805155
Si Si3 0.869130 0.165606 0.447418
Si Si4 0.142128 0.335219 0.219485
Si Si5 0.744317 0.330148 0.593968
Si Si6 0.952071 0.832993 0.378771
Si Si7 0.056968 0.170977 0.009786
O O1 0.525322 0.826438 0.236746
O O2 0.587195 0.729690 0.435662
O O3 0.628356 0.813618 0.315586
O O4 0.589416 0.000000 0.398814
O O5 0.549612 0.766990 0.714594
O O6 0.559222 0.000000 0.827704
O O7 0.566151 0.743809 0.916903
O O8 0.808798 0.228288 0.403390
O O9 0.892983 0.191555 0.366890
O O10 0.867578 0.000000 0.471183
O O11 0.129816 0.500000 0.173989
O O12 0.206103 0.298539 0.282590
O O13 0.107907 0.223205 0.123313
O O14 0.741423 0.500000 0.568721
O O15 0.750000 0.250000 0.500000
O O16 0.000000 0.786407 0.500000
O O17 0.960163 0.000000 0.357631
O O18 0.059777 0.000000 0.000873
O O19 0.000000 0.217557 0.000000
#
# Coordination Sequence:
#
# PCOD8085753 Si02
#       7
#     8   8   8   8   8   8   8
#     4  10  19  30  49  77 108 140 173 211 254 307
#     4  11  22  35  53  77 107 141 176 215 260 311
#     4  10  20  33  51  76 108 143 177 214 258 307
#     4  10  20  35  52  75 109 143 175 212 259 312
#     4  10  20  33  52  78 107 141 176 214 260 308
#     4  10  20  34  52  76 107 142 177 216 262 309
#     4  11  23  36  54  79 106 138 175 215 262 315
#
# _framework density 17.373082
#
# number of rings (size 3 to 8) (size 9 to 14) (size 15 to 20)
#    0.000    1.714    4.286    0.857    0.000    3.143 
#    0.000    0.000    0.000    0.857    0.000    0.000 
#    0.000    0.000    0.000    0.000    0.000    0.000 
#
# Total GULP energy -347121.696662 kJ/mol
# GULP energy per Si atom -12397.203452 kJ/mol
# Density = 1.733354 g / cm^3
# Si number density = 17.373082 Si / 1000 Ang^3
#
#
#
# Elastic Constant Matrix: (Units=GPa)
#
#
# Indices 1 2 3 4 5 6 
#
# 1 87.8625 41.6056 36.6089 0.0000 1.9520 0.0000
# 2 41.6056 72.7625 50.0325 0.0000 -5.3967 0.0000
# 3 36.6089 50.0325 90.4271 0.0000 -1.1341 0.0000
# 4 0.0000 0.0000 0.0000 31.8785 0.0000 -5.2087
# 5 1.9520 -5.3967 -1.1341 0.0000 19.4266 0.0000
# 6 0.0000 0.0000 0.0000 -5.2087 0.0000 22.7126
#
#
#
# Elastic Compliance Matrix: (Units=1/GPa)
#
#
# Indices 1 2 3 4 5 6 
#
# 1 0.016187 -0.008089 -0.002128 0.000000 -0.003998 0.000000
# 2 -0.008089 0.026817 -0.011468 0.000000 0.007593 0.000000
# 3 -0.002128 -0.011468 0.018241 0.000000 -0.001907 0.000000
# 4 0.000000 0.000000 0.000000 0.032590 0.000000 0.007474
# 5 -0.003998 0.007593 -0.001907 0.000000 0.053876 0.000000
# 6 0.000000 0.000000 0.000000 0.007474 0.000000 0.045742
#
#
# Mechanical properties :
#
#
# Convention : Reuss Voigt Hill
#
# Bulk Modulus (GPa) = 55.94008 56.39401 56.16704
# Shear Modulus (GPa) = 20.59458 22.99055 21.79257
#
# Velocity S-wave (km/s) = 3.44674 3.64172 3.54557
# Velocity P-wave (km/s) = 6.93608 7.08618 7.01153
#
# Compressibility (1/GPa) = 0.01787627
#
# Stress axis : x y z
#
# Youngs Moduli (GPa) = 61.77662 37.28927 54.82142
#
# Poissons Ratio (x) = 0.30165 0.11664
# Poissons Ratio (y) = 0.49974 0.62867
# Poissons Ratio (z) = 0.13144 0.42762
#
# Static dielectric constant tensor:
#      x y z
#    x 3.431990 0.000000 0.157190 
#    y 0.000000 3.247310 0.000000 
#    z 0.157190 0.000000 3.032620 
# 
# 
# High freq. dielectric constant tensor:
#      x y z
#    x 1.666340 0.000000 0.003870 
#    y 0.000000 1.674080 0.000000 
#    z 0.003870 0.000000 1.651790 
# 
# From -- ./inp_files/180648.got.cif
#   From: 2010.06.25/outbox.cif.g09.slc.cpg/sg12_91_cif.got.tgz:180648.got - 2010.06.28 00:19:55.
