data_PCOD8085729
_publ_section_title
;
Structure prediction by ZEFSAII (Michael W. Deem and Ramdas Pophale) SiO2 
 PCOD8085729
Probable space group: C 2/M
;
_chemical_formula_sum "Si O2"
_cell_formula_units_Z 64
_cell_length_a 12.371091
_cell_length_b 19.119054
_cell_length_c 18.696436
_cell_angle_alpha 90.000000
_cell_angle_beta 52.038588
_cell_angle_gamma 90.000000
_cell_volume 3486.532629
_symmetry_space_group_name_H-M "C 2/M"
_symmetry_group_IT_number 12
_symmetry_cell_setting 'monoclinic'
loop_
_space_group_symop_operation_xyz
x,y,z
-x,y,-z
-x,-y,-z
x,-y,z
1/2+x,1/2+y,z
1/2-x,1/2+y,-z
1/2-x,1/2-y,-z
1/2+x,1/2-y,z
loop_
_atom_site_type_symbol
_atom_site_label
_atom_site_fract_x
_atom_site_fract_y
_atom_site_fract_z
Si Si1 0.854988 0.308445 0.538012
Si Si2 0.241977 0.338399 0.570207
Si Si3 0.515657 0.916799 0.075033
Si Si4 0.973611 0.080066 0.399536
Si Si5 0.806301 0.919914 0.325835
Si Si6 0.918095 0.917185 0.130637
Si Si7 0.788646 0.417833 0.280194
Si Si8 0.291242 0.583062 0.037960
O O1 0.855552 0.342829 0.459022
O O2 0.751922 0.243330 0.586446
O O3 0.821978 0.370454 0.606576
O O4 0.000000 0.277348 0.500000
O O5 0.390132 0.372717 0.490180
O O6 0.166901 0.379373 0.664748
O O7 0.384334 0.892574 0.175581
O O8 0.653976 0.886099 0.056272
O O9 0.522515 0.000000 0.069560
O O10 0.500000 0.887736 0.000000
O O11 0.917951 0.089443 0.342349
O O12 0.131390 0.103720 0.329992
O O13 0.959845 0.000000 0.431226
O O14 0.869460 0.890873 0.227031
O O15 0.756474 0.000000 0.339471
O O16 0.809681 0.892857 0.113465
O O17 0.928324 0.000000 0.123496
O O18 0.072379 0.888126 0.056964
O O19 0.806655 0.500000 0.284695
O O20 0.281780 0.500000 0.037047
#
# Coordination Sequence:
#
# PCOD8085729 Si02
#       8
#     8   8   8   8   8   8   8   8
#     4  10  21  35  51  71  96 128 161 196 246 293
#     4  10  20  35  52  71  98 126 166 206 235 289
#     4   9  18  28  40  66 101 128 156 197 245 295
#     4   9  17  29  48  73 100 128 161 203 244 284
#     4   9  18  30  46  72 100 124 159 201 243 290
#     4   8  14  25  43  64  87 121 159 196 235 279
#     4  10  19  30  49  75  99 133 166 198 250 290
#     4   8  14  25  41  62  91 124 156 193 238 283
#
# _framework density 18.356345000000001
#
# number of rings (size 3 to 8) (size 9 to 14) (size 15 to 20)
#    0.000    2.875    0.000    2.250    1.750    2.750 
#    0.000    1.250    0.000    0.000    3.250    0.875 
#    0.000    0.000    0.000    0.000    0.000    0.000 
#
# Total GULP energy -396603.332859 kJ/mol
# GULP energy per Si atom -12393.854152 kJ/mol
# Density = 1.831457 g / cm^3
# Si number density = 18.356345 Si / 1000 Ang^3
#
#
#
# Elastic Constant Matrix: (Units=GPa)
#
#
# Indices 1 2 3 4 5 6 
#
# 1 92.9171 14.3767 48.8934 0.0001 -1.4598 -0.0001
# 2 14.3767 41.2653 34.5427 0.0000 4.4622 0.0000
# 3 48.8934 34.5427 143.5110 0.0002 18.9305 -0.0001
# 4 0.0001 0.0000 0.0002 7.3998 -0.0001 3.7758
# 5 -1.4598 4.4622 18.9305 -0.0001 23.0870 0.0001
# 6 -0.0001 0.0000 -0.0001 3.7758 0.0001 13.6771
#
#
#
# Elastic Compliance Matrix: (Units=1/GPa)
#
#
# Indices 1 2 3 4 5 6 
#
# 1 0.013695 -0.001069 -0.005102 0.000000 0.005256 0.000000
# 2 -0.001069 0.030432 -0.006925 0.000000 -0.000271 0.000000
# 3 -0.005102 -0.006925 0.011481 0.000000 -0.008398 0.000000
# 4 0.000000 0.000000 0.000000 0.157297 0.000001 -0.043425
# 5 0.005256 -0.000271 -0.008398 0.000001 0.050585 -0.000001
# 6 0.000000 0.000000 0.000000 -0.043425 -0.000001 0.085103
#
#
# Mechanical properties :
#
#
# Convention : Reuss Voigt Hill
#
# Bulk Modulus (GPa) = 33.99467 52.59100 43.29283
# Shear Modulus (GPa) = 13.00090 20.82483 16.91286
#
# Velocity S-wave (km/s) = 2.66419 3.37185 3.03869
# Velocity P-wave (km/s) = 5.29371 6.62355 5.99561
#
# Compressibility (1/GPa) = 0.02941638
#
# Stress axis : x y z
#
# Youngs Moduli (GPa) = 73.02038 32.86020 87.10178
#
# Poissons Ratio (x) = 0.03513 0.44437
# Poissons Ratio (y) = 0.07806 0.60317
# Poissons Ratio (z) = 0.37253 0.22755
#
# Static dielectric constant tensor:
#      x y z
#    x 3.491200 0.000000 0.149100 
#    y 0.000000 2.960640 0.000000 
#    z 0.149100 0.000000 3.589990 
# 
# 
# High freq. dielectric constant tensor:
#      x y z
#    x 1.714840 0.000000 0.013570 
#    y 0.000000 1.663790 0.000000 
#    z 0.013570 0.000000 1.709940 
# 
# From -- ./inp_files/264818.got.cif
#   From: 2010.06.25/outbox.cif.g09.slc.cpg/sg12_133_cif.got.tgz:264818.got - 2010.06.28 00:19:55.
