data_PCOD8085667
_publ_section_title
;
Structure prediction by ZEFSAII (Michael W. Deem and Ramdas Pophale) SiO2 
 PCOD8085667
Probable space group: C 2/M
;
_chemical_formula_sum "Si O2"
_cell_formula_units_Z 48
_cell_length_a 19.162141
_cell_length_b 9.172715
_cell_length_c 16.230615
_cell_angle_alpha 90.000000
_cell_angle_beta 111.219686
_cell_angle_gamma 90.000000
_cell_volume 2659.412906
_symmetry_space_group_name_H-M "C 2/M"
_symmetry_group_IT_number 12
_symmetry_cell_setting 'monoclinic'
loop_
_space_group_symop_operation_xyz
x,y,z
-x,y,-z
-x,-y,-z
x,-y,z
1/2+x,1/2+y,z
1/2-x,1/2+y,-z
1/2-x,1/2-y,-z
1/2+x,1/2-y,z
loop_
_atom_site_type_symbol
_atom_site_label
_atom_site_fract_x
_atom_site_fract_y
_atom_site_fract_z
Si Si1 0.836920 0.831076 0.273524
Si Si2 0.024665 0.668727 0.603571
Si Si3 0.401522 0.333349 0.129811
Si Si4 0.334479 0.170047 0.774918
Si Si5 0.415475 0.828253 0.974587
Si Si6 0.446997 0.670473 0.713410
O O1 0.892073 0.733109 0.351297
O O2 0.845446 0.793415 0.180324
O O3 0.753315 0.797140 0.266251
O O4 0.858934 0.000000 0.296279
O O5 0.025492 0.500000 0.629886
O O6 0.000000 0.690974 0.500000
O O7 0.965394 0.753788 0.634729
O O8 0.392763 0.500000 0.099647
O O9 0.486148 0.298951 0.194085
O O10 0.379586 0.237613 0.041806
O O11 0.366593 0.223596 0.876197
O O12 0.371426 0.260753 0.717127
O O13 0.352325 0.000000 0.769668
O O14 0.413803 0.000000 0.984046
O O15 0.500000 0.770089 0.000000
O O16 0.435108 0.500000 0.692389
#
# Coordination Sequence:
#
# PCOD8085667 Si02
#       6
#     8   8   8   8   8   8
#     4   9  20  37  55  78 109 143 176 218 270 316
#     4  10  21  38  61  85 106 132 170 215 264 324
#     4   9  18  32  49  72 103 140 182 224 262 305
#     4  10  20  35  53  76 111 147 180 221 266 309
#     4  10  19  30  48  75 105 141 185 224 260 305
#     4  10  20  34  55  81 108 140 179 218 262 316
#
# _framework density 18.049097
#
# number of rings (size 3 to 8) (size 9 to 14) (size 15 to 20)
#    0.000    2.333    1.667    2.000    0.000    6.333 
#    0.000    0.833    0.000    0.000    0.000    0.000 
#    0.000    0.000    0.000    0.000    0.000    0.000 
#
# Total GULP energy -297671.287946 kJ/mol
# GULP energy per Si atom -12402.970331 kJ/mol
# Density = 1.800802 g / cm^3
# Si number density = 18.049097 Si / 1000 Ang^3
#
#
#
# Elastic Constant Matrix: (Units=GPa)
#
#
# Indices 1 2 3 4 5 6 
#
# 1 123.7622 63.8628 52.7354 0.0000 -11.6014 0.0000
# 2 63.8628 90.2423 62.2404 0.0000 -9.2175 0.0000
# 3 52.7354 62.2404 98.9639 0.0000 -8.3048 0.0000
# 4 0.0000 0.0000 0.0000 29.3341 0.0000 -4.0160
# 5 -11.6014 -9.2175 -8.3048 0.0000 18.5287 0.0000
# 6 0.0000 0.0000 0.0000 -4.0160 0.0000 29.7672
#
#
#
# Elastic Compliance Matrix: (Units=1/GPa)
#
#
# Indices 1 2 3 4 5 6 
#
# 1 0.013172 -0.007632 -0.001918 0.000000 0.003591 0.000000
# 2 -0.007632 0.024341 -0.011042 0.000000 0.002381 0.000000
# 3 -0.001918 -0.011042 0.018194 0.000000 0.001461 0.000000
# 4 0.000000 0.000000 0.000000 0.034732 0.000000 0.004686
# 5 0.003591 0.002381 0.001461 0.000000 0.058058 0.000000
# 6 0.000000 0.000000 0.000000 0.004686 0.000000 0.034226
#
#
# Mechanical properties :
#
#
# Convention : Reuss Voigt Hill
#
# Bulk Modulus (GPa) = 68.85407 74.51619 71.68513
# Shear Modulus (GPa) = 21.85813 24.46798 23.16306
#
# Velocity S-wave (km/s) = 3.48377 3.68589 3.58625
# Velocity P-wave (km/s) = 7.37653 7.71293 7.54661
#
# Compressibility (1/GPa) = 0.01452347
#
# Stress axis : x y z
#
# Youngs Moduli (GPa) = 75.91816 41.08237 54.96423
#
# Poissons Ratio (x) = 0.31355 0.10540
# Poissons Ratio (y) = 0.57942 0.60691
# Poissons Ratio (z) = 0.14558 0.45363
#
# Static dielectric constant tensor:
#      x y z
#    x 3.344830 0.000000 -0.074580 
#    y 0.000000 3.308690 0.000000 
#    z -0.074580 0.000000 3.141770 
# 
# 
# High freq. dielectric constant tensor:
#      x y z
#    x 1.696620 0.000000 -0.011250 
#    y 0.000000 1.699930 0.000000 
#    z -0.011250 0.000000 1.685790 
# 
# From -- ./inp_files/229926.got.cif
#   From: 2010.06.25/outbox.cif.g09.slc.cpg/sg12_115_cif.got.tgz:229926.got - 2010.06.28 00:19:55.
