data_PCOD8085925
_publ_section_title
;
Structure prediction by ZEFSAII (Michael W. Deem and Ramdas Pophale) SiO2 
 PCOD8085925
Probable space group: C 2/M
;
_chemical_formula_sum "Si O2"
_cell_formula_units_Z 64
_cell_length_a 29.671663
_cell_length_b 9.029397
_cell_length_c 30.629057
_cell_angle_alpha 90.000000
_cell_angle_beta 28.982851
_cell_angle_gamma 90.000000
_cell_volume 3976.224577
_symmetry_space_group_name_H-M "C 2/M"
_symmetry_group_IT_number 12
_symmetry_cell_setting 'monoclinic'
loop_
_space_group_symop_operation_xyz
x,y,z
-x,y,-z
-x,-y,-z
x,-y,z
1/2+x,1/2+y,z
1/2-x,1/2+y,-z
1/2-x,1/2-y,-z
1/2+x,1/2-y,z
loop_
_atom_site_type_symbol
_atom_site_label
_atom_site_fract_x
_atom_site_fract_y
_atom_site_fract_z
Si Si1 0.526540 0.328556 0.576999
Si Si2 0.833547 0.671755 0.373919
Si Si3 0.977653 0.174923 0.085276
Si Si4 0.640262 0.172132 0.550094
Si Si5 0.828328 0.825529 0.710029
Si Si6 0.852162 0.824753 0.112836
Si Si7 0.693544 0.671561 0.370958
Si Si8 0.628412 0.675345 0.741778
O O1 0.524359 0.500000 0.592677
O O2 0.553041 0.232128 0.596885
O O3 0.426315 0.271730 0.646246
O O4 0.597049 0.302173 0.477548
O O5 0.824645 0.500000 0.370026
O O6 0.730563 0.738096 0.459012
O O7 0.880615 0.698691 0.380986
O O8 0.896242 0.751248 0.283961
O O9 0.901902 0.234901 0.114793
O O10 0.950115 0.229071 0.157067
O O11 0.972326 0.000000 0.086517
O O12 0.082133 0.224626 0.983670
O O13 0.658028 0.000000 0.525332
O O14 0.747330 0.752432 0.807653
O O15 0.820849 0.773841 0.666265
O O16 0.819188 0.000000 0.721253
O O17 0.837378 0.000000 0.126209
O O18 0.724125 0.500000 0.347195
O O19 0.770839 0.772308 0.327872
O O20 0.629085 0.500000 0.736084
#
# Coordination Sequence:
#
# PCOD8085925 Si02
#       8
#     8   8   8   8   8   8   8   8
#     4  10  20  33  48  65  94 132 163 194 235 275
#     4  10  20  33  48  68  96 125 151 188 242 286
#     4   8  16  29  47  68  93 122 155 193 238 281
#     4  10  20  33  49  69  92 121 160 198 228 273
#     4  10  20  32  46  68  96 128 164 197 231 275
#     4   9  16  31  49  65  90 126 159 193 235 278
#     4  10  19  31  45  64  95 132 163 190 226 274
#     4  11  19  29  48  73  96 122 158 196 230 275
#
# _framework density 16.095670999999999
#
# number of rings (size 3 to 8) (size 9 to 14) (size 15 to 20)
#    0.000    2.250    2.500    2.250    0.000    3.500 
#    0.000    2.500    0.000    2.250    0.000    0.875 
#    0.000    0.000    0.000    0.000    0.000    0.000 
#
# Total GULP energy -396769.699563 kJ/mol
# GULP energy per Si atom -12399.053111 kJ/mol
# Density = 1.605904 g / cm^3
# Si number density = 16.095671 Si / 1000 Ang^3
#
#
#
# Elastic Constant Matrix: (Units=GPa)
#
#
# Indices 1 2 3 4 5 6 
#
# 1 79.8563 33.1417 50.2238 -0.0135 11.3415 0.0042
# 2 33.1417 54.2230 37.9476 -0.0181 8.2578 0.0080
# 3 50.2238 37.9476 119.7325 -0.0222 11.1019 0.0123
# 4 -0.0135 -0.0181 -0.0222 24.2188 0.0192 1.0547
# 5 11.3415 8.2578 11.1019 0.0192 25.9758 -0.0073
# 6 0.0042 0.0080 0.0123 1.0547 -0.0073 24.9384
#
#
#
# Elastic Compliance Matrix: (Units=1/GPa)
#
#
# Indices 1 2 3 4 5 6 
#
# 1 0.019672 -0.007600 -0.005488 0.000003 -0.003827 0.000001
# 2 -0.007600 0.027152 -0.005128 0.000014 -0.003122 -0.000006
# 3 -0.005488 -0.005128 0.012397 0.000006 -0.001272 -0.000004
# 4 0.000003 0.000014 0.000006 0.041366 -0.000039 -0.001749
# 5 -0.003827 -0.003122 -0.001272 -0.000039 0.041705 0.000016
# 6 0.000001 -0.000006 -0.000004 -0.001749 0.000016 0.040173
#
#
# Mechanical properties :
#
#
# Convention : Reuss Voigt Hill
#
# Bulk Modulus (GPa) = 43.88134 55.15978 49.52056
# Shear Modulus (GPa) = 22.07577 23.85986 22.96782
#
# Velocity S-wave (km/s) = 3.70744 3.85434 3.78161
# Velocity P-wave (km/s) = 6.75639 7.35882 7.06403
#
# Compressibility (1/GPa) = 0.02278873
#
# Stress axis : x y z
#
# Youngs Moduli (GPa) = 50.83426 36.83013 80.66326
#
# Poissons Ratio (x) = 0.27991 0.44269
# Poissons Ratio (y) = 0.38634 0.41364
# Poissons Ratio (z) = 0.27898 0.18886
#
# Static dielectric constant tensor:
#      x y z
#    x 3.070370 -0.000030 0.245870 
#    y -0.000030 2.961870 0.000040 
#    z 0.245870 0.000040 3.228280 
# 
# 
# High freq. dielectric constant tensor:
#      x y z
#    x 1.600090 0.000000 0.016220 
#    y 0.000000 1.614030 0.000000 
#    z 0.016220 0.000000 1.609430 
# 
# From -- ./inp_files/248261.got.cif
#   From: 2010.06.25/outbox.cif.g09.slc.cpg/sg12_125_cif.got.tgz:248261.got - 2010.06.28 00:19:55.
