data_PCOD8085116
_publ_section_title
;
Structure prediction by ZEFSAII (Michael W. Deem and Ramdas Pophale) SiO2 
 PCOD8085116
Probable space group: C 2/M
;
_chemical_formula_sum "Si O2"
_cell_formula_units_Z 60
_cell_length_a 22.971347
_cell_length_b 14.333271
_cell_length_c 16.439903
_cell_angle_alpha 90.000000
_cell_angle_beta 135.468865
_cell_angle_gamma 90.000000
_cell_volume 3796.058089
_symmetry_space_group_name_H-M "C 2/M"
_symmetry_group_IT_number 12
_symmetry_cell_setting 'monoclinic'
loop_
_space_group_symop_operation_xyz
x,y,z
-x,y,-z
-x,-y,-z
x,-y,z
1/2+x,1/2+y,z
1/2-x,1/2+y,-z
1/2-x,1/2-y,-z
1/2+x,1/2-y,z
loop_
_atom_site_type_symbol
_atom_site_label
_atom_site_fract_x
_atom_site_fract_y
_atom_site_fract_z
Si Si1 0.909797 0.893144 0.012223
Si Si2 0.250348 0.109170 0.059369
Si Si3 0.671875 0.787658 0.725747
Si Si4 0.806302 0.107213 0.757730
Si Si5 0.926980 0.889066 0.748013
Si Si6 0.508430 0.393951 0.357733
Si Si7 0.682798 0.605045 0.822453
Si Si8 0.000000 0.233519 0.500000
O O1 0.996386 0.844840 0.123704
O O2 0.915260 0.000000 0.045350
O O3 0.833498 0.848176 0.985621
O O4 0.888921 0.883917 0.895984
O O5 0.323712 0.161638 0.181388
O O6 0.260069 0.000000 0.087845
O O7 0.247659 0.128488 0.960049
O O8 0.731148 0.829999 0.715515
O O9 0.695333 0.678153 0.761577
O O10 0.577076 0.798528 0.601925
O O11 0.839017 0.142103 0.701449
O O12 0.774923 0.000000 0.725258
O O13 0.936180 0.857725 0.663350
O O14 0.930585 0.000000 0.757758
O O15 0.532132 0.500000 0.403351
O O16 0.411178 0.387266 0.236975
O O17 0.530819 0.331082 0.456856
O O18 0.699202 0.500000 0.806067
#
# Coordination Sequence:
#
# PCOD8085116 Si02
#       8
#     8   8   8   8   8   8   8   4
#     4   8  12  20  37  63  93 114 125 152 211 279
#     4   9  15  26  44  67  92 114 138 175 222 266
#     4  10  19  30  42  60  89 122 150 180 214 249
#     4   9  17  27  41  64  93 117 140 173 215 263
#     4   9  14  23  42  66  90 113 134 166 220 279
#     4   9  16  28  46  66  86 112 143 176 223 272
#     4   9  16  27  45  67  91 115 140 175 219 269
#     4  10  21  32  41  56  84 122 158 190 206 236
#
# _framework density 15.805870000000001
#
# number of rings (size 3 to 8) (size 9 to 14) (size 15 to 20)
#    0.000    2.933    1.333    2.200    0.000    2.133 
#    0.000    2.000    0.000    0.000    0.000    0.000 
#    0.000   17.067    0.000    0.000    0.000    0.000 
#
# Total GULP energy -371680.696268 kJ/mol
# GULP energy per Si atom -12389.356542 kJ/mol
# Density = 1.576990 g / cm^3
# Si number density = 15.805870 Si / 1000 Ang^3
#
#
#
# Elastic Constant Matrix: (Units=GPa)
#
#
# Indices 1 2 3 4 5 6 
#
# 1 101.0162 41.1799 34.6223 0.0000 -4.9060 0.0000
# 2 41.1799 52.4309 30.4499 0.0000 2.0076 0.0000
# 3 34.6223 30.4499 82.8972 0.0000 2.6606 0.0000
# 4 0.0000 0.0000 0.0000 19.4426 0.0000 -1.2188
# 5 -4.9060 2.0076 2.6606 0.0000 13.8931 0.0000
# 6 0.0000 0.0000 0.0000 -1.2188 0.0000 16.7079
#
#
#
# Elastic Compliance Matrix: (Units=1/GPa)
#
#
# Indices 1 2 3 4 5 6 
#
# 1 0.015716 -0.011036 -0.002756 0.000000 0.007672 0.000000
# 2 -0.011036 0.032041 -0.006929 0.000000 -0.007200 0.000000
# 3 -0.002756 -0.006929 0.015856 0.000000 -0.003008 0.000000
# 4 0.000000 0.000000 0.000000 0.051670 0.000000 0.003769
# 5 0.007672 -0.007200 -0.003008 0.000000 0.076304 0.000000
# 6 0.000000 0.000000 0.000000 0.003769 0.000000 0.060127
#
#
# Mechanical properties :
#
#
# Convention : Reuss Voigt Hill
#
# Bulk Modulus (GPa) = 45.10659 49.87206 47.48933
# Shear Modulus (GPa) = 16.63646 18.68153 17.65900
#
# Velocity S-wave (km/s) = 3.24782 3.44166 3.34614
# Velocity P-wave (km/s) = 6.53179 6.88584 6.71115
#
# Compressibility (1/GPa) = 0.02216971
#
# Stress axis : x y z
#
# Youngs Moduli (GPa) = 63.63071 31.21047 63.06838
#
# Poissons Ratio (x) = 0.34445 0.17382
# Poissons Ratio (y) = 0.70226 0.43698
# Poissons Ratio (z) = 0.17537 0.21625
#
# Static dielectric constant tensor:
#      x y z
#    x 2.984960 0.000000 -0.105380 
#    y 0.000000 2.763650 0.000000 
#    z -0.105380 0.000000 2.929290 
# 
# 
# High freq. dielectric constant tensor:
#      x y z
#    x 1.590990 0.000000 -0.014200 
#    y 0.000000 1.568520 0.000000 
#    z -0.014200 0.000000 1.593340 
# 
# From -- ./inp_files/289631.got.cif
#   From: 2010.06.25/outbox.cif.g09.slc.cpg/sg12_145_cif.got.tgz:289631.got - 2010.06.28 00:19:55.
