data_PCOD8085586
_publ_section_title
;
Structure prediction by ZEFSAII (Michael W. Deem and Ramdas Pophale) SiO2 
 PCOD8085586
Probable space group: C 2/M
;
_chemical_formula_sum "Si O2"
_cell_formula_units_Z 64
_cell_length_a 23.823987
_cell_length_b 9.180132
_cell_length_c 19.205312
_cell_angle_alpha 90.000000
_cell_angle_beta 109.914883
_cell_angle_gamma 90.000000
_cell_volume 3949.160958
_symmetry_space_group_name_H-M "C 2/M"
_symmetry_group_IT_number 12
_symmetry_cell_setting 'monoclinic'
loop_
_space_group_symop_operation_xyz
x,y,z
-x,y,-z
-x,-y,-z
x,-y,z
1/2+x,1/2+y,z
1/2-x,1/2+y,-z
1/2-x,1/2-y,-z
1/2+x,1/2-y,z
loop_
_atom_site_type_symbol
_atom_site_label
_atom_site_fract_x
_atom_site_fract_y
_atom_site_fract_z
Si Si1 0.775324 0.329018 0.711906
Si Si2 0.053043 0.832749 0.069454
Si Si3 0.653255 0.829517 0.037481
Si Si4 0.231091 0.834115 0.423747
Si Si5 0.120668 0.327565 0.869204
Si Si6 0.725005 0.668992 0.840850
Si Si7 0.499701 0.334296 0.197506
Si Si8 0.621587 0.664522 0.296031
O O1 0.775287 0.500000 0.696993
O O2 0.741594 0.245802 0.633599
O O3 0.743062 0.290453 0.770046
O O4 0.844093 0.271224 0.743951
O O5 0.113216 0.746599 0.078701
O O6 0.035043 0.810671 0.141064
O O7 0.064233 0.000000 0.054275
O O8 0.000000 0.767393 0.000000
O O9 0.721890 0.792040 0.083182
O O10 0.641470 0.000000 0.038763
O O11 0.636626 0.771423 0.953504
O O12 0.250000 0.750000 0.500000
O O13 0.158207 0.829621 0.384938
O O14 0.254609 0.000000 0.437287
O O15 0.122053 0.500000 0.865752
O O16 0.168027 0.264946 0.835110
O O17 0.055517 0.273443 0.818582
O O18 0.707876 0.500000 0.839687
O O19 0.476172 0.500000 0.195090
O O20 0.551377 0.294772 0.276447
O O21 0.624304 0.500000 0.266118
#
# Coordination Sequence:
#
# PCOD8085586 Si02
#       8
#     8   8   8   8   8   8   8   8
#     4   9  17  30  50  75 100 127 160 196 241 288
#     4  10  19  30  48  70  91 121 160 199 247 300
#     4  10  21  35  49  68  93 124 165 213 260 298
#     4   9  17  30  49  77 109 134 158 187 230 287
#     4  11  23  34  47  68  92 126 171 216 255 289
#     4  10  21  36  51  67  92 129 169 208 251 297
#     4  10  19  34  49  66  95 128 162 201 246 297
#     4   8  17  30  48  72  99 129 157 190 234 285
#
# _framework density 16.205974000000001
#
# number of rings (size 3 to 8) (size 9 to 14) (size 15 to 20)
#    0.750    1.625    1.250    1.875    0.000    3.250 
#    0.000    0.000    0.000    0.000    0.000    0.875 
#    0.000    7.000    0.000    0.000    0.000    0.000 
#
# Total GULP energy -396571.821816 kJ/mol
# GULP energy per Si atom -12392.869432 kJ/mol
# Density = 1.616909 g / cm^3
# Si number density = 16.205974 Si / 1000 Ang^3
#
#
#
# Elastic Constant Matrix: (Units=GPa)
#
#
# Indices 1 2 3 4 5 6 
#
# 1 104.6202 51.9187 44.2714 0.0000 1.2003 0.0000
# 2 51.9187 78.3604 40.5430 0.0000 -0.6305 0.0000
# 3 44.2714 40.5430 77.1141 0.0000 12.1194 0.0000
# 4 0.0000 0.0000 0.0000 24.0518 0.0000 -1.0335
# 5 1.2003 -0.6305 12.1194 0.0000 17.7095 0.0000
# 6 0.0000 0.0000 0.0000 -1.0335 0.0000 30.6359
#
#
#
# Elastic Compliance Matrix: (Units=1/GPa)
#
#
# Indices 1 2 3 4 5 6 
#
# 1 0.015507 -0.007501 -0.005325 0.000000 0.002326 0.000000
# 2 -0.007501 0.022166 -0.008462 0.000000 0.007088 0.000000
# 3 -0.005325 -0.008462 0.022930 0.000000 -0.015633 0.000000
# 4 0.000000 0.000000 0.000000 0.041637 0.000000 0.001405
# 5 0.002326 0.007088 -0.015633 0.000000 0.067260 0.000000
# 6 0.000000 0.000000 0.000000 0.001405 0.000000 0.032689
#
#
# Mechanical properties :
#
#
# Convention : Reuss Voigt Hill
#
# Bulk Modulus (GPa) = 55.46516 59.28455 57.37485
# Shear Modulus (GPa) = 19.93823 22.70357 21.32090
#
# Velocity S-wave (km/s) = 3.51137 3.74697 3.63108
# Velocity P-wave (km/s) = 7.12314 7.44184 7.28423
#
# Compressibility (1/GPa) = 0.01802934
#
# Stress axis : x y z
#
# Youngs Moduli (GPa) = 64.48582 45.11322 43.61025
#
# Poissons Ratio (x) = 0.33839 0.23221
# Poissons Ratio (y) = 0.48370 0.36902
# Poissons Ratio (z) = 0.34337 0.38174
#
# Static dielectric constant tensor:
#      x y z
#    x 3.010090 0.000000 0.202710 
#    y 0.000000 3.061900 0.000000 
#    z 0.202710 0.000000 2.939340 
# 
# 
# High freq. dielectric constant tensor:
#      x y z
#    x 1.608470 0.000000 0.014130 
#    y 0.000000 1.629380 0.000000 
#    z 0.014130 0.000000 1.600180 
# 
# From -- ./inp_files/287653.got.cif
#   From: 2010.06.25/outbox.cif.g09.slc.cpg/sg12_144_cif.got.tgz:287653.got - 2010.06.28 00:19:55.
