data_PCOD8085913
_publ_section_title
;
Structure prediction by ZEFSAII (Michael W. Deem and Ramdas Pophale) SiO2 
 PCOD8085913
Probable space group: C 2/M
;
_chemical_formula_sum "Si O2"
_cell_formula_units_Z 64
_cell_length_a 27.877854
_cell_length_b 8.975341
_cell_length_c 31.408815
_cell_angle_alpha 90.000000
_cell_angle_beta 148.479048
_cell_angle_gamma 90.000000
_cell_volume 4108.714871
_symmetry_space_group_name_H-M "C 2/M"
_symmetry_group_IT_number 12
_symmetry_cell_setting 'monoclinic'
loop_
_space_group_symop_operation_xyz
x,y,z
-x,y,-z
-x,-y,-z
x,-y,z
1/2+x,1/2+y,z
1/2-x,1/2+y,-z
1/2-x,1/2-y,-z
1/2+x,1/2-y,z
loop_
_atom_site_type_symbol
_atom_site_label
_atom_site_fract_x
_atom_site_fract_y
_atom_site_fract_z
Si Si1 0.392660 0.831829 0.409730
Si Si2 0.882935 0.171844 0.228152
Si Si3 0.220210 0.323446 0.433706
Si Si4 0.897390 0.329631 0.112571
Si Si5 0.253546 0.671340 0.060136
Si Si6 0.529357 0.324048 0.268980
Si Si7 0.635784 0.673271 0.528824
Si Si8 0.927434 0.175046 0.353199
O O1 0.500000 0.819319 0.500000
O O2 0.338743 0.756143 0.407988
O O3 0.371039 0.750576 0.348857
O O4 0.358315 0.000000 0.379987
O O5 0.961090 0.231027 0.254849
O O6 0.781254 0.197495 0.130791
O O7 0.889646 0.244695 0.280063
O O8 0.905230 0.000000 0.252243
O O9 0.216048 0.500000 0.436476
O O10 0.250000 0.250000 0.500000
O O11 0.123306 0.262065 0.345383
O O12 0.293871 0.275732 0.454091
O O13 0.927777 0.500000 0.142619
O O14 0.811519 0.290877 0.077593
O O15 0.983777 0.224294 0.189140
O O16 0.855482 0.306362 0.032668
O O17 0.282386 0.500000 0.069964
O O18 0.546494 0.500000 0.282206
O O19 0.643484 0.500000 0.544523
O O20 0.534692 0.716044 0.436145
O O21 0.910831 0.000000 0.344828
#
# Coordination Sequence:
#
# PCOD8085913 Si02
#       8
#     8   8   8   8   8   8   8   8
#     4   9  17  28  42  61  82 103 132 172 214 249
#     4   8  14  25  41  60  83 113 144 171 203 248
#     4  11  22  34  47  64  86 112 145 180 212 246
#     4   9  15  24  39  58  80 108 143 179 213 248
#     4   8  14  24  38  57  82 111 141 173 210 253
#     4  10  19  31  44  59  83 115 150 182 212 247
#     4   9  18  31  45  60  80 110 145 175 203 243
#     4   9  15  26  44  61  80 108 139 168 204 250
#
# _framework density 15.576646
#
# number of rings (size 3 to 8) (size 9 to 14) (size 15 to 20)
#    0.000    2.875    0.000    3.000    0.000    5.000 
#    0.000    5.625    0.000    0.000    0.000    0.000 
#    0.000    1.000    0.000   11.500    0.000    3.500 
#
# Total GULP energy -396503.021007 kJ/mol
# GULP energy per Si atom -12390.719406 kJ/mol
# Density = 1.554119 g / cm^3
# Si number density = 15.576646 Si / 1000 Ang^3
#
#
#
# Elastic Constant Matrix: (Units=GPa)
#
#
# Indices 1 2 3 4 5 6 
#
# 1 90.3114 39.4197 56.4344 0.0000 -20.5208 -0.0002
# 2 39.4197 52.8913 36.2107 0.0000 -8.7832 -0.0017
# 3 56.4344 36.2107 118.8455 -0.0001 -19.8450 0.0002
# 4 0.0000 0.0000 -0.0001 22.3253 0.0001 -1.0788
# 5 -20.5208 -8.7832 -19.8450 0.0001 20.9095 0.0000
# 6 -0.0002 -0.0017 0.0002 -1.0788 0.0000 18.3456
#
#
#
# Elastic Compliance Matrix: (Units=1/GPa)
#
#
# Indices 1 2 3 4 5 6 
#
# 1 0.021564 -0.010669 -0.004995 0.000000 0.011941 -0.000001
# 2 -0.010669 0.029414 -0.004255 0.000000 -0.002154 0.000003
# 3 -0.004995 -0.004255 0.013031 0.000000 0.005677 -0.000001
# 4 0.000000 0.000000 0.000000 0.044920 0.000000 0.002641
# 5 0.011941 -0.002154 0.005677 0.000000 0.064028 0.000000
# 6 -0.000001 0.000003 -0.000001 0.002641 0.000000 0.054664
#
#
# Mechanical properties :
#
#
# Convention : Reuss Voigt Hill
#
# Bulk Modulus (GPa) = 41.37417 58.46420 49.91918
# Shear Modulus (GPa) = 18.14766 20.98164 19.56465
#
# Velocity S-wave (km/s) = 3.41699 3.67412 3.54789
# Velocity P-wave (km/s) = 6.49516 7.45745 6.99288
#
# Compressibility (1/GPa) = 0.02416967
#
# Stress axis : x y z
#
# Youngs Moduli (GPa) = 46.37257 33.99743 76.74014
#
# Poissons Ratio (x) = 0.36272 0.38335
# Poissons Ratio (y) = 0.49475 0.32657
# Poissons Ratio (z) = 0.23165 0.14468
#
# Static dielectric constant tensor:
#      x y z
#    x 2.793940 0.000000 -0.266720 
#    y 0.000000 2.955580 0.000000 
#    z -0.266720 0.000000 3.288280 
# 
# 
# High freq. dielectric constant tensor:
#      x y z
#    x 1.550910 0.000000 -0.024120 
#    y 0.000000 1.597400 0.000000 
#    z -0.024120 0.000000 1.598300 
# 
# From -- ./inp_files/384607.got.cif
#   From: 2010.06.25/outbox.cif.g09.slc.cpg/sg12_193_cif.got.tgz:384607.got - 2010.06.28 00:19:55.
