data_PCOD8085334
_publ_section_title
;
Structure prediction by ZEFSAII (Michael W. Deem and Ramdas Pophale) SiO2 
 PCOD8085334
Probable space group: C 2/M
;
_chemical_formula_sum "Si O2"
_cell_formula_units_Z 56
_cell_length_a 20.040897
_cell_length_b 9.073500
_cell_length_c 30.729887
_cell_angle_alpha 90.000000
_cell_angle_beta 35.826415
_cell_angle_gamma 90.000000
_cell_volume 3270.806759
_symmetry_space_group_name_H-M "C 2/M"
_symmetry_group_IT_number 12
_symmetry_cell_setting 'monoclinic'
loop_
_space_group_symop_operation_xyz
x,y,z
-x,y,-z
-x,-y,-z
x,-y,z
1/2+x,1/2+y,z
1/2-x,1/2+y,-z
1/2-x,1/2-y,-z
1/2+x,1/2-y,z
loop_
_atom_site_type_symbol
_atom_site_label
_atom_site_fract_x
_atom_site_fract_y
_atom_site_fract_z
Si Si1 0.577444 0.660751 0.001224
Si Si2 0.869722 0.172332 0.564260
Si Si3 0.126893 0.823910 0.839370
Si Si4 0.028085 0.325660 0.723553
Si Si5 0.229368 0.669727 0.555582
Si Si6 0.174372 0.824687 0.717022
Si Si7 0.773701 0.676354 0.841493
O O1 0.611606 0.500000 0.001491
O O2 0.694666 0.740514 0.923191
O O3 0.500000 0.640708 0.000000
O O4 0.498255 0.741076 0.079644
O O5 0.829258 0.209622 0.536810
O O6 0.796786 0.265102 0.637185
O O7 0.000000 0.221133 0.500000
O O8 0.851505 0.000000 0.584059
O O9 0.156436 0.768791 0.775725
O O10 0.225178 0.767957 0.820636
O O11 0.120156 0.000000 0.845038
O O12 0.032437 0.500000 0.730320
O O13 0.902090 0.266482 0.779446
O O14 0.108028 0.284379 0.640396
O O15 0.072082 0.242649 0.742962
O O16 0.230424 0.500000 0.543401
O O17 0.250000 0.750000 0.500000
O O18 0.172669 0.000000 0.714074
O O19 0.769770 0.500000 0.845010
#
# Coordination Sequence:
#
# PCOD8085334 Si02
#       7
#     8   8   8   8   8   8   8
#     4   7  10  19  37  61  88 115 145 185 227 261
#     4   9  19  36  53  67  88 119 152 184 219 263
#     4   8  14  24  40  66  94 116 146 190 231 260
#     4   9  18  32  47  64  90 122 152 182 219 266
#     4   9  18  31  47  66  88 115 145 181 222 262
#     4  10  19  30  46  68  95 122 145 179 226 269
#     4   8  13  24  44  65  85 116 156 190 220 260
#
# _framework density 17.121158000000001
#
# number of rings (size 3 to 8) (size 9 to 14) (size 15 to 20)
#    0.000    3.429    0.000    3.000    0.000    3.714 
#    0.000    2.143    0.000    1.714    0.000    1.000 
#    0.000    8.571    0.000    0.000    0.000    0.000 
#
# Total GULP energy -346903.234082 kJ/mol
# GULP energy per Si atom -12389.401217 kJ/mol
# Density = 1.708219 g / cm^3
# Si number density = 17.121158 Si / 1000 Ang^3
#
#
#
# Elastic Constant Matrix: (Units=GPa)
#
#
# Indices 1 2 3 4 5 6 
#
# 1 117.6177 30.4738 110.7964 0.0021 -1.5523 -0.0128
# 2 30.4738 27.1046 33.5325 0.0042 3.2106 0.0023
# 3 110.7964 33.5325 159.4970 -0.0014 -7.5339 0.0024
# 4 0.0021 0.0042 -0.0014 12.8415 0.0005 0.6618
# 5 -1.5523 3.2106 -7.5339 0.0005 34.0570 0.0024
# 6 -0.0128 0.0023 0.0024 0.6618 0.0024 18.8317
#
#
#
# Elastic Compliance Matrix: (Units=1/GPa)
#
#
# Indices 1 2 3 4 5 6 
#
# 1 0.026342 -0.009051 -0.016471 -0.000004 -0.001590 0.000021
# 2 -0.009051 0.054729 -0.005540 -0.000016 -0.006797 -0.000011
# 3 -0.016471 -0.005540 0.019064 0.000007 0.003989 -0.000014
# 4 -0.000004 -0.000016 0.000007 0.078014 0.000002 -0.002742
# 5 -0.001590 -0.006797 0.003989 0.000002 0.030813 -0.000005
# 6 0.000021 -0.000011 -0.000014 -0.002742 -0.000005 0.053198
#
#
# Mechanical properties :
#
#
# Convention : Reuss Voigt Hill
#
# Bulk Modulus (GPa) = 26.30751 72.64717 49.47734
# Shear Modulus (GPa) = 14.83879 21.77381 18.30630
#
# Velocity S-wave (km/s) = 2.94716 3.57003 3.27344
# Velocity P-wave (km/s) = 5.19421 7.71471 6.57635
#
# Compressibility (1/GPa) = 0.03801196
#
# Stress axis : x y z
#
# Youngs Moduli (GPa) = 37.96261 18.27182 52.45359
#
# Poissons Ratio (x) = 0.16538 0.86395
# Poissons Ratio (y) = 0.34359 0.29059
# Poissons Ratio (z) = 0.62527 0.10123
#
# Static dielectric constant tensor:
#      x y z
#    x 3.240640 0.000010 -0.150500 
#    y 0.000010 2.755890 -0.000010 
#    z -0.150500 -0.000010 3.686840 
# 
# 
# High freq. dielectric constant tensor:
#      x y z
#    x 1.646690 0.000000 -0.001820 
#    y 0.000000 1.613360 0.000000 
#    z -0.001820 0.000000 1.677610 
# 
# From -- ./inp_files/377623.got.cif
#   From: 2010.06.25/outbox.cif.g09.slc.cpg/sg12_189_cif.got.tgz:377623.got - 2010.06.28 00:19:55.
