data_PCOD8085111
_publ_section_title
;
Structure prediction by ZEFSAII (Michael W. Deem and Ramdas Pophale) SiO2 
 PCOD8085111
Probable space group: C 2/M
;
_chemical_formula_sum "Si O2"
_cell_formula_units_Z 64
_cell_length_a 31.747321
_cell_length_b 9.006191
_cell_length_c 30.643724
_cell_angle_alpha 90.000000
_cell_angle_beta 149.802840
_cell_angle_gamma 90.000000
_cell_volume 4406.948713
_symmetry_space_group_name_H-M "C 2/M"
_symmetry_group_IT_number 12
_symmetry_cell_setting 'monoclinic'
loop_
_space_group_symop_operation_xyz
x,y,z
-x,y,-z
-x,-y,-z
x,-y,z
1/2+x,1/2+y,z
1/2-x,1/2+y,-z
1/2-x,1/2-y,-z
1/2+x,1/2-y,z
loop_
_atom_site_type_symbol
_atom_site_label
_atom_site_fract_x
_atom_site_fract_y
_atom_site_fract_z
Si Si1 0.553029 0.173035 0.307523
Si Si2 0.697847 0.672979 0.017107
Si Si3 0.900583 0.836174 0.909750
Si Si4 0.868403 0.671824 0.124975
Si Si5 0.428270 0.675869 0.840583
Si Si6 0.605655 0.175504 0.010129
Si Si7 0.799454 0.327324 0.506479
Si Si8 0.346507 0.674754 0.679263
O O1 0.455779 0.215095 0.226449
O O2 0.602244 0.213823 0.397377
O O3 0.591138 0.256516 0.300248
O O4 0.562826 0.000000 0.305988
O O5 0.679710 0.500000 0.008435
O O6 0.640639 0.728250 0.926010
O O7 0.676710 0.763481 0.041605
O O8 0.795100 0.705187 0.093818
O O9 0.878408 0.782253 0.840635
O O10 0.862601 0.000000 0.885130
O O11 0.867805 0.722463 0.916936
O O12 0.000000 0.845376 0.000000
O O13 0.865985 0.500000 0.108151
O O14 0.446442 0.500000 0.855875
O O15 0.516765 0.758016 0.916379
O O16 0.370234 0.731205 0.748767
O O17 0.601324 0.000000 0.003510
O O18 0.786799 0.500000 0.501814
O O19 0.750000 0.250000 0.500000
O O20 0.752067 0.281871 0.418808
O O21 0.360003 0.500000 0.688965
#
# Coordination Sequence:
#
# PCOD8085111 Si02
#       8
#     8   8   8   8   8   8   8   8
#     4   9  16  26  39  55  76 102 129 157 189 220
#     4  10  19  30  42  55  75 102 130 161 195 227
#     4   8  15  28  42  55  74 100 127 155 188 226
#     4   9  18  30  42  57  76  99 130 164 194 224
#     4   9  17  28  41  57  78 103 130 157 186 224
#     4  11  20  28  40  57  77 101 130 160 190 225
#     4   8  14  24  37  53  75 100 125 153 183 217
#     4   9  16  25  38  57  78 102 130 154 180 219
#
# _framework density 14.52252
#
# number of rings (size 3 to 8) (size 9 to 14) (size 15 to 20)
#    0.000    2.875    0.000    3.000    0.000    5.750 
#    0.000    0.000    0.000    0.000    0.000    0.000 
#    0.000    1.000    0.000   12.750    0.000    1.250 
#
# Total GULP energy -396431.364297 kJ/mol
# GULP energy per Si atom -12388.480134 kJ/mol
# Density = 1.448947 g / cm^3
# Si number density = 14.522520 Si / 1000 Ang^3
#
#
#
# Elastic Constant Matrix: (Units=GPa)
#
#
# Indices 1 2 3 4 5 6 
#
# 1 87.5032 34.7341 53.0002 0.0000 -13.3017 0.0000
# 2 34.7341 48.4360 26.3263 0.0001 -4.3629 -0.0001
# 3 53.0002 26.3263 120.5179 0.0000 -11.5367 0.0000
# 4 0.0000 0.0001 0.0000 13.8053 0.0000 -1.8456
# 5 -13.3017 -4.3629 -11.5367 0.0000 20.2633 0.0000
# 6 0.0000 -0.0001 0.0000 -1.8456 0.0000 19.1331
#
#
#
# Elastic Compliance Matrix: (Units=1/GPa)
#
#
# Indices 1 2 3 4 5 6 
#
# 1 0.020452 -0.010761 -0.005902 0.000000 0.007749 0.000000
# 2 -0.010761 0.029187 -0.001817 0.000000 -0.001814 0.000000
# 3 -0.005902 -0.001817 0.011509 0.000000 0.002287 0.000000
# 4 0.000000 0.000000 0.000000 0.073382 0.000000 0.007079
# 5 0.007749 -0.001814 0.002287 0.000000 0.055348 0.000000
# 6 0.000000 0.000000 0.000000 0.007079 0.000000 0.052948
#
#
# Mechanical properties :
#
#
# Convention : Reuss Voigt Hill
#
# Bulk Modulus (GPa) = 41.34224 53.84205 47.59214
# Shear Modulus (GPa) = 17.37023 20.13345 18.75184
#
# Velocity S-wave (km/s) = 3.46220 3.72743 3.59726
# Velocity P-wave (km/s) = 6.67173 7.46192 7.07786
#
# Compressibility (1/GPa) = 0.02418834
#
# Stress axis : x y z
#
# Youngs Moduli (GPa) = 48.89425 34.26217 86.88955
#
# Poissons Ratio (x) = 0.36869 0.51282
# Poissons Ratio (y) = 0.52614 0.15788
# Poissons Ratio (z) = 0.28857 0.06226
#
# Static dielectric constant tensor:
#      x y z
#    x 2.815490 0.000000 -0.269890 
#    y 0.000000 1.804020 0.000000 
#    z -0.269890 0.000000 3.294370 
# 
# 
# High freq. dielectric constant tensor:
#      x y z
#    x 1.525580 0.000000 -0.015030 
#    y 0.000000 1.558580 0.000000 
#    z -0.015030 0.000000 1.544860 
# 
# From -- ./inp_files/384617.got.cif
#   From: 2010.06.25/outbox.cif.g09.slc.cpg/sg12_193_cif.got.tgz:384617.got - 2010.06.28 00:19:55.
