data_PCOD8085177
_publ_section_title
;
Structure prediction by ZEFSAII (Michael W. Deem and Ramdas Pophale) SiO2 
 PCOD8085177
Probable space group: C 2/M
;
_chemical_formula_sum "Si O2"
_cell_formula_units_Z 56
_cell_length_a 27.506962
_cell_length_b 9.109588
_cell_length_c 14.024613
_cell_angle_alpha 90.000000
_cell_angle_beta 83.687080
_cell_angle_gamma 90.000000
_cell_volume 3492.936987
_symmetry_space_group_name_H-M "C 2/M"
_symmetry_group_IT_number 12
_symmetry_cell_setting 'monoclinic'
loop_
_space_group_symop_operation_xyz
x,y,z
-x,y,-z
-x,-y,-z
x,-y,z
1/2+x,1/2+y,z
1/2-x,1/2+y,-z
1/2-x,1/2-y,-z
1/2+x,1/2-y,z
loop_
_atom_site_type_symbol
_atom_site_label
_atom_site_fract_x
_atom_site_fract_y
_atom_site_fract_z
Si Si1 0.167447 0.670764 0.673892
Si Si2 0.892567 0.830484 0.979254
Si Si3 0.763080 0.327078 0.730373
Si Si4 0.796112 0.667424 0.527224
Si Si5 0.786115 0.828846 0.920003
Si Si6 0.084747 0.327608 0.833187
Si Si7 0.518991 0.162306 0.103207
O O1 0.180209 0.500000 0.691121
O O2 0.209827 0.770658 0.709712
O O3 0.160951 0.698859 0.560025
O O4 0.116087 0.713863 0.733261
O O5 0.891868 0.752103 0.081208
O O6 0.903275 0.000000 0.994527
O O7 0.841159 0.801835 0.940913
O O8 0.934607 0.769309 0.899089
O O9 0.759379 0.500000 0.754652
O O10 0.803702 0.293171 0.637586
O O11 0.781137 0.239839 0.817373
O O12 0.780686 0.500000 0.526798
O O13 0.750000 0.750000 0.500000
O O14 0.772736 0.000000 0.919331
O O15 0.750000 0.750000 0.000000
O O16 0.086260 0.500000 0.856140
O O17 0.028084 0.280581 0.825804
O O18 0.535323 0.000000 0.133740
O O19 0.500000 0.156642 0.000000
#
# Coordination Sequence:
#
# PCOD8085177 Si02
#       7
#     8   8   8   8   8   8   8
#     4   9  16  28  46  66  90 118 144 175 217 257
#     4  10  20  31  43  61  85 113 145 179 211 248
#     4  10  19  30  44  64  90 118 149 181 212 252
#     4   8  15  27  43  63  86 113 144 177 213 254
#     4  11  23  35  46  63  87 116 150 182 213 251
#     4   9  17  28  44  66  89 113 140 171 211 258
#     4   8  15  28  44  62  84 110 140 172 210 257
#
# _framework density 16.032353000000001
#
# number of rings (size 3 to 8) (size 9 to 14) (size 15 to 20)
#    0.000    2.714    0.000    3.000    0.000    8.286 
#    0.000    0.000    0.000    0.000    0.000    1.000 
#    0.000    8.000    0.000    0.000    0.000    0.000 
#
# Total GULP energy -346876.724400 kJ/mol
# GULP energy per Si atom -12388.454443 kJ/mol
# Density = 1.599586 g / cm^3
# Si number density = 16.032353 Si / 1000 Ang^3
#
#
#
# Elastic Constant Matrix: (Units=GPa)
#
#
# Indices 1 2 3 4 5 6 
#
# 1 86.2615 50.1207 63.1675 0.0000 -23.3136 0.0000
# 2 50.1207 76.4265 54.5614 0.0000 -5.9058 0.0000
# 3 63.1675 54.5614 136.2479 0.0000 -24.1504 0.0000
# 4 0.0000 0.0000 0.0000 20.4554 0.0000 0.0516
# 5 -23.3136 -5.9058 -24.1504 0.0000 25.5760 0.0000
# 6 0.0000 0.0000 0.0000 0.0516 0.0000 23.4500
#
#
#
# Elastic Compliance Matrix: (Units=1/GPa)
#
#
# Indices 1 2 3 4 5 6 
#
# 1 0.027329 -0.013670 -0.004011 0.000000 0.017967 0.000000
# 2 -0.013670 0.025387 -0.006003 0.000000 -0.012267 0.000000
# 3 -0.004011 -0.006003 0.012862 0.000000 0.007103 0.000000
# 4 0.000000 0.000000 0.000000 0.048887 0.000000 -0.000108
# 5 0.017967 -0.012267 0.007103 0.000000 0.059351 0.000000
# 6 0.000000 0.000000 0.000000 -0.000108 0.000000 0.042644
#
#
# Mechanical properties :
#
#
# Convention : Reuss Voigt Hill
#
# Bulk Modulus (GPa) = 54.91745 70.51501 62.71623
# Shear Modulus (GPa) = 18.52546 22.63536 20.58041
#
# Velocity S-wave (km/s) = 3.40296 3.76154 3.58673
# Velocity P-wave (km/s) = 7.05469 7.93373 7.50709
#
# Compressibility (1/GPa) = 0.01820915
#
# Stress axis : x y z
#
# Youngs Moduli (GPa) = 36.59162 39.38998 77.74761
#
# Poissons Ratio (x) = 0.53847 0.31185
# Poissons Ratio (y) = 0.50022 0.46672
# Poissons Ratio (z) = 0.14677 0.23646
#
# Static dielectric constant tensor:
#      x y z
#    x 3.133590 0.000000 -0.512230 
#    y 0.000000 3.161910 0.000000 
#    z -0.512230 0.000000 3.566330 
# 
# 
# High freq. dielectric constant tensor:
#      x y z
#    x 1.588350 0.000000 -0.029100 
#    y 0.000000 1.625340 0.000000 
#    z -0.029100 0.000000 1.610590 
# 
# From -- ./inp_files/247828.got.cif
#   From: 2010.06.25/outbox.cif.g09.slc.cpg/sg12_124_cif.got.tgz:247828.got - 2010.06.28 00:19:55.
