data_PCOD8085117
_publ_section_title
;
Structure prediction by ZEFSAII (Michael W. Deem and Ramdas Pophale) SiO2 
 PCOD8085117
Probable space group: C 2/M
;
_chemical_formula_sum "Si O2"
_cell_formula_units_Z 56
_cell_length_a 24.041073
_cell_length_b 8.679593
_cell_length_c 15.090658
_cell_angle_alpha 90.000000
_cell_angle_beta 108.333810
_cell_angle_gamma 90.000000
_cell_volume 2989.079236
_symmetry_space_group_name_H-M "C 2/M"
_symmetry_group_IT_number 12
_symmetry_cell_setting 'monoclinic'
loop_
_space_group_symop_operation_xyz
x,y,z
-x,y,-z
-x,-y,-z
x,-y,z
1/2+x,1/2+y,z
1/2-x,1/2+y,-z
1/2-x,1/2-y,-z
1/2+x,1/2-y,z
loop_
_atom_site_type_symbol
_atom_site_label
_atom_site_fract_x
_atom_site_fract_y
_atom_site_fract_z
Si Si1 0.305984 0.816749 0.829860
Si Si2 0.485414 0.816517 0.089625
Si Si3 0.594987 0.183375 0.252538
Si Si4 0.924786 0.683189 0.378227
Si Si5 0.445012 0.816888 0.582685
Si Si6 0.644492 0.182933 0.959244
Si Si7 0.683838 0.817002 0.789845
O O1 0.349360 0.753461 0.774656
O O2 0.241871 0.753352 0.775495
O O3 0.305111 0.000000 0.830238
O O4 0.326789 0.751681 0.936137
O O5 0.534793 0.752573 0.180413
O O6 0.421625 0.754029 0.085304
O O7 0.485782 0.000000 0.090504
O O8 0.500000 0.753169 0.000000
O O9 0.594833 0.241461 0.354763
O O10 0.595782 0.000000 0.247812
O O11 0.923271 0.500000 0.373260
O O12 0.916757 0.740540 0.476097
O O13 0.872096 0.749467 0.291965
O O14 0.987759 0.742748 0.374025
O O15 0.447390 0.000000 0.584021
O O16 0.680288 0.237735 0.890678
O O17 0.642885 0.000000 0.964259
O O18 0.686176 0.000000 0.784251
#
# Coordination Sequence:
#
# PCOD8085117 Si02
#       7
#     8   8   8   8   8   8   8
#     4  10  19  30  42  61  89 117 144 175 207 248
#     4   9  13  20  36  60  87 108 129 170 221 256
#     4   9  15  23  38  61  87 111 137 173 219 257
#     4   8  14  25  41  63  88 108 134 174 217 256
#     4   8  13  23  41  64  87 108 131 172 225 262
#     4   9  16  26  41  62  87 112 141 177 216 252
#     4  10  19  30  44  62  85 116 148 175 205 247
#
# _framework density 18.734867000000001
#
# number of rings (size 3 to 8) (size 9 to 14) (size 15 to 20)
#    0.000    3.000    1.429    2.143    0.000    3.429 
#    0.000    0.714    0.000    0.000    0.000    8.000 
#    0.000    0.000    0.000    0.000    0.000    0.000 
#
# Total GULP energy -346980.829066 kJ/mol
# GULP energy per Si atom -12392.172467 kJ/mol
# Density = 1.869223 g / cm^3
# Si number density = 18.734867 Si / 1000 Ang^3
#
#
#
# Elastic Constant Matrix: (Units=GPa)
#
#
# Indices 1 2 3 4 5 6 
#
# 1 142.3639 9.1872 74.2177 0.0000 -8.6722 0.0000
# 2 9.1872 4.0474 8.7194 0.0000 -0.7187 0.0000
# 3 74.2177 8.7194 133.1636 0.0000 -15.5999 0.0000
# 4 0.0000 0.0000 0.0000 5.2639 0.0000 2.6030
# 5 -8.6722 -0.7187 -15.5999 0.0000 32.9798 0.0000
# 6 0.0000 0.0000 0.0000 2.6030 0.0000 19.1346
#
#
#
# Elastic Compliance Matrix: (Units=1/GPa)
#
#
# Indices 1 2 3 4 5 6 
#
# 1 0.010459 -0.013030 -0.004962 0.000000 0.000119 0.000000
# 2 -0.013030 0.304122 -0.012996 0.000000 -0.002946 0.000000
# 3 -0.004962 -0.012996 0.011582 0.000000 0.003890 0.000000
# 4 0.000000 0.000000 0.000000 0.203676 0.000000 -0.027707
# 5 0.000119 -0.002946 0.003890 0.000000 0.032129 0.000000
# 6 0.000000 0.000000 0.000000 -0.027707 0.000000 0.056030
#
#
# Mechanical properties :
#
#
# Convention : Reuss Voigt Hill
#
# Bulk Modulus (GPa) = 3.78522 51.53594 27.66058
# Shear Modulus (GPa) = 6.51010 23.97237 15.24123
#
# Velocity S-wave (km/s) = 1.86612 3.58097 2.85533
# Velocity P-wave (km/s) = 2.58225 6.68323 5.06624
#
# Compressibility (1/GPa) = 0.26418576
#
# Stress axis : x y z
#
# Youngs Moduli (GPa) = 95.60843 3.28815 86.34095
#
# Poissons Ratio (x) = 0.04284 0.42845
# Poissons Ratio (y) = 1.24578 1.12213
# Poissons Ratio (z) = 0.47444 0.04273
#
# Static dielectric constant tensor:
#      x y z
#    x 3.642520 0.000000 -0.118050 
#    y 0.000000 2.609450 0.000000 
#    z -0.118050 0.000000 3.768250 
# 
# 
# High freq. dielectric constant tensor:
#      x y z
#    x 1.733290 0.000000 -0.007480 
#    y 0.000000 1.641970 0.000000 
#    z -0.007480 0.000000 1.731910 
# 
# From -- ./inp_files/231824.got.cif
#   From: 2010.06.25/outbox.cif.g09.slc.cpg/sg12_116_cif.got.tgz:231824.got - 2010.06.28 00:19:55.
