data_PCOD8085656
_publ_section_title
;
Structure prediction by ZEFSAII (Michael W. Deem and Ramdas Pophale) SiO2 
 PCOD8085656
Probable space group: C 2/M
;
_chemical_formula_sum "Si O2"
_cell_formula_units_Z 56
_cell_length_a 19.290938
_cell_length_b 8.964190
_cell_length_c 28.637322
_cell_angle_alpha 90.000000
_cell_angle_beta 38.990908
_cell_angle_gamma 90.000000
_cell_volume 3115.899824
_symmetry_space_group_name_H-M "C 2/M"
_symmetry_group_IT_number 12
_symmetry_cell_setting 'monoclinic'
loop_
_space_group_symop_operation_xyz
x,y,z
-x,y,-z
-x,-y,-z
x,-y,z
1/2+x,1/2+y,z
1/2-x,1/2+y,-z
1/2-x,1/2-y,-z
1/2+x,1/2-y,z
loop_
_atom_site_type_symbol
_atom_site_label
_atom_site_fract_x
_atom_site_fract_y
_atom_site_fract_z
Si Si1 0.883328 0.827141 0.680354
Si Si2 0.366218 0.172526 0.203932
Si Si3 0.397346 0.822646 0.082038
Si Si4 0.158452 0.176585 0.194588
Si Si5 0.698425 0.174851 0.596477
Si Si6 0.402464 0.825827 0.450236
Si Si7 0.050840 0.176265 0.750559
O O1 0.764048 0.803089 0.719588
O O2 0.881121 0.764175 0.734369
O O3 0.974163 0.732804 0.604555
O O4 0.917765 0.000000 0.661155
O O5 0.401944 0.226294 0.133695
O O6 0.434165 0.272991 0.204243
O O7 0.396876 0.000000 0.195540
O O8 0.282473 0.764002 0.119131
O O9 0.401732 0.000000 0.076960
O O10 0.500000 0.751842 0.000000
O O11 0.072025 0.228356 0.200548
O O12 0.165023 0.000000 0.195090
O O13 0.629179 0.213696 0.586468
O O14 0.820477 0.242463 0.528367
O O15 0.641366 0.247199 0.670900
O O16 0.708329 0.000000 0.599808
O O17 0.395293 0.000000 0.464319
O O18 0.064012 0.000000 0.739080
#
# Coordination Sequence:
#
# PCOD8085656 Si02
#       7
#     8   8   8   8   8   8   8
#     4   9  16  31  51  69  95 132 172 211 248 295
#     4   9  19  33  51  75 103 133 167 207 251 299
#     4   8  14  29  54  79 100 128 169 209 241 288
#     4   8  15  27  47  73  97 128 169 206 244 291
#     4  10  20  32  48  71 101 134 168 208 252 298
#     4  10  19  30  48  75 101 127 166 214 257 295
#     4  11  20  32  50  72 103 136 167 208 254 301
#
# _framework density 17.972337
#
# number of rings (size 3 to 8) (size 9 to 14) (size 15 to 20)
#    0.000    2.714    1.429    3.000    0.000    1.714 
#    0.000    1.429    0.000    4.714    0.000    0.000 
#    0.000    0.000    0.000    0.000    0.000    0.000 
#
# Total GULP energy -347129.307109 kJ/mol
# GULP energy per Si atom -12397.475254 kJ/mol
# Density = 1.793143 g / cm^3
# Si number density = 17.972337 Si / 1000 Ang^3
#
#
#
# Elastic Constant Matrix: (Units=GPa)
#
#
# Indices 1 2 3 4 5 6 
#
# 1 101.9579 34.5290 60.3585 -0.0001 -8.8972 0.0006
# 2 34.5290 54.2145 35.3730 0.0002 -3.1083 0.0022
# 3 60.3585 35.3730 142.1739 0.0000 -14.8164 -0.0002
# 4 -0.0001 0.0002 0.0000 16.0615 -0.0001 1.2773
# 5 -8.8972 -3.1083 -14.8164 -0.0001 22.0464 0.0001
# 6 0.0006 0.0022 -0.0002 1.2773 0.0001 27.0630
#
#
#
# Elastic Compliance Matrix: (Units=1/GPa)
#
#
# Indices 1 2 3 4 5 6 
#
# 1 0.014803 -0.006386 -0.004481 0.000000 0.002062 0.000000
# 2 -0.006386 0.024783 -0.003612 0.000000 -0.001511 -0.000002
# 3 -0.004481 -0.003612 0.010316 0.000000 0.004615 0.000000
# 4 0.000000 0.000000 0.000000 0.062495 0.000000 -0.002950
# 5 0.002062 -0.001511 0.004615 0.000000 0.049080 0.000000
# 6 0.000000 -0.000002 0.000000 -0.002950 0.000000 0.037090
#
#
# Mechanical properties :
#
#
# Convention : Reuss Voigt Hill
#
# Bulk Modulus (GPa) = 47.74826 62.09638 54.92232
# Shear Modulus (GPa) = 21.32138 24.23992 22.78065
#
# Velocity S-wave (km/s) = 3.44807 3.67650 3.56411
# Velocity P-wave (km/s) = 6.51748 7.25591 6.89659
#
# Compressibility (1/GPa) = 0.02094317
#
# Stress axis : x y z
#
# Youngs Moduli (GPa) = 67.55239 40.35032 96.94106
#
# Poissons Ratio (x) = 0.25769 0.43437
# Poissons Ratio (y) = 0.43142 0.35017
# Poissons Ratio (z) = 0.30268 0.14575
#
# Static dielectric constant tensor:
#      x y z
#    x 3.263560 0.000000 -0.221730 
#    y 0.000000 3.012550 0.000000 
#    z -0.221730 0.000000 3.495760 
# 
# 
# High freq. dielectric constant tensor:
#      x y z
#    x 1.681370 0.000000 -0.014740 
#    y 0.000000 1.670560 0.000000 
#    z -0.014740 0.000000 1.691930 
# 
# From -- ./inp_files/342600.got.cif
#   From: 2010.06.25/outbox.cif.g09.slc.cpg/sg12_172_cif.got.tgz:342600.got - 2010.06.28 00:19:55.
