data_PCOD8085045
_publ_section_title
;
Structure prediction by ZEFSAII (Michael W. Deem and Ramdas Pophale) SiO2 
 PCOD8085045
Probable space group: C 2/M
;
_chemical_formula_sum "Si O2"
_cell_formula_units_Z 44
_cell_length_a 9.467838
_cell_length_b 31.111105
_cell_length_c 11.808250
_cell_angle_alpha 90.000000
_cell_angle_beta 141.200211
_cell_angle_gamma 90.000000
_cell_volume 2179.429561
_symmetry_space_group_name_H-M "C 2/M"
_symmetry_group_IT_number 12
_symmetry_cell_setting 'monoclinic'
loop_
_space_group_symop_operation_xyz
x,y,z
-x,y,-z
-x,-y,-z
x,-y,z
1/2+x,1/2+y,z
1/2-x,1/2+y,-z
1/2-x,1/2-y,-z
1/2+x,1/2-y,z
loop_
_atom_site_type_symbol
_atom_site_label
_atom_site_fract_x
_atom_site_fract_y
_atom_site_fract_z
Si Si1 0.639217 0.365967 0.967868
Si Si2 0.035934 0.200848 0.320957
Si Si3 0.467967 0.453522 0.847973
Si Si4 0.520870 0.163465 0.341752
Si Si5 0.797662 0.762156 0.785934
Si Si6 0.500000 0.911586 0.500000
O O1 0.893624 0.348550 0.144982
O O2 0.500000 0.364336 0.000000
O O3 0.525746 0.336884 0.803067
O O4 0.634729 0.414599 0.915002
O O5 0.233623 0.184077 0.526951
O O6 0.112493 0.240904 0.287417
O O7 0.828707 0.217494 0.266434
O O8 0.526472 0.500000 0.826713
O O9 0.211974 0.441765 0.657063
O O10 0.500000 0.459644 0.000000
O O11 0.370799 0.197403 0.318276
O O12 0.547881 0.118705 0.423341
O O13 0.000000 0.770051 0.000000
#
# Coordination Sequence:
#
# PCOD8085045 Si02
#       6
#     8   8   8   8   8   4
#     4  11  18  34  52  69 102 142 176 212 266 324
#     4  12  23  38  53  75 106 145 184 221 265 308
#     4  10  19  29  46  73 102 137 176 214 258 320
#     4  12  19  33  53  72 101 146 182 207 265 321
#     4  12  23  36  54  75 104 142 189 225 259 304
#     4  12  17  30  50  68 106 140 180 204 265 328
#
# _framework density 20.188768
#
# number of rings (size 3 to 8) (size 9 to 14) (size 15 to 20)
#    0.000    0.545   10.909    1.364    0.000    0.000 
#    0.000    0.000    0.000    0.000    0.000    0.000 
#    0.000    0.727    0.000    3.818    0.000    0.364 
#
# Total GULP energy -272640.168134 kJ/mol
# GULP energy per Si atom -12392.734915 kJ/mol
# Density = 2.014282 g / cm^3
# Si number density = 20.188768 Si / 1000 Ang^3
#
#
#
# Elastic Constant Matrix: (Units=GPa)
#
#
# Indices 1 2 3 4 5 6 
#
# 1 29.7728 21.6585 8.3752 0.0000 3.5469 0.0000
# 2 21.6585 124.0230 42.0608 0.0000 3.1938 0.0000
# 3 8.3752 42.0608 154.6967 0.0000 12.3625 0.0000
# 4 0.0000 0.0000 0.0000 45.3771 0.0000 8.7277
# 5 3.5469 3.1938 12.3625 0.0000 9.7477 0.0000
# 6 0.0000 0.0000 0.0000 8.7277 0.0000 9.6255
#
#
#
# Elastic Compliance Matrix: (Units=1/GPa)
#
#
# Indices 1 2 3 4 5 6 
#
# 1 0.039970 -0.006900 0.000772 0.000000 -0.013262 0.000000
# 2 -0.006900 0.010074 -0.002562 0.000000 0.002459 0.000000
# 3 0.000772 -0.002562 0.007872 0.000000 -0.009425 0.000000
# 4 0.000000 0.000000 0.000000 0.026693 0.000000 -0.024203
# 5 -0.013262 0.002459 -0.009425 0.000000 0.118562 0.000000
# 6 0.000000 0.000000 0.000000 -0.024203 0.000000 0.125837
#
#
# Mechanical properties :
#
#
# Convention : Reuss Voigt Hill
#
# Bulk Modulus (GPa) = 24.66973 50.29798 37.48385
# Shear Modulus (GPa) = 13.89275 28.70991 21.30133
#
# Velocity S-wave (km/s) = 2.62609 3.77513 3.25177
# Velocity P-wave (km/s) = 4.63047 6.63099 5.71888
#
# Compressibility (1/GPa) = 0.04053551
#
# Stress axis : x y z
#
# Youngs Moduli (GPa) = 25.01861 99.26976 127.02859
#
# Poissons Ratio (x) = 0.68500 -0.09807
# Poissons Ratio (y) = 0.17264 0.32543
# Poissons Ratio (z) = -0.01932 0.25432
#
# Static dielectric constant tensor:
#      x y z
#    x 3.080660 0.000000 0.070300 
#    y 0.000000 4.210090 0.000000 
#    z 0.070300 0.000000 4.371620 
# 
# 
# High freq. dielectric constant tensor:
#      x y z
#    x 1.703570 0.000000 -0.003760 
#    y 0.000000 1.794440 0.000000 
#    z -0.003760 0.000000 1.827870 
# 
# From -- ./inp_files/209736.got.cif
#   From: 2010.06.25/outbox.cif.g09.slc.cpg/sg12_105_cif.got.tgz:209736.got - 2010.06.28 00:19:55.
