data_PCOD8085669
_publ_section_title
;
Structure prediction by ZEFSAII (Michael W. Deem and Ramdas Pophale) SiO2 
 PCOD8085669
Probable space group: C 2/M
;
_chemical_formula_sum "Si O2"
_cell_formula_units_Z 60
_cell_length_a 17.480433
_cell_length_b 18.978932
_cell_length_c 11.565329
_cell_angle_alpha 90.000000
_cell_angle_beta 58.245496
_cell_angle_gamma 90.000000
_cell_volume 3262.568748
_symmetry_space_group_name_H-M "C 2/M"
_symmetry_group_IT_number 12
_symmetry_cell_setting 'monoclinic'
loop_
_space_group_symop_operation_xyz
x,y,z
-x,y,-z
-x,-y,-z
x,-y,z
1/2+x,1/2+y,z
1/2-x,1/2+y,-z
1/2-x,1/2-y,-z
1/2+x,1/2-y,z
loop_
_atom_site_type_symbol
_atom_site_label
_atom_site_fract_x
_atom_site_fract_y
_atom_site_fract_z
Si Si1 0.108062 0.799205 0.109802
Si Si2 0.289140 0.578378 0.369178
Si Si3 0.321148 0.083542 0.317156
Si Si4 0.682123 0.324464 0.301416
Si Si5 0.810513 0.204883 0.198757
Si Si6 0.500000 0.376074 0.500000
Si Si7 0.007287 0.076376 0.741572
Si Si8 0.964042 0.302256 0.152624
O O1 0.164733 0.816273 0.178500
O O2 0.040513 0.864934 0.142254
O O3 0.047650 0.726976 0.164618
O O4 0.177611 0.795343 0.948902
O O5 0.270415 0.500000 0.338143
O O6 0.218945 0.598415 0.524598
O O7 0.283098 0.627695 0.262515
O O8 0.386617 0.586107 0.347276
O O9 0.250581 0.110641 0.275022
O O10 0.413991 0.128632 0.242663
O O11 0.339315 0.000000 0.282229
O O12 0.728362 0.253055 0.305244
O O13 0.589221 0.328694 0.447595
O O14 0.899285 0.234758 0.189940
O O15 0.522797 0.421735 0.368997
O O16 0.980009 0.000000 0.813950
O O17 0.000000 0.326630 0.000000
#
# Coordination Sequence:
#
# PCOD8085669 Si02
#       8
#     8   8   8   8   8   4   8   8
#     4  10  20  35  53  79 107 140 180 215 265 317
#     4  10  20  33  51  74 105 141 174 212 258 310
#     4  10  21  37  56  81 110 140 178 221 270 319
#     4  10  21  33  55  79 107 140 171 220 274 317
#     4  10  20  36  53  74 108 142 179 220 258 313
#     4  10  19  32  48  78 109 134 168 208 269 328
#     4  10  19  30  48  75 107 139 167 207 257 313
#     4   9  19  35  56  79 106 140 179 222 263 312
#
# _framework density 18.390416999999999
#
# number of rings (size 3 to 8) (size 9 to 14) (size 15 to 20)
#    0.000    2.133    2.667    0.600    0.000    7.200 
#    0.000    1.333    0.000    0.800    0.000    2.333 
#    0.000    0.000    0.000    0.000    0.000    0.000 
#
# Total GULP energy -371780.131235 kJ/mol
# GULP energy per Si atom -12392.671041 kJ/mol
# Density = 1.834856 g / cm^3
# Si number density = 18.390417 Si / 1000 Ang^3
#
#
#
# Elastic Constant Matrix: (Units=GPa)
#
#
# Indices 1 2 3 4 5 6 
#
# 1 54.4003 35.4745 24.1725 0.0000 -3.1615 0.0000
# 2 35.4745 120.4086 50.8585 0.0000 -10.7434 0.0000
# 3 24.1725 50.8585 63.9326 0.0000 -10.4481 0.0000
# 4 0.0000 0.0000 0.0000 27.6953 0.0000 -1.5052
# 5 -3.1615 -10.7434 -10.4481 0.0000 27.4514 0.0000
# 6 0.0000 0.0000 0.0000 -1.5052 0.0000 20.6159
#
#
#
# Elastic Compliance Matrix: (Units=1/GPa)
#
#
# Indices 1 2 3 4 5 6 
#
# 1 0.023869 -0.004886 -0.005333 0.000000 -0.001193 0.000000
# 2 -0.004886 0.013544 -0.008693 0.000000 0.001429 0.000000
# 3 -0.005333 -0.008693 0.025503 0.000000 0.005690 0.000000
# 4 0.000000 0.000000 0.000000 0.036251 0.000000 0.002647
# 5 -0.001193 0.001429 0.005690 0.000000 0.039016 0.000000
# 6 0.000000 0.000000 0.000000 0.002647 0.000000 0.048700
#
#
# Mechanical properties :
#
#
# Convention : Reuss Voigt Hill
#
# Bulk Modulus (GPa) = 39.85375 51.08361 45.46868
# Shear Modulus (GPa) = 21.45275 23.70157 22.57716
#
# Velocity S-wave (km/s) = 3.41914 3.59388 3.50760
# Velocity P-wave (km/s) = 6.10781 6.71259 6.41733
#
# Compressibility (1/GPa) = 0.02509174
#
# Stress axis : x y z
#
# Youngs Moduli (GPa) = 41.89585 73.83321 39.21084
#
# Poissons Ratio (x) = 0.36076 0.20909
# Poissons Ratio (y) = 0.20471 0.34087
# Poissons Ratio (z) = 0.22341 0.64186
#
# Static dielectric constant tensor:
#      x y z
#    x 3.318900 0.000000 -0.240190 
#    y 0.000000 3.485900 0.000000 
#    z -0.240190 0.000000 3.327980 
# 
# 
# High freq. dielectric constant tensor:
#      x y z
#    x 1.697130 0.000000 -0.010760 
#    y 0.000000 1.708830 0.000000 
#    z -0.010760 0.000000 1.708560 
# 
# From -- ./inp_files/158263.got.cif
#   From: 2010.06.25/outbox.cif.g09.slc.cpg/sg12_80_cif.got.tgz:158263.got - 2010.06.28 00:19:55.
