data_PCOD8085951
_publ_section_title
;
Structure prediction by ZEFSAII (Michael W. Deem and Ramdas Pophale) SiO2 
 PCOD8085951
Probable space group: C 2/M
;
_chemical_formula_sum "Si O2"
_cell_formula_units_Z 56
_cell_length_a 25.088724
_cell_length_b 9.184946
_cell_length_c 19.532507
_cell_angle_alpha 90.000000
_cell_angle_beta 129.647029
_cell_angle_gamma 90.000000
_cell_volume 3465.757167
_symmetry_space_group_name_H-M "C 2/M"
_symmetry_group_IT_number 12
_symmetry_cell_setting 'monoclinic'
loop_
_space_group_symop_operation_xyz
x,y,z
-x,y,-z
-x,-y,-z
x,-y,z
1/2+x,1/2+y,z
1/2-x,1/2+y,-z
1/2-x,1/2-y,-z
1/2+x,1/2-y,z
loop_
_atom_site_type_symbol
_atom_site_label
_atom_site_fract_x
_atom_site_fract_y
_atom_site_fract_z
Si Si1 0.789904 0.667205 0.091477
Si Si2 0.232881 0.662207 0.588247
Si Si3 0.086549 0.334303 0.896855
Si Si4 0.330408 0.829058 0.762700
Si Si5 0.803536 0.332653 0.896658
Si Si6 0.554353 0.672291 0.227088
Si Si7 0.353500 0.660783 0.576555
O O1 0.767015 0.500000 0.072883
O O2 0.871512 0.681670 0.140683
O O3 0.766144 0.739823 0.143661
O O4 0.750000 0.750000 0.000000
O O5 0.216233 0.500000 0.601842
O O6 0.261059 0.761446 0.672932
O O7 0.289320 0.655182 0.575355
O O8 0.162265 0.730743 0.499235
O O9 0.059284 0.500000 0.882391
O O10 0.024073 0.221785 0.845042
O O11 0.134696 0.292642 0.000724
O O12 0.329228 0.796463 0.842068
O O13 0.399380 0.753929 0.791037
O O14 0.332414 0.000000 0.747473
O O15 0.782424 0.500000 0.887468
O O16 0.561365 0.500000 0.220331
O O17 0.580164 0.713300 0.325033
O O18 0.366370 0.500000 0.556421
#
# Coordination Sequence:
#
# PCOD8085951 Si02
#       7
#     8   8   8   8   8   8   8
#     4   9  17  30  49  69  88 113 148 191 231 265
#     4   9  16  26  42  64  87 112 147 186 221 262
#     4   9  18  32  47  65  90 119 151 185 224 267
#     4  10  19  31  46  64  92 126 153 182 223 269
#     4   9  19  33  48  67  90 120 156 188 222 266
#     4  10  20  31  44  66  93 121 154 187 220 265
#     4   8  15  27  41  59  85 115 147 182 220 262
#
# _framework density 16.158085
#
# number of rings (size 3 to 8) (size 9 to 14) (size 15 to 20)
#    0.000    2.857    0.000    3.429    0.000    8.571 
#    0.000    2.857    0.000    0.000    0.000    1.000 
#    0.000    8.000    0.000    0.000    0.000    0.000 
#
# Total GULP energy -347048.930514 kJ/mol
# GULP energy per Si atom -12394.604661 kJ/mol
# Density = 1.612131 g / cm^3
# Si number density = 16.158085 Si / 1000 Ang^3
#
#
#
# Elastic Constant Matrix: (Units=GPa)
#
#
# Indices 1 2 3 4 5 6 
#
# 1 72.0886 56.4841 48.4878 0.0000 0.4825 0.0000
# 2 56.4841 111.6325 53.8157 0.0000 0.0844 0.0000
# 3 48.4878 53.8157 86.9312 0.0000 5.4867 0.0000
# 4 0.0000 0.0000 0.0000 27.8872 0.0000 1.6195
# 5 0.4825 0.0844 5.4867 0.0000 0.6573 0.0000
# 6 0.0000 0.0000 0.0000 1.6195 0.0000 25.9953
#
#
#
# Elastic Compliance Matrix: (Units=1/GPa)
#
#
# Indices 1 2 3 4 5 6 
#
# 1 0.042278 0.000970 -0.046953 0.000000 0.360775 0.000000
# 2 0.000970 0.023256 -0.031078 0.000000 0.255723 0.000000
# 3 -0.046953 -0.031078 0.115196 0.000000 -0.923133 0.000000
# 4 0.000000 0.000000 0.000000 0.035989 0.000000 -0.002242
# 5 0.360775 0.255723 -0.923133 0.000000 8.929518 0.000000
# 6 0.000000 0.000000 0.000000 -0.002242 0.000000 0.038608
#
#
# Mechanical properties :
#
#
# Convention : Reuss Voigt Hill
#
# Bulk Modulus (GPa) = 37.58214 65.35863 51.47039
# Shear Modulus (GPa) = 0.53488 18.36561 9.45024
#
# Velocity S-wave (km/s) = 0.57598 3.37504 2.42101
# Velocity P-wave (km/s) = 4.87359 7.46493 6.30385
#
# Compressibility (1/GPa) = 0.02660838
#
# Stress axis : x y z
#
# Youngs Moduli (GPa) = 23.65302 43.00016 8.68088
#
# Poissons Ratio (x) = -0.04171 0.40759
# Poissons Ratio (y) = -0.02295 0.26978
# Poissons Ratio (z) = 1.11057 1.33636
#
# Static dielectric constant tensor:
#      x y z
#    x 3.052420 0.000000 -0.048520 
#    y 0.000000 3.311350 0.000000 
#    z -0.048520 0.000000 3.109660 
# 
# 
# High freq. dielectric constant tensor:
#      x y z
#    x 1.584840 0.000000 0.001070 
#    y 0.000000 1.637140 0.000000 
#    z 0.001070 0.000000 1.606830 
# 
# From -- ./inp_files/291962.got.cif
#   From: 2010.06.25/outbox.cif.g09.slc.cpg/sg12_146_cif.got.tgz:291962.got - 2010.06.28 00:19:55.
