data_PCOD8085692
_publ_section_title
;
Structure prediction by ZEFSAII (Michael W. Deem and Ramdas Pophale) SiO2 
 PCOD8085692
Probable space group: C 2/M
;
_chemical_formula_sum "Si O2"
_cell_formula_units_Z 48
_cell_length_a 26.350382
_cell_length_b 8.883043
_cell_length_c 9.888480
_cell_angle_alpha 90.000000
_cell_angle_beta 104.166378
_cell_angle_gamma 90.000000
_cell_volume 2244.222741
_symmetry_space_group_name_H-M "C 2/M"
_symmetry_group_IT_number 12
_symmetry_cell_setting 'monoclinic'
loop_
_space_group_symop_operation_xyz
x,y,z
-x,y,-z
-x,-y,-z
x,-y,z
1/2+x,1/2+y,z
1/2-x,1/2+y,-z
1/2-x,1/2-y,-z
1/2+x,1/2-y,z
loop_
_atom_site_type_symbol
_atom_site_label
_atom_site_fract_x
_atom_site_fract_y
_atom_site_fract_z
Si Si1 0.446705 0.823277 0.032224
Si Si2 0.640147 0.178005 0.242650
Si Si3 0.147562 0.178442 0.512873
Si Si4 0.894471 0.823457 0.227543
Si Si5 0.248551 0.169032 0.350354
Si Si6 0.703588 0.165952 0.901672
O O1 0.398298 0.776564 0.904101
O O2 0.448923 0.000000 0.055536
O O3 0.500000 0.763330 0.000000
O O4 0.443567 0.750147 0.181187
O O5 0.616811 0.251709 0.365779
O O6 0.697945 0.245896 0.256442
O O7 0.643745 0.000000 0.264115
O O8 0.116607 0.234491 0.626492
O O9 0.209966 0.232297 0.527305
O O10 0.147632 0.000000 0.512612
O O11 0.846395 0.769584 0.103184
O O12 0.901086 0.000000 0.229414
O O13 0.287782 0.149613 0.251177
O O14 0.235573 0.000000 0.397250
O O15 0.694719 0.000000 0.961513
O O16 0.750000 0.250000 0.000000
#
# Coordination Sequence:
#
# PCOD8085692 Si02
#       6
#     8   8   8   8   8   8
#     4  10  23  43  64  85 110 144 189 240 291 341
#     4  11  22  36  57  84 114 150 191 233 280 333
#     4  10  21  37  57  84 119 154 188 226 273 333
#     4  10  21  37  58  83 111 146 186 231 284 338
#     4  10  20  33  51  79 116 154 189 225 271 328
#     4  10  19  30  48  76 111 151 190 229 275 331
#
# _framework density 21.388251
#
# number of rings (size 3 to 8) (size 9 to 14) (size 15 to 20)
#    0.000    1.833    0.000    4.000    0.000    8.333 
#    0.000    0.833    0.000    5.000    0.000    0.000 
#    0.000    0.000    0.000    0.000    0.000    0.000 
#
# Total GULP energy -297416.532578 kJ/mol
# GULP energy per Si atom -12392.355524 kJ/mol
# Density = 2.133957 g / cm^3
# Si number density = 21.388251 Si / 1000 Ang^3
#
#
#
# Elastic Constant Matrix: (Units=GPa)
#
#
# Indices 1 2 3 4 5 6 
#
# 1 90.2787 24.4412 39.4835 0.0000 -30.0939 0.0000
# 2 24.4412 68.0169 34.1696 0.0000 -7.8003 0.0000
# 3 39.4835 34.1696 81.3407 0.0000 -20.5186 0.0000
# 4 0.0000 0.0000 0.0000 29.3055 0.0000 -7.0964
# 5 -30.0939 -7.8003 -20.5186 0.0000 32.7593 0.0000
# 6 0.0000 0.0000 0.0000 -7.0964 0.0000 28.6256
#
#
#
# Elastic Compliance Matrix: (Units=1/GPa)
#
#
# Indices 1 2 3 4 5 6 
#
# 1 0.018154 -0.002861 -0.004246 0.000000 0.013336 0.000000
# 2 -0.002861 0.019094 -0.007302 0.000000 -0.002655 0.000000
# 3 -0.004246 -0.007302 0.019002 0.000000 0.006263 0.000000
# 4 0.000000 0.000000 0.000000 0.036303 0.000000 0.008999
# 5 0.013336 -0.002655 0.006263 0.000000 0.046067 0.000000
# 6 0.000000 0.000000 0.000000 0.008999 0.000000 0.037165
#
#
# Mechanical properties :
#
#
# Convention : Reuss Voigt Hill
#
# Bulk Modulus (GPa) = 36.45379 48.42497 42.43938
# Shear Modulus (GPa) = 23.39212 27.57421 25.48316
#
# Velocity S-wave (km/s) = 3.31069 3.59447 3.45549
# Velocity P-wave (km/s) = 5.62983 6.31799 5.98381
#
# Compressibility (1/GPa) = 0.02743199
#
# Stress axis : x y z
#
# Youngs Moduli (GPa) = 55.08448 52.37215 52.62502
#
# Poissons Ratio (x) = 0.14983 0.22346
# Poissons Ratio (y) = 0.15759 0.38428
# Poissons Ratio (z) = 0.23390 0.38243
#
# Static dielectric constant tensor:
#      x y z
#    x 3.958330 0.000000 -0.573870 
#    y 0.000000 3.944380 0.000000 
#    z -0.573870 0.000000 4.422270 
# 
# 
# High freq. dielectric constant tensor:
#      x y z
#    x 1.820820 0.000000 -0.036280 
#    y 0.000000 1.843060 0.000000 
#    z -0.036280 0.000000 1.851130 
# 
# From -- ./inp_files/179321.got.cif
#   From: 2010.06.25/outbox.cif.g09.slc.cpg/sg12_90_cif.got.tgz:179321.got - 2010.06.28 00:19:55.
