data_PCOD8085441
_publ_section_title
;
Structure prediction by ZEFSAII (Michael W. Deem and Ramdas Pophale) SiO2 
 PCOD8085441
Probable space group: C 2/M
;
_chemical_formula_sum "Si O2"
_cell_formula_units_Z 64
_cell_length_a 5.156613
_cell_length_b 26.983743
_cell_length_c 23.549282
_cell_angle_alpha 90.000000
_cell_angle_beta 77.235560
_cell_angle_gamma 90.000000
_cell_volume 3195.778635
_symmetry_space_group_name_H-M "C 2/M"
_symmetry_group_IT_number 12
_symmetry_cell_setting 'monoclinic'
loop_
_space_group_symop_operation_xyz
x,y,z
-x,y,-z
-x,-y,-z
x,-y,z
1/2+x,1/2+y,z
1/2-x,1/2+y,-z
1/2-x,1/2-y,-z
1/2+x,1/2-y,z
loop_
_atom_site_type_symbol
_atom_site_label
_atom_site_fract_x
_atom_site_fract_y
_atom_site_fract_z
Si Si1 0.882788 0.632835 0.561632
Si Si2 0.959019 0.727501 0.616573
Si Si3 0.342605 0.558767 0.134247
Si Si4 0.634918 0.444898 0.310527
Si Si5 0.320854 0.224535 0.749053
Si Si6 0.195239 0.394014 0.258812
Si Si7 0.117267 0.926611 0.437356
Si Si8 0.584835 0.058831 0.934912
O O1 0.906380 0.668949 0.614126
O O2 0.575742 0.620326 0.564703
O O3 0.000000 0.660032 0.500000
O O4 0.074640 0.586131 0.565271
O O5 0.757859 0.757416 0.585120
O O6 0.908461 0.743972 0.683188
O O7 0.332094 0.500000 0.141594
O O8 0.316175 0.582460 0.196783
O O9 0.619366 0.576524 0.093723
O O10 0.111337 0.578866 0.104340
O O11 0.643417 0.500000 0.281286
O O12 0.382729 0.412528 0.301635
O O13 0.608394 0.456716 0.379170
O O14 0.897995 0.413689 0.283700
O O15 0.545222 0.248020 0.779871
O O16 0.303039 0.164999 0.750541
O O17 0.000000 0.954196 0.500000
O O18 0.565809 0.000000 0.938252
O O19 0.500000 0.081102 0.000000
#
# Coordination Sequence:
#
# PCOD8085441 Si02
#       8
#     8   8   8   8   8   8   8   8
#     4  10  20  34  51  71  95 124 162 210 269 332
#     4  10  19  30  47  69  94 123 158 207 270 333
#     4  10  19  32  51  79 117 154 187 223 268 323
#     4  12  24  38  58  83 112 148 187 227 281 348
#     4  10  21  37  56  78 103 138 185 233 280 333
#     4  12  24  39  59  84 118 151 186 233 287 339
#     4  10  21  37  55  72  95 132 178 225 268 318
#     4   9  17  30  50  77 113 157 196 226 257 303
#
# _framework density 20.026420999999999
#
# number of rings (size 3 to 8) (size 9 to 14) (size 15 to 20)
#    0.000    1.625    0.000    6.000    0.000    5.250 
#    0.000    0.000    0.000    3.750    0.000    0.000 
#    0.000   10.000    0.000    0.000    0.000    0.000 
#
# Total GULP energy -396537.922809 kJ/mol
# GULP energy per Si atom -12391.810088 kJ/mol
# Density = 1.998084 g / cm^3
# Si number density = 20.026421 Si / 1000 Ang^3
#
#
#
# Elastic Constant Matrix: (Units=GPa)
#
#
# Indices 1 2 3 4 5 6 
#
# 1 129.4272 41.9765 7.0724 0.0000 -5.2102 0.0000
# 2 41.9765 89.8784 11.2961 0.0000 -7.1562 0.0000
# 3 7.0724 11.2961 67.6047 0.0000 0.1955 0.0000
# 4 0.0000 0.0000 0.0000 23.3451 0.0000 8.0817
# 5 -5.2102 -7.1562 0.1955 0.0000 25.8522 0.0000
# 6 0.0000 0.0000 0.0000 8.0817 0.0000 21.6726
#
#
#
# Elastic Compliance Matrix: (Units=1/GPa)
#
#
# Indices 1 2 3 4 5 6 
#
# 1 0.009121 -0.004173 -0.000259 0.000000 0.000685 0.000000
# 2 -0.004173 0.013538 -0.001834 0.000000 0.002920 0.000000
# 3 -0.000259 -0.001834 0.015127 0.000000 -0.000674 0.000000
# 4 0.000000 0.000000 0.000000 0.049185 0.000000 -0.018341
# 5 0.000685 0.002920 -0.000674 0.000000 0.039633 0.000000
# 6 0.000000 0.000000 0.000000 -0.018341 0.000000 0.052981
#
#
# Mechanical properties :
#
#
# Convention : Reuss Voigt Hill
#
# Bulk Modulus (GPa) = 39.59590 45.28890 42.44240
# Shear Modulus (GPa) = 24.93322 29.27834 27.10578
#
# Velocity S-wave (km/s) = 3.53231 3.82774 3.68299
# Velocity P-wave (km/s) = 6.03747 6.49609 6.27097
#
# Compressibility (1/GPa) = 0.02525514
#
# Stress axis : x y z
#
# Youngs Moduli (GPa) = 109.63136 73.86566 66.10543
#
# Poissons Ratio (x) = 0.30824 0.01712
# Poissons Ratio (y) = 0.45749 0.12124
# Poissons Ratio (z) = 0.02839 0.13547
#
# Static dielectric constant tensor:
#      x y z
#    x 4.086180 0.000000 0.037560 
#    y 0.000000 3.211980 0.000000 
#    z 0.037560 0.000000 3.608500 
# 
# 
# High freq. dielectric constant tensor:
#      x y z
#    x 1.810420 0.000000 -0.001070 
#    y 0.000000 1.743060 0.000000 
#    z -0.001070 0.000000 1.756540 
# 
# From -- ./inp_files/331445.got.cif
#   From: 2010.06.25/outbox.cif.g09.slc.cpg/sg12_166_cif.got.tgz:331445.got - 2010.06.28 00:19:55.
