data_PCOD8085896
_publ_section_title
;
Structure prediction by ZEFSAII (Michael W. Deem and Ramdas Pophale) SiO2 
 PCOD8085896
Probable space group: C 2/M
;
_chemical_formula_sum "Si O2"
_cell_formula_units_Z 40
_cell_length_a 27.528370
_cell_length_b 7.668114
_cell_length_c 19.252186
_cell_angle_alpha 90.000000
_cell_angle_beta 148.325139
_cell_angle_gamma 90.000000
_cell_volume 2133.976924
_symmetry_space_group_name_H-M "C 2/M"
_symmetry_group_IT_number 12
_symmetry_cell_setting 'monoclinic'
loop_
_space_group_symop_operation_xyz
x,y,z
-x,y,-z
-x,-y,-z
x,-y,z
1/2+x,1/2+y,z
1/2-x,1/2+y,-z
1/2-x,1/2-y,-z
1/2+x,1/2-y,z
loop_
_atom_site_type_symbol
_atom_site_label
_atom_site_fract_x
_atom_site_fract_y
_atom_site_fract_z
Si Si1 0.223842 0.301899 0.743700
Si Si2 0.142955 0.204718 0.372413
Si Si3 0.138007 0.500000 0.118905
Si Si4 0.904310 0.805113 0.531354
Si Si5 0.432930 0.000000 0.815680
Si Si6 0.934799 0.692527 0.354646
O O1 0.258872 0.500000 0.798595
O O2 0.310084 0.175083 0.841052
O O3 0.159608 0.309646 0.596743
O O4 0.163726 0.234167 0.737429
O O5 0.250000 0.250000 0.500000
O O6 0.103815 0.260122 0.399884
O O7 0.089475 0.322205 0.251968
O O8 0.125948 0.000000 0.335656
O O9 0.128643 0.500000 0.190181
O O10 0.040695 0.500000 0.962511
O O11 0.013249 0.803155 0.641737
O O12 0.865097 0.000000 0.477637
O O13 0.919733 0.500000 0.305529
O O14 0.000000 0.686134 0.500000
#
# Coordination Sequence:
#
# PCOD8085896 Si02
#       6
#     8   8   4   8   4   8
#     4  10  20  34  57  86 118 151 185 234 283 335
#     4  11  23  38  59  88 116 147 185 233 287 342
#     4  11  24  42  59  82 112 150 199 230 271 344
#     4  10  19  30  53  89 120 147 186 234 288 339
#     4  11  26  42  60  84 113 151 190 234 282 334
#     4   8  16  28  47  83 117 147 184 226 288 337
#
# _framework density 18.744346
#
# number of rings (size 3 to 8) (size 9 to 14) (size 15 to 20)
#    0.000    2.000    2.000    3.000    4.200    4.400 
#    0.000    2.000    0.000    1.200    0.000    0.000 
#    0.000    0.000    0.000    0.000    0.000    0.000 
#
# Total GULP energy -247884.083904 kJ/mol
# GULP energy per Si atom -12394.204195 kJ/mol
# Density = 1.870168 g / cm^3
# Si number density = 18.744346 Si / 1000 Ang^3
#
#
#
# Elastic Constant Matrix: (Units=GPa)
#
#
# Indices 1 2 3 4 5 6 
#
# 1 161.4637 54.8584 55.0438 0.0000 14.8349 0.0000
# 2 54.8584 101.9482 37.7172 0.0000 8.1125 0.0000
# 3 55.0438 37.7172 58.3340 0.0000 6.8272 0.0000
# 4 0.0000 0.0000 0.0000 15.3366 0.0000 5.9220
# 5 14.8349 8.1125 6.8272 0.0000 24.8668 0.0000
# 6 0.0000 0.0000 0.0000 5.9220 0.0000 31.5212
#
#
#
# Elastic Compliance Matrix: (Units=1/GPa)
#
#
# Indices 1 2 3 4 5 6 
#
# 1 0.009766 -0.002280 -0.007383 0.000000 -0.003055 0.000000
# 2 -0.002280 0.013521 -0.006440 0.000000 -0.001282 0.000000
# 3 -0.007383 -0.006440 0.028425 0.000000 -0.001299 0.000000
# 4 0.000000 0.000000 0.000000 0.070304 0.000000 -0.013208
# 5 -0.003055 -0.001282 -0.001299 0.000000 0.042812 0.000000
# 6 0.000000 0.000000 0.000000 -0.013208 0.000000 0.034206
#
#
# Mechanical properties :
#
#
# Convention : Reuss Voigt Hill
#
# Bulk Modulus (GPa) = 51.27014 68.55386 59.91200
# Shear Modulus (GPa) = 21.03123 25.95336 23.49229
#
# Velocity S-wave (km/s) = 3.35327 3.72505 3.54404
# Velocity P-wave (km/s) = 6.51185 7.42656 6.98420
#
# Compressibility (1/GPa) = 0.01950453
#
# Stress axis : x y z
#
# Youngs Moduli (GPa) = 102.39957 73.96071 35.18011
#
# Poissons Ratio (x) = 0.16866 0.25973
# Poissons Ratio (y) = 0.23351 0.22657
# Poissons Ratio (z) = 0.75600 0.47632
#
# Static dielectric constant tensor:
#      x y z
#    x 3.927160 0.000000 0.186320 
#    y 0.000000 3.638970 0.000000 
#    z 0.186320 0.000000 2.983610 
# 
# 
# High freq. dielectric constant tensor:
#      x y z
#    x 1.750440 0.000000 0.017730 
#    y 0.000000 1.737180 0.000000 
#    z 0.017730 0.000000 1.670100 
# 
# From -- ./inp_files/292349.got.cif
#   From: 2010.06.25/outbox.cif.g09.slc.cpg/sg12_147_cif.got.tgz:292349.got - 2010.06.28 00:19:55.
