data_PCOD8085836
_publ_section_title
;
Structure prediction by ZEFSAII (Michael W. Deem and Ramdas Pophale) SiO2 
 PCOD8085836
Probable space group: C 2/M
;
_chemical_formula_sum "Si O2"
_cell_formula_units_Z 52
_cell_length_a 21.720031
_cell_length_b 17.481442
_cell_length_c 15.571671
_cell_angle_alpha 90.000000
_cell_angle_beta 155.203371
_cell_angle_gamma 90.000000
_cell_volume 2479.704701
_symmetry_space_group_name_H-M "C 2/M"
_symmetry_group_IT_number 12
_symmetry_cell_setting 'monoclinic'
loop_
_space_group_symop_operation_xyz
x,y,z
-x,y,-z
-x,-y,-z
x,-y,z
1/2+x,1/2+y,z
1/2-x,1/2+y,-z
1/2-x,1/2-y,-z
1/2+x,1/2-y,z
loop_
_atom_site_type_symbol
_atom_site_label
_atom_site_fract_x
_atom_site_fract_y
_atom_site_fract_z
Si Si1 0.528327 0.917827 0.440176
Si Si2 0.536186 0.332569 0.830647
Si Si3 0.786869 0.087953 0.597554
Si Si4 0.686337 0.337859 0.197964
Si Si5 0.750075 0.411110 0.979677
Si Si6 0.018355 0.345335 0.837097
Si Si7 0.000000 0.697866 0.000000
O O1 0.500000 0.940374 0.500000
O O2 0.638696 0.846351 0.578044
O O3 0.377416 0.891461 0.207799
O O4 0.586850 0.000000 0.472524
O O5 0.371080 0.365818 0.628884
O O6 0.525607 0.241702 0.815265
O O7 0.625735 0.362320 0.027945
O O8 0.609494 0.363218 0.835010
O O9 0.867014 0.108270 0.790073
O O10 0.613404 0.111716 0.380807
O O11 0.804692 0.000000 0.597896
O O12 0.642964 0.251295 0.167435
O O13 0.706298 0.500000 0.919091
O O14 0.821301 0.383207 0.979313
O O15 0.983928 0.354130 0.894996
#
# Coordination Sequence:
#
# PCOD8085836 Si02
#       7
#     8   8   8   8   8   8   4
#     4  10  19  30  50  82 124 159 183 225 288 360
#     4  11  23  38  58  89 128 161 194 239 299 365
#     4  12  23  36  60  93 124 159 197 244 301 357
#     4  11  19  35  56  88 121 160 194 234 294 357
#     4  11  22  37  59  89 120 157 201 246 297 354
#     4  11  23  42  61  85 118 162 208 246 295 355
#     4  10  24  42  60  82 114 158 212 254 292 346
#
# _framework density 20.970238999999999
#
# number of rings (size 3 to 8) (size 9 to 14) (size 15 to 20)
#    0.000    1.077    6.154    2.308    0.000    2.462 
#    0.000    1.538    0.000    0.000    0.000    2.154 
#    0.000    0.000    0.000    0.000    0.000    0.000 
#
# Total GULP energy -322170.463901 kJ/mol
# GULP energy per Si atom -12391.171688 kJ/mol
# Density = 2.092251 g / cm^3
# Si number density = 20.970239 Si / 1000 Ang^3
#
#
#
# Elastic Constant Matrix: (Units=GPa)
#
#
# Indices 1 2 3 4 5 6 
#
# 1 109.6385 25.5154 10.8018 0.0000 8.4977 0.0000
# 2 25.5154 88.5900 14.9414 0.0000 -0.6040 0.0000
# 3 10.8018 14.9414 32.9235 0.0000 1.2125 0.0000
# 4 0.0000 0.0000 0.0000 26.9707 0.0000 7.5058
# 5 8.4977 -0.6040 1.2125 0.0000 34.6559 0.0000
# 6 0.0000 0.0000 0.0000 7.5058 0.0000 31.9880
#
#
#
# Elastic Compliance Matrix: (Units=1/GPa)
#
#
# Indices 1 2 3 4 5 6 
#
# 1 0.010115 -0.002583 -0.002056 0.000000 -0.002453 0.000000
# 2 -0.002583 0.012889 -0.005040 0.000000 0.001034 0.000000
# 3 -0.002056 -0.005040 0.033363 0.000000 -0.000751 0.000000
# 4 0.000000 0.000000 0.000000 0.039668 0.000000 -0.009308
# 5 -0.002453 0.001034 -0.000751 0.000000 0.029501 0.000000
# 6 0.000000 0.000000 0.000000 -0.009308 0.000000 0.033446
#
#
# Mechanical properties :
#
#
# Convention : Reuss Voigt Hill
#
# Bulk Modulus (GPa) = 27.02071 37.07435 32.04753
# Shear Modulus (GPa) = 26.22264 30.71582 28.46923
#
# Velocity S-wave (km/s) = 3.54003 3.83134 3.68856
# Velocity P-wave (km/s) = 5.44264 6.10656 5.78413
#
# Compressibility (1/GPa) = 0.03700865
#
# Stress axis : x y z
#
# Youngs Moduli (GPa) = 98.86558 77.58531 29.97353
#
# Poissons Ratio (x) = 0.20042 0.06162
# Poissons Ratio (y) = 0.25539 0.15106
# Poissons Ratio (z) = 0.20325 0.39102
#
# Static dielectric constant tensor:
#      x y z
#    x 4.959870 0.000000 -0.066120 
#    y 0.000000 3.582940 0.000000 
#    z -0.066120 0.000000 3.766430 
# 
# 
# High freq. dielectric constant tensor:
#      x y z
#    x 1.840300 0.000000 0.017580 
#    y 0.000000 1.807010 0.000000 
#    z 0.017580 0.000000 1.787320 
# 
# From -- ./inp_files/234483.got.cif
#   From: 2010.06.25/outbox.cif.g09.slc.cpg/sg12_118_cif.got.tgz:234483.got - 2010.06.28 00:19:55.
