data_PCOD8085193
_publ_section_title
;
Structure prediction by ZEFSAII (Michael W. Deem and Ramdas Pophale) SiO2 
 PCOD8085193
Probable space group: C 2/M
;
_chemical_formula_sum "Si O2"
_cell_formula_units_Z 56
_cell_length_a 23.649556
_cell_length_b 8.967001
_cell_length_c 27.906720
_cell_angle_alpha 90.000000
_cell_angle_beta 32.527229
_cell_angle_gamma 90.000000
_cell_volume 3182.140346
_symmetry_space_group_name_H-M "C 2/M"
_symmetry_group_IT_number 12
_symmetry_cell_setting 'monoclinic'
loop_
_space_group_symop_operation_xyz
x,y,z
-x,y,-z
-x,-y,-z
x,-y,z
1/2+x,1/2+y,z
1/2-x,1/2+y,-z
1/2-x,1/2-y,-z
1/2+x,1/2-y,z
loop_
_atom_site_type_symbol
_atom_site_label
_atom_site_fract_x
_atom_site_fract_y
_atom_site_fract_z
Si Si1 0.996453 0.678440 0.834182
Si Si2 0.083685 0.324641 0.402139
Si Si3 0.918934 0.176300 0.796771
Si Si4 0.821093 0.328513 0.029608
Si Si5 0.416426 0.827891 0.703690
Si Si6 0.794741 0.668798 0.151215
Si Si7 0.193772 0.670733 0.751965
O O1 0.993168 0.500000 0.834735
O O2 0.105904 0.734918 0.778919
O O3 0.989903 0.746522 0.786202
O O4 0.901007 0.746575 0.934800
O O5 0.098715 0.500000 0.397059
O O6 0.037834 0.286566 0.381703
O O7 0.196859 0.254939 0.332130
O O8 0.000000 0.261144 0.500000
O O9 0.798217 0.233961 0.889122
O O10 0.964426 0.228723 0.712515
O O11 0.928998 0.000000 0.793597
O O12 0.816991 0.500000 0.018591
O O13 0.864972 0.306476 0.053049
O O14 0.293300 0.794967 0.787212
O O15 0.435311 0.000000 0.702861
O O16 0.745310 0.500000 0.182855
O O17 0.854376 0.685272 0.159312
O O18 0.217033 0.500000 0.723110
#
# Coordination Sequence:
#
# PCOD8085193 Si02
#       7
#     8   8   8   8   8   8   8
#     4  10  19  30  44  65  94 128 163 195 229 267
#     4   9  18  33  54  77  97 117 143 179 227 283
#     4  10  19  31  46  65  91 125 164 199 230 263
#     4   8  15  27  44  65  89 121 162 202 231 261
#     4   9  16  28  48  71  92 116 147 185 228 272
#     4   8  14  27  44  64  92 122 153 189 228 270
#     4   9  18  30  46  70  98 125 152 186 230 278
#
# _framework density 17.598219
#
# number of rings (size 3 to 8) (size 9 to 14) (size 15 to 20)
#    0.000    3.000    0.000    2.143    0.000    2.000 
#    0.000    5.714    0.000    0.857    0.000   14.000 
#    0.000    0.000    0.000    0.000    0.000    0.000 
#
# Total GULP energy -346866.851113 kJ/mol
# GULP energy per Si atom -12388.101825 kJ/mol
# Density = 1.755816 g / cm^3
# Si number density = 17.598219 Si / 1000 Ang^3
#
#
#
# Elastic Constant Matrix: (Units=GPa)
#
#
# Indices 1 2 3 4 5 6 
#
# 1 136.6614 33.1667 57.3663 -0.0024 22.8307 0.0036
# 2 33.1667 33.9934 24.3044 -0.0085 7.5168 0.0183
# 3 57.3663 24.3044 82.6389 -0.0008 23.8658 0.0051
# 4 -0.0024 -0.0085 -0.0008 16.4242 0.0000 3.3253
# 5 22.8307 7.5168 23.8658 0.0000 22.9815 -0.0017
# 6 0.0036 0.0183 0.0051 3.3253 -0.0017 25.3496
#
#
#
# Elastic Compliance Matrix: (Units=1/GPa)
#
#
# Indices 1 2 3 4 5 6 
#
# 1 0.011801 -0.007082 -0.004846 -0.000003 -0.004375 0.000005
# 2 -0.007082 0.041522 -0.007721 0.000026 0.001472 -0.000031
# 3 -0.004846 -0.007721 0.022305 -0.000004 -0.015824 0.000001
# 4 -0.000003 0.000026 -0.000004 0.062547 -0.000002 -0.008205
# 5 -0.004375 0.001472 -0.015824 -0.000002 0.063811 0.000007
# 6 0.000005 -0.000031 0.000001 -0.008205 0.000007 0.040525
#
#
# Mechanical properties :
#
#
# Convention : Reuss Voigt Hill
#
# Bulk Modulus (GPa) = 27.52447 53.66318 40.59383
# Shear Modulus (GPa) = 17.01148 22.18148 19.59648
#
# Velocity S-wave (km/s) = 3.11249 3.55412 3.34061
# Velocity P-wave (km/s) = 5.34708 6.88492 6.16414
#
# Compressibility (1/GPa) = 0.03633130
#
# Stress axis : x y z
#
# Youngs Moduli (GPa) = 84.73770 24.08363 44.83226
#
# Poissons Ratio (x) = 0.17056 0.21724
# Poissons Ratio (y) = 0.60012 0.34614
# Poissons Ratio (z) = 0.41061 0.18594
#
# Static dielectric constant tensor:
#      x y z
#    x 3.319780 -0.000010 0.379340 
#    y -0.000010 3.063180 0.000010 
#    z 0.379340 0.000010 3.333310 
# 
# 
# High freq. dielectric constant tensor:
#      x y z
#    x 1.672770 0.000000 0.034870 
#    y 0.000000 1.664350 0.000000 
#    z 0.034870 0.000000 1.654720 
# 
# From -- ./inp_files/348468.got.cif
#   From: 2010.06.25/outbox.cif.g09.slc.cpg/sg12_175_cif.got.tgz:348468.got - 2010.06.28 00:19:55.
