data_PCOD8085833
_publ_section_title
;
Structure prediction by ZEFSAII (Michael W. Deem and Ramdas Pophale) SiO2 
 PCOD8085833
Probable space group: C 2/M
;
_chemical_formula_sum "Si O2"
_cell_formula_units_Z 56
_cell_length_a 26.481892
_cell_length_b 9.454804
_cell_length_c 14.263730
_cell_angle_alpha 90.000000
_cell_angle_beta 57.245179
_cell_angle_gamma 90.000000
_cell_volume 3003.497566
_symmetry_space_group_name_H-M "C 2/M"
_symmetry_group_IT_number 12
_symmetry_cell_setting 'monoclinic'
loop_
_space_group_symop_operation_xyz
x,y,z
-x,y,-z
-x,-y,-z
x,-y,z
1/2+x,1/2+y,z
1/2-x,1/2+y,-z
1/2-x,1/2-y,-z
1/2+x,1/2-y,z
loop_
_atom_site_type_symbol
_atom_site_label
_atom_site_fract_x
_atom_site_fract_y
_atom_site_fract_z
Si Si1 0.784935 0.337230 0.808520
Si Si2 0.853346 0.160901 0.041883
Si Si3 0.105819 0.840905 0.598989
Si Si4 0.222960 0.162862 0.363505
Si Si5 0.339700 0.336330 0.265035
Si Si6 0.995728 0.667178 0.397621
Si Si7 0.109161 0.335508 0.162664
O O1 0.794987 0.500000 0.767635
O O2 0.716772 0.310698 0.908386
O O3 0.801964 0.237741 0.704753
O O4 0.828203 0.297127 0.850552
O O5 0.868090 0.200161 0.135014
O O6 0.870478 0.000000 0.003002
O O7 0.893949 0.256340 0.933529
O O8 0.172773 0.823532 0.492977
O O9 0.110088 0.808855 0.706136
O O10 0.061804 0.731963 0.594622
O O11 0.082025 0.000000 0.605250
O O12 0.282220 0.239202 0.342343
O O13 0.237992 0.000000 0.325556
O O14 0.318095 0.500000 0.287290
O O15 0.987610 0.500000 0.404147
O O16 0.055201 0.716171 0.283224
O O17 0.000000 0.722555 0.500000
O O18 0.103420 0.500000 0.146705
#
# Coordination Sequence:
#
# PCOD8085833 Si02
#       7
#     8   8   8   8   8   8   8
#     4   9  18  33  52  75 106 142 173 204 253 313
#     4   9  18  32  52  77 103 134 170 209 256 308
#     4  10  21  36  54  77 105 137 174 215 256 301
#     4  10  19  30  50  82 110 133 168 213 259 303
#     4   9  19  36  54  75 106 140 172 206 252 311
#     4  10  22  39  57  77 102 135 174 211 253 308
#     4  10  20  34  53  76 102 135 174 215 257 301
#
# _framework density 18.644929999999999
#
# number of rings (size 3 to 8) (size 9 to 14) (size 15 to 20)
#    0.000    2.429    0.000    3.000    0.000    6.571 
#    0.000    0.714    0.000    4.286    0.000    0.000 
#    0.000    0.000    0.000    0.000    0.000    0.000 
#
# Total GULP energy -347239.411774 kJ/mol
# GULP energy per Si atom -12401.407563 kJ/mol
# Density = 1.860249 g / cm^3
# Si number density = 18.644930 Si / 1000 Ang^3
#
#
#
# Elastic Constant Matrix: (Units=GPa)
#
#
# Indices 1 2 3 4 5 6 
#
# 1 88.9743 39.6785 52.4564 0.0000 18.4567 0.0000
# 2 39.6785 65.1457 50.1516 0.0000 8.1225 0.0000
# 3 52.4564 50.1516 127.4463 0.0000 15.9980 0.0000
# 4 0.0000 0.0000 0.0000 33.3588 0.0000 -0.4410
# 5 18.4567 8.1225 15.9980 0.0000 22.8729 0.0000
# 6 0.0000 0.0000 0.0000 -0.4410 0.0000 25.7779
#
#
#
# Elastic Compliance Matrix: (Units=1/GPa)
#
#
# Indices 1 2 3 4 5 6 
#
# 1 0.018702 -0.007438 -0.003517 0.000000 -0.009990 0.000000
# 2 -0.007438 0.025057 -0.007055 0.000000 0.002038 0.000000
# 3 -0.003517 -0.007055 0.012496 0.000000 -0.003398 0.000000
# 4 0.000000 0.000000 0.000000 0.029984 0.000000 0.000513
# 5 -0.009990 0.002038 -0.003398 0.000000 0.053434 0.000000
# 6 0.000000 0.000000 0.000000 0.000513 0.000000 0.038802
#
#
# Mechanical properties :
#
#
# Convention : Reuss Voigt Hill
#
# Bulk Modulus (GPa) = 49.41455 62.90437 56.15946
# Shear Modulus (GPa) = 22.59997 25.68724 24.14361
#
# Velocity S-wave (km/s) = 3.48533 3.71577 3.60240
# Velocity P-wave (km/s) = 6.53890 7.22638 6.89122
#
# Compressibility (1/GPa) = 0.02023695
#
# Stress axis : x y z
#
# Youngs Moduli (GPa) = 53.47081 39.90837 80.02242
#
# Poissons Ratio (x) = 0.29684 0.28141
# Poissons Ratio (y) = 0.39771 0.56454
# Poissons Ratio (z) = 0.18804 0.28154
#
# Static dielectric constant tensor:
#      x y z
#    x 3.284120 0.000000 0.168170 
#    y 0.000000 3.386790 0.000000 
#    z 0.168170 0.000000 3.439810 
# 
# 
# High freq. dielectric constant tensor:
#      x y z
#    x 1.709800 0.000000 0.015240 
#    y 0.000000 1.721080 0.000000 
#    z 0.015240 0.000000 1.724840 
# 
# From -- ./inp_files/243675.got.cif
#   From: 2010.06.25/outbox.cif.g09.slc.cpg/sg12_122_cif.got.tgz:243675.got - 2010.06.28 00:19:55.
