data_PCOD8085659
_publ_section_title
;
Structure prediction by ZEFSAII (Michael W. Deem and Ramdas Pophale) SiO2 
 PCOD8085659
Probable space group: C 2/M
;
_chemical_formula_sum "Si O2"
_cell_formula_units_Z 64
_cell_length_a 27.930065
_cell_length_b 11.367801
_cell_length_c 15.219925
_cell_angle_alpha 90.000000
_cell_angle_beta 44.550164
_cell_angle_gamma 90.000000
_cell_volume 3390.075062
_symmetry_space_group_name_H-M "C 2/M"
_symmetry_group_IT_number 12
_symmetry_cell_setting 'monoclinic'
loop_
_space_group_symop_operation_xyz
x,y,z
-x,y,-z
-x,-y,-z
x,-y,z
1/2+x,1/2+y,z
1/2-x,1/2+y,-z
1/2-x,1/2-y,-z
1/2+x,1/2-y,z
loop_
_atom_site_type_symbol
_atom_site_label
_atom_site_fract_x
_atom_site_fract_y
_atom_site_fract_z
Si Si1 0.442336 0.131308 0.212935
Si Si2 0.925585 0.640324 0.743196
Si Si3 0.575397 0.813434 0.566919
Si Si4 0.211599 0.762904 0.772726
Si Si5 0.599308 0.866770 0.029110
Si Si6 0.833754 0.371325 0.707398
Si Si7 0.681807 0.630468 0.474622
Si Si8 0.136824 0.868711 0.723931
O O1 0.425024 0.121668 0.338745
O O2 0.409749 0.249138 0.211643
O O3 0.420361 0.000000 0.202995
O O4 0.522805 0.147086 0.093037
O O5 0.937609 0.500000 0.721140
O O6 0.874728 0.688376 0.734498
O O7 0.998322 0.703949 0.633623
O O8 0.895490 0.677114 0.876993
O O9 0.618001 0.887371 0.440457
O O10 0.613218 0.689324 0.527079
O O11 0.147809 0.707749 0.904571
O O12 0.265843 0.799064 0.775572
O O13 0.247200 0.677500 0.656055
O O14 0.183340 0.870533 0.750630
O O15 0.624420 0.000000 0.991144
O O16 0.810293 0.500000 0.768787
O O17 0.674804 0.500000 0.449389
O O18 0.685207 0.640829 0.575608
O O19 0.099719 0.000000 0.769690
#
# Coordination Sequence:
#
# PCOD8085659 Si02
#       8
#     8   8   8   8   8   8   8   8
#     4   9  18  34  56  81 104 133 174 216 257 304
#     4   9  17  31  52  76 100 128 165 213 264 306
#     4   9  16  29  53  80 104 128 161 213 265 306
#     4  11  21  33  50  72 101 140 176 207 247 303
#     4   9  19  35  53  74 101 131 170 216 256 301
#     4  10  19  30  48  75 103 131 167 211 258 309
#     4   9  19  34  52  75 103 135 170 208 256 311
#     4  10  21  37  54  77 108 137 168 214 267 310
#
# _framework density 18.878639
#
# number of rings (size 3 to 8) (size 9 to 14) (size 15 to 20)
#    0.000    2.500    0.000    3.375    0.000    3.000 
#    0.000    6.250    0.000    8.250    0.000    0.000 
#    0.000    0.000    0.000    0.000    0.000    0.000 
#
# Total GULP energy -396474.956677 kJ/mol
# GULP energy per Si atom -12389.842396 kJ/mol
# Density = 1.883567 g / cm^3
# Si number density = 18.878639 Si / 1000 Ang^3
#
#
#
# Elastic Constant Matrix: (Units=GPa)
#
#
# Indices 1 2 3 4 5 6 
#
# 1 93.2524 38.7209 28.6192 0.0000 -1.9451 0.0000
# 2 38.7209 111.3166 42.3958 -0.0003 -7.9345 0.0001
# 3 28.6192 42.3958 103.1063 -0.0001 -10.2854 0.0000
# 4 0.0000 -0.0003 -0.0001 12.6775 0.0000 -2.2125
# 5 -1.9451 -7.9345 -10.2854 0.0000 13.8536 0.0000
# 6 0.0000 0.0001 0.0000 -2.2125 0.0000 16.7257
#
#
#
# Elastic Compliance Matrix: (Units=1/GPa)
#
#
# Indices 1 2 3 4 5 6 
#
# 1 0.012943 -0.003795 -0.002233 0.000000 -0.002014 0.000000
# 2 -0.003795 0.011887 -0.003465 0.000000 0.003703 0.000000
# 3 -0.002233 -0.003465 0.012435 0.000000 0.006934 0.000000
# 4 0.000000 0.000000 0.000000 0.080744 0.000000 0.010681
# 5 -0.002014 0.003703 0.006934 0.000000 0.079170 0.000000
# 6 0.000000 0.000000 0.000000 0.010681 0.000000 0.061201
#
#
# Mechanical properties :
#
#
# Convention : Reuss Voigt Hill
#
# Bulk Modulus (GPa) = 54.70871 58.57188 56.64029
# Shear Modulus (GPa) = 17.63927 21.84733 19.74330
#
# Velocity S-wave (km/s) = 3.06003 3.40553 3.23739
# Velocity P-wave (km/s) = 6.44415 6.82322 6.63639
#
# Compressibility (1/GPa) = 0.01827862
#
# Stress axis : x y z
#
# Youngs Moduli (GPa) = 77.26356 84.12460 80.41821
#
# Poissons Ratio (x) = 0.31927 0.17957
# Poissons Ratio (y) = 0.29323 0.27865
# Poissons Ratio (z) = 0.17252 0.29149
#
# Static dielectric constant tensor:
#      x y z
#    x 3.566080 0.000000 0.066190 
#    y 0.000000 3.392750 0.000000 
#    z 0.066190 0.000000 3.387980 
# 
# 
# High freq. dielectric constant tensor:
#      x y z
#    x 1.729910 0.000000 0.006190 
#    y 0.000000 1.716430 0.000000 
#    z 0.006190 0.000000 1.729260 
# 
# From -- ./inp_files/245943.got.cif
#   From: 2010.06.25/outbox.cif.g09.slc.cpg/sg12_123_cif.got.tgz:245943.got - 2010.06.28 00:19:55.
