data_PCOD8085657
_publ_section_title
;
Structure prediction by ZEFSAII (Michael W. Deem and Ramdas Pophale) SiO2 
 PCOD8085657
Probable space group: C 2/M
;
_chemical_formula_sum "Si O2"
_cell_formula_units_Z 64
_cell_length_a 27.222763
_cell_length_b 9.609277
_cell_length_c 13.254393
_cell_angle_alpha 90.000000
_cell_angle_beta 84.417572
_cell_angle_gamma 90.000000
_cell_volume 3450.786750
_symmetry_space_group_name_H-M "C 2/M"
_symmetry_group_IT_number 12
_symmetry_cell_setting 'monoclinic'
loop_
_space_group_symop_operation_xyz
x,y,z
-x,y,-z
-x,-y,-z
x,-y,z
1/2+x,1/2+y,z
1/2-x,1/2+y,-z
1/2-x,1/2-y,-z
1/2+x,1/2-y,z
loop_
_atom_site_type_symbol
_atom_site_label
_atom_site_fract_x
_atom_site_fract_y
_atom_site_fract_z
Si Si1 0.050995 0.337465 0.536097
Si Si2 0.914266 0.338407 0.255275
Si Si3 0.380581 0.158829 0.658426
Si Si4 0.916089 0.842844 0.828197
Si Si5 0.689266 0.159585 0.812670
Si Si6 0.980023 0.156067 0.109193
Si Si7 0.655212 0.162435 0.040735
Si Si8 0.718943 0.157030 0.223527
O O1 0.042106 0.500000 0.551808
O O2 0.065412 0.275870 0.642912
O O3 0.098630 0.308216 0.456601
O O4 0.000000 0.272390 0.500000
O O5 0.928068 0.500000 0.240828
O O6 0.855497 0.317575 0.256705
O O7 0.937868 0.256704 0.157742
O O8 0.406769 0.266460 0.725802
O O9 0.321504 0.178617 0.679220
O O10 0.394157 0.000000 0.687722
O O11 0.892411 0.757328 0.926097
O O12 0.974787 0.846780 0.822688
O O13 0.894401 0.000000 0.831555
O O14 0.735314 0.244930 0.761325
O O15 0.705549 0.000000 0.813051
O O16 0.675766 0.209298 0.928418
O O17 0.958234 0.000000 0.098551
O O18 0.000000 0.215705 0.000000
O O19 0.695468 0.193360 0.119386
O O20 0.639699 0.000000 0.043941
O O21 0.738644 0.000000 0.219298
#
# Coordination Sequence:
#
# PCOD8085657 Si02
#       8
#     8   8   8   8   8   8   8   8
#     4   9  17  32  56  80 100 127 164 207 254 301
#     4  10  21  35  53  78 101 128 172 216 253 294
#     4   9  18  34  54  75 100 129 165 208 250 298
#     4  10  19  30  48  75 102 129 165 208 251 296
#     4  10  20  33  49  72 103 133 166 214 258 292
#     4  10  21  35  49  70 104 141 169 196 242 304
#     4   9  18  32  49  72 102 136 171 204 246 299
#     4   9  18  31  49  72  97 132 174 207 243 299
#
# _framework density 18.546496000000001
#
# number of rings (size 3 to 8) (size 9 to 14) (size 15 to 20)
#    0.000    2.500    0.000    3.000    0.000    5.250 
#    0.000    1.250    0.000    2.250    0.000    0.000 
#    0.000    0.000    0.000    0.000    0.000    0.000 
#
# Total GULP energy -396725.702064 kJ/mol
# GULP energy per Si atom -12397.678189 kJ/mol
# Density = 1.850428 g / cm^3
# Si number density = 18.546496 Si / 1000 Ang^3
#
#
#
# Elastic Constant Matrix: (Units=GPa)
#
#
# Indices 1 2 3 4 5 6 
#
# 1 89.6092 38.6063 41.7397 0.0000 -6.8982 0.0000
# 2 38.6063 67.7481 28.2160 0.0000 -5.9863 0.0000
# 3 41.7397 28.2160 96.5395 0.0000 -7.8403 0.0000
# 4 0.0000 0.0000 0.0000 17.1132 0.0000 -1.2793
# 5 -6.8982 -5.9863 -7.8403 0.0000 24.0860 0.0000
# 6 0.0000 0.0000 0.0000 -1.2793 0.0000 29.3832
#
#
#
# Elastic Compliance Matrix: (Units=1/GPa)
#
#
# Indices 1 2 3 4 5 6 
#
# 1 0.016752 -0.007351 -0.004985 0.000000 0.001348 0.000000
# 2 -0.007351 0.020198 -0.002556 0.000000 0.002083 0.000000
# 3 -0.004985 -0.002556 0.013449 0.000000 0.002315 0.000000
# 4 0.000000 0.000000 0.000000 0.058625 0.000000 0.002553
# 5 0.001348 0.002083 0.002315 0.000000 0.043175 0.000000
# 6 0.000000 0.000000 0.000000 0.002553 0.000000 0.034144
#
#
# Mechanical properties :
#
#
# Convention : Reuss Voigt Hill
#
# Bulk Modulus (GPa) = 48.50783 52.33565 50.42174
# Shear Modulus (GPa) = 22.42158 23.80549 23.11354
#
# Velocity S-wave (km/s) = 3.48075 3.58656 3.53405
# Velocity P-wave (km/s) = 6.50889 6.74026 6.62559
#
# Compressibility (1/GPa) = 0.02061523
#
# Stress axis : x y z
#
# Youngs Moduli (GPa) = 59.69292 49.50960 74.35604
#
# Poissons Ratio (x) = 0.36395 0.37067
# Poissons Ratio (y) = 0.43881 0.19005
# Poissons Ratio (z) = 0.29757 0.12654
#
# Static dielectric constant tensor:
#      x y z
#    x 3.348200 0.000000 -0.010150 
#    y 0.000000 3.306440 0.000000 
#    z -0.010150 0.000000 3.383020 
# 
# 
# High freq. dielectric constant tensor:
#      x y z
#    x 1.715320 0.000000 -0.004480 
#    y 0.000000 1.704940 0.000000 
#    z -0.004480 0.000000 1.708500 
# 
# From -- ./inp_files/187565.got.cif
#   From: 2010.06.25/outbox.cif.g09.slc.cpg/sg12_94_cif.got.tgz:187565.got - 2010.06.28 00:19:55.
