data_PCOD8085663
_publ_section_title
;
Structure prediction by ZEFSAII (Michael W. Deem and Ramdas Pophale) SiO2 
 PCOD8085663
Probable space group: C 2/M
;
_chemical_formula_sum "Si O2"
_cell_formula_units_Z 48
_cell_length_a 33.409397
_cell_length_b 8.790665
_cell_length_c 15.233101
_cell_angle_alpha 90.000000
_cell_angle_beta 143.275016
_cell_angle_gamma 90.000000
_cell_volume 2675.232325
_symmetry_space_group_name_H-M "C 2/M"
_symmetry_group_IT_number 12
_symmetry_cell_setting 'monoclinic'
loop_
_space_group_symop_operation_xyz
x,y,z
-x,y,-z
-x,-y,-z
x,-y,z
1/2+x,1/2+y,z
1/2-x,1/2+y,-z
1/2-x,1/2-y,-z
1/2+x,1/2-y,z
loop_
_atom_site_type_symbol
_atom_site_label
_atom_site_fract_x
_atom_site_fract_y
_atom_site_fract_z
Si Si1 0.180752 0.179889 0.907999
Si Si2 0.961690 0.821917 0.643591
Si Si3 0.894050 0.678007 0.070915
Si Si4 0.438763 0.675820 0.794696
Si Si5 0.925905 0.324221 0.405931
Si Si6 0.418525 0.824309 0.923173
O O1 0.164302 0.244554 0.975598
O O2 0.123148 0.225911 0.739407
O O3 0.186926 0.000000 0.923346
O O4 0.250000 0.250000 0.000000
O O5 0.918591 0.796178 0.657612
O O6 0.920693 0.737351 0.495768
O O7 0.035487 0.752979 0.780880
O O8 0.969036 0.000000 0.635058
O O9 0.899523 0.500000 0.103891
O O10 0.874326 0.702579 0.933294
O O11 0.443047 0.500000 0.823748
O O12 0.388790 0.750721 0.780264
O O13 0.510842 0.748805 0.933457
O O14 0.904232 0.500000 0.365227
O O15 0.000000 0.300000 0.500000
O O16 0.429083 0.000000 0.923643
#
# Coordination Sequence:
#
# PCOD8085663 Si02
#       6
#     8   8   8   8   8   8
#     4  12  25  40  58  78 106 140 178 221 266 317
#     4  10  19  30  48  75 104 138 176 215 263 311
#     4  10  19  32  49  73 103 136 176 218 261 311
#     4   9  16  25  39  64  99 132 167 210 254 306
#     4  11  22  36  56  80 107 139 178 221 265 315
#     4   9  16  25  41  64  95 133 169 207 255 308
#
# _framework density 17.942367999999998
#
# number of rings (size 3 to 8) (size 9 to 14) (size 15 to 20)
#    0.000    1.833    1.667    5.000    0.000    4.667 
#    0.000    0.000    0.000    0.000    0.000    1.167 
#    0.000    0.000    0.000    0.000    0.000    0.000 
#
# Total GULP energy -297438.484999 kJ/mol
# GULP energy per Si atom -12393.270208 kJ/mol
# Density = 1.790153 g / cm^3
# Si number density = 17.942368 Si / 1000 Ang^3
#
#
#
# Elastic Constant Matrix: (Units=GPa)
#
#
# Indices 1 2 3 4 5 6 
#
# 1 144.2259 64.3190 44.4983 0.0000 -31.3993 0.0000
# 2 64.3190 108.5322 24.4255 0.0000 -17.8905 0.0000
# 3 44.4983 24.4255 34.8974 0.0000 -10.9867 0.0000
# 4 0.0000 0.0000 0.0000 24.2637 0.0000 -7.0057
# 5 -31.3993 -17.8905 -10.9867 0.0000 29.5462 0.0000
# 6 0.0000 0.0000 0.0000 -7.0057 0.0000 35.8979
#
#
#
# Elastic Compliance Matrix: (Units=1/GPa)
#
#
# Indices 1 2 3 4 5 6 
#
# 1 0.014719 -0.004439 -0.013119 0.000000 0.008076 0.000000
# 2 -0.004439 0.012774 -0.002640 0.000000 0.002036 0.000000
# 3 -0.013119 -0.002640 0.047952 0.000000 0.002291 0.000000
# 4 0.000000 0.000000 0.000000 0.043675 0.000000 0.008523
# 5 0.008076 0.002036 0.002291 0.000000 0.044512 0.000000
# 6 0.000000 0.000000 0.000000 0.008523 0.000000 0.029520
#
#
# Mechanical properties :
#
#
# Convention : Reuss Voigt Hill
#
# Bulk Modulus (GPa) = 28.53040 61.57123 45.05081
# Shear Modulus (GPa) = 20.38885 28.23575 24.31230
#
# Velocity S-wave (km/s) = 3.37464 3.97128 3.68506
# Velocity P-wave (km/s) = 5.57852 7.44437 6.57794
#
# Compressibility (1/GPa) = 0.03505033
#
# Stress axis : x y z
#
# Youngs Moduli (GPa) = 67.93889 78.28239 20.85402
#
# Poissons Ratio (x) = 0.34751 0.27358
# Poissons Ratio (y) = 0.30159 0.05505
# Poissons Ratio (z) = 0.89129 0.20663
#
# Static dielectric constant tensor:
#      x y z
#    x 4.227990 0.000000 -0.815800 
#    y 0.000000 3.554080 0.000000 
#    z -0.815800 0.000000 2.931680 
# 
# 
# High freq. dielectric constant tensor:
#      x y z
#    x 1.706260 0.000000 -0.045820 
#    y 0.000000 1.718600 0.000000 
#    z -0.045820 0.000000 1.637220 
# 
# From -- ./inp_files/249367.got.cif
#   From: 2010.06.25/outbox.cif.g09.slc.cpg/sg12_125_cif.got.tgz:249367.got - 2010.06.28 00:19:55.
