data_PCOD8085267
_publ_section_title
;
Structure prediction by ZEFSAII (Michael W. Deem and Ramdas Pophale) SiO2 
 PCOD8085267
Probable space group: C 2/M
;
_chemical_formula_sum "Si O2"
_cell_formula_units_Z 56
_cell_length_a 22.238825
_cell_length_b 26.491765
_cell_length_c 18.384179
_cell_angle_alpha 90.000000
_cell_angle_beta 162.618380
_cell_angle_gamma 90.000000
_cell_volume 3235.583347
_symmetry_space_group_name_H-M "C 2/M"
_symmetry_group_IT_number 12
_symmetry_cell_setting 'monoclinic'
loop_
_space_group_symop_operation_xyz
x,y,z
-x,y,-z
-x,-y,-z
x,-y,z
1/2+x,1/2+y,z
1/2-x,1/2+y,-z
1/2-x,1/2-y,-z
1/2+x,1/2-y,z
loop_
_atom_site_type_symbol
_atom_site_label
_atom_site_fract_x
_atom_site_fract_y
_atom_site_fract_z
Si Si1 0.906808 0.801681 0.313622
Si Si2 0.409087 0.912145 0.318204
Si Si3 0.427568 0.658037 0.637235
Si Si4 0.834898 0.692409 0.169771
Si Si5 0.008213 0.341955 0.798556
Si Si6 0.421773 0.055702 0.633260
Si Si7 0.498746 0.555706 0.787298
O O1 0.883941 0.743285 0.267857
O O2 0.000000 0.808617 0.500000
O O3 0.059155 0.827851 0.432249
O O4 0.686989 0.827832 0.060092
O O5 0.500000 0.927197 0.500000
O O6 0.399177 0.851868 0.298305
O O7 0.547878 0.936296 0.416811
O O8 0.189849 0.936259 0.058840
O O9 0.481067 0.598367 0.704624
O O10 0.207635 0.670960 0.415252
O O11 0.596471 0.689661 0.876269
O O12 0.963161 0.689668 0.242953
O O13 0.034004 0.401624 0.810471
O O14 0.184908 0.060698 0.369756
O O15 0.500609 0.000000 0.748107
O O16 0.505677 0.500000 0.758250
#
# Coordination Sequence:
#
# PCOD8085267 Si02
#       7
#     8   8   8   8   8   8   8
#     4  11  22  33  48  73 101 125 152 194 245 286
#     4  10  19  30  45  68 100 132 157 188 233 279
#     4   9  18  34  54  72  93 124 161 197 230 273
#     4   9  19  34  50  69  95 128 164 195 226 273
#     4   9  18  34  54  72  93 124 161 197 230 273
#     4   9  18  32  50  71  93 122 161 198 232 275
#     4   9  18  32  50  71  93 122 161 198 232 275
#
# _framework density 17.307542999999999
#
# number of rings (size 3 to 8) (size 9 to 14) (size 15 to 20)
#    0.000    2.571    0.000    3.429    0.000    4.571 
#    0.000    1.429    0.000    6.857    0.000    4.000 
#    0.000    0.000    0.000    0.000    0.000    0.000 
#
# Total GULP energy -347102.501256 kJ/mol
# GULP energy per Si atom -12396.517902 kJ/mol
# Density = 1.726815 g / cm^3
# Si number density = 17.307543 Si / 1000 Ang^3
#
#
#
# Elastic Constant Matrix: (Units=GPa)
#
#
# Indices 1 2 3 4 5 6 
#
# 1 138.3350 43.9217 7.3101 -0.0005 12.9969 -0.0007
# 2 43.9217 108.4973 42.7419 -0.0003 -1.3846 -0.0002
# 3 7.3101 42.7419 142.4643 -0.0032 -1.3044 -0.0023
# 4 -0.0005 -0.0003 -0.0032 18.6241 -0.0008 5.5888
# 5 12.9969 -1.3846 -1.3044 -0.0008 35.9978 -0.0008
# 6 -0.0007 -0.0002 -0.0023 5.5888 -0.0008 16.1523
#
#
#
# Elastic Compliance Matrix: (Units=1/GPa)
#
#
# Indices 1 2 3 4 5 6 
#
# 1 0.008719 -0.003837 0.000674 0.000000 -0.003271 0.000000
# 2 -0.003837 0.012143 -0.003431 0.000000 0.001728 0.000000
# 3 0.000674 -0.003431 0.008013 0.000001 -0.000085 0.000001
# 4 0.000000 0.000000 0.000001 0.059915 0.000001 -0.020731
# 5 -0.003271 0.001728 -0.000085 0.000001 0.029024 0.000001
# 6 0.000000 0.000000 0.000001 -0.020731 0.000001 0.069084
#
#
# Mechanical properties :
#
#
# Convention : Reuss Voigt Hill
#
# Bulk Modulus (GPa) = 63.74139 64.13821 63.93980
# Shear Modulus (GPa) = 24.35296 33.84305 29.09800
#
# Velocity S-wave (km/s) = 3.75517 4.42678 4.10473
# Velocity P-wave (km/s) = 7.46393 7.95405 7.71289
#
# Compressibility (1/GPa) = 0.01568839
#
# Stress axis : x y z
#
# Youngs Moduli (GPa) = 114.69618 82.34877 124.79429
#
# Poissons Ratio (x) = 0.31594 -0.08408
# Poissons Ratio (y) = 0.44005 0.42812
# Poissons Ratio (z) = -0.07728 0.28250
#
# Static dielectric constant tensor:
#      x y z
#    x 3.080900 0.000000 0.265840 
#    y 0.000000 3.556430 0.000000 
#    z 0.265840 0.000000 3.198410 
# 
# 
# High freq. dielectric constant tensor:
#      x y z
#    x 1.648750 0.000000 0.026510 
#    y 0.000000 1.686170 0.000000 
#    z 0.026510 0.000000 1.660480 
# 
# From -- ./inp_files/286643.got.cif
#   From: 2010.06.25/outbox.cif.g09.slc.cpg/sg12_144_cif.got.tgz:286643.got - 2010.06.28 00:19:55.
