data_PCOD8085728
_publ_section_title
;
Structure prediction by ZEFSAII (Michael W. Deem and Ramdas Pophale) SiO2 
 PCOD8085728
Probable space group: C 2/M
;
_chemical_formula_sum "Si O2"
_cell_formula_units_Z 56
_cell_length_a 33.848360
_cell_length_b 8.926633
_cell_length_c 16.099063
_cell_angle_alpha 90.000000
_cell_angle_beta 143.406259
_cell_angle_gamma 90.000000
_cell_volume 2899.827165
_symmetry_space_group_name_H-M "C 2/M"
_symmetry_group_IT_number 12
_symmetry_cell_setting 'monoclinic'
loop_
_space_group_symop_operation_xyz
x,y,z
-x,y,-z
-x,-y,-z
x,-y,z
1/2+x,1/2+y,z
1/2-x,1/2+y,-z
1/2-x,1/2-y,-z
1/2+x,1/2-y,z
loop_
_atom_site_type_symbol
_atom_site_label
_atom_site_fract_x
_atom_site_fract_y
_atom_site_fract_z
Si Si1 0.711013 0.676380 0.009288
Si Si2 0.069185 0.821953 0.516512
Si Si3 0.217219 0.821926 0.206134
Si Si4 0.924169 0.823032 0.288408
Si Si5 0.935007 0.821998 0.787585
Si Si6 0.581297 0.677870 0.054237
Si Si7 0.657004 0.678649 0.515454
O O1 0.719030 0.500000 0.012696
O O2 0.733619 0.729348 0.139021
O O3 0.750000 0.750000 0.000000
O O4 0.634090 0.725445 0.871682
O O5 0.091825 0.763645 0.645424
O O6 0.118087 0.756984 0.529822
O O7 0.994380 0.761535 0.373368
O O8 0.070826 0.000000 0.513232
O O9 0.143887 0.762334 0.107129
O O10 0.269673 0.748559 0.357772
O O11 0.220650 0.000000 0.220256
O O12 0.930301 0.000000 0.305583
O O13 0.912254 0.765095 0.839815
O O14 0.882868 0.760023 0.632007
O O15 0.934678 0.000000 0.783216
O O16 0.010724 0.766177 0.897104
O O17 0.581602 0.500000 0.054180
O O18 0.662921 0.500000 0.524732
#
# Coordination Sequence:
#
# PCOD8085728 Si02
#       7
#     8   8   8   8   8   8   8
#     4  10  20  32  48  69  96 130 165 200 242 291
#     4   8  14  24  41  66  92 113 146 200 247 275
#     4  10  21  33  48  72 103 136 164 196 245 303
#     4   8  14  25  41  63  88 116 151 196 243 278
#     4   8  15  28  50  76  99 126 163 209 253 287
#     4   8  15  30  49  73 103 129 160 205 252 296
#     4  10  19  30  49  75  99 127 164 208 248 287
#
# _framework density 19.311495000000001
#
# number of rings (size 3 to 8) (size 9 to 14) (size 15 to 20)
#    0.000    3.143    0.000    2.571    2.000    2.286 
#    0.000    0.000    0.000    1.714    0.000    6.000 
#    0.000    0.000    0.000    0.000    0.000    0.000 
#
# Total GULP energy -346947.366182 kJ/mol
# GULP energy per Si atom -12390.977364 kJ/mol
# Density = 1.926754 g / cm^3
# Si number density = 19.311495 Si / 1000 Ang^3
#
#
#
# Elastic Constant Matrix: (Units=GPa)
#
#
# Indices 1 2 3 4 5 6 
#
# 1 111.1895 17.2145 57.0123 0.0000 7.7338 0.0000
# 2 17.2145 12.9020 22.2217 0.0000 0.7846 0.0000
# 3 57.0123 22.2217 158.8575 0.0000 -0.5603 0.0000
# 4 0.0000 0.0000 0.0000 21.2730 0.0000 2.0401
# 5 7.7338 0.7846 -0.5603 0.0000 26.1690 0.0000
# 6 0.0000 0.0000 0.0000 2.0401 0.0000 14.0492
#
#
#
# Elastic Compliance Matrix: (Units=1/GPa)
#
#
# Indices 1 2 3 4 5 6 
#
# 1 0.012489 -0.011482 -0.002888 0.000000 -0.003409 0.000000
# 2 -0.011482 0.112962 -0.011682 0.000000 -0.000244 0.000000
# 3 -0.002888 -0.011682 0.008970 0.000000 0.001396 0.000000
# 4 0.000000 0.000000 0.000000 0.047672 0.000000 -0.006923
# 5 -0.003409 -0.000244 0.001396 0.000000 0.039258 0.000000
# 6 0.000000 0.000000 0.000000 -0.006923 0.000000 0.072184
#
#
# Mechanical properties :
#
#
# Convention : Reuss Voigt Hill
#
# Bulk Modulus (GPa) = 12.14803 52.87181 32.50992
# Shear Modulus (GPa) = 13.40200 24.73160 19.06680
#
# Velocity S-wave (km/s) = 2.63723 3.58252 3.14559
# Velocity P-wave (km/s) = 3.94684 6.67461 5.48307
#
# Compressibility (1/GPa) = 0.08231788
#
# Stress axis : x y z
#
# Youngs Moduli (GPa) = 80.06841 8.85252 111.47683
#
# Poissons Ratio (x) = 0.10165 0.32196
# Poissons Ratio (y) = 0.91937 1.30224
# Poissons Ratio (z) = 0.23125 0.10341
#
# Static dielectric constant tensor:
#      x y z
#    x 3.780420 0.000000 0.128260 
#    y 0.000000 2.792900 0.000000 
#    z 0.128260 0.000000 4.084310 
# 
# 
# High freq. dielectric constant tensor:
#      x y z
#    x 1.754670 0.000000 0.004830 
#    y 0.000000 1.673350 0.000000 
#    z 0.004830 0.000000 1.766790 
# 
# From -- ./inp_files/250589.got.cif
#   From: 2010.06.25/outbox.cif.g09.slc.cpg/sg12_126_cif.got.tgz:250589.got - 2010.06.28 00:19:55.
