data_PCOD8085241
_publ_section_title
;
Structure prediction by ZEFSAII (Michael W. Deem and Ramdas Pophale) SiO2 
 PCOD8085241
Probable space group: C 2/M
;
_chemical_formula_sum "Si O2"
_cell_formula_units_Z 48
_cell_length_a 18.920462
_cell_length_b 9.083464
_cell_length_c 18.072525
_cell_angle_alpha 90.000000
_cell_angle_beta 59.206782
_cell_angle_gamma 90.000000
_cell_volume 2668.121477
_symmetry_space_group_name_H-M "C 2/M"
_symmetry_group_IT_number 12
_symmetry_cell_setting 'monoclinic'
loop_
_space_group_symop_operation_xyz
x,y,z
-x,y,-z
-x,-y,-z
x,-y,z
1/2+x,1/2+y,z
1/2-x,1/2+y,-z
1/2-x,1/2-y,-z
1/2+x,1/2-y,z
loop_
_atom_site_type_symbol
_atom_site_label
_atom_site_fract_x
_atom_site_fract_y
_atom_site_fract_z
Si Si1 0.650619 0.324266 0.303122
Si Si2 0.409793 0.339563 0.515609
Si Si3 0.034586 0.671179 0.813669
Si Si4 0.021610 0.176096 0.669205
Si Si5 0.321729 0.828893 0.147826
Si Si6 0.573228 0.334002 0.019112
O O1 0.652338 0.500000 0.309713
O O2 0.643600 0.257690 0.391436
O O3 0.572844 0.275859 0.295301
O O4 0.733561 0.265707 0.220631
O O5 0.500000 0.361024 0.500000
O O6 0.370323 0.500000 0.522647
O O7 0.419732 0.263215 0.429556
O O8 0.015915 0.500000 0.813164
O O9 0.114421 0.699122 0.820583
O O10 0.053594 0.746181 0.725478
O O11 0.954156 0.745163 0.893465
O O12 0.028284 0.000000 0.672868
O O13 0.317331 0.000000 0.129368
O O14 0.347377 0.742179 0.060079
O O15 0.595917 0.500000 0.030280
O O16 0.500000 0.331107 0.000000
#
# Coordination Sequence:
#
# PCOD8085241 Si02
#       6
#     8   8   8   8   8   8
#     4   8  14  27  48  70  89 114 151 189 221 256
#     4   7  11  22  43  68  88 111 148 187 217 251
#     4  10  19  30  45  66  93 121 147 178 221 272
#     4   9  16  28  48  70  90 115 151 190 220 252
#     4   9  17  30  48  68  90 117 148 182 222 267
#     4   9  17  30  48  67  87 114 150 187 220 260
#
# _framework density 17.990186000000001
#
# number of rings (size 3 to 8) (size 9 to 14) (size 15 to 20)
#    0.000    3.333    0.000    3.000    0.000    2.667 
#    0.000    2.500    0.000    5.500    0.000    0.000 
#    0.000    0.000    0.000    0.000    0.000    0.000 
#
# Total GULP energy -297346.886231 kJ/mol
# GULP energy per Si atom -12389.453593 kJ/mol
# Density = 1.794924 g / cm^3
# Si number density = 17.990186 Si / 1000 Ang^3
#
#
#
# Elastic Constant Matrix: (Units=GPa)
#
#
# Indices 1 2 3 4 5 6 
#
# 1 18.6431 7.9176 -3.2911 0.0000 -5.3386 -0.0002
# 2 7.9176 48.8767 9.3527 0.0000 4.3349 -0.0008
# 3 -3.2911 9.3527 41.8736 0.0000 -0.2141 0.0001
# 4 0.0000 0.0000 0.0000 20.8932 0.0000 3.2089
# 5 -5.3386 4.3349 -0.2141 0.0000 31.6406 0.0000
# 6 -0.0002 -0.0008 0.0001 3.2089 0.0000 11.6311
#
#
#
# Elastic Compliance Matrix: (Units=1/GPa)
#
#
# Indices 1 2 3 4 5 6 
#
# 1 0.064239 -0.013068 0.008033 0.000000 0.012684 0.000000
# 2 -0.013068 0.024313 -0.006486 0.000000 -0.005580 0.000002
# 3 0.008033 -0.006486 0.025974 0.000000 0.002420 -0.000001
# 4 0.000000 0.000000 0.000000 0.049980 0.000000 -0.013789
# 5 0.012684 -0.005580 0.002420 0.000000 0.034526 0.000000
# 6 0.000000 0.000002 -0.000001 -0.013789 0.000000 0.089781
#
#
# Mechanical properties :
#
#
# Convention : Reuss Voigt Hill
#
# Bulk Modulus (GPa) = 10.93105 15.26130 13.09618
# Shear Modulus (GPa) = 14.60495 19.19393 16.89944
#
# Velocity S-wave (km/s) = 2.85235 3.26990 3.06824
# Velocity P-wave (km/s) = 4.11548 4.77052 4.45506
#
# Compressibility (1/GPa) = 0.09148252
#
# Stress axis : x y z
#
# Youngs Moduli (GPa) = 15.56681 41.13093 38.50035
#
# Poissons Ratio (x) = 0.53751 -0.30926
# Poissons Ratio (y) = 0.20343 0.24971
# Poissons Ratio (z) = -0.12504 0.26677
#
# Static dielectric constant tensor:
#      x y z
#    x 2.961480 0.000000 -0.117940 
#    y 0.000000 3.009770 0.000000 
#    z -0.117940 0.000000 3.821980 
# 
# 
# High freq. dielectric constant tensor:
#      x y z
#    x 1.653480 0.000000 -0.001370 
#    y 0.000000 1.658920 0.000000 
#    z -0.001370 0.000000 1.720160 
# 
# From -- ./inp_files/274032.got.cif
#   From: 2010.06.25/outbox.cif.g09.slc.cpg/sg12_138_cif.got.tgz:274032.got - 2010.06.28 00:19:55.
