data_PCOD8085371
_publ_section_title
;
Structure prediction by ZEFSAII (Michael W. Deem and Ramdas Pophale) SiO2 
 PCOD8085371
Probable space group: C 2/M
;
_chemical_formula_sum "Si O2"
_cell_formula_units_Z 64
_cell_length_a 28.487085
_cell_length_b 9.081363
_cell_length_c 16.002716
_cell_angle_alpha 90.000000
_cell_angle_beta 116.998116
_cell_angle_gamma 90.000000
_cell_volume 3688.764290
_symmetry_space_group_name_H-M "C 2/M"
_symmetry_group_IT_number 12
_symmetry_cell_setting 'monoclinic'
loop_
_space_group_symop_operation_xyz
x,y,z
-x,y,-z
-x,-y,-z
x,-y,z
1/2+x,1/2+y,z
1/2-x,1/2+y,-z
1/2-x,1/2-y,-z
1/2+x,1/2-y,z
loop_
_atom_site_type_symbol
_atom_site_label
_atom_site_fract_x
_atom_site_fract_y
_atom_site_fract_z
Si Si1 0.218873 0.172422 0.092109
Si Si2 0.080114 0.170094 0.729440
Si Si3 0.359521 0.671750 0.637245
Si Si4 0.962500 0.169422 0.629666
Si Si5 0.671003 0.171936 0.899977
Si Si6 0.583576 0.168724 0.558222
Si Si7 0.708525 0.326537 0.269535
Si Si8 0.808178 0.668009 0.448814
O O1 0.280206 0.204230 0.122399
O O2 0.205693 0.237070 0.173401
O O3 0.206240 0.000000 0.073062
O O4 0.181435 0.258862 0.998709
O O5 0.118420 0.258043 0.820820
O O6 0.081467 0.232534 0.637905
O O7 0.020430 0.189021 0.715793
O O8 0.097197 0.000000 0.741550
O O9 0.352043 0.500000 0.617844
O O10 0.419461 0.720100 0.664484
O O11 0.344436 0.713777 0.720822
O O12 0.317435 0.745887 0.541947
O O13 0.957603 0.269441 0.543106
O O14 0.952623 0.000000 0.595346
O O15 0.661371 0.000000 0.903306
O O16 0.642179 0.182157 0.571319
O O17 0.568769 0.000000 0.566776
O O18 0.716842 0.500000 0.266846
O O19 0.758766 0.261778 0.359724
O O20 0.796907 0.500000 0.464309
#
# Coordination Sequence:
#
# PCOD8085371 Si02
#       8
#     8   8   8   8   8   8   8   8
#     4   9  18  34  53  73  98 123 147 183 234 284
#     4  11  21  32  48  68  93 126 160 194 234 276
#     4   9  17  30  47  67  92 124 161 195 226 265
#     4   9  19  33  46  65  95 127 160 198 233 267
#     4  10  20  34  52  74  98 121 149 187 230 281
#     4  10  19  30  46  69  97 127 159 194 232 278
#     4   9  16  28  49  71  92 122 156 189 228 275
#     4   9  17  29  44  67  99 128 153 186 230 274
#
# _framework density 17.349982000000001
#
# number of rings (size 3 to 8) (size 9 to 14) (size 15 to 20)
#    0.000    2.500    0.000    2.625    0.000    5.500 
#    0.000    1.250    0.000    0.750    0.000    5.250 
#    0.000    0.000    0.000    0.000    0.000    0.000 
#
# Total GULP energy -396760.589897 kJ/mol
# GULP energy per Si atom -12398.768434 kJ/mol
# Density = 1.731049 g / cm^3
# Si number density = 17.349982 Si / 1000 Ang^3
#
#
#
# Elastic Constant Matrix: (Units=GPa)
#
#
# Indices 1 2 3 4 5 6 
#
# 1 78.8943 38.0129 80.9487 0.0000 -3.3024 0.0000
# 2 38.0129 57.2112 46.6924 0.0000 1.5137 0.0000
# 3 80.9487 46.6924 125.5766 0.0000 -5.3131 0.0000
# 4 0.0000 0.0000 0.0000 27.6618 0.0000 2.6558
# 5 -3.3024 1.5137 -5.3131 0.0000 31.0859 0.0000
# 6 0.0000 0.0000 0.0000 2.6558 0.0000 17.9385
#
#
#
# Elastic Compliance Matrix: (Units=1/GPa)
#
#
# Indices 1 2 3 4 5 6 
#
# 1 0.039791 -0.007968 -0.022656 0.000000 0.000743 0.000000
# 2 -0.007968 0.026941 -0.005009 0.000000 -0.003014 0.000000
# 3 -0.022656 -0.005009 0.024516 0.000000 0.002027 0.000000
# 4 0.000000 0.000000 0.000000 0.036672 0.000000 -0.005429
# 5 0.000743 -0.003014 0.002027 0.000000 0.032741 0.000000
# 6 0.000000 0.000000 0.000000 -0.005429 0.000000 0.056550
#
#
# Mechanical properties :
#
#
# Convention : Reuss Voigt Hill
#
# Bulk Modulus (GPa) = 50.04266 65.88778 57.96522
# Shear Modulus (GPa) = 16.94130 21.73912 19.34021
#
# Velocity S-wave (km/s) = 3.12820 3.54358 3.34235
# Velocity P-wave (km/s) = 6.47713 7.40275 6.95536
#
# Compressibility (1/GPa) = 0.01998295
#
# Stress axis : x y z
#
# Youngs Moduli (GPa) = 25.13109 37.11880 40.78996
#
# Poissons Ratio (x) = 0.29575 0.92414
# Poissons Ratio (y) = 0.20024 0.20430
# Poissons Ratio (z) = 0.56937 0.18591
#
# Static dielectric constant tensor:
#      x y z
#    x 3.457120 0.000000 -0.029330 
#    y 0.000000 3.216770 0.000000 
#    z -0.029330 0.000000 3.171050 
# 
# 
# High freq. dielectric constant tensor:
#      x y z
#    x 1.673270 0.000000 -0.000450 
#    y 0.000000 1.663260 0.000000 
#    z -0.000450 0.000000 1.651140 
# 
# From -- ./inp_files/249133.got.cif
#   From: 2010.06.25/outbox.cif.g09.slc.cpg/sg12_125_cif.got.tgz:249133.got - 2010.06.28 00:19:55.
