data_PCOD8085486
_publ_section_title
;
Structure prediction by ZEFSAII (Michael W. Deem and Ramdas Pophale) SiO2 
 PCOD8085486
Probable space group: C 2/M
;
_chemical_formula_sum "Si O2"
_cell_formula_units_Z 48
_cell_length_a 19.055354
_cell_length_b 9.283012
_cell_length_c 17.981071
_cell_angle_alpha 90.000000
_cell_angle_beta 59.071384
_cell_angle_gamma 90.000000
_cell_volume 2728.423240
_symmetry_space_group_name_H-M "C 2/M"
_symmetry_group_IT_number 12
_symmetry_cell_setting 'monoclinic'
loop_
_space_group_symop_operation_xyz
x,y,z
-x,y,-z
-x,-y,-z
x,-y,z
1/2+x,1/2+y,z
1/2-x,1/2+y,-z
1/2-x,1/2-y,-z
1/2+x,1/2-y,z
loop_
_atom_site_type_symbol
_atom_site_label
_atom_site_fract_x
_atom_site_fract_y
_atom_site_fract_z
Si Si1 0.984211 0.334259 0.673125
Si Si2 0.669395 0.167989 0.342153
Si Si3 0.498061 0.168008 0.165481
Si Si4 0.582663 0.341374 0.001571
Si Si5 0.578968 0.662750 0.508718
Si Si6 0.344718 0.330388 0.186260
O O1 0.006240 0.500000 0.645880
O O2 0.897356 0.293838 0.684120
O O3 0.977257 0.300264 0.763606
O O4 0.057424 0.240253 0.598019
O O5 0.652530 0.254836 0.427267
O O6 0.756656 0.217886 0.263608
O O7 0.667968 0.000000 0.362663
O O8 0.572447 0.229300 0.074528
O O9 0.412473 0.244697 0.195561
O O10 0.488576 0.000000 0.153623
O O11 0.602887 0.500000 0.023373
O O12 0.500000 0.348338 0.000000
O O13 0.651747 0.292723 0.904211
O O14 0.500000 0.668630 0.500000
O O15 0.606761 0.500000 0.510338
O O16 0.360974 0.500000 0.188816
#
# Coordination Sequence:
#
# PCOD8085486 Si02
#       6
#     8   8   8   8   8   8
#     4   9  18  32  49  69  93 123 156 187 225 275
#     4   9  17  32  52  69  90 122 157 190 225 271
#     4  10  19  30  47  71  96 121 152 191 231 271
#     4   8  15  29  47  66  90 122 158 188 220 271
#     4   9  17  29  47  71  95 119 151 190 230 272
#     4   9  18  32  50  70  91 121 158 191 226 271
#
# _framework density 17.592578
#
# number of rings (size 3 to 8) (size 9 to 14) (size 15 to 20)
#    0.000    3.000    0.000    2.000    0.000    7.000 
#    0.000    1.667    0.000    0.000    0.000    0.000 
#    0.000    0.000    0.000    0.000    0.000    0.000 
#
# Total GULP energy -297535.612106 kJ/mol
# GULP energy per Si atom -12397.317171 kJ/mol
# Density = 1.755254 g / cm^3
# Si number density = 17.592578 Si / 1000 Ang^3
#
#
#
# Elastic Constant Matrix: (Units=GPa)
#
#
# Indices 1 2 3 4 5 6 
#
# 1 23.7241 13.1538 1.9280 -0.0001 -3.7288 -0.0002
# 2 13.1538 68.2455 26.5306 -0.0001 0.5162 -0.0006
# 3 1.9280 26.5306 58.3508 -0.0002 -9.4652 0.0002
# 4 -0.0001 -0.0001 -0.0002 34.1850 0.0000 0.8747
# 5 -3.7288 0.5162 -9.4652 0.0000 29.3140 0.0000
# 6 -0.0002 -0.0006 0.0002 0.8747 0.0000 17.4953
#
#
#
# Elastic Compliance Matrix: (Units=1/GPa)
#
#
# Indices 1 2 3 4 5 6 
#
# 1 0.049389 -0.011484 0.004898 0.000000 0.008066 0.000000
# 2 -0.011484 0.020739 -0.009863 0.000000 -0.005011 0.000001
# 3 0.004898 -0.009863 0.022783 0.000000 0.008153 -0.000001
# 4 0.000000 0.000000 0.000000 0.029290 0.000000 -0.001464
# 5 0.008066 -0.005011 0.008153 0.000000 0.037860 0.000000
# 6 0.000000 0.000001 -0.000001 -0.001464 0.000000 0.057231
#
#
# Mechanical properties :
#
#
# Convention : Reuss Voigt Hill
#
# Bulk Modulus (GPa) = 16.66330 25.94947 21.30638
# Shear Modulus (GPa) = 18.50528 23.44606 20.97567
#
# Velocity S-wave (km/s) = 3.24679 3.65461 3.45672
# Velocity P-wave (km/s) = 4.85261 5.70881 5.29803
#
# Compressibility (1/GPa) = 0.06001213
#
# Stress axis : x y z
#
# Youngs Moduli (GPa) = 20.24761 48.21935 43.89299
#
# Poissons Ratio (x) = 0.55378 -0.21500
# Poissons Ratio (y) = 0.23253 0.43290
# Poissons Ratio (z) = -0.09918 0.47557
#
# Static dielectric constant tensor:
#      x y z
#    x 2.892370 0.000000 -0.140190 
#    y 0.000000 3.327490 0.000000 
#    z -0.140190 0.000000 3.668190 
# 
# 
# High freq. dielectric constant tensor:
#      x y z
#    x 1.634300 0.000000 -0.005690 
#    y 0.000000 1.681410 0.000000 
#    z -0.005690 0.000000 1.696350 
# 
# From -- ./inp_files/274109.got.cif
#   From: 2010.06.25/outbox.cif.g09.slc.cpg/sg12_138_cif.got.tgz:274109.got - 2010.06.28 00:19:55.
