data_PCOD8085668
_publ_section_title
;
Structure prediction by ZEFSAII (Michael W. Deem and Ramdas Pophale) SiO2 
 PCOD8085668
Probable space group: C 2/M
;
_chemical_formula_sum "Si O2"
_cell_formula_units_Z 64
_cell_length_a 25.325170
_cell_length_b 10.134160
_cell_length_c 22.947717
_cell_angle_alpha 90.000000
_cell_angle_beta 36.389136
_cell_angle_gamma 90.000000
_cell_volume 3494.051162
_symmetry_space_group_name_H-M "C 2/M"
_symmetry_group_IT_number 12
_symmetry_cell_setting 'monoclinic'
loop_
_space_group_symop_operation_xyz
x,y,z
-x,y,-z
-x,-y,-z
x,-y,z
1/2+x,1/2+y,z
1/2-x,1/2+y,-z
1/2-x,1/2-y,-z
1/2+x,1/2-y,z
loop_
_atom_site_type_symbol
_atom_site_label
_atom_site_fract_x
_atom_site_fract_y
_atom_site_fract_z
Si Si1 0.622027 0.350409 0.674742
Si Si2 0.778240 0.851141 0.102250
Si Si3 0.882345 0.347707 0.827409
Si Si4 0.290438 0.846665 0.595453
Si Si5 0.297347 0.656183 0.214265
Si Si6 0.448133 0.853927 0.105718
Si Si7 0.927450 0.653686 0.381860
Si Si8 0.448715 0.731396 0.887392
O O1 0.639342 0.500000 0.636588
O O2 0.703552 0.289887 0.639634
O O3 0.614874 0.247420 0.628774
O O4 0.531535 0.356747 0.793054
O O5 0.703836 0.780868 0.127340
O O6 0.777996 0.786410 0.167053
O O7 0.746099 0.000000 0.140199
O O8 0.875915 0.852254 0.987458
O O9 0.863328 0.500000 0.855119
O O10 0.898001 0.288538 0.876793
O O11 0.966590 0.324050 0.709842
O O12 0.286935 0.814091 0.667877
O O13 0.383413 0.802655 0.482865
O O14 0.279832 0.000000 0.596576
O O15 0.321948 0.500000 0.191342
O O16 0.377920 0.735998 0.171583
O O17 0.515112 0.844197 0.101240
O O18 0.403905 0.000000 0.147538
O O19 0.500000 0.835756 0.000000
O O20 0.906890 0.500000 0.384797
#
# Coordination Sequence:
#
# PCOD8085668 Si02
#       8
#     8   8   8   8   8   8   8   8
#     4  10  19  30  48  75 107 133 168 213 255 309
#     4  10  20  33  51  74 101 135 179 217 250 301
#     4   9  19  34  50  73 101 134 176 218 257 302
#     4   9  17  31  50  75 102 133 170 213 258 308
#     4  10  20  35  54  76 104 139 174 213 256 306
#     4  11  22  35  51  77 110 141 173 211 255 312
#     4   9  18  33  52  71 101 137 171 213 264 306
#     4  11  19  32  52  74 104 142 170 208 258 308
#
# _framework density 18.316846999999999
#
# number of rings (size 3 to 8) (size 9 to 14) (size 15 to 20)
#    0.000    2.125    2.500    1.500    0.000    1.250 
#    0.000    1.250    0.000    7.500    0.000    0.000 
#    0.000    5.000    0.000    0.000    0.000    0.000 
#
# Total GULP energy -396470.135508 kJ/mol
# GULP energy per Si atom -12389.691735 kJ/mol
# Density = 1.827516 g / cm^3
# Si number density = 18.316847 Si / 1000 Ang^3
#
#
#
# Elastic Constant Matrix: (Units=GPa)
#
#
# Indices 1 2 3 4 5 6 
#
# 1 97.9296 20.7902 42.0927 -0.0003 11.2658 0.0004
# 2 20.7902 54.1090 19.6143 -0.0014 5.8215 0.0018
# 3 42.0927 19.6143 115.0536 -0.0003 19.8278 0.0003
# 4 -0.0003 -0.0014 -0.0003 14.8559 0.0000 0.5660
# 5 11.2658 5.8215 19.8278 0.0000 23.8538 -0.0001
# 6 0.0004 0.0018 0.0003 0.5660 -0.0001 17.5066
#
#
#
# Elastic Compliance Matrix: (Units=1/GPa)
#
#
# Indices 1 2 3 4 5 6 
#
# 1 0.012767 -0.003323 -0.003741 0.000000 -0.002109 0.000000
# 2 -0.003323 0.020677 -0.001996 0.000002 -0.001818 -0.000002
# 3 -0.003741 -0.001996 0.011686 0.000000 -0.007460 0.000000
# 4 0.000000 0.000002 0.000000 0.067397 -0.000001 -0.002179
# 5 -0.002109 -0.001818 -0.007460 -0.000001 0.049563 0.000001
# 6 0.000000 -0.000002 0.000000 -0.002179 0.000001 0.057192
#
#
# Mechanical properties :
#
#
# Convention : Reuss Voigt Hill
#
# Bulk Modulus (GPa) = 37.02189 48.00962 42.51576
# Shear Modulus (GPa) = 20.29182 23.54959 21.92070
#
# Velocity S-wave (km/s) = 3.33201 3.58953 3.46316
# Velocity P-wave (km/s) = 5.92105 6.59144 6.26522
#
# Compressibility (1/GPa) = 0.02701105
#
# Stress axis : x y z
#
# Youngs Moduli (GPa) = 78.32413 48.36292 85.57119
#
# Poissons Ratio (x) = 0.16069 0.32013
# Poissons Ratio (y) = 0.26024 0.17081
# Poissons Ratio (z) = 0.29302 0.09654
#
# Static dielectric constant tensor:
#      x y z
#    x 3.476360 0.000000 0.119180 
#    y 0.000000 3.102090 0.000000 
#    z 0.119180 0.000000 3.774740 
# 
# 
# High freq. dielectric constant tensor:
#      x y z
#    x 1.699100 0.000000 0.010840 
#    y 0.000000 1.679980 0.000000 
#    z 0.010840 0.000000 1.720460 
# 
# From -- ./inp_files/324942.got.cif
#   From: 2010.06.25/outbox.cif.g09.slc.cpg/sg12_163_cif.got.tgz:324942.got - 2010.06.28 00:19:55.
