data_PCOD8085609
_publ_section_title
;
Structure prediction by ZEFSAII (Michael W. Deem and Ramdas Pophale) SiO2 
 PCOD8085609
Probable space group: C 2/M
;
_chemical_formula_sum "Si O2"
_cell_formula_units_Z 64
_cell_length_a 29.852538
_cell_length_b 8.938732
_cell_length_c 15.029289
_cell_angle_alpha 90.000000
_cell_angle_beta 78.674662
_cell_angle_gamma 90.000000
_cell_volume 3932.380842
_symmetry_space_group_name_H-M "C 2/M"
_symmetry_group_IT_number 12
_symmetry_cell_setting 'monoclinic'
loop_
_space_group_symop_operation_xyz
x,y,z
-x,y,-z
-x,-y,-z
x,-y,z
1/2+x,1/2+y,z
1/2-x,1/2+y,-z
1/2-x,1/2-y,-z
1/2+x,1/2-y,z
loop_
_atom_site_type_symbol
_atom_site_label
_atom_site_fract_x
_atom_site_fract_y
_atom_site_fract_z
Si Si1 0.192548 0.676927 0.382481
Si Si2 0.812219 0.827123 0.925277
Si Si3 0.151643 0.673922 0.583544
Si Si4 0.552023 0.825610 0.559545
Si Si5 0.130615 0.172082 0.262171
Si Si6 0.462858 0.674489 0.620452
Si Si7 0.286825 0.825815 0.106874
Si Si8 0.792150 0.177068 0.289095
O O1 0.191307 0.500000 0.381867
O O2 0.176617 0.735389 0.485141
O O3 0.157623 0.729644 0.321769
O O4 0.243211 0.738392 0.342547
O O5 0.854352 0.787510 0.844050
O O6 0.765941 0.785816 0.890751
O O7 0.811652 0.000000 0.954063
O O8 0.817346 0.728304 0.011709
O O9 0.162896 0.500000 0.594030
O O10 0.097504 0.701778 0.598335
O O11 0.168664 0.768103 0.660240
O O12 0.508551 0.763365 0.632071
O O13 0.555386 0.735441 0.466390
O O14 0.545429 0.000000 0.540220
O O15 0.076472 0.202650 0.290973
O O16 0.142573 0.000000 0.278458
O O17 0.474367 0.500000 0.606472
O O18 0.303307 0.740180 0.187717
O O19 0.294815 0.000000 0.118640
O O20 0.792441 0.000000 0.284401
#
# Coordination Sequence:
#
# PCOD8085609 Si02
#       8
#     8   8   8   8   8   8   8   8
#     4  10  20  33  47  68  98 131 168 203 234 278
#     4   9  18  32  49  70  97 126 160 199 240 287
#     4  10  21  35  49  67  95 132 170 205 239 281
#     4  10  19  32  49  68  94 129 164 200 243 284
#     4  10  19  31  49  73  99 131 161 195 243 288
#     4  10  19  30  48  72  98 125 159 200 243 289
#     4  10  19  32  50  70  95 128 161 200 243 284
#     4  11  22  33  49  71  96 130 168 205 242 283
#
# _framework density 16.275127000000001
#
# number of rings (size 3 to 8) (size 9 to 14) (size 15 to 20)
#    0.000    2.000    2.500    2.625    0.000    3.500 
#    0.000    0.000    0.000    0.000    0.000    0.875 
#    0.000    7.000    0.000    0.000    0.000    0.000 
#
# Total GULP energy -396851.593658 kJ/mol
# GULP energy per Si atom -12401.612302 kJ/mol
# Density = 1.623808 g / cm^3
# Si number density = 16.275127 Si / 1000 Ang^3
#
#
#
# Elastic Constant Matrix: (Units=GPa)
#
#
# Indices 1 2 3 4 5 6 
#
# 1 87.5268 32.4769 55.6670 0.0000 -7.2327 0.0000
# 2 32.4769 53.7335 35.5672 0.0000 1.8324 0.0000
# 3 55.6670 35.5672 108.2888 0.0000 -6.0180 0.0000
# 4 0.0000 0.0000 0.0000 26.3742 0.0000 2.8453
# 5 -7.2327 1.8324 -6.0180 0.0000 24.9244 0.0000
# 6 0.0000 0.0000 0.0000 2.8453 0.0000 24.8232
#
#
#
# Elastic Compliance Matrix: (Units=1/GPa)
#
#
# Indices 1 2 3 4 5 6 
#
# 1 0.018901 -0.006763 -0.007260 0.000000 0.004229 0.000000
# 2 -0.006763 0.026538 -0.005532 0.000000 -0.005249 0.000000
# 3 -0.007260 -0.005532 0.014889 0.000000 0.001895 0.000000
# 4 0.000000 0.000000 0.000000 0.038391 0.000000 -0.004400
# 5 0.004229 -0.005249 0.001895 0.000000 0.042192 0.000000
# 6 0.000000 0.000000 0.000000 -0.004400 0.000000 0.040789
#
#
# Mechanical properties :
#
#
# Convention : Reuss Voigt Hill
#
# Bulk Modulus (GPa) = 47.12674 55.21901 51.17288
# Shear Modulus (GPa) = 21.94111 23.61357 22.77734
#
# Velocity S-wave (km/s) = 3.67568 3.81320 3.74507
# Velocity P-wave (km/s) = 6.85809 7.30681 7.08600
#
# Compressibility (1/GPa) = 0.02121937
#
# Stress axis : x y z
#
# Youngs Moduli (GPa) = 52.90641 37.68133 67.16383
#
# Poissons Ratio (x) = 0.25482 0.48762
# Poissons Ratio (y) = 0.35779 0.37154
# Poissons Ratio (z) = 0.38411 0.20845
#
# Static dielectric constant tensor:
#      x y z
#    x 3.077070 0.000000 -0.243310 
#    y 0.000000 3.109680 0.000000 
#    z -0.243310 0.000000 3.049400 
# 
# 
# High freq. dielectric constant tensor:
#      x y z
#    x 1.608640 0.000000 -0.014390 
#    y 0.000000 1.634700 0.000000 
#    z -0.014390 0.000000 1.612070 
# 
# From -- ./inp_files/248272.got.cif
#   From: 2010.06.25/outbox.cif.g09.slc.cpg/sg12_125_cif.got.tgz:248272.got - 2010.06.28 00:19:55.
