data_PCOD8085381
_publ_section_title
;
Structure prediction by ZEFSAII (Michael W. Deem and Ramdas Pophale) SiO2 
 PCOD8085381
Probable space group: C 2/M
;
_chemical_formula_sum "Si O2"
_cell_formula_units_Z 48
_cell_length_a 20.675878
_cell_length_b 8.881471
_cell_length_c 16.712578
_cell_angle_alpha 90.000000
_cell_angle_beta 116.358869
_cell_angle_gamma 90.000000
_cell_volume 2749.889291
_symmetry_space_group_name_H-M "C 2/M"
_symmetry_group_IT_number 12
_symmetry_cell_setting 'monoclinic'
loop_
_space_group_symop_operation_xyz
x,y,z
-x,y,-z
-x,-y,-z
x,-y,z
1/2+x,1/2+y,z
1/2-x,1/2+y,-z
1/2-x,1/2-y,-z
1/2+x,1/2-y,z
loop_
_atom_site_type_symbol
_atom_site_label
_atom_site_fract_x
_atom_site_fract_y
_atom_site_fract_z
Si Si1 0.452906 0.823665 0.048813
Si Si2 0.822695 0.676851 0.224244
Si Si3 0.531533 0.673432 0.411263
Si Si4 0.897737 0.325193 0.421635
Si Si5 0.286642 0.177077 0.943478
Si Si6 0.041362 0.174157 0.785118
O O1 0.482917 0.738472 0.143140
O O2 0.462603 0.000000 0.068895
O O3 0.500000 0.767842 0.000000
O O4 0.370375 0.779648 0.987082
O O5 0.818517 0.500000 0.204734
O O6 0.831736 0.710002 0.324537
O O7 0.749085 0.756500 0.156547
O O8 0.888652 0.739025 0.208042
O O9 0.519566 0.500000 0.427588
O O10 0.468714 0.775084 0.413361
O O11 0.605492 0.733789 0.494969
O O12 0.527320 0.694828 0.312967
O O13 0.901127 0.500000 0.444132
O O14 0.274479 0.000000 0.940037
O O15 0.250000 0.250000 0.000000
O O16 0.062776 0.000000 0.804407
#
# Coordination Sequence:
#
# PCOD8085381 Si02
#       6
#     8   8   8   8   8   8
#     4  10  22  38  53  71  98 132 168 206 248 296
#     4  10  19  30  46  70 100 131 164 202 244 292
#     4   9  16  25  39  62  93 125 157 195 241 290
#     4   9  16  25  39  62  92 126 160 194 237 287
#     4  11  21  33  52  75  99 129 166 205 248 298
#     4  10  19  30  47  71  97 129 166 203 247 294
#
# _framework density 17.455248000000001
#
# number of rings (size 3 to 8) (size 9 to 14) (size 15 to 20)
#    0.000    2.167    1.667    3.500    0.000    5.000 
#    0.000    0.000    0.000    0.000    0.000    1.167 
#    0.000    0.000    0.000    0.000    0.000    0.000 
#
# Total GULP energy -297427.370556 kJ/mol
# GULP energy per Si atom -12392.807107 kJ/mol
# Density = 1.741552 g / cm^3
# Si number density = 17.455248 Si / 1000 Ang^3
#
#
#
# Elastic Constant Matrix: (Units=GPa)
#
#
# Indices 1 2 3 4 5 6 
#
# 1 64.9747 33.7851 49.5795 0.0000 -4.4564 0.0000
# 2 33.7851 70.7142 69.9459 0.0000 -4.4660 0.0000
# 3 49.5795 69.9459 182.3716 0.0000 -5.8886 0.0000
# 4 0.0000 0.0000 0.0000 36.6353 0.0000 0.9085
# 5 -4.4564 -4.4660 -5.8886 0.0000 14.1382 0.0000
# 6 0.0000 0.0000 0.0000 0.9085 0.0000 10.8355
#
#
#
# Elastic Compliance Matrix: (Units=1/GPa)
#
#
# Indices 1 2 3 4 5 6 
#
# 1 0.021644 -0.007118 -0.003047 0.000000 0.003305 0.000000
# 2 -0.007118 0.025309 -0.007690 0.000000 0.002548 0.000000
# 3 -0.003047 -0.007690 0.009276 0.000000 0.000474 0.000000
# 4 0.000000 0.000000 0.000000 0.027353 0.000000 -0.002293
# 5 0.003305 0.002548 0.000474 0.000000 0.072774 0.000000
# 6 0.000000 0.000000 0.000000 -0.002293 0.000000 0.092482
#
#
# Mechanical properties :
#
#
# Convention : Reuss Voigt Hill
#
# Bulk Modulus (GPa) = 48.73396 69.40908 59.07152
# Shear Modulus (GPa) = 17.15929 23.30512 20.23220
#
# Velocity S-wave (km/s) = 3.13876 3.65791 3.40823
# Velocity P-wave (km/s) = 6.41215 7.59545 7.02874
#
# Compressibility (1/GPa) = 0.02051957
#
# Stress axis : x y z
#
# Youngs Moduli (GPa) = 46.20299 39.51157 107.80109
#
# Poissons Ratio (x) = 0.28123 0.32852
# Poissons Ratio (y) = 0.32885 0.82895
# Poissons Ratio (z) = 0.14080 0.30383
#
# Static dielectric constant tensor:
#      x y z
#    x 2.705060 0.000000 0.078230 
#    y 0.000000 3.347590 0.000000 
#    z 0.078230 0.000000 4.367510 
# 
# 
# High freq. dielectric constant tensor:
#      x y z
#    x 1.592350 0.000000 0.001500 
#    y 0.000000 1.691130 0.000000 
#    z 0.001500 0.000000 1.708110 
# 
# From -- ./inp_files/280532.got.cif
#   From: 2010.06.25/outbox.cif.g09.slc.cpg/sg12_141_cif.got.tgz:280532.got - 2010.06.28 00:19:55.
