data_PCOD8085952
_publ_section_title
;
Structure prediction by ZEFSAII (Michael W. Deem and Ramdas Pophale) SiO2 
 PCOD8085952
Probable space group: C 2/M
;
_chemical_formula_sum "Si O2"
_cell_formula_units_Z 48
_cell_length_a 18.075489
_cell_length_b 37.751245
_cell_length_c 5.132454
_cell_angle_alpha 90.000000
_cell_angle_beta 51.923983
_cell_angle_gamma 90.000000
_cell_volume 2756.942777
_symmetry_space_group_name_H-M "C 2/M"
_symmetry_group_IT_number 12
_symmetry_cell_setting 'monoclinic'
loop_
_space_group_symop_operation_xyz
x,y,z
-x,y,-z
-x,-y,-z
x,-y,z
1/2+x,1/2+y,z
1/2-x,1/2+y,-z
1/2-x,1/2-y,-z
1/2+x,1/2-y,z
loop_
_atom_site_type_symbol
_atom_site_label
_atom_site_fract_x
_atom_site_fract_y
_atom_site_fract_z
Si Si1 0.111351 0.417688 0.757207
Si Si2 0.699532 0.842234 0.574183
Si Si3 0.330435 0.799607 0.843893
Si Si4 0.094617 0.817166 0.883426
Si Si5 0.388879 0.039350 0.743261
Si Si6 0.123696 0.224130 0.307685
O O1 0.168182 0.382094 0.686869
O O2 0.145255 0.435108 0.414045
O O3 0.143080 0.444550 0.913442
O O4 0.000000 0.409951 0.000000
O O5 0.646832 0.828286 0.429756
O O6 0.813719 0.842167 0.299797
O O7 0.664380 0.818180 0.888401
O O8 0.400358 0.765872 0.677554
O O9 0.229398 0.784145 0.988955
O O10 0.110667 0.786443 0.635170
O O11 0.064996 0.798178 0.219888
O O12 0.000000 0.838808 0.000000
O O13 0.500000 0.036193 0.500000
O O14 0.345043 0.000000 0.806190
#
# Coordination Sequence:
#
# PCOD8085952 Si02
#       6
#     8   8   8   8   8   8
#     4  10  19  31  46  67  95 121 146 173 209 260
#     4  10  19  31  47  65  91 121 145 179 225 269
#     4   9  17  30  46  62  83 114 149 185 228 271
#     4  10  19  31  46  65  87 113 151 194 231 261
#     4   9  17  30  49  70  92 118 145 175 209 249
#     4   9  17  30  47  62  80 111 150 193 234 266
#
# _framework density 17.410589000000002
#
# number of rings (size 3 to 8) (size 9 to 14) (size 15 to 20)
#    0.000    2.500    0.000    3.000    0.000    6.000 
#    0.000    5.000    0.000    0.000    0.000    0.000 
#    0.000    4.000    0.000    0.000    0.000    0.000 
#
# Total GULP energy -297468.962371 kJ/mol
# GULP energy per Si atom -12394.540099 kJ/mol
# Density = 1.737096 g / cm^3
# Si number density = 17.410589 Si / 1000 Ang^3
#
#
#
# Elastic Constant Matrix: (Units=GPa)
#
#
# Indices 1 2 3 4 5 6 
#
# 1 59.1140 25.6756 27.6786 0.0000 8.9477 0.0000
# 2 25.6756 95.7972 24.2636 0.0000 -1.6674 0.0000
# 3 27.6786 24.2636 65.9655 0.0000 22.1810 0.0000
# 4 0.0000 0.0000 0.0000 10.4889 0.0000 5.6782
# 5 8.9477 -1.6674 22.1810 0.0000 27.9434 0.0000
# 6 0.0000 0.0000 0.0000 5.6782 0.0000 12.5009
#
#
#
# Elastic Compliance Matrix: (Units=1/GPa)
#
#
# Indices 1 2 3 4 5 6 
#
# 1 0.022403 -0.004178 -0.007322 0.000000 -0.001611 0.000000
# 2 -0.004178 0.012951 -0.005075 0.000000 0.006139 0.000000
# 3 -0.007322 -0.005075 0.026479 0.000000 -0.018977 0.000000
# 4 0.000000 0.000000 0.000000 0.126427 0.000000 -0.057426
# 5 -0.001611 0.006139 -0.018977 0.000000 0.051732 0.000000
# 6 0.000000 0.000000 0.000000 -0.057426 0.000000 0.106078
#
#
# Mechanical properties :
#
#
# Convention : Reuss Voigt Hill
#
# Bulk Modulus (GPa) = 34.86226 41.79024 38.32625
# Shear Modulus (GPa) = 12.86073 19.73724 16.29899
#
# Velocity S-wave (km/s) = 2.72080 3.37060 3.06298
# Velocity P-wave (km/s) = 5.47151 6.26122 5.87964
#
# Compressibility (1/GPa) = 0.02868431
#
# Stress axis : x y z
#
# Youngs Moduli (GPa) = 44.63639 77.21600 37.76563
#
# Poissons Ratio (x) = 0.32262 0.27651
# Poissons Ratio (y) = 0.18650 0.19164
# Poissons Ratio (z) = 0.32681 0.39184
#
# Static dielectric constant tensor:
#      x y z
#    x 3.310680 0.000000 0.153780 
#    y 0.000000 3.111790 0.000000 
#    z 0.153780 0.000000 3.367130 
# 
# 
# High freq. dielectric constant tensor:
#      x y z
#    x 1.665580 0.000000 0.029080 
#    y 0.000000 1.645900 0.000000 
#    z 0.029080 0.000000 1.673880 
# 
# From -- ./inp_files/17197.got.cif
#   From: 2010.06.25/outbox.cif.g09.slc.cpg/sg12_9_cif.got.tgz:17197.got - 2010.06.28 00:19:55.
