data_PCOD8085921
_publ_section_title
;
Structure prediction by ZEFSAII (Michael W. Deem and Ramdas Pophale) SiO2 
 PCOD8085921
Probable space group: C 2/M
;
_chemical_formula_sum "Si O2"
_cell_formula_units_Z 64
_cell_length_a 24.569739
_cell_length_b 9.460487
_cell_length_c 20.864069
_cell_angle_alpha 90.000000
_cell_angle_beta 51.956780
_cell_angle_gamma 90.000000
_cell_volume 3819.346330
_symmetry_space_group_name_H-M "C 2/M"
_symmetry_group_IT_number 12
_symmetry_cell_setting 'monoclinic'
loop_
_space_group_symop_operation_xyz
x,y,z
-x,y,-z
-x,-y,-z
x,-y,z
1/2+x,1/2+y,z
1/2-x,1/2+y,-z
1/2-x,1/2-y,-z
1/2+x,1/2-y,z
loop_
_atom_site_type_symbol
_atom_site_label
_atom_site_fract_x
_atom_site_fract_y
_atom_site_fract_z
Si Si1 0.827421 0.163683 0.113807
Si Si2 0.674964 0.167827 0.235224
Si Si3 0.956562 0.331821 0.470980
Si Si4 0.664307 0.663912 0.741780
Si Si5 0.468439 0.831716 0.709518
Si Si6 0.536534 0.166665 0.790529
Si Si7 0.451406 0.165496 0.977263
Si Si8 0.682902 0.167560 0.371630
O O1 0.749335 0.212853 0.152347
O O2 0.841340 0.192599 0.178460
O O3 0.839103 0.000000 0.088962
O O4 0.878701 0.254733 0.033248
O O5 0.611001 0.222683 0.238515
O O6 0.666523 0.230344 0.313037
O O7 0.673281 0.000000 0.241186
O O8 0.961351 0.500000 0.466553
O O9 0.876627 0.280834 0.536065
O O10 0.000000 0.273755 0.500000
O O11 0.987128 0.271074 0.382455
O O12 0.650423 0.500000 0.736662
O O13 0.609920 0.757811 0.743138
O O14 0.740285 0.712716 0.661655
O O15 0.500287 0.775537 0.752536
O O16 0.469955 0.000000 0.707781
O O17 0.487424 0.208163 0.884972
O O18 0.550139 0.000000 0.778572
O O19 0.436246 0.000000 0.992901
O O20 0.500000 0.216325 0.000000
O O21 0.681657 0.000000 0.366535
#
# Coordination Sequence:
#
# PCOD8085921 Si02
#       8
#     8   8   8   8   8   8   8   8
#     4   9  17  28  47  71  89 109 145 191 229 263
#     4   8  13  24  41  64  91 114 139 179 230 269
#     4   9  13  20  39  67  94 116 142 181 224 262
#     4   9  17  29  45  66  92 120 146 180 226 266
#     4   9  16  26  42  64  92 122 147 178 223 268
#     4  10  20  32  45  64  91 122 153 183 219 265
#     4  10  19  31  45  62  88 121 154 187 220 257
#     4   8  13  22  39  65  93 115 141 180 225 266
#
# _framework density 16.756793999999999
#
# number of rings (size 3 to 8) (size 9 to 14) (size 15 to 20)
#    0.000    3.000    2.500    1.500    0.000    0.750 
#    0.000    1.250    0.000    0.750    0.000    0.000 
#    0.000    1.000    0.000    0.000    0.000    0.000 
#
# Total GULP energy -396595.697342 kJ/mol
# GULP energy per Si atom -12393.615542 kJ/mol
# Density = 1.671865 g / cm^3
# Si number density = 16.756794 Si / 1000 Ang^3
#
#
#
# Elastic Constant Matrix: (Units=GPa)
#
#
# Indices 1 2 3 4 5 6 
#
# 1 149.6225 29.8983 86.4812 0.0008 -16.3782 -0.0009
# 2 29.8983 18.4805 26.0538 0.0034 -6.9174 -0.0045
# 3 86.4812 26.0538 126.6082 0.0004 -15.9947 -0.0012
# 4 0.0008 0.0034 0.0004 5.1898 -0.0004 -1.8769
# 5 -16.3782 -6.9174 -15.9947 -0.0004 33.6304 0.0007
# 6 -0.0009 -0.0045 -0.0012 -1.8769 0.0007 14.7412
#
#
#
# Elastic Compliance Matrix: (Units=1/GPa)
#
#
# Indices 1 2 3 4 5 6 
#
# 1 0.012620 -0.011401 -0.006164 0.000005 0.000869 -0.000003
# 2 -0.011401 0.089021 -0.009490 -0.000049 0.008245 0.000019
# 3 -0.006164 -0.009490 0.014295 0.000006 0.001845 -0.000001
# 4 0.000005 -0.000049 0.000006 0.201986 -0.000003 0.025717
# 5 0.000869 0.008245 0.001845 -0.000003 0.032732 0.000001
# 6 -0.000003 0.000019 -0.000001 0.025717 0.000001 0.071112
#
#
# Mechanical properties :
#
#
# Convention : Reuss Voigt Hill
#
# Bulk Modulus (GPa) = 16.17453 64.39752 40.28603
# Shear Modulus (GPa) = 10.07084 20.86414 15.46749
#
# Velocity S-wave (km/s) = 2.45419 3.53245 3.04148
# Velocity P-wave (km/s) = 4.20764 7.42642 6.03556
#
# Compressibility (1/GPa) = 0.06182558
#
# Stress axis : x y z
#
# Youngs Moduli (GPa) = 79.24162 11.23331 69.95611
#
# Poissons Ratio (x) = 0.12807 0.43121
# Poissons Ratio (y) = 0.90344 0.66387
# Poissons Ratio (z) = 0.48845 0.10660
#
# Static dielectric constant tensor:
#      x y z
#    x 3.296520 0.000000 -0.198370 
#    y 0.000000 2.600120 0.000000 
#    z -0.198370 0.000000 3.295590 
# 
# 
# High freq. dielectric constant tensor:
#      x y z
#    x 1.642800 0.000000 -0.021170 
#    y 0.000000 1.586420 0.000000 
#    z -0.021170 0.000000 1.646370 
# 
# From -- ./inp_files/324756.got.cif
#   From: 2010.06.25/outbox.cif.g09.slc.cpg/sg12_163_cif.got.tgz:324756.got - 2010.06.28 00:19:55.
