data_PCOD8085901
_publ_section_title
;
Structure prediction by ZEFSAII (Michael W. Deem and Ramdas Pophale) SiO2 
 PCOD8085901
Probable space group: C 2/M
;
_chemical_formula_sum "Si O2"
_cell_formula_units_Z 64
_cell_length_a 27.664352
_cell_length_b 11.055210
_cell_length_c 19.599435
_cell_angle_alpha 90.000000
_cell_angle_beta 146.080003
_cell_angle_gamma 90.000000
_cell_volume 3344.970584
_symmetry_space_group_name_H-M "C 2/M"
_symmetry_group_IT_number 12
_symmetry_cell_setting 'monoclinic'
loop_
_space_group_symop_operation_xyz
x,y,z
-x,y,-z
-x,-y,-z
x,-y,z
1/2+x,1/2+y,z
1/2-x,1/2+y,-z
1/2-x,1/2-y,-z
1/2+x,1/2-y,z
loop_
_atom_site_type_symbol
_atom_site_label
_atom_site_fract_x
_atom_site_fract_y
_atom_site_fract_z
Si Si1 0.280419 0.363042 0.214554
Si Si2 0.453533 0.259350 0.376381
Si Si3 0.553296 0.141372 0.132102
Si Si4 0.351451 0.127517 0.154707
Si Si5 0.994858 0.862616 0.825321
Si Si6 0.248034 0.357762 0.325427
Si Si7 0.173414 0.199645 0.989866
Si Si8 0.578999 0.358504 0.407716
O O1 0.248701 0.500000 0.178621
O O2 0.380718 0.359945 0.308496
O O3 0.268790 0.301640 0.275340
O O4 0.215177 0.298710 0.087394
O O5 0.500000 0.218232 0.500000
O O6 0.401659 0.145732 0.284795
O O7 0.520755 0.302331 0.398610
O O8 0.519485 0.248508 0.141448
O O9 0.652932 0.179185 0.238416
O O10 0.545333 0.000000 0.150073
O O11 0.500000 0.150548 0.000000
O O12 0.373561 0.234024 0.128629
O O13 0.381554 0.000000 0.158431
O O14 0.248667 0.114931 0.048939
O O15 0.948454 0.823140 0.700768
O O16 0.098369 0.876926 0.937802
O O17 0.963954 0.000000 0.812754
O O18 0.254764 0.500000 0.325898
O O19 0.321628 0.313020 0.464963
O O20 0.570432 0.500000 0.407951
#
# Coordination Sequence:
#
# PCOD8085901 Si02
#       8
#     8   8   8   8   8   8   8   8
#     4  10  19  30  54  86 114 148 192 241 292 342
#     4  11  20  33  54  82 114 155 202 240 286 348
#     4  10  22  41  65  91 118 150 194 247 298 352
#     4  10  21  35  51  75 112 154 196 241 289 346
#     4  11  23  39  61  88 120 156 193 242 299 355
#     4   9  18  34  56  83 114 148 187 242 298 342
#     4  10  20  35  53  79 109 152 191 237 289 349
#     4  10  20  35  55  84 120 153 190 239 292 347
#
# _framework density 19.133203999999999
#
# number of rings (size 3 to 8) (size 9 to 14) (size 15 to 20)
#    0.000    1.875    2.500    1.875    0.000    3.500 
#    0.000    0.000    0.000    1.500    0.000    0.000 
#    0.000    0.000    0.000    0.000    0.000    0.000 
#
# Total GULP energy -396455.937730 kJ/mol
# GULP energy per Si atom -12389.248054 kJ/mol
# Density = 1.908966 g / cm^3
# Si number density = 19.133204 Si / 1000 Ang^3
#
#
#
# Elastic Constant Matrix: (Units=GPa)
#
#
# Indices 1 2 3 4 5 6 
#
# 1 77.8427 38.5795 34.2696 0.0000 1.0733 0.0000
# 2 38.5795 87.8578 28.5359 0.0000 -8.6921 0.0000
# 3 34.2696 28.5359 120.5376 0.0000 -6.6546 0.0000
# 4 0.0000 0.0000 0.0000 2.5103 0.0000 4.6443
# 5 1.0733 -8.6921 -6.6546 0.0000 36.0393 0.0000
# 6 0.0000 0.0000 0.0000 4.6443 0.0000 8.9151
#
#
#
# Elastic Compliance Matrix: (Units=1/GPa)
#
#
# Indices 1 2 3 4 5 6 
#
# 1 0.017938 -0.006992 -0.003604 0.000000 -0.002886 0.000000
# 2 -0.006992 0.015275 -0.001428 0.000000 0.003629 0.000000
# 3 -0.003604 -0.001428 0.009745 0.000000 0.001562 0.000000
# 4 0.000000 0.000000 0.000000 11.002903 0.000000 -5.731897
# 5 -0.002886 0.003629 0.001562 0.000000 0.028997 0.000000
# 6 0.000000 0.000000 0.000000 -5.731897 0.000000 3.098167
#
#
# Mechanical properties :
#
#
# Convention : Reuss Voigt Hill
#
# Bulk Modulus (GPa) = 52.88059 54.33423 53.60741
# Shear Modulus (GPa) = 0.35203 21.81648 11.08426
#
# Velocity S-wave (km/s) = 0.42940 3.38041 2.40952
# Velocity P-wave (km/s) = 5.28621 6.61028 5.98497
#
# Compressibility (1/GPa) = 0.01891053
#
# Stress axis : x y z
#
# Youngs Moduli (GPa) = 55.74744 65.46626 102.61533
#
# Poissons Ratio (x) = 0.45773 0.36983
# Poissons Ratio (y) = 0.38977 0.14654
# Poissons Ratio (z) = 0.20091 0.09349
#
# Static dielectric constant tensor:
#      x y z
#    x 3.492450 0.000000 -0.019110 
#    y 0.000000 3.226670 0.000000 
#    z -0.019110 0.000000 3.886400 
# 
# 
# High freq. dielectric constant tensor:
#      x y z
#    x 1.730110 0.000000 -0.004040 
#    y 0.000000 1.719110 0.000000 
#    z -0.004040 0.000000 1.764010 
# 
# From -- ./inp_files/283264.got.cif
#   From: 2010.06.25/outbox.cif.g09.slc.cpg/sg12_142_cif.got.tgz:283264.got - 2010.06.28 00:19:55.
