data_PCOD8085342
_publ_section_title
;
Structure prediction by ZEFSAII (Michael W. Deem and Ramdas Pophale) SiO2 
 PCOD8085342
Probable space group: C 2/M
;
_chemical_formula_sum "Si O2"
_cell_formula_units_Z 56
_cell_length_a 27.010500
_cell_length_b 8.620142
_cell_length_c 15.948525
_cell_angle_alpha 90.000000
_cell_angle_beta 114.878573
_cell_angle_gamma 90.000000
_cell_volume 3368.769388
_symmetry_space_group_name_H-M "C 2/M"
_symmetry_group_IT_number 12
_symmetry_cell_setting 'monoclinic'
loop_
_space_group_symop_operation_xyz
x,y,z
-x,y,-z
-x,-y,-z
x,-y,z
1/2+x,1/2+y,z
1/2-x,1/2+y,-z
1/2-x,1/2-y,-z
1/2+x,1/2-y,z
loop_
_atom_site_type_symbol
_atom_site_label
_atom_site_fract_x
_atom_site_fract_y
_atom_site_fract_z
Si Si1 0.312897 0.319534 0.453017
Si Si2 0.420040 0.818846 0.466817
Si Si3 0.699542 0.680598 0.364813
Si Si4 0.512514 0.819709 0.811301
Si Si5 0.484552 0.318644 0.365727
Si Si6 0.440838 0.674721 0.998369
Si Si7 0.604203 0.180100 0.191811
O O1 0.323673 0.500000 0.446405
O O2 0.356870 0.223335 0.431633
O O3 0.318353 0.271608 0.554281
O O4 0.253184 0.275578 0.376239
O O5 0.454812 0.729223 0.562218
O O6 0.439572 0.771694 0.388149
O O7 0.429275 0.000000 0.486945
O O8 0.713695 0.500000 0.370610
O O9 0.651314 0.719974 0.267419
O O10 0.524164 0.721683 0.736960
O O11 0.451538 0.784466 0.798966
O O12 0.521100 0.000000 0.798768
O O13 0.556431 0.764950 0.911618
O O14 0.476495 0.500000 0.374336
O O15 0.419220 0.500000 0.997124
O O16 0.400198 0.766791 0.907904
O O17 0.500000 0.671768 0.000000
O O18 0.619393 0.000000 0.206210
#
# Coordination Sequence:
#
# PCOD8085342 Si02
#       7
#     8   8   8   8   8   8   8
#     4  10  20  34  50  69  95 125 158 196 236 278
#     4  11  21  34  50  69  95 125 158 196 237 278
#     4  10  20  32  48  70  95 125 160 195 233 279
#     4  10  19  31  47  69  97 127 159 194 235 281
#     4  11  21  33  49  70  95 125 161 195 233 279
#     4   9  17  29  45  66  93 124 157 193 234 280
#     4  10  19  30  46  68  96 128 159 194 235 280
#
# _framework density 16.623280999999999
#
# number of rings (size 3 to 8) (size 9 to 14) (size 15 to 20)
#    0.000    1.857    0.000    6.429    0.000    7.429 
#    0.000    0.000    0.000    0.000    0.000    1.000 
#    0.000    0.000    0.000    0.000    0.000    0.000 
#
# Total GULP energy -347319.440452 kJ/mol
# GULP energy per Si atom -12404.265730 kJ/mol
# Density = 1.658545 g / cm^3
# Si number density = 16.623281 Si / 1000 Ang^3
#
#
#
# Elastic Constant Matrix: (Units=GPa)
#
#
# Indices 1 2 3 4 5 6 
#
# 1 66.4293 23.3696 26.7471 0.0000 1.2172 0.0000
# 2 23.3696 71.9394 20.0358 0.0000 -1.5034 0.0000
# 3 26.7471 20.0358 100.6099 0.0000 -1.7907 0.0000
# 4 0.0000 0.0000 0.0000 31.9538 0.0000 0.7458
# 5 1.2172 -1.5034 -1.7907 0.0000 17.8484 0.0000
# 6 0.0000 0.0000 0.0000 0.7458 0.0000 25.9466
#
#
#
# Elastic Compliance Matrix: (Units=1/GPa)
#
#
# Indices 1 2 3 4 5 6 
#
# 1 0.018415 -0.004925 -0.003952 0.000000 -0.002067 0.000000
# 2 -0.004925 0.016050 -0.001860 0.000000 0.001501 0.000000
# 3 -0.003952 -0.001860 0.011383 0.000000 0.001255 0.000000
# 4 0.000000 0.000000 0.000000 0.031316 0.000000 -0.000900
# 5 -0.002067 0.001501 0.001255 0.000000 0.056421 0.000000
# 6 0.000000 0.000000 0.000000 -0.000900 0.000000 0.038567
#
#
# Mechanical properties :
#
#
# Convention : Reuss Voigt Hill
#
# Bulk Modulus (GPa) = 41.02693 42.14262 41.58477
# Shear Modulus (GPa) = 24.78322 26.40483 25.59402
#
# Velocity S-wave (km/s) = 3.86537 3.98983 3.92809
# Velocity P-wave (km/s) = 6.68247 6.82873 6.75600
#
# Compressibility (1/GPa) = 0.02437423
#
# Stress axis : x y z
#
# Youngs Moduli (GPa) = 54.30320 62.30581 87.85233
#
# Poissons Ratio (x) = 0.30684 0.34717
# Poissons Ratio (y) = 0.26743 0.16343
# Poissons Ratio (z) = 0.21459 0.11590
#
# Static dielectric constant tensor:
#      x y z
#    x 2.881490 0.000000 -0.028120 
#    y 0.000000 3.265070 0.000000 
#    z -0.028120 0.000000 3.128730 
# 
# 
# High freq. dielectric constant tensor:
#      x y z
#    x 1.607010 0.000000 -0.001280 
#    y 0.000000 1.661920 0.000000 
#    z -0.001280 0.000000 1.635140 
# 
# From -- ./inp_files/237889.got.cif
#   From: 2010.06.25/outbox.cif.g09.slc.cpg/sg12_119_cif.got.tgz:237889.got - 2010.06.28 00:19:55.
