data_PCOD8085347
_publ_section_title
;
Structure prediction by ZEFSAII (Michael W. Deem and Ramdas Pophale) SiO2 
 PCOD8085347
Probable space group: C 2/M
;
_chemical_formula_sum "Si O2"
_cell_formula_units_Z 56
_cell_length_a 24.149108
_cell_length_b 8.976740
_cell_length_c 17.832923
_cell_angle_alpha 90.000000
_cell_angle_beta 117.458145
_cell_angle_gamma 90.000000
_cell_volume 3430.332391
_symmetry_space_group_name_H-M "C 2/M"
_symmetry_group_IT_number 12
_symmetry_cell_setting 'monoclinic'
loop_
_space_group_symop_operation_xyz
x,y,z
-x,y,-z
-x,-y,-z
x,-y,z
1/2+x,1/2+y,z
1/2-x,1/2+y,-z
1/2-x,1/2-y,-z
1/2+x,1/2-y,z
loop_
_atom_site_type_symbol
_atom_site_label
_atom_site_fract_x
_atom_site_fract_y
_atom_site_fract_z
Si Si1 0.427057 0.172137 0.945665
Si Si2 0.333696 0.166368 0.611099
Si Si3 0.852278 0.823502 0.771277
Si Si4 0.339928 0.672201 0.002801
Si Si5 0.813905 0.165823 0.457288
Si Si6 0.283700 0.669766 0.118974
Si Si7 0.776444 0.827670 0.278908
O O1 0.405317 0.264024 0.859819
O O2 0.409299 0.000000 0.923187
O O3 0.500000 0.196600 0.000000
O O4 0.394733 0.230539 0.001433
O O5 0.365972 0.263916 0.696032
O O6 0.259857 0.170291 0.575130
O O7 0.350172 0.229799 0.538668
O O8 0.360498 0.000000 0.632629
O O9 0.785794 0.770093 0.760595
O O10 0.853895 0.000000 0.770524
O O11 0.351850 0.500000 0.990561
O O12 0.338015 0.700395 0.091776
O O13 0.273328 0.718025 0.927470
O O14 0.823005 0.219790 0.376178
O O15 0.840275 0.000000 0.485597
O O16 0.259066 0.500000 0.093853
O O17 0.310771 0.693083 0.220122
O O18 0.756596 0.000000 0.279959
#
# Coordination Sequence:
#
# PCOD8085347 Si02
#       7
#     8   8   8   8   8   8   8
#     4  11  23  37  50  63  85 119 155 191 233 276
#     4   9  16  26  39  55  81 116 147 177 217 263
#     4  11  20  29  44  64  85 111 148 189 226 265
#     4  10  19  30  46  69  90 115 151 190 228 263
#     4   8  14  23  36  57  83 113 148 180 210 248
#     4   9  17  29  46  66  93 123 150 181 221 271
#     4   9  16  27  43  62  89 122 150 178 215 264
#
# _framework density 16.324947999999999
#
# number of rings (size 3 to 8) (size 9 to 14) (size 15 to 20)
#    0.000    2.429    1.429    3.429    0.000    5.143 
#    0.000    0.000    0.000    0.000    0.000    0.000 
#    0.000    1.143    0.000   13.143    0.000    3.571 
#
# Total GULP energy -347046.621660 kJ/mol
# GULP energy per Si atom -12394.522202 kJ/mol
# Density = 1.628779 g / cm^3
# Si number density = 16.324948 Si / 1000 Ang^3
#
#
#
# Elastic Constant Matrix: (Units=GPa)
#
#
# Indices 1 2 3 4 5 6 
#
# 1 52.8614 31.3064 44.3412 0.0000 -15.1333 0.0000
# 2 31.3064 110.8378 59.9558 0.0000 -9.6134 0.0000
# 3 44.3412 59.9558 131.2219 0.0000 -39.6580 0.0000
# 4 0.0000 0.0000 0.0000 25.8263 0.0000 -4.5600
# 5 -15.1333 -9.6134 -39.6580 0.0000 25.6790 0.0000
# 6 0.0000 0.0000 0.0000 -4.5600 0.0000 16.0559
#
#
#
# Elastic Compliance Matrix: (Units=1/GPa)
#
#
# Indices 1 2 3 4 5 6 
#
# 1 0.027950 -0.004335 -0.005581 0.000000 0.006229 0.000000
# 2 -0.004335 0.013467 -0.007382 0.000000 -0.008914 0.000000
# 3 -0.005581 -0.007382 0.020722 0.000000 0.025950 0.000000
# 4 0.000000 0.000000 0.000000 0.040764 0.000000 0.011577
# 5 0.006229 -0.008914 0.025950 0.000000 0.079353 0.000000
# 6 0.000000 0.000000 0.000000 0.011577 0.000000 0.065570
#
#
# Mechanical properties :
#
#
# Convention : Reuss Voigt Hill
#
# Bulk Modulus (GPa) = 36.30853 62.90310 49.60581
# Shear Modulus (GPa) = 17.14657 24.13343 20.64000
#
# Velocity S-wave (km/s) = 3.24439 3.84906 3.55959
# Velocity P-wave (km/s) = 6.02696 7.63997 6.88089
#
# Compressibility (1/GPa) = 0.02754174
#
# Stress axis : x y z
#
# Youngs Moduli (GPa) = 35.77848 74.25696 48.25738
#
# Poissons Ratio (x) = 0.32191 0.26933
# Poissons Ratio (y) = 0.15510 0.35624
# Poissons Ratio (z) = 0.19969 0.54818
#
# Static dielectric constant tensor:
#      x y z
#    x 2.714110 0.000000 -0.503000 
#    y 0.000000 3.228890 0.000000 
#    z -0.503000 0.000000 3.358030 
# 
# 
# High freq. dielectric constant tensor:
#      x y z
#    x 1.563400 0.000000 -0.044760 
#    y 0.000000 1.639860 0.000000 
#    z -0.044760 0.000000 1.631870 
# 
# From -- ./inp_files/287897.got.cif
#   From: 2010.06.25/outbox.cif.g09.slc.cpg/sg12_144_cif.got.tgz:287897.got - 2010.06.28 00:19:55.
