data_PCOD8085264
_publ_section_title
;
Structure prediction by ZEFSAII (Michael W. Deem and Ramdas Pophale) SiO2 
 PCOD8085264
Probable space group: C 2/M
;
_chemical_formula_sum "Si O2"
_cell_formula_units_Z 56
_cell_length_a 28.422707
_cell_length_b 8.913453
_cell_length_c 17.270709
_cell_angle_alpha 90.000000
_cell_angle_beta 129.482981
_cell_angle_gamma 90.000000
_cell_volume 3377.022450
_symmetry_space_group_name_H-M "C 2/M"
_symmetry_group_IT_number 12
_symmetry_cell_setting 'monoclinic'
loop_
_space_group_symop_operation_xyz
x,y,z
-x,y,-z
-x,-y,-z
x,-y,z
1/2+x,1/2+y,z
1/2-x,1/2+y,-z
1/2-x,1/2-y,-z
1/2+x,1/2-y,z
loop_
_atom_site_type_symbol
_atom_site_label
_atom_site_fract_x
_atom_site_fract_y
_atom_site_fract_z
Si Si1 0.591293 0.670171 0.080662
Si Si2 0.708489 0.322113 0.391855
Si Si3 0.451541 0.827032 0.116786
Si Si4 0.345215 0.326523 0.080871
Si Si5 0.232106 0.831488 0.244525
Si Si6 0.258188 0.672820 0.125486
Si Si7 0.585619 0.827803 0.233129
O O1 0.569597 0.500000 0.073365
O O2 0.663189 0.675051 0.142990
O O3 0.571791 0.771464 0.132329
O O4 0.559087 0.732917 0.971539
O O5 0.708441 0.500000 0.399283
O O6 0.750000 0.250000 0.500000
O O7 0.735049 0.271960 0.335972
O O8 0.639043 0.266977 0.329699
O O9 0.408816 0.762805 0.140479
O O10 0.522628 0.810228 0.215532
O O11 0.434976 0.000000 0.084092
O O12 0.357196 0.500000 0.074819
O O13 0.319982 0.302593 0.141278
O O14 0.296342 0.268294 0.967894
O O15 0.271090 0.727253 0.227035
O O16 0.258156 0.000000 0.267572
O O17 0.238267 0.500000 0.104303
O O18 0.606782 0.000000 0.251917
#
# Coordination Sequence:
#
# PCOD8085264 Si02
#       7
#     8   8   8   8   8   8   8
#     4  10  19  30  45  67  96 131 167 200 238 285
#     4  10  21  37  56  77  99 125 158 199 248 295
#     4  11  21  31  45  67  95 132 170 202 239 283
#     4  10  20  31  44  65  96 132 169 207 242 282
#     4   9  18  31  48  71  98 128 161 198 241 289
#     4  10  19  30  46  68  94 129 169 205 243 285
#     4  10  21  34  48  69  97 127 163 202 240 290
#
# _framework density 16.582654999999999
#
# number of rings (size 3 to 8) (size 9 to 14) (size 15 to 20)
#    0.000    2.000    1.429    3.857    0.000    8.571 
#    0.000    0.000    0.000    0.000    0.000    1.000 
#    0.000    8.000    0.000    0.000    0.000    0.000 
#
# Total GULP energy -347175.001599 kJ/mol
# GULP energy per Si atom -12399.107200 kJ/mol
# Density = 1.654491 g / cm^3
# Si number density = 16.582655 Si / 1000 Ang^3
#
#
#
# Elastic Constant Matrix: (Units=GPa)
#
#
# Indices 1 2 3 4 5 6 
#
# 1 99.1974 43.2596 46.0457 0.0000 1.9907 0.0000
# 2 43.2596 88.1633 38.7791 0.0000 0.3127 0.0000
# 3 46.0457 38.7791 81.7112 0.0000 -4.5836 0.0000
# 4 0.0000 0.0000 0.0000 23.4772 0.0000 -1.4804
# 5 1.9907 0.3127 -4.5836 0.0000 13.0749 0.0000
# 6 0.0000 0.0000 0.0000 -1.4804 0.0000 30.1491
#
#
#
# Elastic Compliance Matrix: (Units=1/GPa)
#
#
# Indices 1 2 3 4 5 6 
#
# 1 0.015258 -0.004519 -0.006709 0.000000 -0.004567 0.000000
# 2 -0.004519 0.015774 -0.005021 0.000000 -0.001449 0.000000
# 3 -0.006709 -0.005021 0.018836 0.000000 0.007745 0.000000
# 4 0.000000 0.000000 0.000000 0.042727 0.000000 0.002098
# 5 -0.004567 -0.001449 0.007745 0.000000 0.079927 0.000000
# 6 0.000000 0.000000 0.000000 0.002098 0.000000 0.033271
#
#
# Mechanical properties :
#
#
# Convention : Reuss Voigt Hill
#
# Bulk Modulus (GPa) = 57.57344 58.36006 57.96675
# Shear Modulus (GPa) = 20.48496 22.73941 21.61219
#
# Velocity S-wave (km/s) = 3.51853 3.70709 3.61404
# Velocity P-wave (km/s) = 7.16249 7.32074 7.24204
#
# Compressibility (1/GPa) = 0.01736912
#
# Stress axis : x y z
#
# Youngs Moduli (GPa) = 65.54024 63.39744 53.08912
#
# Poissons Ratio (x) = 0.28651 0.35620
# Poissons Ratio (y) = 0.29619 0.26654
# Poissons Ratio (z) = 0.43974 0.31829
#
# Static dielectric constant tensor:
#      x y z
#    x 3.346810 0.000000 -0.012070 
#    y 0.000000 3.308850 0.000000 
#    z -0.012070 0.000000 2.783960 
# 
# 
# High freq. dielectric constant tensor:
#      x y z
#    x 1.640540 0.000000 -0.000730 
#    y 0.000000 1.657890 0.000000 
#    z -0.000730 0.000000 1.587950 
# 
# From -- ./inp_files/291937.got.cif
#   From: 2010.06.25/outbox.cif.g09.slc.cpg/sg12_146_cif.got.tgz:291937.got - 2010.06.28 00:19:55.
