data_PCOD8085838
_publ_section_title
;
Structure prediction by ZEFSAII (Michael W. Deem and Ramdas Pophale) SiO2 
 PCOD8085838
Probable space group: C 2/M
;
_chemical_formula_sum "Si O2"
_cell_formula_units_Z 64
_cell_length_a 20.212692
_cell_length_b 8.997133
_cell_length_c 31.116000
_cell_angle_alpha 90.000000
_cell_angle_beta 142.171422
_cell_angle_gamma 90.000000
_cell_volume 3470.450057
_symmetry_space_group_name_H-M "C 2/M"
_symmetry_group_IT_number 12
_symmetry_cell_setting 'monoclinic'
loop_
_space_group_symop_operation_xyz
x,y,z
-x,y,-z
-x,-y,-z
x,-y,z
1/2+x,1/2+y,z
1/2-x,1/2+y,-z
1/2-x,1/2-y,-z
1/2+x,1/2-y,z
loop_
_atom_site_type_symbol
_atom_site_label
_atom_site_fract_x
_atom_site_fract_y
_atom_site_fract_z
Si Si1 0.960896 0.670965 0.764448
Si Si2 0.891375 0.674774 0.354842
Si Si3 0.428589 0.667763 0.505791
Si Si4 0.260301 0.325883 0.215724
Si Si5 0.305797 0.170579 0.152265
Si Si6 0.526878 0.173726 0.130852
Si Si7 0.747159 0.174230 0.633517
Si Si8 0.317576 0.674493 0.997369
O O1 0.922675 0.500000 0.744263
O O2 0.981085 0.721748 0.823619
O O3 0.869629 0.770877 0.695805
O O4 0.068612 0.695988 0.792763
O O5 0.906639 0.500000 0.358657
O O6 0.849949 0.738992 0.288774
O O7 0.806438 0.717844 0.348474
O O8 0.008172 0.745679 0.424305
O O9 0.500000 0.671918 0.500000
O O10 0.405958 0.500000 0.509372
O O11 0.315441 0.747954 0.437927
O O12 0.280976 0.500000 0.231676
O O13 0.269473 0.279728 0.171147
O O14 0.142738 0.280753 0.172190
O O15 0.284392 0.000000 0.154484
O O16 0.235702 0.215288 0.075197
O O17 0.439315 0.265641 0.059082
O O18 0.502513 0.000000 0.112608
O O19 0.742598 0.000000 0.623112
O O20 0.316093 0.500000 0.004927
O O21 0.250000 0.750000 0.000000
#
# Coordination Sequence:
#
# PCOD8085838 Si02
#       8
#     8   8   8   8   8   8   8   8
#     4  10  19  36  58  79 111 149 187 231 279 332
#     4  10  19  32  52  79 114 150 185 230 281 331
#     4   9  17  29  48  76 111 150 188 227 277 330
#     4  11  23  38  58  83 114 150 188 233 279 334
#     4  10  23  41  58  80 112 149 186 229 282 338
#     4  10  21  38  59  84 113 146 188 233 280 332
#     4  10  19  30  50  83 115 143 185 236 280 325
#     4  11  22  38  61  86 113 147 186 233 284 335
#
# _framework density 18.441413000000001
#
# number of rings (size 3 to 8) (size 9 to 14) (size 15 to 20)
#    0.000    1.875    2.500    1.875    0.000    6.000 
#    0.000    2.500    0.000    0.750    0.000    0.000 
#    0.000    0.000    0.000    0.000    0.000    0.000 
#
# Total GULP energy -396957.424743 kJ/mol
# GULP energy per Si atom -12404.919523 kJ/mol
# Density = 1.839944 g / cm^3
# Si number density = 18.441413 Si / 1000 Ang^3
#
#
#
# Elastic Constant Matrix: (Units=GPa)
#
#
# Indices 1 2 3 4 5 6 
#
# 1 59.2520 27.3782 23.3282 0.0000 -9.7530 -0.0001
# 2 27.3782 88.4653 59.7186 0.0001 -5.3129 -0.0003
# 3 23.3282 59.7186 136.1381 0.0000 -4.6300 0.0000
# 4 0.0000 0.0001 0.0000 41.0627 0.0000 0.4504
# 5 -9.7530 -5.3129 -4.6300 0.0000 18.0786 0.0000
# 6 -0.0001 -0.0003 0.0000 0.4504 0.0000 27.4747
#
#
#
# Elastic Compliance Matrix: (Units=1/GPa)
#
#
# Indices 1 2 3 4 5 6 
#
# 1 0.021332 -0.005363 -0.000973 0.000000 0.009683 0.000000
# 2 -0.005363 0.017564 -0.006768 0.000000 0.000535 0.000000
# 3 -0.000973 -0.006768 0.010487 0.000000 0.000172 0.000000
# 4 0.000000 0.000000 0.000000 0.024357 0.000000 -0.000399
# 5 0.009683 0.000535 0.000172 0.000000 0.060739 0.000000
# 6 0.000000 0.000000 0.000000 -0.000399 0.000000 0.036404
#
#
# Mechanical properties :
#
#
# Convention : Reuss Voigt Hill
#
# Bulk Modulus (GPa) = 43.15024 56.07837 49.61430
# Shear Modulus (GPa) = 24.41206 28.88523 26.64864
#
# Velocity S-wave (km/s) = 3.64230 3.96198 3.80550
# Velocity P-wave (km/s) = 6.41388 7.16970 6.80230
#
# Compressibility (1/GPa) = 0.02317484
#
# Stress axis : x y z
#
# Youngs Moduli (GPa) = 46.87728 56.93378 95.35796
#
# Poissons Ratio (x) = 0.30535 0.09283
# Poissons Ratio (y) = 0.25141 0.64534
# Poissons Ratio (z) = 0.04563 0.38530
#
# Static dielectric constant tensor:
#      x y z
#    x 3.087290 0.000000 0.050530 
#    y 0.000000 3.419680 0.000000 
#    z 0.050530 0.000000 3.567480 
# 
# 
# High freq. dielectric constant tensor:
#      x y z
#    x 1.682070 0.000000 0.004860 
#    y 0.000000 1.722900 0.000000 
#    z 0.004860 0.000000 1.730670 
# 
# From -- ./inp_files/378543.got.cif
#   From: 2010.06.25/outbox.cif.g09.slc.cpg/sg12_190_cif.got.tgz:378543.got - 2010.06.28 00:19:55.
