data_PCOD8085269
_publ_section_title
;
Structure prediction by ZEFSAII (Michael W. Deem and Ramdas Pophale) SiO2 
 PCOD8085269
Probable space group: C 2/M
;
_chemical_formula_sum "Si O2"
_cell_formula_units_Z 56
_cell_length_a 19.436847
_cell_length_b 18.236598
_cell_length_c 9.289762
_cell_angle_alpha 90.000000
_cell_angle_beta 58.118438
_cell_angle_gamma 90.000000
_cell_volume 2796.110923
_symmetry_space_group_name_H-M "C 2/M"
_symmetry_group_IT_number 12
_symmetry_cell_setting 'monoclinic'
loop_
_space_group_symop_operation_xyz
x,y,z
-x,y,-z
-x,-y,-z
x,-y,z
1/2+x,1/2+y,z
1/2-x,1/2+y,-z
1/2-x,1/2-y,-z
1/2+x,1/2-y,z
loop_
_atom_site_type_symbol
_atom_site_label
_atom_site_fract_x
_atom_site_fract_y
_atom_site_fract_z
Si Si1 0.496746 0.584785 0.165986
Si Si2 0.707163 0.817380 0.934313
Si Si3 0.655500 0.214689 0.279858
Si Si4 0.251414 0.084199 0.339213
Si Si5 0.179203 0.080596 0.010420
Si Si6 0.780783 0.582858 0.631689
Si Si7 0.419960 0.646190 0.510392
O O1 0.466516 0.500000 0.205702
O O2 0.584722 0.593269 0.139412
O O3 0.436218 0.637520 0.321509
O O4 0.500000 0.613606 0.000000
O O5 0.752055 0.746434 0.817323
O O6 0.681993 0.870259 0.829386
O O7 0.774464 0.857852 0.955738
O O8 0.635521 0.798166 0.129035
O O9 0.653219 0.138472 0.371499
O O10 0.591838 0.269695 0.424955
O O11 0.257414 0.109626 0.497598
O O12 0.162545 0.100842 0.368474
O O13 0.272737 0.000000 0.298940
O O14 0.204945 0.000000 0.039615
O O15 0.199271 0.084372 0.817253
O O16 0.817478 0.500000 0.587853
O O17 0.500000 0.612658 0.500000
#
# Coordination Sequence:
#
# PCOD8085269 Si02
#       7
#     8   8   8   8   8   8   8
#     4  10  19  30  45  68 100 137 171 196 224 277
#     4   9  17  29  47  68  94 125 159 203 247 286
#     4   9  19  34  48  68  96 129 168 205 244 289
#     4  10  19  31  50  78 103 124 158 200 244 297
#     4   9  16  28  46  68  97 131 162 195 239 289
#     4   9  18  33  53  74  96 124 162 211 258 291
#     4  11  22  33  47  70 105 142 168 193 231 287
#
# _framework density 20.027819000000001
#
# number of rings (size 3 to 8) (size 9 to 14) (size 15 to 20)
#    0.000    2.429    0.000    3.429    0.000    7.429 
#    0.000    2.857    0.000    0.429    0.000    0.000 
#    0.000    2.857    0.000    0.000    0.000    0.000 
#
# Total GULP energy -346884.232225 kJ/mol
# GULP energy per Si atom -12388.722579 kJ/mol
# Density = 1.998223 g / cm^3
# Si number density = 20.027819 Si / 1000 Ang^3
#
#
#
# Elastic Constant Matrix: (Units=GPa)
#
#
# Indices 1 2 3 4 5 6 
#
# 1 15.9634 4.2517 8.0357 0.0000 5.3939 0.0000
# 2 4.2517 85.3067 51.1504 0.0000 3.8753 0.0000
# 3 8.0357 51.1504 137.6708 0.0000 10.7961 0.0000
# 4 0.0000 0.0000 0.0000 43.2082 0.0000 5.0162
# 5 5.3939 3.8753 10.7961 0.0000 20.8444 0.0000
# 6 0.0000 0.0000 0.0000 5.0162 0.0000 15.3549
#
#
#
# Elastic Compliance Matrix: (Units=1/GPa)
#
#
# Indices 1 2 3 4 5 6 
#
# 1 0.069764 -0.001366 -0.002260 0.000000 -0.016628 0.000000
# 2 -0.001366 0.015109 -0.005568 0.000000 0.000428 0.000000
# 3 -0.002260 -0.005568 0.009732 0.000000 -0.003421 0.000000
# 4 0.000000 0.000000 0.000000 0.024056 0.000000 -0.007859
# 5 -0.016628 0.000428 -0.003421 0.000000 0.053969 0.000000
# 6 0.000000 0.000000 0.000000 -0.007859 0.000000 0.067693
#
#
# Mechanical properties :
#
#
# Convention : Reuss Voigt Hill
#
# Bulk Modulus (GPa) = 13.12045 40.64629 26.88337
# Shear Modulus (GPa) = 17.59829 27.58171 22.59000
#
# Velocity S-wave (km/s) = 2.96749 3.71505 3.36211
# Velocity P-wave (km/s) = 4.27863 6.22424 5.34078
#
# Compressibility (1/GPa) = 0.07621689
#
# Stress axis : x y z
#
# Youngs Moduli (GPa) = 14.33410 66.18382 102.74860
#
# Poissons Ratio (x) = 0.09043 0.23226
# Poissons Ratio (y) = 0.01959 0.57206
# Poissons Ratio (z) = 0.03240 0.36849
#
# Static dielectric constant tensor:
#      x y z
#    x 2.986360 0.000000 0.201960 
#    y 0.000000 3.782680 0.000000 
#    z 0.201960 0.000000 4.294000 
# 
# 
# High freq. dielectric constant tensor:
#      x y z
#    x 1.704150 0.000000 0.026480 
#    y 0.000000 1.782940 0.000000 
#    z 0.026480 0.000000 1.806000 
# 
# From -- ./inp_files/98554.got.cif
#   From: 2010.06.25/outbox.cif.g09.slc.cpg/sg12_50_cif.got.tgz:98554.got - 2010.06.28 00:19:55.
