data_PCOD8085367
_publ_section_title
;
Structure prediction by ZEFSAII (Michael W. Deem and Ramdas Pophale) SiO2 
 PCOD8085367
Probable space group: C 2/M
;
_chemical_formula_sum "Si O2"
_cell_formula_units_Z 56
_cell_length_a 18.839361
_cell_length_b 9.170009
_cell_length_c 26.529600
_cell_angle_alpha 90.000000
_cell_angle_beta 42.626564
_cell_angle_gamma 90.000000
_cell_volume 3103.806188
_symmetry_space_group_name_H-M "C 2/M"
_symmetry_group_IT_number 12
_symmetry_cell_setting 'monoclinic'
loop_
_space_group_symop_operation_xyz
x,y,z
-x,y,-z
-x,-y,-z
x,-y,z
1/2+x,1/2+y,z
1/2-x,1/2+y,-z
1/2-x,1/2-y,-z
1/2+x,1/2-y,z
loop_
_atom_site_type_symbol
_atom_site_label
_atom_site_fract_x
_atom_site_fract_y
_atom_site_fract_z
Si Si1 0.896931 0.673197 0.280092
Si Si2 0.164011 0.827258 0.412783
Si Si3 0.719999 0.328521 0.843829
Si Si4 0.062086 0.327701 0.853293
Si Si5 0.400874 0.160906 0.015447
Si Si6 0.460357 0.828187 0.703773
Si Si7 0.496779 0.672476 0.420281
O O1 0.892001 0.500000 0.284296
O O2 0.780815 0.739282 0.350173
O O3 0.939240 0.725156 0.203691
O O4 0.975382 0.731718 0.281741
O O5 0.099009 0.773704 0.397890
O O6 0.106328 0.779925 0.494410
O O7 0.167501 0.000000 0.408736
O O8 0.701462 0.500000 0.851239
O O9 0.655763 0.253438 0.832848
O O10 0.684034 0.273048 0.918053
O O11 0.840135 0.284197 0.774002
O O12 0.083887 0.500000 0.847200
O O13 0.947830 0.288270 0.936745
O O14 0.349374 0.000000 0.038269
O O15 0.500000 0.154066 0.000000
O O16 0.508638 0.752767 0.629797
O O17 0.473921 0.000000 0.690491
O O18 0.499738 0.500000 0.409772
#
# Coordination Sequence:
#
# PCOD8085367 Si02
#       7
#     8   8   8   8   8   8   8
#     4   9  17  31  49  67  93 128 159 187 226 277
#     4   8  15  29  51  75  93 116 155 197 232 271
#     4  10  19  30  46  69  97 125 152 188 235 281
#     4   9  17  31  53  74  89 116 160 200 229 266
#     4   8  15  28  47  72  94 114 152 198 232 269
#     4  10  21  33  45  67  98 129 158 186 225 281
#     4   9  17  31  52  75  94 115 153 200 237 270
#
# _framework density 18.042363999999999
#
# number of rings (size 3 to 8) (size 9 to 14) (size 15 to 20)
#    0.000    3.000    0.000    3.000    0.000    5.429 
#    0.000    2.857    0.000    1.714    0.000    0.000 
#    0.000    0.000    0.000    0.000    0.000    0.000 
#
# Total GULP energy -347081.839981 kJ/mol
# GULP energy per Si atom -12395.779999 kJ/mol
# Density = 1.800130 g / cm^3
# Si number density = 18.042364 Si / 1000 Ang^3
#
#
#
# Elastic Constant Matrix: (Units=GPa)
#
#
# Indices 1 2 3 4 5 6 
#
# 1 108.9526 27.4533 71.1275 0.0000 25.6438 -0.0005
# 2 27.4533 33.2466 32.4261 0.0001 7.3503 -0.0014
# 3 71.1275 32.4261 134.9157 0.0000 34.1806 0.0000
# 4 0.0000 0.0001 0.0000 26.5982 0.0001 4.8092
# 5 25.6438 7.3503 34.1806 0.0001 20.2098 0.0000
# 6 -0.0005 -0.0014 0.0000 4.8092 0.0000 16.7033
#
#
#
# Elastic Compliance Matrix: (Units=1/GPa)
#
#
# Indices 1 2 3 4 5 6 
#
# 1 0.016203 -0.006975 -0.004024 0.000000 -0.011217 0.000000
# 2 -0.006975 0.042391 -0.008482 -0.000001 0.007778 0.000004
# 3 -0.004024 -0.008482 0.016617 0.000000 -0.019913 -0.000001
# 4 0.000000 -0.000001 0.000000 0.039661 0.000000 -0.011419
# 5 -0.011217 0.007778 -0.019913 0.000000 0.094564 0.000000
# 6 0.000000 0.000004 -0.000001 -0.011419 0.000000 0.063156
#
#
# Mechanical properties :
#
#
# Convention : Reuss Voigt Hill
#
# Bulk Modulus (GPa) = 27.58663 59.90320 43.74491
# Shear Modulus (GPa) = 15.44944 22.44280 18.94612
#
# Velocity S-wave (km/s) = 2.92941 3.53072 3.24403
# Velocity P-wave (km/s) = 5.17350 7.06362 6.19112
#
# Compressibility (1/GPa) = 0.03624944
#
# Stress axis : x y z
#
# Youngs Moduli (GPa) = 61.71745 23.59018 60.17947
#
# Poissons Ratio (x) = 0.16454 0.24216
# Poissons Ratio (y) = 0.43048 0.51041
# Poissons Ratio (z) = 0.24835 0.20008
#
# Static dielectric constant tensor:
#      x y z
#    x 3.304300 0.000000 0.069610 
#    y 0.000000 2.990450 0.000000 
#    z 0.069610 0.000000 3.825720 
# 
# 
# High freq. dielectric constant tensor:
#      x y z
#    x 1.678610 0.000000 0.009020 
#    y 0.000000 1.663410 0.000000 
#    z 0.009020 0.000000 1.717080 
# 
# From -- ./inp_files/362887.got.cif
#   From: 2010.06.25/outbox.cif.g09.slc.cpg/sg12_182_cif.got.tgz:362887.got - 2010.06.28 00:19:55.
