data_PCOD8085578
_publ_section_title
;
Structure prediction by ZEFSAII (Michael W. Deem and Ramdas Pophale) SiO2 
 PCOD8085578
Probable space group: C 2/M
;
_chemical_formula_sum "Si O2"
_cell_formula_units_Z 64
_cell_length_a 33.033940
_cell_length_b 9.300498
_cell_length_c 25.698567
_cell_angle_alpha 90.000000
_cell_angle_beta 155.143659
_cell_angle_gamma 90.000000
_cell_volume 3318.798509
_symmetry_space_group_name_H-M "C 2/M"
_symmetry_group_IT_number 12
_symmetry_cell_setting 'monoclinic'
loop_
_space_group_symop_operation_xyz
x,y,z
-x,y,-z
-x,-y,-z
x,-y,z
1/2+x,1/2+y,z
1/2-x,1/2+y,-z
1/2-x,1/2-y,-z
1/2+x,1/2-y,z
loop_
_atom_site_type_symbol
_atom_site_label
_atom_site_fract_x
_atom_site_fract_y
_atom_site_fract_z
Si Si1 0.473331 0.165761 0.027671
Si Si2 0.250679 0.839529 0.768799
Si Si3 0.751475 0.166306 0.423729
Si Si4 0.573291 0.663325 0.630384
Si Si5 0.926145 0.168387 0.762973
Si Si6 0.472781 0.336934 0.706182
Si Si7 0.980819 0.660408 0.333720
Si Si8 0.296510 0.839762 0.381674
O O1 0.361592 0.190761 0.910570
O O2 0.503175 0.000000 0.070667
O O3 0.500000 0.214284 0.000000
O O4 0.530251 0.263678 0.134388
O O5 0.184649 0.828003 0.742983
O O6 0.210540 0.717983 0.684479
O O7 0.239383 0.000000 0.731265
O O8 0.675729 0.255719 0.370131
O O9 0.859058 0.191630 0.568356
O O10 0.737983 0.230799 0.349915
O O11 0.722091 0.000000 0.389085
O O12 0.500000 0.721134 0.500000
O O13 0.542652 0.500000 0.608113
O O14 0.569305 0.756015 0.677885
O O15 0.996128 0.192665 0.794395
O O16 0.907575 0.000000 0.749999
O O17 0.497080 0.500000 0.718797
O O18 0.536263 0.236911 0.742199
O O19 0.937223 0.500000 0.280096
O O20 0.093373 0.656162 0.474211
O O21 0.252038 0.000000 0.333361
#
# Coordination Sequence:
#
# PCOD8085578 Si02
#       8
#     8   8   8   8   8   8   8   8
#     4  10  22  39  57  78 106 143 185 225 265 313
#     4  10  20  34  53  77 106 144 187 222 263 323
#     4  10  19  32  52  76 106 143 179 216 264 321
#     4  10  19  32  53  79 110 147 181 218 269 327
#     4  11  22  36  55  79 106 137 179 228 274 318
#     4   9  20  36  54  77 107 143 179 218 268 328
#     4  10  20  32  50  79 112 143 174 216 268 323
#     4  10  19  30  47  75 110 142 174 217 267 317
#
# _framework density 19.284087
#
# number of rings (size 3 to 8) (size 9 to 14) (size 15 to 20)
#    0.000    2.000    1.250    2.625    0.000    5.000 
#    0.000    0.000    0.000    0.750    0.000    0.000 
#    0.000    0.000    0.000    0.000    0.000    0.000 
#
# Total GULP energy -396714.934984 kJ/mol
# GULP energy per Si atom -12397.341718 kJ/mol
# Density = 1.924020 g / cm^3
# Si number density = 19.284087 Si / 1000 Ang^3
#
#
#
# Elastic Constant Matrix: (Units=GPa)
#
#
# Indices 1 2 3 4 5 6 
#
# 1 122.0454 60.3096 27.6632 0.0000 -5.9431 0.0000
# 2 60.3096 115.4446 26.2657 0.0000 -10.4323 0.0000
# 3 27.6632 26.2657 35.3129 0.0000 -0.1788 0.0000
# 4 0.0000 0.0000 0.0000 19.2794 0.0000 -0.2158
# 5 -5.9431 -10.4323 -0.1788 0.0000 30.1557 0.0000
# 6 0.0000 0.0000 0.0000 -0.2158 0.0000 30.5055
#
#
#
# Elastic Compliance Matrix: (Units=1/GPa)
#
#
# Indices 1 2 3 4 5 6 
#
# 1 0.011929 -0.004874 -0.005716 0.000000 0.000631 0.000000
# 2 -0.004874 0.012815 -0.005696 0.000000 0.003439 0.000000
# 3 -0.005716 -0.005696 0.037018 0.000000 -0.002878 0.000000
# 4 0.000000 0.000000 0.000000 0.051873 0.000000 0.000367
# 5 0.000631 0.003439 -0.002878 0.000000 0.034458 0.000000
# 6 0.000000 0.000000 0.000000 0.000367 0.000000 0.032784
#
#
# Mechanical properties :
#
#
# Convention : Reuss Voigt Hill
#
# Bulk Modulus (GPa) = 34.25905 55.69777 44.97841
# Shear Modulus (GPa) = 22.40349 26.55908 24.48129
#
# Velocity S-wave (km/s) = 3.41216 3.71516 3.56688
# Velocity P-wave (km/s) = 5.77302 6.88104 6.35124
#
# Compressibility (1/GPa) = 0.02918937
#
# Stress axis : x y z
#
# Youngs Moduli (GPa) = 83.83220 78.03205 27.01367
#
# Poissons Ratio (x) = 0.38034 0.15441
# Poissons Ratio (y) = 0.40861 0.15388
# Poissons Ratio (z) = 0.47918 0.44449
#
# Static dielectric constant tensor:
#      x y z
#    x 3.681040 0.000000 0.023420 
#    y 0.000000 3.683260 0.000000 
#    z 0.023420 0.000000 3.148460 
# 
# 
# High freq. dielectric constant tensor:
#      x y z
#    x 1.758820 0.000000 -0.001140 
#    y 0.000000 1.756460 0.000000 
#    z -0.001140 0.000000 1.706370 
# 
# From -- ./inp_files/353513.got.cif
#   From: 2010.06.25/outbox.cif.g09.slc.cpg/sg12_177_cif.got.tgz:353513.got - 2010.06.28 00:19:55.
