data_PCOD8085250
_publ_section_title
;
Structure prediction by ZEFSAII (Michael W. Deem and Ramdas Pophale) SiO2 
 PCOD8085250
Probable space group: C 2/M
;
_chemical_formula_sum "Si O2"
_cell_formula_units_Z 64
_cell_length_a 9.205058
_cell_length_b 24.448647
_cell_length_c 24.535408
_cell_angle_alpha 90.000000
_cell_angle_beta 137.758261
_cell_angle_gamma 90.000000
_cell_volume 3712.034150
_symmetry_space_group_name_H-M "C 2/M"
_symmetry_group_IT_number 12
_symmetry_cell_setting 'monoclinic'
loop_
_space_group_symop_operation_xyz
x,y,z
-x,y,-z
-x,-y,-z
x,-y,z
1/2+x,1/2+y,z
1/2-x,1/2+y,-z
1/2-x,1/2-y,-z
1/2+x,1/2-y,z
loop_
_atom_site_type_symbol
_atom_site_label
_atom_site_fract_x
_atom_site_fract_y
_atom_site_fract_z
Si Si1 0.316203 0.435808 0.904848
Si Si2 0.115116 0.857202 0.172180
Si Si3 0.309507 0.195144 0.987555
Si Si4 0.058590 0.207610 0.574991
Si Si5 0.781037 0.320288 0.426655
Si Si6 0.986192 0.288611 0.754393
Si Si7 0.999268 0.842066 0.254018
Si Si8 0.977411 0.641686 0.855258
O O1 0.291567 0.500000 0.891161
O O2 0.376354 0.410871 0.862824
O O3 0.083566 0.411446 0.856853
O O4 0.500000 0.420356 0.000000
O O5 0.304577 0.814439 0.214696
O O6 0.888694 0.827329 0.101437
O O7 0.120976 0.872135 0.237888
O O8 0.500000 0.209609 0.000000
O O9 0.250000 0.250000 0.000000
O O10 0.380284 0.151380 0.051934
O O11 0.112712 0.270566 0.578223
O O12 0.275816 0.185711 0.665120
O O13 0.000000 0.178789 0.500000
O O14 0.853582 0.200846 0.558324
O O15 0.627336 0.355568 0.345065
O O16 0.000000 0.355544 0.500000
O O17 0.009702 0.223474 0.757173
O O18 0.979164 0.305806 0.815720
O O19 0.766578 0.870124 0.195072
#
# Coordination Sequence:
#
# PCOD8085250 Si02
#       8
#     8   8   8   8   8   8   8   8
#     4  10  22  42  61  75  98 133 179 229 282 322
#     4  11  23  34  52  77 103 142 179 221 262 316
#     4  12  24  33  48  75 113 148 178 210 246 304
#     4  10  19  30  45  67 102 149 192 224 244 298
#     4  10  20  30  46  69 104 150 189 218 253 298
#     4  10  21  32  48  74 110 151 180 209 260 307
#     4  11  20  33  50  75 113 143 176 218 258 308
#     4  11  21  36  50  75 105 138 180 216 262 312
#
# _framework density 17.241222
#
# number of rings (size 3 to 8) (size 9 to 14) (size 15 to 20)
#    0.000    1.375    3.750    3.750   10.500    0.000 
#    0.000    0.625    0.000    2.250    0.000    0.000 
#    0.000   19.000    0.000    0.000    0.000    0.000 
#
# Total GULP energy -396612.140126 kJ/mol
# GULP energy per Si atom -12394.129379 kJ/mol
# Density = 1.720198 g / cm^3
# Si number density = 17.241222 Si / 1000 Ang^3
#
#
#
# Elastic Constant Matrix: (Units=GPa)
#
#
# Indices 1 2 3 4 5 6 
#
# 1 138.9799 28.9625 47.5644 0.0000 -3.5656 -0.0002
# 2 28.9625 54.1593 19.2053 0.0000 -1.0252 0.0000
# 3 47.5644 19.2053 102.5252 0.0001 2.0059 -0.0001
# 4 0.0000 0.0000 0.0001 8.0423 0.0000 -1.3229
# 5 -3.5656 -1.0252 2.0059 0.0000 34.5247 -0.0001
# 6 -0.0002 0.0000 -0.0001 -1.3229 -0.0001 10.6270
#
#
#
# Elastic Compliance Matrix: (Units=1/GPa)
#
#
# Indices 1 2 3 4 5 6 
#
# 1 0.009216 -0.003626 -0.003617 0.000000 0.001054 0.000000
# 2 -0.003626 0.021227 -0.002302 0.000000 0.000390 0.000000
# 3 -0.003617 -0.002302 0.011885 0.000000 -0.001132 0.000000
# 4 0.000000 0.000000 0.000000 0.126942 0.000000 0.015802
# 5 0.001054 0.000390 -0.001132 0.000000 0.029151 0.000000
# 6 0.000000 0.000000 0.000000 0.015802 0.000000 0.096067
#
#
# Mechanical properties :
#
#
# Convention : Reuss Voigt Hill
#
# Bulk Modulus (GPa) = 43.03197 54.12544 48.57871
# Shear Modulus (GPa) = 15.56069 23.96761 19.76415
#
# Velocity S-wave (km/s) = 3.00747 3.73249 3.38942
# Velocity P-wave (km/s) = 6.08874 7.07365 6.59960
#
# Compressibility (1/GPa) = 0.02323854
#
# Stress axis : x y z
#
# Youngs Moduli (GPa) = 108.50976 47.11080 84.13960
#
# Poissons Ratio (x) = 0.17081 0.30432
# Poissons Ratio (y) = 0.39343 0.19367
# Poissons Ratio (z) = 0.39247 0.10844
#
# Static dielectric constant tensor:
#      x y z
#    x 3.206420 0.000000 0.207140 
#    y 0.000000 2.582990 0.000000 
#    z 0.207140 0.000000 3.940870 
# 
# 
# High freq. dielectric constant tensor:
#      x y z
#    x 1.690510 0.000000 0.001100 
#    y 0.000000 1.585380 0.000000 
#    z 0.001100 0.000000 1.689650 
# 
# From -- ./inp_files/258921.got.cif
#   From: 2010.06.25/outbox.cif.g09.slc.cpg/sg12_130_cif.got.tgz:258921.got - 2010.06.28 00:19:55.
