data_PCOD8085160
_publ_section_title
;
Structure prediction by ZEFSAII (Michael W. Deem and Ramdas Pophale) SiO2 
 PCOD8085160
Probable space group: C 2/M
;
_chemical_formula_sum "Si O2"
_cell_formula_units_Z 56
_cell_length_a 21.976696
_cell_length_b 12.570189
_cell_length_c 19.310009
_cell_angle_alpha 90.000000
_cell_angle_beta 137.606970
_cell_angle_gamma 90.000000
_cell_volume 3596.528588
_symmetry_space_group_name_H-M "C 2/M"
_symmetry_group_IT_number 12
_symmetry_cell_setting 'monoclinic'
loop_
_space_group_symop_operation_xyz
x,y,z
-x,y,-z
-x,-y,-z
x,-y,z
1/2+x,1/2+y,z
1/2-x,1/2+y,-z
1/2-x,1/2-y,-z
1/2+x,1/2-y,z
loop_
_atom_site_type_symbol
_atom_site_label
_atom_site_fract_x
_atom_site_fract_y
_atom_site_fract_z
Si Si1 0.513862 0.877822 0.853895
Si Si2 0.038086 0.125969 0.640921
Si Si3 0.620211 0.740362 0.840009
Si Si4 0.091720 0.252622 0.042626
Si Si5 0.170182 0.623418 0.233022
Si Si6 0.792622 0.875384 0.961534
Si Si7 0.131437 0.875040 0.581167
O O1 0.545403 0.811509 0.814747
O O2 0.407397 0.857038 0.775480
O O3 0.535509 0.000000 0.857554
O O4 0.568462 0.844890 0.968313
O O5 0.068266 0.180916 0.736194
O O6 0.102943 0.165796 0.633357
O O7 0.936264 0.165741 0.535855
O O8 0.043202 0.000000 0.656649
O O9 0.698517 0.813822 0.874404
O O10 0.661646 0.653505 0.926961
O O11 0.156101 0.305112 0.153602
O O12 0.142642 0.155911 0.047966
O O13 0.000000 0.207331 0.000000
O O14 0.171590 0.500000 0.210944
O O15 0.265262 0.657880 0.347547
O O16 0.773825 0.000000 0.943051
O O17 0.118770 0.000000 0.572492
#
# Coordination Sequence:
#
# PCOD8085160 Si02
#       7
#     8   8   8   8   8   8   8
#     4   9  17  28  42  63  91 117 142 173 205 245
#     4   9  16  28  45  65  88 109 134 175 219 253
#     4  10  19  30  44  62  85 115 145 169 206 255
#     4   9  17  28  44  66  88 113 143 171 209 254
#     4   9  15  26  45  67  90 112 137 175 216 247
#     4  10  20  31  43  62  87 113 142 174 206 249
#     4   8  15  26  43  67  87 105 135 175 218 255
#
# _framework density 15.570570999999999
#
# number of rings (size 3 to 8) (size 9 to 14) (size 15 to 20)
#    0.000    2.857    0.000    3.000    0.000    2.000 
#    0.000    5.000    0.000    0.000    0.000   19.000 
#    0.000    0.000    0.000    0.000    0.000    0.000 
#
# Total GULP energy -347107.899421 kJ/mol
# GULP energy per Si atom -12396.710694 kJ/mol
# Density = 1.553513 g / cm^3
# Si number density = 15.570571 Si / 1000 Ang^3
#
#
#
# Elastic Constant Matrix: (Units=GPa)
#
#
# Indices 1 2 3 4 5 6 
#
# 1 98.3008 40.1987 55.5777 0.0000 7.4218 0.0000
# 2 40.1987 68.3702 39.1685 0.0000 -0.8316 0.0000
# 3 55.5777 39.1685 110.2083 0.0000 6.3492 0.0000
# 4 0.0000 0.0000 0.0000 21.1444 0.0000 -0.9858
# 5 7.4218 -0.8316 6.3492 0.0000 24.8088 0.0000
# 6 0.0000 0.0000 0.0000 -0.9858 0.0000 18.5850
#
#
#
# Elastic Compliance Matrix: (Units=1/GPa)
#
#
# Indices 1 2 3 4 5 6 
#
# 1 0.016286 -0.006320 -0.005759 0.000000 -0.003610 0.000000
# 2 -0.006320 0.020951 -0.004474 0.000000 0.003738 0.000000
# 3 -0.005759 -0.004474 0.013679 0.000000 -0.001928 0.000000
# 4 0.000000 0.000000 0.000000 0.047411 0.000000 0.002515
# 5 -0.003610 0.003738 -0.001928 0.000000 0.042007 0.000000
# 6 0.000000 0.000000 0.000000 0.002515 0.000000 0.053940
#
#
# Mechanical properties :
#
#
# Convention : Reuss Voigt Hill
#
# Bulk Modulus (GPa) = 56.14910 60.75211 58.45060
# Shear Modulus (GPa) = 21.43011 22.36995 21.90003
#
# Velocity S-wave (km/s) = 3.71391 3.79447 3.75440
# Velocity P-wave (km/s) = 7.38445 7.63540 7.51097
#
# Compressibility (1/GPa) = 0.01780972
#
# Stress axis : x y z
#
# Youngs Moduli (GPa) = 61.40300 47.73064 73.10457
#
# Poissons Ratio (x) = 0.30167 0.42099
# Poissons Ratio (y) = 0.38808 0.32708
# Poissons Ratio (z) = 0.35360 0.21355
#
# Static dielectric constant tensor:
#      x y z
#    x 3.159260 0.000000 0.181410 
#    y 0.000000 2.679040 0.000000 
#    z 0.181410 0.000000 2.970450 
# 
# 
# High freq. dielectric constant tensor:
#      x y z
#    x 1.604920 0.000000 0.012250 
#    y 0.000000 1.568670 0.000000 
#    z 0.012250 0.000000 1.590130 
# 
# From -- ./inp_files/245679.got.cif
#   From: 2010.06.25/outbox.cif.g09.slc.cpg/sg12_123_cif.got.tgz:245679.got - 2010.06.28 00:19:55.
