data_PCOD8085476
_publ_section_title
;
Structure prediction by ZEFSAII (Michael W. Deem and Ramdas Pophale) SiO2 
 PCOD8085476
Probable space group: C 2/M
;
_chemical_formula_sum "Si O2"
_cell_formula_units_Z 56
_cell_length_a 5.023450
_cell_length_b 34.234022
_cell_length_c 18.360186
_cell_angle_alpha 90.000000
_cell_angle_beta 68.907004
_cell_angle_gamma 90.000000
_cell_volume 2945.897163
_symmetry_space_group_name_H-M "C 2/M"
_symmetry_group_IT_number 12
_symmetry_cell_setting 'monoclinic'
loop_
_space_group_symop_operation_xyz
x,y,z
-x,y,-z
-x,-y,-z
x,-y,z
1/2+x,1/2+y,z
1/2-x,1/2+y,-z
1/2-x,1/2-y,-z
1/2+x,1/2-y,z
loop_
_atom_site_type_symbol
_atom_site_label
_atom_site_fract_x
_atom_site_fract_y
_atom_site_fract_z
Si Si1 0.311103 0.044405 0.447829
Si Si2 0.722319 0.854976 0.173576
Si Si3 0.823650 0.955860 0.804115
Si Si4 0.331174 0.115455 0.091006
Si Si5 0.840538 0.275129 0.581417
Si Si6 0.439453 0.073995 0.719631
Si Si7 0.725906 0.723162 0.748706
O O1 0.500000 0.045570 0.500000
O O2 0.464909 0.072029 0.373589
O O3 0.000000 0.060783 0.500000
O O4 0.286500 0.000000 0.419754
O O5 0.477215 0.856281 0.136436
O O6 0.626070 0.881114 0.252184
O O7 0.784873 0.810963 0.191516
O O8 0.009814 0.870898 0.108668
O O9 0.675624 0.929070 0.880055
O O10 0.702545 0.943767 0.737953
O O11 0.163077 0.951740 0.765127
O O12 0.745849 0.000000 0.832427
O O13 0.500000 0.117388 0.000000
O O14 0.530220 0.263676 0.580980
O O15 0.826098 0.296449 0.661451
O O16 0.000000 0.299023 0.500000
O O17 0.422470 0.742688 0.761951
#
# Coordination Sequence:
#
# PCOD8085476 Si02
#       7
#     8   8   8   8   8   8   8
#     4  10  19  30  47  71 101 140 182 221 255 288
#     4  10  21  37  57  79 104 137 173 210 262 323
#     4  10  19  32  54  80 104 135 173 214 257 304
#     4  10  21  37  57  79 106 139 168 205 260 318
#     4   8  14  25  43  69  98 125 155 195 244 293
#     4  10  20  34  51  74 107 141 178 217 259 309
#     4  10  19  33  56  80 103 133 173 218 257 304
#
# _framework density 19.009488000000001
#
# number of rings (size 3 to 8) (size 9 to 14) (size 15 to 20)
#    0.000    2.286    0.000    3.429    0.000    1.429 
#    0.000    0.714    0.000   20.571    0.000    0.000 
#    0.000    0.000    0.000    0.000    0.000    0.000 
#
# Total GULP energy -347045.812888 kJ/mol
# GULP energy per Si atom -12394.493317 kJ/mol
# Density = 1.896622 g / cm^3
# Si number density = 19.009488 Si / 1000 Ang^3
#
#
#
# Elastic Constant Matrix: (Units=GPa)
#
#
# Indices 1 2 3 4 5 6 
#
# 1 70.0909 4.3051 6.2852 0.0000 -2.3714 0.0000
# 2 4.3051 69.0293 31.2590 0.0000 5.5750 0.0000
# 3 6.2852 31.2590 113.0156 0.0000 -5.1776 0.0000
# 4 0.0000 0.0000 0.0000 16.6810 0.0000 2.4525
# 5 -2.3714 5.5750 -5.1776 0.0000 22.1908 0.0000
# 6 0.0000 0.0000 0.0000 2.4525 0.0000 18.2395
#
#
#
# Elastic Compliance Matrix: (Units=1/GPa)
#
#
# Indices 1 2 3 4 5 6 
#
# 1 0.014417 -0.000801 -0.000506 0.000000 0.001624 0.000000
# 2 -0.000801 0.017242 -0.004980 0.000000 -0.005579 0.000000
# 3 -0.000506 -0.004980 0.010420 0.000000 0.003628 0.000000
# 4 0.000000 0.000000 0.000000 0.061157 0.000000 -0.008223
# 5 0.001624 -0.005579 0.003628 0.000000 0.047485 0.000000
# 6 0.000000 0.000000 0.000000 -0.008223 0.000000 0.055932
#
#
# Mechanical properties :
#
#
# Convention : Reuss Voigt Hill
#
# Bulk Modulus (GPa) = 33.89257 37.31491 35.60374
# Shear Modulus (GPa) = 21.82805 25.44137 23.63471
#
# Velocity S-wave (km/s) = 3.39229 3.66232 3.52989
# Velocity P-wave (km/s) = 5.76294 6.12827 5.94841
#
# Compressibility (1/GPa) = 0.02950499
#
# Stress axis : x y z
#
# Youngs Moduli (GPa) = 69.36399 57.99672 95.96805
#
# Poissons Ratio (x) = 0.04647 0.04854
# Poissons Ratio (y) = 0.05558 0.47793
# Poissons Ratio (z) = 0.03508 0.28883
#
# Static dielectric constant tensor:
#      x y z
#    x 3.685280 0.000000 0.030570 
#    y 0.000000 3.118900 0.000000 
#    z 0.030570 0.000000 3.371090 
# 
# 
# High freq. dielectric constant tensor:
#      x y z
#    x 1.764270 0.000000 0.000960 
#    y 0.000000 1.695390 0.000000 
#    z 0.000960 0.000000 1.733090 
# 
# From -- ./inp_files/253964.got.cif
#   From: 2010.06.25/outbox.cif.g09.slc.cpg/sg12_127_cif.got.tgz:253964.got - 2010.06.28 00:19:55.
