data_PCOD8085373
_publ_section_title
;
Structure prediction by ZEFSAII (Michael W. Deem and Ramdas Pophale) SiO2 
 PCOD8085373
Probable space group: C 2/M
;
_chemical_formula_sum "Si O2"
_cell_formula_units_Z 64
_cell_length_a 22.936230
_cell_length_b 30.895199
_cell_length_c 4.938484
_cell_angle_alpha 90.000000
_cell_angle_beta 77.333747
_cell_angle_gamma 90.000000
_cell_volume 3414.341076
_symmetry_space_group_name_H-M "C 2/M"
_symmetry_group_IT_number 12
_symmetry_cell_setting 'monoclinic'
loop_
_space_group_symop_operation_xyz
x,y,z
-x,y,-z
-x,-y,-z
x,-y,z
1/2+x,1/2+y,z
1/2-x,1/2+y,-z
1/2-x,1/2-y,-z
1/2+x,1/2-y,z
loop_
_atom_site_type_symbol
_atom_site_label
_atom_site_fract_x
_atom_site_fract_y
_atom_site_fract_z
Si Si1 0.813353 0.174720 0.641093
Si Si2 0.311395 0.049388 0.765456
Si Si3 0.294601 0.272897 0.159161
Si Si4 0.094656 0.640365 0.838910
Si Si5 0.720578 0.103227 0.699348
Si Si6 0.435680 0.088006 0.632682
Si Si7 0.916433 0.735980 0.008406
Si Si8 0.438793 0.709778 0.467979
O O1 0.775135 0.207614 0.476086
O O2 0.784291 0.127382 0.656375
O O3 0.883626 0.176288 0.479226
O O4 0.815081 0.186394 0.956229
O O5 0.278782 0.081109 0.592037
O O6 0.383226 0.052742 0.653007
O O7 0.292420 0.000000 0.739193
O O8 0.288035 0.064441 0.080379
O O9 0.347613 0.240056 0.169869
O O10 0.250000 0.250000 0.000000
O O11 0.166917 0.638006 0.792532
O O12 0.076010 0.629363 0.551164
O O13 0.067635 0.685978 0.963133
O O14 0.064253 0.604508 0.060237
O O15 0.500000 0.066578 0.500000
O O16 0.955136 0.765734 0.172375
O O17 0.922904 0.751663 0.694065
O O18 0.500000 0.685451 0.500000
#
# Coordination Sequence:
#
# PCOD8085373 Si02
#       8
#     8   8   8   8   8   8   8   8
#     4  10  20  33  50  71  97 130 165 206 247 293
#     4  10  21  37  56  77 100 123 151 195 248 303
#     4  10  19  30  46  69  97 129 169 208 245 287
#     4  10  20  32  47  69  97 129 167 211 247 278
#     4  10  20  35  54  75 100 126 158 199 250 301
#     4  10  21  34  49  70  95 128 166 201 240 288
#     4  10  20  31  46  67  93 133 173 208 251 280
#     4  10  21  34  47  68  98 132 172 211 244 283
#
# _framework density 18.744465000000002
#
# number of rings (size 3 to 8) (size 9 to 14) (size 15 to 20)
#    0.000    2.000    0.000    3.750    0.000    7.250 
#    0.000    0.000    0.000    4.500    0.000    0.000 
#    0.000    3.000    0.000    0.000    0.000    0.000 
#
# Total GULP energy -396571.058834 kJ/mol
# GULP energy per Si atom -12392.845589 kJ/mol
# Density = 1.870180 g / cm^3
# Si number density = 18.744465 Si / 1000 Ang^3
#
#
#
# Elastic Constant Matrix: (Units=GPa)
#
#
# Indices 1 2 3 4 5 6 
#
# 1 86.5729 27.4484 1.0538 0.0000 4.6448 0.0000
# 2 27.4484 57.9752 -2.0889 0.0000 -3.1857 0.0000
# 3 1.0538 -2.0889 68.6674 0.0000 9.2272 0.0000
# 4 0.0000 0.0000 0.0000 15.8877 0.0000 1.0514
# 5 4.6448 -3.1857 9.2272 0.0000 24.2194 0.0000
# 6 0.0000 0.0000 0.0000 1.0514 0.0000 11.8319
#
#
#
# Elastic Compliance Matrix: (Units=1/GPa)
#
#
# Indices 1 2 3 4 5 6 
#
# 1 0.013889 -0.006770 0.000062 0.000000 -0.003578 0.000000
# 2 -0.006770 0.020678 0.000203 0.000000 0.003941 0.000000
# 3 0.000062 0.000203 0.015352 0.000000 -0.005834 0.000000
# 4 0.000000 0.000000 0.000000 0.063314 0.000000 -0.005626
# 5 -0.003578 0.003941 -0.005834 0.000000 0.044716 0.000000
# 6 0.000000 0.000000 0.000000 -0.005626 0.000000 0.085017
#
#
# Mechanical properties :
#
#
# Convention : Reuss Voigt Hill
#
# Bulk Modulus (GPa) = 27.09381 29.56024 28.32702
# Shear Modulus (GPa) = 18.63729 22.84127 20.73928
#
# Velocity S-wave (km/s) = 3.15665 3.49458 3.32990
# Velocity P-wave (km/s) = 5.26987 5.66455 5.47077
#
# Compressibility (1/GPa) = 0.03690880
#
# Stress axis : x y z
#
# Youngs Moduli (GPa) = 72.00152 48.36086 65.13753
#
# Poissons Ratio (x) = 0.32740 -0.00402
# Poissons Ratio (y) = 0.48745 -0.01325
# Poissons Ratio (z) = -0.00444 -0.00984
#
# Static dielectric constant tensor:
#      x y z
#    x 3.526860 0.000000 0.207790 
#    y 0.000000 2.910460 0.000000 
#    z 0.207790 0.000000 4.186860 
# 
# 
# High freq. dielectric constant tensor:
#      x y z
#    x 1.719990 0.000000 0.011230 
#    y 0.000000 1.669520 0.000000 
#    z 0.011230 0.000000 1.753560 
# 
# From -- ./inp_files/26406.got.cif
#   From: 2010.06.25/outbox.cif.g09.slc.cpg/sg12_14_cif.got.tgz:26406.got - 2010.06.28 00:19:55.
