data_PCOD8085216
_publ_section_title
;
Structure prediction by ZEFSAII (Michael W. Deem and Ramdas Pophale) SiO2 
 PCOD8085216
Probable space group: C 2/M
;
_chemical_formula_sum "Si O2"
_cell_formula_units_Z 48
_cell_length_a 28.825417
_cell_length_b 23.692998
_cell_length_c 8.480599
_cell_angle_alpha 90.000000
_cell_angle_beta 30.056086
_cell_angle_gamma 90.000000
_cell_volume 2900.865914
_symmetry_space_group_name_H-M "C 2/M"
_symmetry_group_IT_number 12
_symmetry_cell_setting 'monoclinic'
loop_
_space_group_symop_operation_xyz
x,y,z
-x,y,-z
-x,-y,-z
x,-y,z
1/2+x,1/2+y,z
1/2-x,1/2+y,-z
1/2-x,1/2-y,-z
1/2+x,1/2-y,z
loop_
_atom_site_type_symbol
_atom_site_label
_atom_site_fract_x
_atom_site_fract_y
_atom_site_fract_z
Si Si1 0.219926 0.834209 0.279882
Si Si2 0.598411 0.562933 0.644993
Si Si3 0.167300 0.265201 0.625872
Si Si4 0.598606 0.779087 0.143506
Si Si5 0.704347 0.671281 0.952844
Si Si6 0.400729 0.562409 0.729322
O O1 0.181803 0.895108 0.447750
O O2 0.149910 0.788129 0.562754
O O3 0.324825 0.825951 0.032966
O O4 0.219103 0.825271 0.095630
O O5 0.620418 0.500000 0.646124
O O6 0.591502 0.562189 0.479401
O O7 0.500000 0.584679 0.000000
O O8 0.250000 0.250000 0.500000
O O9 0.198398 0.317780 0.423986
O O10 0.084451 0.278542 0.992319
O O11 0.500000 0.797693 0.500000
O O12 0.628870 0.718153 0.123085
O O13 0.671907 0.608939 0.996592
O O14 0.500000 0.580413 0.500000
O O15 0.371345 0.500000 0.877809
#
# Coordination Sequence:
#
# PCOD8085216 Si02
#       6
#     8   8   8   8   8   8
#     4   9  17  30  46  65  90 117 148 183 220 264
#     4   9  18  30  45  67  92 119 148 177 215 265
#     4   8  16  28  43  61  84 112 145 180 216 256
#     4  10  19  30  45  64  88 117 150 186 223 263
#     4   9  16  29  45  62  88 117 147 181 220 264
#     4   9  17  27  41  64  91 116 143 176 215 263
#
# _framework density 16.546783000000001
#
# number of rings (size 3 to 8) (size 9 to 14) (size 15 to 20)
#    0.000    3.333    0.000    2.500    0.000    6.667 
#    0.000    2.500    0.000    0.500    0.000    0.000 
#    0.000    5.333    0.000    0.000    0.000    0.333 
#
# Total GULP energy -297316.259276 kJ/mol
# GULP energy per Si atom -12388.177470 kJ/mol
# Density = 1.650912 g / cm^3
# Si number density = 16.546783 Si / 1000 Ang^3
#
#
#
# Elastic Constant Matrix: (Units=GPa)
#
#
# Indices 1 2 3 4 5 6 
#
# 1 48.1800 34.3230 31.4700 0.0000 8.1209 0.0000
# 2 34.3230 113.0403 57.2712 0.0000 -2.1641 0.0000
# 3 31.4700 57.2712 117.0962 0.0000 9.4735 0.0000
# 4 0.0000 0.0000 0.0000 12.3817 0.0000 1.5331
# 5 8.1209 -2.1641 9.4735 0.0000 23.7901 0.0000
# 6 0.0000 0.0000 0.0000 1.5331 0.0000 16.8393
#
#
#
# Elastic Compliance Matrix: (Units=1/GPa)
#
#
# Indices 1 2 3 4 5 6 
#
# 1 0.030055 -0.007449 -0.003667 0.000000 -0.009477 0.000000
# 2 -0.007449 0.013891 -0.005270 0.000000 0.005905 0.000000
# 3 -0.003667 -0.005270 0.012441 0.000000 -0.004182 0.000000
# 4 0.000000 0.000000 0.000000 0.081685 0.000000 -0.007437
# 5 -0.009477 0.005905 -0.004182 0.000000 0.047472 0.000000
# 6 0.000000 0.000000 0.000000 -0.007437 0.000000 0.060062
#
#
# Mechanical properties :
#
#
# Convention : Reuss Voigt Hill
#
# Bulk Modulus (GPa) = 42.34622 58.27167 50.30894
# Shear Modulus (GPa) = 17.46722 20.95238 19.20980
#
# Velocity S-wave (km/s) = 3.25257 3.56230 3.41095
# Velocity P-wave (km/s) = 6.30499 7.22584 6.78107
#
# Compressibility (1/GPa) = 0.02361486
#
# Stress axis : x y z
#
# Youngs Moduli (GPa) = 33.27234 71.98787 80.37687
#
# Poissons Ratio (x) = 0.53625 0.29477
# Poissons Ratio (y) = 0.24785 0.42358
# Poissons Ratio (z) = 0.12202 0.37937
#
# Static dielectric constant tensor:
#      x y z
#    x 3.224350 0.000000 0.541970 
#    y 0.000000 3.387880 0.000000 
#    z 0.541970 0.000000 3.528160 
# 
# 
# High freq. dielectric constant tensor:
#      x y z
#    x 1.631700 0.000000 0.030590 
#    y 0.000000 1.625190 0.000000 
#    z 0.030590 0.000000 1.620940 
# 
# From -- ./inp_files/113497.got.cif
#   From: 2010.06.25/outbox.cif.g09.slc.cpg/sg12_57_cif.got.tgz:113497.got - 2010.06.28 00:19:55.
