data_PCOD8085490
_publ_section_title
;
Structure prediction by ZEFSAII (Michael W. Deem and Ramdas Pophale) SiO2 
 PCOD8085490
Probable space group: C 2/M
;
_chemical_formula_sum "Si O2"
_cell_formula_units_Z 48
_cell_length_a 23.659000
_cell_length_b 9.366861
_cell_length_c 17.331707
_cell_angle_alpha 90.000000
_cell_angle_beta 133.071459
_cell_angle_gamma 90.000000
_cell_volume 2805.779472
_symmetry_space_group_name_H-M "C 2/M"
_symmetry_group_IT_number 12
_symmetry_cell_setting 'monoclinic'
loop_
_space_group_symop_operation_xyz
x,y,z
-x,y,-z
-x,-y,-z
x,-y,z
1/2+x,1/2+y,z
1/2-x,1/2+y,-z
1/2-x,1/2-y,-z
1/2+x,1/2-y,z
loop_
_atom_site_type_symbol
_atom_site_label
_atom_site_fract_x
_atom_site_fract_y
_atom_site_fract_z
Si Si1 0.570925 0.831780 0.512260
Si Si2 0.722344 0.664292 0.689216
Si Si3 0.251451 0.335824 0.114580
Si Si4 0.803725 0.332442 0.609640
Si Si5 0.037537 0.668672 0.310319
Si Si6 0.367458 0.832195 0.123863
O O1 0.500000 0.788342 0.500000
O O2 0.646571 0.759338 0.616553
O O3 0.553980 0.771309 0.411150
O O4 0.585403 0.000000 0.525263
O O5 0.697294 0.500000 0.657246
O O6 0.764952 0.692029 0.810457
O O7 0.781198 0.707693 0.675981
O O8 0.273029 0.500000 0.118862
O O9 0.323665 0.242119 0.153944
O O10 0.173848 0.293544 0.995529
O O11 0.794139 0.500000 0.583639
O O12 0.750000 0.250000 0.500000
O O13 0.892741 0.283378 0.680888
O O14 0.032614 0.500000 0.310293
O O15 0.955453 0.726944 0.202099
O O16 0.365933 0.000000 0.139447
#
# Coordination Sequence:
#
# PCOD8085490 Si02
#       6
#     8   8   8   8   8   8
#     4  10  19  30  47  71  96 123 158 198 237 282
#     4  10  20  32  47  70  99 127 156 194 242 289
#     4   9  18  32  49  72 100 125 154 195 240 287
#     4  10  19  33  50  68  94 129 164 197 237 283
#     4   9  17  30  48  70  94 121 160 202 233 273
#     4   9  17  32  53  72  93 126 161 194 237 284
#
# _framework density 17.107544000000001
#
# number of rings (size 3 to 8) (size 9 to 14) (size 15 to 20)
#    0.000    2.500    1.667    1.000    0.000    2.333 
#    0.000    2.500    0.000    5.000    0.000    0.000 
#    0.000    8.000    0.000    0.000    0.000    0.000 
#
# Total GULP energy -297573.819508 kJ/mol
# GULP energy per Si atom -12398.909146 kJ/mol
# Density = 1.706861 g / cm^3
# Si number density = 17.107544 Si / 1000 Ang^3
#
#
#
# Elastic Constant Matrix: (Units=GPa)
#
#
# Indices 1 2 3 4 5 6 
#
# 1 143.4631 36.3114 74.2427 0.0000 -8.4959 0.0000
# 2 36.3114 27.7722 27.2906 0.0000 0.1273 0.0000
# 3 74.2427 27.2906 113.7588 0.0000 -2.4112 0.0000
# 4 0.0000 0.0000 0.0000 22.9096 0.0000 1.5219
# 5 -8.4959 0.1273 -2.4112 0.0000 30.5312 0.0000
# 6 0.0000 0.0000 0.0000 1.5219 0.0000 10.9912
#
#
#
# Elastic Compliance Matrix: (Units=1/GPa)
#
#
# Indices 1 2 3 4 5 6 
#
# 1 0.012984 -0.011424 -0.005665 0.000000 0.003213 0.000000
# 2 -0.011424 0.057202 -0.006350 0.000000 -0.003919 0.000000
# 3 -0.005665 -0.006350 0.014002 0.000000 -0.000444 0.000000
# 4 0.000000 0.000000 0.000000 0.044055 0.000000 -0.006100
# 5 0.003213 -0.003919 -0.000444 0.000000 0.033629 0.000000
# 6 0.000000 0.000000 0.000000 -0.006100 0.000000 0.091827
#
#
# Mechanical properties :
#
#
# Convention : Reuss Voigt Hill
#
# Bulk Modulus (GPa) = 26.80303 62.29815 44.55059
# Shear Modulus (GPa) = 15.97383 22.69637 19.33510
#
# Velocity S-wave (km/s) = 3.05901 3.64632 3.36551
# Velocity P-wave (km/s) = 5.30831 7.36357 6.41874
#
# Compressibility (1/GPa) = 0.03730921
#
# Stress axis : x y z
#
# Youngs Moduli (GPa) = 77.01869 17.48197 71.42038
#
# Poissons Ratio (x) = 0.19972 0.40459
# Poissons Ratio (y) = 0.87987 0.45352
# Poissons Ratio (z) = 0.43631 0.11101
#
# Static dielectric constant tensor:
#      x y z
#    x 3.450340 0.000000 0.015530 
#    y 0.000000 3.035880 0.000000 
#    z 0.015530 0.000000 3.356090 
# 
# 
# High freq. dielectric constant tensor:
#      x y z
#    x 1.661850 0.000000 -0.002610 
#    y 0.000000 1.639610 0.000000 
#    z -0.002610 0.000000 1.661790 
# 
# From -- ./inp_files/231703.got.cif
#   From: 2010.06.25/outbox.cif.g09.slc.cpg/sg12_116_cif.got.tgz:231703.got - 2010.06.28 00:19:55.
