data_PCOD8085028
_publ_section_title
;
Structure prediction by ZEFSAII (Michael W. Deem and Ramdas Pophale) SiO2 
 PCOD8085028
Probable space group: C 2/M
;
_chemical_formula_sum "Si O2"
_cell_formula_units_Z 64
_cell_length_a 25.476056
_cell_length_b 14.992492
_cell_length_c 10.234038
_cell_angle_alpha 90.000000
_cell_angle_beta 99.868682
_cell_angle_gamma 90.000000
_cell_volume 3851.047188
_symmetry_space_group_name_H-M "C 2/M"
_symmetry_group_IT_number 12
_symmetry_cell_setting 'monoclinic'
loop_
_space_group_symop_operation_xyz
x,y,z
-x,y,-z
-x,-y,-z
x,-y,z
1/2+x,1/2+y,z
1/2-x,1/2+y,-z
1/2-x,1/2-y,-z
1/2+x,1/2-y,z
loop_
_atom_site_type_symbol
_atom_site_label
_atom_site_fract_x
_atom_site_fract_y
_atom_site_fract_z
Si Si1 0.713511 0.600474 0.938905
Si Si2 0.191234 0.598882 0.546167
Si Si3 0.495681 0.395325 0.856160
Si Si4 0.352849 0.284375 0.443043
Si Si5 0.604257 0.395301 0.759137
Si Si6 0.214965 0.152476 0.220971
Si Si7 0.762103 0.341364 0.698993
Si Si8 0.885531 0.898981 0.695407
O O1 0.713277 0.500000 0.987142
O O2 0.653580 0.629530 0.873727
O O3 0.753955 0.607963 0.833397
O O4 0.732728 0.654769 0.075486
O O5 0.166337 0.500000 0.557318
O O6 0.146472 0.675695 0.552213
O O7 0.240166 0.608715 0.667898
O O8 0.210346 0.601084 0.402727
O O9 0.488432 0.500000 0.869802
O O10 0.548573 0.371481 0.800816
O O11 0.442404 0.359927 0.764418
O O12 0.500000 0.349953 0.000000
O O13 0.395332 0.328018 0.362950
O O14 0.294444 0.312301 0.378512
O O15 0.363870 0.327355 0.585903
O O16 0.607584 0.500000 0.718192
O O17 0.203495 0.253533 0.259851
O O18 0.158839 0.099458 0.208366
O O19 0.891239 0.000000 0.641530
#
# Coordination Sequence:
#
# PCOD8085028 Si02
#       8
#     8   8   8   8   8   8   8   8
#     4  10  19  29  46  69  95 131 166 192 232 283
#     4  11  20  33  51  68  96 130 164 205 247 281
#     4   9  18  31  46  69 100 129 157 189 231 285
#     4  10  19  32  46  70  95 124 167 197 236 284
#     4   9  18  32  48  68 102 134 154 190 239 284
#     4  11  19  31  46  71  97 129 165 200 233 280
#     4  10  19  33  46  66  97 130 162 202 241 282
#     4  11  19  28  48  70  96 128 158 191 229 284
#
# _framework density 16.618856000000001
#
# number of rings (size 3 to 8) (size 9 to 14) (size 15 to 20)
#    0.000    1.875    2.500    3.750    0.000    3.500 
#    0.000    1.875    0.000    0.000    0.000    1.750 
#    0.000    1.000    0.000    0.000    0.000    0.000 
#
# Total GULP energy -396552.074878 kJ/mol
# GULP energy per Si atom -12392.252340 kJ/mol
# Density = 1.658103 g / cm^3
# Si number density = 16.618856 Si / 1000 Ang^3
#
#
#
# Elastic Constant Matrix: (Units=GPa)
#
#
# Indices 1 2 3 4 5 6 
#
# 1 63.0635 24.3859 30.2639 0.0000 -10.8052 0.0000
# 2 24.3859 85.5521 31.0927 0.0000 -6.7378 0.0000
# 3 30.2639 31.0927 102.8313 0.0000 -15.3619 0.0000
# 4 0.0000 0.0000 0.0000 2.5395 0.0000 -28.8587
# 5 -10.8052 -6.7378 -15.3619 0.0000 14.9785 0.0000
# 6 0.0000 0.0000 0.0000 -28.8587 0.0000 -14.8261
#
#
#
# Elastic Compliance Matrix: (Units=1/GPa)
#
#
# Indices 1 2 3 4 5 6 
#
# 1 0.020668 -0.003871 -0.003478 0.000000 0.009601 0.000000
# 2 -0.003871 0.013917 -0.003012 0.000000 0.000378 0.000000
# 3 -0.003478 -0.003012 0.013087 0.000000 0.009558 0.000000
# 4 0.000000 0.000000 0.000000 0.017032 0.000000 -0.033153
# 5 0.009601 0.000378 0.009558 0.000000 0.083662 0.000000
# 6 0.000000 0.000000 0.000000 -0.033153 0.000000 -0.002917
#
#
# Mechanical properties :
#
#
# Convention : Reuss Voigt Hill
#
# Bulk Modulus (GPa) = 37.10663 46.99245 42.04954
# Shear Modulus (GPa) = 28.54638 11.58532 20.06585
#
# Velocity S-wave (km/s) = 4.14902 2.64317 3.47856
# Velocity P-wave (km/s) = 6.73268 6.13621 6.44135
#
# Compressibility (1/GPa) = 0.02694936
#
# Stress axis : x y z
#
# Youngs Moduli (GPa) = 48.38381 71.85595 76.41246
#
# Poissons Ratio (x) = 0.27816 0.26576
# Poissons Ratio (y) = 0.18730 0.23016
# Poissons Ratio (z) = 0.16828 0.21644
#
# Static dielectric constant tensor:
#      x y z
#    x 3.152180 0.000000 0.021920 
#    y 0.000000 3.147260 0.000000 
#    z 0.021920 0.000000 3.464990 
# 
# 
# High freq. dielectric constant tensor:
#      x y z
#    x 1.607200 0.000000 -0.009470 
#    y 0.000000 1.620110 0.000000 
#    z -0.009470 0.000000 1.654030 
# 
# From -- ./inp_files/104544.got.cif
#   From: 2010.06.25/outbox.cif.g09.slc.cpg/sg12_53_cif.got.tgz:104544.got - 2010.06.28 00:19:55.
