data_PCOD8085572
_publ_section_title
;
Structure prediction by ZEFSAII (Michael W. Deem and Ramdas Pophale) SiO2 
 PCOD8085572
Probable space group: C 2/M
;
_chemical_formula_sum "Si O2"
_cell_formula_units_Z 64
_cell_length_a 25.042290
_cell_length_b 9.395894
_cell_length_c 14.486564
_cell_angle_alpha 90.000000
_cell_angle_beta 90.869907
_cell_angle_gamma 90.000000
_cell_volume 3408.218903
_symmetry_space_group_name_H-M "C 2/M"
_symmetry_group_IT_number 12
_symmetry_cell_setting 'monoclinic'
loop_
_space_group_symop_operation_xyz
x,y,z
-x,y,-z
-x,-y,-z
x,-y,z
1/2+x,1/2+y,z
1/2-x,1/2+y,-z
1/2-x,1/2-y,-z
1/2+x,1/2-y,z
loop_
_atom_site_type_symbol
_atom_site_label
_atom_site_fract_x
_atom_site_fract_y
_atom_site_fract_z
Si Si1 0.413735 0.831512 0.490845
Si Si2 0.702286 0.843598 0.529952
Si Si3 0.059489 0.665294 0.309069
Si Si4 0.440136 0.833669 0.289373
Si Si5 0.853836 0.835363 0.172096
Si Si6 0.731213 0.157123 0.735298
Si Si7 0.653243 0.335410 0.214603
Si Si8 0.304183 0.664340 0.982580
O O1 0.353242 0.778635 0.506538
O O2 0.445319 0.782014 0.583458
O O3 0.434588 0.770239 0.393634
O O4 0.416710 0.000000 0.480529
O O5 0.750000 0.750000 0.500000
O O6 0.699230 0.849186 0.639730
O O7 0.711110 0.000000 0.488205
O O8 0.075804 0.500000 0.309120
O O9 0.103634 0.747696 0.252082
O O10 0.001710 0.689220 0.261151
O O11 0.403462 0.750419 0.215691
O O12 0.424226 0.000000 0.284876
O O13 0.796814 0.776975 0.204889
O O14 0.859755 0.000000 0.200581
O O15 0.849995 0.814709 0.061729
O O16 0.793809 0.194428 0.722053
O O17 0.727803 0.000000 0.783048
O O18 0.636325 0.500000 0.217063
O O19 0.667955 0.285454 0.111480
O O20 0.287002 0.500000 0.975906
O O21 0.250000 0.750000 0.000000
#
# Coordination Sequence:
#
# PCOD8085572 Si02
#       8
#     8   8   8   8   8   8   8   8
#     4   9  17  33  56  80 107 143 188 232 274 323
#     4  10  19  30  47  74 109 146 180 218 270 328
#     4  10  21  36  58  85 110 144 193 240 275 319
#     4  10  20  38  60  80 110 152 192 230 277 333
#     4  11  22  35  56  87 113 137 181 236 278 321
#     4  10  19  34  55  78 109 150 184 215 271 340
#     4  10  21  37  57  81 115 151 180 221 284 345
#     4  10  21  37  59  86 113 145 183 224 278 337
#
# _framework density 18.778137000000001
#
# number of rings (size 3 to 8) (size 9 to 14) (size 15 to 20)
#    0.000    2.000    2.500    1.500    0.000    4.000 
#    0.000    1.250    0.000    5.250    0.000    0.000 
#    0.000    0.000    0.000    0.000    0.000    0.000 
#
# Total GULP energy -396623.278976 kJ/mol
# GULP energy per Si atom -12394.477468 kJ/mol
# Density = 1.873540 g / cm^3
# Si number density = 18.778137 Si / 1000 Ang^3
#
#
#
# Elastic Constant Matrix: (Units=GPa)
#
#
# Indices 1 2 3 4 5 6 
#
# 1 105.4956 49.3295 38.5089 0.0000 10.1980 0.0000
# 2 49.3295 73.0289 33.3079 0.0000 2.4493 0.0000
# 3 38.5089 33.3079 82.6819 0.0000 10.9470 0.0000
# 4 0.0000 0.0000 0.0000 24.1799 0.0000 -1.7948
# 5 10.1980 2.4493 10.9470 0.0000 24.5781 0.0000
# 6 0.0000 0.0000 0.0000 -1.7948 0.0000 33.5529
#
#
#
# Elastic Compliance Matrix: (Units=1/GPa)
#
#
# Indices 1 2 3 4 5 6 
#
# 1 0.014992 -0.008637 -0.002968 0.000000 -0.004038 0.000000
# 2 -0.008637 0.021799 -0.005255 0.000000 0.003752 0.000000
# 3 -0.002968 -0.005255 0.016324 0.000000 -0.005516 0.000000
# 4 0.000000 0.000000 0.000000 0.041522 0.000000 0.002221
# 5 -0.004038 0.003752 -0.005516 0.000000 0.044445 0.000000
# 6 0.000000 0.000000 0.000000 0.002221 0.000000 0.029922
#
#
# Mechanical properties :
#
#
# Convention : Reuss Voigt Hill
#
# Bulk Modulus (GPa) = 51.56597 55.94433 53.75515
# Shear Modulus (GPa) = 23.90175 25.79951 24.85063
#
# Velocity S-wave (km/s) = 3.57157 3.71065 3.64178
# Velocity P-wave (km/s) = 6.67296 6.94374 6.80970
#
# Compressibility (1/GPa) = 0.01939264
#
# Stress axis : x y z
#
# Youngs Moduli (GPa) = 66.70366 45.87434 61.25807
#
# Poissons Ratio (x) = 0.39623 0.18183
# Poissons Ratio (y) = 0.57614 0.32194
# Poissons Ratio (z) = 0.19799 0.24109
#
# Static dielectric constant tensor:
#      x y z
#    x 3.545360 0.000000 0.244930 
#    y 0.000000 3.295750 0.000000 
#    z 0.244930 0.000000 3.783120 
# 
# 
# High freq. dielectric constant tensor:
#      x y z
#    x 1.731570 0.000000 0.013780 
#    y 0.000000 1.708060 0.000000 
#    z 0.013780 0.000000 1.727310 
# 
# From -- ./inp_files/238651.got.cif
#   From: 2010.06.25/outbox.cif.g09.slc.cpg/sg12_120_cif.got.tgz:238651.got - 2010.06.28 00:19:55.
