data_PCOD8085539
_publ_section_title
;
Structure prediction by ZEFSAII (Michael W. Deem and Ramdas Pophale) SiO2 
 PCOD8085539
Probable space group: C 2/M
;
_chemical_formula_sum "Si O2"
_cell_formula_units_Z 48
_cell_length_a 27.211957
_cell_length_b 12.860518
_cell_length_c 19.393333
_cell_angle_alpha 90.000000
_cell_angle_beta 160.298395
_cell_angle_gamma 90.000000
_cell_volume 2288.006806
_symmetry_space_group_name_H-M "C 2/M"
_symmetry_group_IT_number 12
_symmetry_cell_setting 'monoclinic'
loop_
_space_group_symop_operation_xyz
x,y,z
-x,y,-z
-x,-y,-z
x,-y,z
1/2+x,1/2+y,z
1/2-x,1/2+y,-z
1/2-x,1/2-y,-z
1/2+x,1/2-y,z
loop_
_atom_site_type_symbol
_atom_site_label
_atom_site_fract_x
_atom_site_fract_y
_atom_site_fract_z
Si Si1 0.291024 0.329759 0.309749
Si Si2 0.542844 0.306721 0.985166
Si Si3 0.329304 0.116625 0.708754
Si Si4 0.416546 0.619213 0.247269
Si Si5 0.468426 0.685236 0.741910
Si Si6 0.847475 0.616447 0.013502
O O1 0.225688 0.398260 0.285809
O O2 0.463612 0.314885 0.551169
O O3 0.255782 0.382217 0.190239
O O4 0.216376 0.214856 0.214066
O O5 0.468542 0.191048 0.886810
O O6 0.499943 0.367965 0.858708
O O7 0.500000 0.366368 0.000000
O O8 0.202047 0.172505 0.496791
O O9 0.366245 0.000000 0.729698
O O10 0.443445 0.500000 0.302890
O O11 0.433502 0.632015 0.187308
O O12 0.254324 0.652078 0.056521
O O13 0.513679 0.807091 0.807120
O O14 0.907906 0.500000 0.104630
#
# Coordination Sequence:
#
# PCOD8085539 Si02
#       6
#     8   8   8   8   8   8
#     4   9  17  29  47  72 100 125 150 186 234 287
#     4   9  19  31  46  69  96 125 158 193 235 280
#     4  10  19  31  49  72  98 127 157 191 233 281
#     4  10  19  31  49  72  98 127 157 191 233 281
#     4  10  19  32  47  68  98 129 159 192 232 279
#     4  10  19  30  47  73 101 127 155 189 232 281
#
# _framework density 20.978959
#
# number of rings (size 3 to 8) (size 9 to 14) (size 15 to 20)
#    0.000    2.333    0.000    4.500    0.000    7.667 
#    0.000    0.000    0.000    2.000    0.000   56.000 
#    0.000   93.333    0.000    0.000    0.000    0.000 
#
# Total GULP energy -297380.253516 kJ/mol
# GULP energy per Si atom -12390.843896 kJ/mol
# Density = 2.093121 g / cm^3
# Si number density = 20.978959 Si / 1000 Ang^3
#
#
#
# Elastic Constant Matrix: (Units=GPa)
#
#
# Indices 1 2 3 4 5 6 
#
# 1 104.6961 5.9117 25.1935 0.0000 -25.1825 0.0000
# 2 5.9117 30.2971 17.9579 0.0000 -3.8920 0.0000
# 3 25.1935 17.9579 78.8296 0.0000 -14.9339 0.0000
# 4 0.0000 0.0000 0.0000 22.6503 0.0000 2.4846
# 5 -25.1825 -3.8920 -14.9339 0.0000 33.4357 0.0000
# 6 0.0000 0.0000 0.0000 2.4846 0.0000 15.3846
#
#
#
# Elastic Compliance Matrix: (Units=1/GPa)
#
#
# Indices 1 2 3 4 5 6 
#
# 1 0.012043 0.000071 -0.002343 0.000000 0.008032 0.000000
# 2 0.000071 0.038171 -0.008594 0.000000 0.000658 0.000000
# 3 -0.002343 -0.008594 0.016243 0.000000 0.004489 0.000000
# 4 0.000000 0.000000 0.000000 0.044946 0.000000 -0.007259
# 5 0.008032 0.000658 0.004489 0.000000 0.038040 0.000000
# 6 0.000000 0.000000 0.000000 -0.007259 0.000000 0.066172
#
#
# Mechanical properties :
#
#
# Convention : Reuss Voigt Hill
#
# Bulk Modulus (GPa) = 22.35900 34.66102 28.51001
# Shear Modulus (GPa) = 19.82121 25.27809 22.54965
#
# Velocity S-wave (km/s) = 3.07712 3.47497 3.28208
# Velocity P-wave (km/s) = 4.82761 5.71474 5.28980
#
# Compressibility (1/GPa) = 0.04472471
#
# Stress axis : x y z
#
# Youngs Moduli (GPa) = 83.03339 26.19799 61.56610
#
# Poissons Ratio (x) = -0.00186 0.14428
# Poissons Ratio (y) = -0.00589 0.52907
# Poissons Ratio (z) = 0.19459 0.22513
#
# Static dielectric constant tensor:
#      x y z
#    x 4.356780 0.000000 -0.064560 
#    y 0.000000 3.242820 0.000000 
#    z -0.064560 0.000000 3.754770 
# 
# 
# High freq. dielectric constant tensor:
#      x y z
#    x 1.845400 0.000000 -0.001240 
#    y 0.000000 1.763790 0.000000 
#    z -0.001240 0.000000 1.812280 
# 
# From -- ./inp_files/330063.got.cif
#   From: 2010.06.25/outbox.cif.g09.slc.cpg/sg12_166_cif.got.tgz:330063.got - 2010.06.28 00:19:55.
