data_PCOD8085730
_publ_section_title
;
Structure prediction by ZEFSAII (Michael W. Deem and Ramdas Pophale) SiO2 
 PCOD8085730
Probable space group: C 2/M
;
_chemical_formula_sum "Si O2"
_cell_formula_units_Z 64
_cell_length_a 20.237831
_cell_length_b 9.094974
_cell_length_c 28.558245
_cell_angle_alpha 90.000000
_cell_angle_beta 137.667213
_cell_angle_gamma 90.000000
_cell_volume 3539.916724
_symmetry_space_group_name_H-M "C 2/M"
_symmetry_group_IT_number 12
_symmetry_cell_setting 'monoclinic'
loop_
_space_group_symop_operation_xyz
x,y,z
-x,y,-z
-x,-y,-z
x,-y,z
1/2+x,1/2+y,z
1/2-x,1/2+y,-z
1/2-x,1/2-y,-z
1/2+x,1/2-y,z
loop_
_atom_site_type_symbol
_atom_site_label
_atom_site_fract_x
_atom_site_fract_y
_atom_site_fract_z
Si Si1 0.442477 0.674893 0.301806
Si Si2 0.536241 0.673644 0.791300
Si Si3 0.610157 0.175103 0.055560
Si Si4 0.017835 0.825257 0.436760
Si Si5 0.258200 0.673280 0.054072
Si Si6 0.154474 0.825351 0.587237
Si Si7 0.725893 0.825234 0.205109
Si Si8 0.850815 0.674340 0.735294
O O1 0.438240 0.500000 0.297567
O O2 0.473911 0.733607 0.267336
O O3 0.516850 0.729297 0.382046
O O4 0.335671 0.737441 0.258991
O O5 0.521356 0.500000 0.785748
O O6 0.641462 0.718814 0.867349
O O7 0.452971 0.750819 0.777528
O O8 0.667039 0.226465 0.038512
O O9 0.664777 0.238907 0.129644
O O10 0.609342 0.000000 0.056786
O O11 0.500000 0.238623 0.000000
O O12 0.920826 0.766079 0.412700
O O13 0.115897 0.771483 0.515742
O O14 0.014368 0.000000 0.435981
O O15 0.254398 0.500000 0.043941
O O16 0.250000 0.750000 0.000000
O O17 0.264686 0.768760 0.655024
O O18 0.155200 0.000000 0.590425
O O19 0.676749 0.772319 0.227271
O O20 0.728664 0.000000 0.204627
O O21 0.863638 0.500000 0.739117
#
# Coordination Sequence:
#
# PCOD8085730 Si02
#       8
#     8   8   8   8   8   8   8   8
#     4   9  14  26  46  67  91 126 167 200 232 279
#     4  10  21  35  49  68 100 135 162 190 231 289
#     4   9  17  29  47  72  96 117 151 202 245 274
#     4   8  12  20  40  68  97 124 153 197 251 288
#     4  10  21  36  53  73  99 129 158 193 239 291
#     4   8  13  22  38  69 103 121 146 201 256 283
#     4   9  15  26  46  71  94 117 157 208 242 268
#     4  10  19  30  49  76 101 125 158 204 246 280
#
# _framework density 18.079522000000001
#
# number of rings (size 3 to 8) (size 9 to 14) (size 15 to 20)
#    0.000    2.875    2.500    0.750    1.750    0.500 
#    0.000    0.625    0.000    1.875    0.000    1.750 
#    0.000    0.000    0.000    0.000    0.000    0.000 
#
# Total GULP energy -396540.924118 kJ/mol
# GULP energy per Si atom -12391.903879 kJ/mol
# Density = 1.803837 g / cm^3
# Si number density = 18.079522 Si / 1000 Ang^3
#
#
#
# Elastic Constant Matrix: (Units=GPa)
#
#
# Indices 1 2 3 4 5 6 
#
# 1 132.0309 20.0340 66.5830 0.0000 -7.2306 0.0000
# 2 20.0340 10.4131 19.1771 0.0000 -0.6941 -0.0001
# 3 66.5830 19.1771 139.5728 0.0000 -19.0611 0.0000
# 4 0.0000 0.0000 0.0000 12.7996 0.0000 -0.3222
# 5 -7.2306 -0.6941 -19.0611 0.0000 35.7929 0.0000
# 6 0.0000 -0.0001 0.0000 -0.3222 0.0000 20.3027
#
#
#
# Elastic Compliance Matrix: (Units=1/GPa)
#
#
# Indices 1 2 3 4 5 6 
#
# 1 0.011763 -0.016536 -0.003299 0.000000 0.000299 0.000000
# 2 -0.016536 0.153682 -0.014318 0.000000 -0.007985 0.000000
# 3 -0.003299 -0.014318 0.011406 0.000000 0.005130 0.000000
# 4 0.000000 0.000000 0.000000 0.078159 0.000000 0.001241
# 5 0.000299 -0.007985 0.005130 0.000000 0.030576 0.000000
# 6 0.000000 0.000000 0.000000 0.001241 0.000000 0.049274
#
#
# Mechanical properties :
#
#
# Convention : Reuss Voigt Hill
#
# Bulk Modulus (GPa) = 9.21264 54.84498 32.02881
# Shear Modulus (GPa) = 11.38051 25.52722 18.45387
#
# Velocity S-wave (km/s) = 2.51165 3.76166 3.19831
# Velocity P-wave (km/s) = 3.67666 7.01912 5.60294
#
# Compressibility (1/GPa) = 0.10854647
#
# Stress axis : x y z
#
# Youngs Moduli (GPa) = 85.01213 6.50694 87.67194
#
# Poissons Ratio (x) = 0.10760 0.28920
# Poissons Ratio (y) = 1.40578 1.25524
# Poissons Ratio (z) = 0.28043 0.09316
#
# Static dielectric constant tensor:
#      x y z
#    x 3.362980 0.000000 -0.100050 
#    y 0.000000 2.623450 0.000000 
#    z -0.100050 0.000000 3.837390 
# 
# 
# High freq. dielectric constant tensor:
#      x y z
#    x 1.695780 0.000000 -0.007980 
#    y 0.000000 1.622140 0.000000 
#    z -0.007980 0.000000 1.722010 
# 
# From -- ./inp_files/365740.got.cif
#   From: 2010.06.25/outbox.cif.g09.slc.cpg/sg12_183_cif.got.tgz:365740.got - 2010.06.28 00:19:55.
