data_PCOD8085973
_publ_section_title
;
Structure prediction by ZEFSAII (Michael W. Deem and Ramdas Pophale) SiO2 
 PCOD8085973
Probable space group: C 2/M
;
_chemical_formula_sum "Si O2"
_cell_formula_units_Z 56
_cell_length_a 27.535449
_cell_length_b 8.689349
_cell_length_c 17.118287
_cell_angle_alpha 90.000000
_cell_angle_beta 126.432940
_cell_angle_gamma 90.000000
_cell_volume 3295.293455
_symmetry_space_group_name_H-M "C 2/M"
_symmetry_group_IT_number 12
_symmetry_cell_setting 'monoclinic'
loop_
_space_group_symop_operation_xyz
x,y,z
-x,y,-z
-x,-y,-z
x,-y,z
1/2+x,1/2+y,z
1/2-x,1/2+y,-z
1/2-x,1/2-y,-z
1/2+x,1/2-y,z
loop_
_atom_site_type_symbol
_atom_site_label
_atom_site_fract_x
_atom_site_fract_y
_atom_site_fract_z
Si Si1 0.399304 0.175888 0.384881
Si Si2 0.728926 0.678024 0.095210
Si Si3 0.922342 0.323677 0.584833
Si Si4 0.294243 0.682038 0.478722
Si Si5 0.274927 0.678431 0.285338
Si Si6 0.544077 0.319478 0.706285
Si Si7 0.345495 0.821410 0.105571
O O1 0.428599 0.191524 0.497590
O O2 0.342586 0.287965 0.322154
O O3 0.447192 0.227590 0.366215
O O4 0.378660 0.000000 0.349012
O O5 0.712924 0.500000 0.071774
O O6 0.728982 0.727349 0.186253
O O7 0.793969 0.716757 0.119870
O O8 0.677165 0.773662 0.001810
O O9 0.923969 0.500000 0.613738
O O10 0.860403 0.250380 0.556220
O O11 0.978674 0.232751 0.676604
O O12 0.298332 0.500000 0.489874
O O13 0.250000 0.750000 0.500000
O O14 0.268149 0.730923 0.368906
O O15 0.260823 0.500000 0.261040
O O16 0.544652 0.500000 0.691063
O O17 0.595174 0.275951 0.817669
O O18 0.362507 0.000000 0.122296
#
# Coordination Sequence:
#
# PCOD8085973 Si02
#       7
#     8   8   8   8   8   8   8
#     4  10  19  31  46  67  96 133 171 205 243 291
#     4  10  19  31  48  70  98 133 172 210 250 293
#     4  10  21  35  51  70  97 131 168 207 249 299
#     4  10  21  37  56  79 103 129 164 207 256 303
#     4  10  19  31  50  74 101 132 167 207 250 298
#     4  12  22  31  46  69 100 135 171 207 246 293
#     4  10  20  32  47  67  98 136 174 211 247 289
#
# _framework density 16.993933999999999
#
# number of rings (size 3 to 8) (size 9 to 14) (size 15 to 20)
#    0.000    1.714    1.429    4.286    0.000    6.286 
#    0.000    0.000    0.000    0.000    0.000    1.000 
#    0.000    8.000    0.000    0.000    0.000    0.000 
#
# Total GULP energy -347266.240794 kJ/mol
# GULP energy per Si atom -12402.365743 kJ/mol
# Density = 1.695526 g / cm^3
# Si number density = 16.993934 Si / 1000 Ang^3
#
#
#
# Elastic Constant Matrix: (Units=GPa)
#
#
# Indices 1 2 3 4 5 6 
#
# 1 82.6432 28.3259 46.9425 0.0000 3.5143 0.0000
# 2 28.3259 70.8896 36.9112 0.0000 2.8028 0.0000
# 3 46.9425 36.9112 93.3924 0.0000 6.9846 0.0000
# 4 0.0000 0.0000 0.0000 30.6127 0.0000 2.5828
# 5 3.5143 2.8028 6.9846 0.0000 15.7355 0.0000
# 6 0.0000 0.0000 0.0000 2.5828 0.0000 24.8942
#
#
#
# Elastic Compliance Matrix: (Units=1/GPa)
#
#
# Indices 1 2 3 4 5 6 
#
# 1 0.017436 -0.003027 -0.007568 0.000000 0.000004 0.000000
# 2 -0.003027 0.018287 -0.005702 0.000000 -0.000050 0.000000
# 3 -0.007568 -0.005702 0.017132 0.000000 -0.004898 0.000000
# 4 0.000000 0.000000 0.000000 0.032955 0.000000 -0.003419
# 5 0.000004 -0.000050 -0.004898 0.000000 0.065733 0.000000
# 6 0.000000 0.000000 0.000000 -0.003419 0.000000 0.040525
#
#
# Mechanical properties :
#
#
# Convention : Reuss Voigt Hill
#
# Bulk Modulus (GPa) = 49.35769 52.36494 50.86132
# Shear Modulus (GPa) = 21.60622 23.23155 22.41888
#
# Velocity S-wave (km/s) = 3.56955 3.70137 3.63606
# Velocity P-wave (km/s) = 6.78942 7.01054 6.90087
#
# Compressibility (1/GPa) = 0.02026027
#
# Stress axis : x y z
#
# Youngs Moduli (GPa) = 57.35169 54.68374 58.37145
#
# Poissons Ratio (x) = 0.16551 0.44177
# Poissons Ratio (y) = 0.17358 0.33286
# Poissons Ratio (z) = 0.43405 0.31183
#
# Static dielectric constant tensor:
#      x y z
#    x 2.822120 0.000000 0.006880 
#    y 0.000000 3.263660 0.000000 
#    z 0.006880 0.000000 3.232100 
# 
# 
# High freq. dielectric constant tensor:
#      x y z
#    x 1.607010 0.000000 0.007970 
#    y 0.000000 1.673760 0.000000 
#    z 0.007970 0.000000 1.656460 
# 
# From -- ./inp_files/291834.got.cif
#   From: 2010.06.25/outbox.cif.g09.slc.cpg/sg12_146_cif.got.tgz:291834.got - 2010.06.28 00:19:55.
