data_PCOD8085384
_publ_section_title
;
Structure prediction by ZEFSAII (Michael W. Deem and Ramdas Pophale) SiO2 
 PCOD8085384
Probable space group: C 2/M
;
_chemical_formula_sum "Si O2"
_cell_formula_units_Z 64
_cell_length_a 31.292664
_cell_length_b 9.071449
_cell_length_c 15.647855
_cell_angle_alpha 90.000000
_cell_angle_beta 54.468571
_cell_angle_gamma 90.000000
_cell_volume 3614.847845
_symmetry_space_group_name_H-M "C 2/M"
_symmetry_group_IT_number 12
_symmetry_cell_setting 'monoclinic'
loop_
_space_group_symop_operation_xyz
x,y,z
-x,y,-z
-x,-y,-z
x,-y,z
1/2+x,1/2+y,z
1/2-x,1/2+y,-z
1/2-x,1/2-y,-z
1/2+x,1/2-y,z
loop_
_atom_site_type_symbol
_atom_site_label
_atom_site_fract_x
_atom_site_fract_y
_atom_site_fract_z
Si Si1 0.038553 0.330041 0.291702
Si Si2 0.674760 0.328467 0.537943
Si Si3 0.141937 0.670895 0.080063
Si Si4 0.229697 0.171471 0.651374
Si Si5 0.921589 0.670628 0.421951
Si Si6 0.692191 0.331766 0.171888
Si Si7 0.415667 0.669929 0.607159
Si Si8 0.294350 0.172639 0.152577
O O1 0.047111 0.500000 0.309018
O O2 0.082092 0.280818 0.170957
O O3 0.043206 0.229435 0.370578
O O4 0.980976 0.307926 0.317743
O O5 0.672617 0.500000 0.517277
O O6 0.714773 0.253201 0.425043
O O7 0.692474 0.299144 0.613873
O O8 0.617224 0.259199 0.594885
O O9 0.150084 0.500000 0.087288
O O10 0.184013 0.747151 0.092914
O O11 0.155320 0.708452 0.965941
O O12 0.199119 0.236253 0.768106
O O13 0.241316 0.000000 0.650746
O O14 0.905165 0.500000 0.441397
O O15 0.919526 0.731608 0.519461
O O16 0.701339 0.500000 0.135943
O O17 0.642887 0.310439 0.290719
O O18 0.742609 0.270867 0.163407
O O19 0.428925 0.500000 0.571461
O O20 0.290463 0.000000 0.179627
#
# Coordination Sequence:
#
# PCOD8085384 Si02
#       8
#     8   8   8   8   8   8   8   8
#     4   9  19  34  48  67  99 134 171 213 248 285
#     4  10  21  37  55  76 102 127 156 197 242 294
#     4   9  18  32  49  69  96 133 171 206 244 282
#     4  10  21  36  55  78 102 128 156 191 242 298
#     4  11  21  32  50  73  97 130 169 207 250 295
#     4   9  18  30  44  68 100 130 161 200 244 289
#     4  10  19  30  46  70 101 134 167 205 250 298
#     4  10  19  31  50  74 100 131 166 203 243 288
#
# _framework density 17.704756
#
# number of rings (size 3 to 8) (size 9 to 14) (size 15 to 20)
#    0.000    2.250    0.000    3.000    0.000    6.500 
#    0.000    0.000    0.000    0.750    0.000    5.250 
#    0.000    0.000    0.000    0.000    0.000    0.000 
#
# Total GULP energy -396856.153650 kJ/mol
# GULP energy per Si atom -12401.754802 kJ/mol
# Density = 1.766446 g / cm^3
# Si number density = 17.704756 Si / 1000 Ang^3
#
#
#
# Elastic Constant Matrix: (Units=GPa)
#
#
# Indices 1 2 3 4 5 6 
#
# 1 94.7838 47.4872 46.7000 0.0000 -8.1658 0.0000
# 2 47.4872 84.5794 47.9692 0.0000 2.5783 0.0001
# 3 46.7000 47.9692 91.9372 0.0000 10.6591 0.0000
# 4 0.0000 0.0000 0.0000 26.8889 0.0000 4.3902
# 5 -8.1658 2.5783 10.6591 0.0000 16.1444 0.0000
# 6 0.0000 0.0001 0.0000 4.3902 0.0000 30.0601
#
#
#
# Elastic Compliance Matrix: (Units=1/GPa)
#
#
# Indices 1 2 3 4 5 6 
#
# 1 0.019368 -0.006703 -0.008231 0.000000 0.016301 0.000000
# 2 -0.006703 0.019282 -0.006395 0.000000 -0.002247 0.000000
# 3 -0.008231 -0.006395 0.020314 0.000000 -0.016553 0.000000
# 4 0.000000 0.000000 0.000000 0.038099 0.000000 -0.005564
# 5 0.016301 -0.002247 -0.016553 0.000000 0.081474 0.000000
# 6 0.000000 0.000000 0.000000 -0.005564 0.000000 0.034079
#
#
# Mechanical properties :
#
#
# Convention : Reuss Voigt Hill
#
# Bulk Modulus (GPa) = 61.32672 61.73481 61.53077
# Shear Modulus (GPa) = 19.17843 23.22830 21.20336
#
# Velocity S-wave (km/s) = 3.29483 3.62606 3.46440
# Velocity P-wave (km/s) = 7.01343 7.24402 7.12966
#
# Compressibility (1/GPa) = 0.01630611
#
# Stress axis : x y z
#
# Youngs Moduli (GPa) = 51.63084 51.86093 49.22777
#
# Poissons Ratio (x) = 0.34764 0.40518
# Poissons Ratio (y) = 0.34609 0.31482
# Poissons Ratio (z) = 0.42495 0.33166
#
# Static dielectric constant tensor:
#      x y z
#    x 3.270890 0.000000 -0.196710 
#    y 0.000000 3.360920 0.000000 
#    z -0.196710 0.000000 3.371380 
# 
# 
# High freq. dielectric constant tensor:
#      x y z
#    x 1.669330 0.000000 -0.012090 
#    y 0.000000 1.691630 0.000000 
#    z -0.012090 0.000000 1.679320 
# 
# From -- ./inp_files/248964.got.cif
#   From: 2010.06.25/outbox.cif.g09.slc.cpg/sg12_125_cif.got.tgz:248964.got - 2010.06.28 00:19:55.
