data_PCOD8085975
_publ_section_title
;
Structure prediction by ZEFSAII (Michael W. Deem and Ramdas Pophale) SiO2 
 PCOD8085975
Probable space group: C 2/M
;
_chemical_formula_sum "Si O2"
_cell_formula_units_Z 48
_cell_length_a 23.464663
_cell_length_b 9.124653
_cell_length_c 15.414084
_cell_angle_alpha 90.000000
_cell_angle_beta 56.934607
_cell_angle_gamma 90.000000
_cell_volume 2765.779213
_symmetry_space_group_name_H-M "C 2/M"
_symmetry_group_IT_number 12
_symmetry_cell_setting 'monoclinic'
loop_
_space_group_symop_operation_xyz
x,y,z
-x,y,-z
-x,-y,-z
x,-y,z
1/2+x,1/2+y,z
1/2-x,1/2+y,-z
1/2-x,1/2-y,-z
1/2+x,1/2-y,z
loop_
_atom_site_type_symbol
_atom_site_label
_atom_site_fract_x
_atom_site_fract_y
_atom_site_fract_z
Si Si1 0.969011 0.173273 0.116796
Si Si2 0.999329 0.334657 0.258527
Si Si3 0.658080 0.162985 0.569790
Si Si4 0.680295 0.331585 0.715523
Si Si5 0.825296 0.670581 0.637578
Si Si6 0.053008 0.826268 0.381093
O O1 0.889641 0.224582 0.182996
O O2 0.011966 0.253851 0.156290
O O3 0.976310 0.000000 0.124660
O O4 0.000000 0.223957 0.000000
O O5 0.029095 0.500000 0.230856
O O6 0.034707 0.243886 0.304866
O O7 0.919994 0.337891 0.339958
O O8 0.697954 0.257099 0.608391
O O9 0.663676 0.228896 0.469219
O O10 0.689140 0.000000 0.544800
O O11 0.671872 0.500000 0.699260
O O12 0.744821 0.306502 0.726208
O O13 0.846689 0.500000 0.629292
O O14 0.871263 0.769894 0.661001
O O15 0.000000 0.775720 0.500000
O O16 0.053337 0.000000 0.371395
#
# Coordination Sequence:
#
# PCOD8085975 Si02
#       6
#     8   8   8   8   8   8
#     4   9  18  34  55  77 102 129 160 206 257 297
#     4  10  19  32  51  74 101 131 167 207 244 290
#     4   9  17  28  44  67  97 131 161 196 242 287
#     4   9  18  30  47  71  97 128 165 201 243 294
#     4  10  19  31  46  67  99 135 167 199 238 288
#     4  11  22  33  48  71 100 136 173 203 236 289
#
# _framework density 17.354965
#
# number of rings (size 3 to 8) (size 9 to 14) (size 15 to 20)
#    0.000    2.333    1.667    1.500    0.000    3.000 
#    0.000    0.000    0.000    1.000    0.000    0.000 
#    0.000    0.000    0.000    0.000    0.000    0.000 
#
# Total GULP energy -297524.581214 kJ/mol
# GULP energy per Si atom -12396.857551 kJ/mol
# Density = 1.731546 g / cm^3
# Si number density = 17.354965 Si / 1000 Ang^3
#
#
#
# Elastic Constant Matrix: (Units=GPa)
#
#
# Indices 1 2 3 4 5 6 
#
# 1 99.0121 47.4320 42.9761 0.0000 21.3972 0.0000
# 2 47.4320 69.5380 37.1502 0.0000 14.4813 0.0000
# 3 42.9761 37.1502 98.9014 0.0000 17.2038 0.0000
# 4 0.0000 0.0000 0.0000 20.7480 0.0000 7.4294
# 5 21.3972 14.4813 17.2038 0.0000 20.2377 0.0000
# 6 0.0000 0.0000 0.0000 7.4294 0.0000 31.1463
#
#
#
# Elastic Compliance Matrix: (Units=1/GPa)
#
#
# Indices 1 2 3 4 5 6 
#
# 1 0.017475 -0.008363 -0.002675 0.000000 -0.010219 0.000000
# 2 -0.008363 0.023287 -0.004404 0.000000 -0.004077 0.000000
# 3 -0.002675 -0.004404 0.013950 0.000000 -0.005880 0.000000
# 4 0.000000 0.000000 0.000000 0.052699 0.000000 -0.012570
# 5 -0.010219 -0.004077 -0.005880 0.000000 0.068133 0.000000
# 6 0.000000 0.000000 0.000000 -0.012570 0.000000 0.035105
#
#
# Mechanical properties :
#
#
# Convention : Reuss Voigt Hill
#
# Bulk Modulus (GPa) = 41.96535 58.06316 50.01425
# Shear Modulus (GPa) = 20.04205 23.75261 21.89733
#
# Velocity S-wave (km/s) = 3.40197 3.70352 3.55594
# Velocity P-wave (km/s) = 6.29796 7.19840 6.76318
#
# Compressibility (1/GPa) = 0.02382919
#
# Stress axis : x y z
#
# Youngs Moduli (GPa) = 57.22339 42.94255 71.68252
#
# Poissons Ratio (x) = 0.35913 0.19173
# Poissons Ratio (y) = 0.47856 0.31569
# Poissons Ratio (z) = 0.15306 0.18912
#
# Static dielectric constant tensor:
#      x y z
#    x 3.344210 0.000000 -0.060060 
#    y 0.000000 3.342630 0.000000 
#    z -0.060060 0.000000 3.100180 
# 
# 
# High freq. dielectric constant tensor:
#      x y z
#    x 1.670890 0.000000 0.000650 
#    y 0.000000 1.670620 0.000000 
#    z 0.000650 0.000000 1.639240 
# 
# From -- ./inp_files/172403.got.cif
#   From: 2010.06.25/outbox.cif.g09.slc.cpg/sg12_87_cif.got.tgz:172403.got - 2010.06.28 00:19:55.
