data_PCOD8085351
_publ_section_title
;
Structure prediction by ZEFSAII (Michael W. Deem and Ramdas Pophale) SiO2 
 PCOD8085351
Probable space group: C 2/M
;
_chemical_formula_sum "Si O2"
_cell_formula_units_Z 64
_cell_length_a 18.649531
_cell_length_b 9.210800
_cell_length_c 22.537143
_cell_angle_alpha 90.000000
_cell_angle_beta 112.969316
_cell_angle_gamma 90.000000
_cell_volume 3564.419912
_symmetry_space_group_name_H-M "C 2/M"
_symmetry_group_IT_number 12
_symmetry_cell_setting 'monoclinic'
loop_
_space_group_symop_operation_xyz
x,y,z
-x,y,-z
-x,-y,-z
x,-y,z
1/2+x,1/2+y,z
1/2-x,1/2+y,-z
1/2-x,1/2-y,-z
1/2+x,1/2-y,z
loop_
_atom_site_type_symbol
_atom_site_label
_atom_site_fract_x
_atom_site_fract_y
_atom_site_fract_z
Si Si1 0.867837 0.664039 0.051489
Si Si2 0.641840 0.834141 0.420257
Si Si3 0.258497 0.835922 0.303319
Si Si4 0.412365 0.332097 0.701823
Si Si5 0.206209 0.665132 0.558755
Si Si6 0.707589 0.335820 0.070981
Si Si7 0.557422 0.331395 0.823603
Si Si8 0.214218 0.168339 0.804176
O O1 0.894323 0.500000 0.046057
O O2 0.786481 0.665051 0.059282
O O3 0.932940 0.741546 0.112674
O O4 0.859160 0.751422 0.987102
O O5 0.581113 0.743473 0.360875
O O6 0.729359 0.784795 0.434559
O O7 0.633063 0.813269 0.489497
O O8 0.630921 0.000000 0.398033
O O9 0.170446 0.799769 0.294872
O O10 0.316200 0.817318 0.378954
O O11 0.286083 0.723465 0.263092
O O12 0.263280 0.000000 0.279737
O O13 0.426745 0.500000 0.694621
O O14 0.479853 0.272395 0.766596
O O15 0.239955 0.500000 0.561135
O O16 0.679499 0.500000 0.074119
O O17 0.720732 0.255213 0.137627
O O18 0.551076 0.500000 0.838960
O O19 0.629016 0.303359 0.802706
O O20 0.236637 0.000000 0.813370
#
# Coordination Sequence:
#
# PCOD8085351 Si02
#       8
#     8   8   8   8   8   8   8   8
#     4   9  16  26  43  68  93 115 146 189 228 260
#     4   9  15  24  42  67  90 112 146 191 230 262
#     4   9  17  30  47  66  90 120 151 182 222 272
#     4   9  18  32  48  66  91 123 154 184 222 270
#     4   8  15  27  42  62  89 119 149 183 224 270
#     4   9  16  27  44  65  90 120 151 182 221 268
#     4   9  18  32  48  66  91 123 154 183 221 270
#     4  10  19  30  46  69  94 118 149 189 227 263
#
# _framework density 17.955235999999999
#
# number of rings (size 3 to 8) (size 9 to 14) (size 15 to 20)
#    0.000    3.000    0.000    2.250    0.000    6.500 
#    0.000    0.000    0.000    1.500    0.000   10.500 
#    0.000    0.000    0.000    0.000    0.000    0.000 
#
# Total GULP energy -396587.534838 kJ/mol
# GULP energy per Si atom -12393.360464 kJ/mol
# Density = 1.791437 g / cm^3
# Si number density = 17.955236 Si / 1000 Ang^3
#
#
#
# Elastic Constant Matrix: (Units=GPa)
#
#
# Indices 1 2 3 4 5 6 
#
# 1 10.4954 7.3315 -2.1406 0.0000 -0.9643 0.0000
# 2 7.3315 80.8928 20.9847 0.0000 -3.2311 0.0000
# 3 -2.1406 20.9847 46.7992 0.0000 1.8420 0.0000
# 4 0.0000 0.0000 0.0000 38.7010 0.0000 -2.0904
# 5 -0.9643 -3.2311 1.8420 0.0000 23.9326 0.0000
# 6 0.0000 0.0000 0.0000 -2.0904 0.0000 15.2756
#
#
#
# Elastic Compliance Matrix: (Units=1/GPa)
#
#
# Indices 1 2 3 4 5 6 
#
# 1 0.106059 -0.012198 0.010248 0.000000 0.001838 0.000000
# 2 -0.012198 0.015528 -0.007607 0.000000 0.002190 0.000000
# 3 0.010248 -0.007607 0.025349 0.000000 -0.002565 0.000000
# 4 0.000000 0.000000 0.000000 0.026032 0.000000 0.003562
# 5 0.001838 0.002190 -0.002565 0.000000 0.042351 0.000000
# 6 0.000000 0.000000 0.000000 0.003562 0.000000 0.065951
#
#
# Mechanical properties :
#
#
# Convention : Reuss Voigt Hill
#
# Bulk Modulus (GPa) = 7.82329 21.17093 14.49711
# Shear Modulus (GPa) = 14.57766 23.04930 18.81348
#
# Velocity S-wave (km/s) = 2.85246 3.58678 3.24048
# Velocity P-wave (km/s) = 3.90067 5.38236 4.70027
#
# Compressibility (1/GPa) = 0.12782349
#
# Stress axis : x y z
#
# Youngs Moduli (GPa) = 9.42871 64.39813 39.44987
#
# Poissons Ratio (x) = 0.78550 -0.40429
# Poissons Ratio (y) = 0.11501 0.30010
# Poissons Ratio (z) = -0.09663 0.48988
#
# Static dielectric constant tensor:
#      x y z
#    x 2.696610 0.000000 0.036780 
#    y 0.000000 3.417120 0.000000 
#    z 0.036780 0.000000 3.777580 
# 
# 
# High freq. dielectric constant tensor:
#      x y z
#    x 1.617260 0.000000 -0.001520 
#    y 0.000000 1.703440 0.000000 
#    z -0.001520 0.000000 1.720170 
# 
# From -- ./inp_files/345607.got.cif
#   From: 2010.06.25/outbox.cif.g09.slc.cpg/sg12_173_cif.got.tgz:345607.got - 2010.06.28 00:19:55.
