data_PCOD8085168
_publ_section_title
;
Structure prediction by ZEFSAII (Michael W. Deem and Ramdas Pophale) SiO2 
 PCOD8085168
Probable space group: C 2/M
;
_chemical_formula_sum "Si O2"
_cell_formula_units_Z 64
_cell_length_a 27.661805
_cell_length_b 9.057212
_cell_length_c 26.495985
_cell_angle_alpha 90.000000
_cell_angle_beta 33.761077
_cell_angle_gamma 90.000000
_cell_volume 3689.093976
_symmetry_space_group_name_H-M "C 2/M"
_symmetry_group_IT_number 12
_symmetry_cell_setting 'monoclinic'
loop_
_space_group_symop_operation_xyz
x,y,z
-x,y,-z
-x,-y,-z
x,-y,z
1/2+x,1/2+y,z
1/2-x,1/2+y,-z
1/2-x,1/2-y,-z
1/2+x,1/2-y,z
loop_
_atom_site_type_symbol
_atom_site_label
_atom_site_fract_x
_atom_site_fract_y
_atom_site_fract_z
Si Si1 0.667901 0.325840 0.545932
Si Si2 0.986910 0.339847 0.952581
Si Si3 0.680031 0.669734 0.886456
Si Si4 0.728227 0.827860 0.635928
Si Si5 0.112055 0.828424 0.121323
Si Si6 0.766588 0.668689 0.912755
Si Si7 0.565003 0.175713 0.713150
Si Si8 0.822059 0.674225 0.215291
O O1 0.665869 0.500000 0.559407
O O2 0.750000 0.250000 0.500000
O O3 0.682584 0.297247 0.472834
O O4 0.581521 0.246877 0.642789
O O5 0.963904 0.500000 0.948097
O O6 0.079935 0.281347 0.851910
O O7 0.909212 0.226423 0.010444
O O8 0.000000 0.362664 0.000000
O O9 0.665802 0.500000 0.885911
O O10 0.755286 0.694282 0.862623
O O11 0.707559 0.749429 0.810857
O O12 0.642879 0.764795 0.681324
O O13 0.737063 0.769475 0.686118
O O14 0.709594 0.000000 0.656230
O O15 0.157025 0.774789 0.134274
O O16 0.024936 0.736133 0.186399
O O17 0.088964 0.000000 0.146493
O O18 0.176037 0.794693 0.019344
O O19 0.793218 0.500000 0.901203
O O20 0.561459 0.000000 0.711124
O O21 0.815598 0.500000 0.210762
#
# Coordination Sequence:
#
# PCOD8085168 Si02
#       8
#     8   8   8   8   8   8   8   8
#     4   9  16  29  47  68  96 126 157 192 232 277
#     4   8  15  26  40  57  82 116 154 189 217 256
#     4  10  19  30  44  63  90 121 152 189 235 275
#     4   8  16  29  46  68  95 127 158 189 223 267
#     4  10  20  34  51  71  91 117 158 199 235 278
#     4   9  20  36  49  65  94 124 153 195 241 280
#     4  10  19  31  49  71  96 126 157 190 236 283
#     4   9  17  30  44  63  90 121 160 192 218 264
#
# _framework density 17.348433
#
# number of rings (size 3 to 8) (size 9 to 14) (size 15 to 20)
#    0.000    2.875    0.000    3.000    1.750    3.750 
#    0.000    3.750    0.000    0.000    0.000    0.875 
#    0.000    7.000    0.000    0.000    0.000    0.000 
#
# Total GULP energy -396491.060786 kJ/mol
# GULP energy per Si atom -12390.345650 kJ/mol
# Density = 1.730895 g / cm^3
# Si number density = 17.348433 Si / 1000 Ang^3
#
#
#
# Elastic Constant Matrix: (Units=GPa)
#
#
# Indices 1 2 3 4 5 6 
#
# 1 66.0674 27.3779 18.9193 0.0022 15.7168 -0.0008
# 2 27.3779 72.3057 20.6495 0.0023 6.3249 -0.0100
# 3 18.9193 20.6495 50.4884 0.0048 15.5442 0.0001
# 4 0.0022 0.0023 0.0048 26.8498 -0.0001 -2.3748
# 5 15.7168 6.3249 15.5442 -0.0001 25.3225 0.0016
# 6 -0.0008 -0.0100 0.0001 -2.3748 0.0016 22.4321
#
#
#
# Elastic Compliance Matrix: (Units=1/GPa)
#
#
# Indices 1 2 3 4 5 6 
#
# 1 0.020763 -0.006391 -0.002084 -0.000001 -0.010011 -0.000001
# 2 -0.006391 0.017626 -0.005771 0.000001 0.003106 0.000008
# 3 -0.002084 -0.005771 0.027257 -0.000004 -0.013997 -0.000002
# 4 -0.000001 0.000001 -0.000004 0.037596 0.000003 0.003980
# 5 -0.010011 0.003106 -0.013997 0.000003 0.053520 -0.000003
# 6 -0.000001 0.000008 -0.000002 0.003980 -0.000003 0.045000
#
#
# Mechanical properties :
#
#
# Convention : Reuss Voigt Hill
#
# Bulk Modulus (GPa) = 26.91465 35.86166 31.38815
# Shear Modulus (GPa) = 20.60678 23.04854 21.82766
#
# Velocity S-wave (km/s) = 3.45021 3.64890 3.55095
# Velocity P-wave (km/s) = 5.60534 6.20233 5.91138
#
# Compressibility (1/GPa) = 0.03715449
#
# Stress axis : x y z
#
# Youngs Moduli (GPa) = 48.16327 56.73363 36.68786
#
# Poissons Ratio (x) = 0.36256 0.07648
# Poissons Ratio (y) = 0.30779 0.21171
# Poissons Ratio (z) = 0.10040 0.32739
#
# Static dielectric constant tensor:
#      x y z
#    x 3.101930 -0.000010 0.311970 
#    y -0.000010 3.225550 0.000010 
#    z 0.311970 0.000010 3.768580 
# 
# 
# High freq. dielectric constant tensor:
#      x y z
#    x 1.641730 0.000000 0.026510 
#    y 0.000000 1.667230 0.000000 
#    z 0.026510 0.000000 1.652810 
# 
# From -- ./inp_files/384523.got.cif
#   From: 2010.06.25/outbox.cif.g09.slc.cpg/sg12_193_cif.got.tgz:384523.got - 2010.06.28 00:19:55.
