data_PCOD8085784
_publ_section_title
;
Structure prediction by ZEFSAII (Michael W. Deem and Ramdas Pophale) SiO2 
 PCOD8085784
Probable space group: C 2/M
;
_chemical_formula_sum "Si O2"
_cell_formula_units_Z 56
_cell_length_a 18.938886
_cell_length_b 9.443541
_cell_length_c 24.186449
_cell_angle_alpha 90.000000
_cell_angle_beta 48.294561
_cell_angle_gamma 90.000000
_cell_volume 3229.496894
_symmetry_space_group_name_H-M "C 2/M"
_symmetry_group_IT_number 12
_symmetry_cell_setting 'monoclinic'
loop_
_space_group_symop_operation_xyz
x,y,z
-x,y,-z
-x,-y,-z
x,-y,z
1/2+x,1/2+y,z
1/2-x,1/2+y,-z
1/2-x,1/2-y,-z
1/2+x,1/2-y,z
loop_
_atom_site_type_symbol
_atom_site_label
_atom_site_fract_x
_atom_site_fract_y
_atom_site_fract_z
Si Si1 0.805573 0.838154 0.548817
Si Si2 0.345989 0.665296 0.942608
Si Si3 0.084191 0.666104 0.998236
Si Si4 0.403320 0.836631 0.581647
Si Si5 0.293785 0.339507 0.850618
Si Si6 0.092052 0.338059 0.293158
Si Si7 0.385137 0.160223 0.409717
O O1 0.820900 0.758606 0.598446
O O2 0.694462 0.823812 0.595060
O O3 0.867818 0.766955 0.468644
O O4 0.838090 0.000000 0.536223
O O5 0.335665 0.500000 0.965044
O O6 0.363965 0.677497 0.867187
O O7 0.250000 0.750000 0.000000
O O8 0.425544 0.741762 0.939669
O O9 0.079391 0.500000 0.016012
O O10 0.185496 0.706596 0.919091
O O11 0.000000 0.707829 0.000000
O O12 0.500000 0.798616 0.500000
O O13 0.408129 0.793914 0.642805
O O14 0.376987 0.000000 0.587409
O O15 0.293346 0.500000 0.830528
O O16 0.331784 0.249223 0.780257
O O17 0.120946 0.500000 0.270007
O O18 0.985091 0.307719 0.327988
O O19 0.386966 0.000000 0.433739
#
# Coordination Sequence:
#
# PCOD8085784 Si02
#       7
#     8   8   8   8   8   8   8
#     4  10  19  30  50  75  95 119 161 214 257 298
#     4   9  17  31  52  77 104 135 170 208 249 295
#     4   9  18  34  56  81 108 139 172 207 253 304
#     4  10  19  34  52  69  97 135 171 212 256 305
#     4   9  19  34  51  75 106 134 165 214 260 295
#     4  10  20  34  53  72  95 136 177 207 252 312
#     4   9  18  34  50  68  96 128 162 203 252 304
#
# _framework density 17.340161999999999
#
# number of rings (size 3 to 8) (size 9 to 14) (size 15 to 20)
#    0.000    2.571    1.429    1.714    0.000    5.143 
#    0.000    1.429    0.000    8.571    0.000    0.000 
#    0.000    0.000    0.000    0.000    0.000    0.000 
#
# Total GULP energy -347059.479999 kJ/mol
# GULP energy per Si atom -12394.981429 kJ/mol
# Density = 1.730070 g / cm^3
# Si number density = 17.340162 Si / 1000 Ang^3
#
#
#
# Elastic Constant Matrix: (Units=GPa)
#
#
# Indices 1 2 3 4 5 6 
#
# 1 116.8654 58.7285 44.9116 0.0000 7.8673 0.0001
# 2 58.7285 87.5960 45.6074 0.0000 9.5343 0.0001
# 3 44.9116 45.6074 89.9690 0.0000 6.6186 0.0000
# 4 0.0000 0.0000 0.0000 30.1419 0.0000 6.0909
# 5 7.8673 9.5343 6.6186 0.0000 18.8297 0.0000
# 6 0.0001 0.0001 0.0000 6.0909 0.0000 32.8761
#
#
#
# Elastic Compliance Matrix: (Units=1/GPa)
#
#
# Indices 1 2 3 4 5 6 
#
# 1 0.013456 -0.007424 -0.002891 0.000000 -0.000847 0.000000
# 2 -0.007424 0.020123 -0.006132 0.000000 -0.004932 0.000000
# 3 -0.002891 -0.006132 0.015757 0.000000 -0.001226 0.000000
# 4 0.000000 0.000000 0.000000 0.034467 0.000000 -0.006386
# 5 -0.000847 -0.004932 -0.001226 0.000000 0.056389 0.000000
# 6 0.000000 0.000000 0.000000 -0.006386 0.000000 0.031600
#
#
# Mechanical properties :
#
#
# Convention : Reuss Voigt Hill
#
# Bulk Modulus (GPa) = 60.82337 65.88060 63.35199
# Shear Modulus (GPa) = 23.79066 26.04840 24.91953
#
# Velocity S-wave (km/s) = 3.70807 3.88003 3.79502
# Velocity P-wave (km/s) = 7.31340 7.62551 7.47108
#
# Compressibility (1/GPa) = 0.01644105
#
# Stress axis : x y z
#
# Youngs Moduli (GPa) = 74.31810 49.69488 63.46421
#
# Poissons Ratio (x) = 0.36892 0.18350
# Poissons Ratio (y) = 0.55172 0.38917
# Poissons Ratio (z) = 0.21488 0.30473
#
# Static dielectric constant tensor:
#      x y z
#    x 3.542660 0.000000 0.116460 
#    y 0.000000 3.319380 0.000000 
#    z 0.116460 0.000000 2.977160 
# 
# 
# High freq. dielectric constant tensor:
#      x y z
#    x 1.674590 0.000000 0.010140 
#    y 0.000000 1.675930 0.000000 
#    z 0.010140 0.000000 1.635750 
# 
# From -- ./inp_files/342518.got.cif
#   From: 2010.06.25/outbox.cif.g09.slc.cpg/sg12_172_cif.got.tgz:342518.got - 2010.06.28 00:19:55.
