data_PCOD8085537
_publ_section_title
;
Structure prediction by ZEFSAII (Michael W. Deem and Ramdas Pophale) SiO2 
 PCOD8085537
Probable space group: C 2/M
;
_chemical_formula_sum "Si O2"
_cell_formula_units_Z 56
_cell_length_a 19.264232
_cell_length_b 9.203904
_cell_length_c 29.870421
_cell_angle_alpha 90.000000
_cell_angle_beta 36.967024
_cell_angle_gamma 90.000000
_cell_volume 3184.903294
_symmetry_space_group_name_H-M "C 2/M"
_symmetry_group_IT_number 12
_symmetry_cell_setting 'monoclinic'
loop_
_space_group_symop_operation_xyz
x,y,z
-x,y,-z
-x,-y,-z
x,-y,z
1/2+x,1/2+y,z
1/2-x,1/2+y,-z
1/2-x,1/2-y,-z
1/2+x,1/2-y,z
loop_
_atom_site_type_symbol
_atom_site_label
_atom_site_fract_x
_atom_site_fract_y
_atom_site_fract_z
Si Si1 0.869541 0.830777 0.567666
Si Si2 0.926426 0.660061 0.992972
Si Si3 0.234815 0.829287 0.154844
Si Si4 0.385601 0.328573 0.149464
Si Si5 0.314579 0.331850 0.284774
Si Si6 0.969752 0.831175 0.288058
Si Si7 0.714150 0.170443 0.563296
O O1 0.801466 0.752963 0.642698
O O2 0.812118 0.796154 0.549514
O O3 0.000000 0.771154 0.500000
O O4 0.866986 0.000000 0.580068
O O5 0.922267 0.500000 0.972690
O O6 0.985176 0.771864 0.928326
O O7 0.798404 0.710004 0.074883
O O8 0.000000 0.653362 0.000000
O O9 0.288745 0.741195 0.168037
O O10 0.102474 0.783990 0.218037
O O11 0.250424 0.000000 0.156956
O O12 0.384501 0.500000 0.143320
O O13 0.357687 0.280842 0.214232
O O14 0.282036 0.500000 0.301683
O O15 0.416519 0.296681 0.267043
O O16 0.907692 0.735094 0.357739
O O17 0.954878 0.000000 0.308421
O O18 0.750000 0.250000 0.500000
O O19 0.699675 0.000000 0.561850
#
# Coordination Sequence:
#
# PCOD8085537 Si02
#       7
#     8   8   8   8   8   8   8
#     4   9  19  35  53  72  94 123 160 198 233 274
#     4   8  15  29  47  68  94 125 162 198 234 279
#     4   9  18  32  51  72  93 124 165 202 235 278
#     4  10  19  30  47  73 101 126 156 197 242 285
#     4   9  19  34  50  70  97 128 158 190 236 288
#     4   9  18  35  54  69  93 129 163 196 236 281
#     4  10  20  34  52  74  99 126 158 196 238 284
#
# _framework density 17.582951999999999
#
# number of rings (size 3 to 8) (size 9 to 14) (size 15 to 20)
#    0.000    2.857    0.000    1.714    0.000    6.286 
#    0.000    5.000    0.000    0.000    0.000    0.000 
#    0.000    0.000    0.000    0.000    0.000    0.000 
#
# Total GULP energy -347171.795267 kJ/mol
# GULP energy per Si atom -12398.992688 kJ/mol
# Density = 1.754293 g / cm^3
# Si number density = 17.582952 Si / 1000 Ang^3
#
#
#
# Elastic Constant Matrix: (Units=GPa)
#
#
# Indices 1 2 3 4 5 6 
#
# 1 67.1592 44.3146 82.5373 -0.0004 -4.9849 -0.0102
# 2 44.3146 75.8344 78.9820 -0.0003 3.6889 -0.0031
# 3 82.5373 78.9820 192.8789 -0.0008 -5.3947 -0.0005
# 4 -0.0004 -0.0003 -0.0008 36.5145 0.0009 1.9287
# 5 -4.9849 3.6889 -5.3947 0.0009 34.1028 -0.0009
# 6 -0.0102 -0.0031 -0.0005 1.9287 -0.0009 19.8925
#
#
#
# Elastic Compliance Matrix: (Units=1/GPa)
#
#
# Indices 1 2 3 4 5 6 
#
# 1 0.034735 -0.008982 -0.011066 -0.000001 0.004298 0.000016
# 2 -0.008982 0.025870 -0.006895 0.000000 -0.005202 -0.000001
# 3 -0.011066 -0.006895 0.012776 0.000000 0.001149 -0.000006
# 4 -0.000001 0.000000 0.000000 0.027527 -0.000001 -0.002669
# 5 0.004298 -0.005202 0.001149 -0.000001 0.030696 0.000003
# 6 0.000016 -0.000001 -0.000006 -0.002669 0.000003 0.050529
#
#
# Mechanical properties :
#
#
# Convention : Reuss Voigt Hill
#
# Bulk Modulus (GPa) = 51.29605 83.06004 67.17804
# Shear Modulus (GPa) = 20.61704 26.77121 23.69412
#
# Velocity S-wave (km/s) = 3.42798 3.90624 3.67490
# Velocity P-wave (km/s) = 6.70113 8.22718 7.50305
#
# Compressibility (1/GPa) = 0.01949468
#
# Stress axis : x y z
#
# Youngs Moduli (GPa) = 28.78905 38.65488 78.27366
#
# Poissons Ratio (x) = 0.34720 0.86617
# Poissons Ratio (y) = 0.25858 0.53973
# Poissons Ratio (z) = 0.31858 0.26654
#
# Static dielectric constant tensor:
#      x y z
#    x 3.123730 0.000000 -0.126000 
#    y 0.000000 3.262440 0.000000 
#    z -0.126000 0.000000 3.649650 
# 
# 
# High freq. dielectric constant tensor:
#      x y z
#    x 1.656830 0.000000 -0.004610 
#    y 0.000000 1.679410 0.000000 
#    z -0.004610 0.000000 1.693270 
# 
# From -- ./inp_files/280194.got.cif
#   From: 2010.06.25/outbox.cif.g09.slc.cpg/sg12_141_cif.got.tgz:280194.got - 2010.06.28 00:19:55.
