data_PCOD8085154
_publ_section_title
;
Structure prediction by ZEFSAII (Michael W. Deem and Ramdas Pophale) SiO2 
 PCOD8085154
Probable space group: C 2/M
;
_chemical_formula_sum "Si O2"
_cell_formula_units_Z 56
_cell_length_a 8.678786
_cell_length_b 21.943247
_cell_length_c 21.793932
_cell_angle_alpha 90.000000
_cell_angle_beta 134.921165
_cell_angle_gamma 90.000000
_cell_volume 2938.848528
_symmetry_space_group_name_H-M "C 2/M"
_symmetry_group_IT_number 12
_symmetry_cell_setting 'monoclinic'
loop_
_space_group_symop_operation_xyz
x,y,z
-x,y,-z
-x,-y,-z
x,-y,z
1/2+x,1/2+y,z
1/2-x,1/2+y,-z
1/2-x,1/2-y,-z
1/2+x,1/2-y,z
loop_
_atom_site_type_symbol
_atom_site_label
_atom_site_fract_x
_atom_site_fract_y
_atom_site_fract_z
Si Si1 0.696909 0.293762 0.174664
Si Si2 0.463880 0.691254 0.306934
Si Si3 0.360912 0.258242 0.404388
Si Si4 0.910848 0.068753 0.350001
Si Si5 0.269589 0.227089 0.937407
Si Si6 0.931432 0.628703 0.665774
Si Si7 0.113823 0.430089 0.471649
O O1 0.764191 0.226822 0.219704
O O2 0.705743 0.283956 0.103477
O O3 0.457105 0.309986 0.135868
O O4 0.853910 0.349141 0.237681
O O5 0.500045 0.719616 0.385527
O O6 0.691342 0.704797 0.335789
O O7 0.412201 0.619020 0.295608
O O8 0.500000 0.233003 0.500000
O O9 0.223129 0.314765 0.390418
O O10 0.695853 0.077602 0.330722
O O11 0.125379 0.078209 0.452166
O O12 0.908102 0.000000 0.321695
O O13 0.500000 0.188877 0.000000
O O14 0.250000 0.250000 0.000000
O O15 0.991469 0.603016 0.616232
O O16 0.046374 0.500000 0.446852
O O17 0.000000 0.401793 0.500000
#
# Coordination Sequence:
#
# PCOD8085154 Si02
#       7
#     8   8   8   8   8   8   8
#     4  10  19  33  50  80 110 130 161 206 255 315
#     4  10  20  31  47  70 100 133 167 213 260 290
#     4  10  19  30  43  66  95 132 175 210 251 303
#     4  10  20  34  50  68  98 143 190 225 250 288
#     4   9  18  33  54  76 107 137 156 185 244 330
#     4  10  19  32  51  71  98 134 172 219 264 294
#     4  10  21  34  47  67  98 140 190 232 260 290
#
# _framework density 19.055081000000001
#
# number of rings (size 3 to 8) (size 9 to 14) (size 15 to 20)
#    0.000    2.143    0.000    5.571    0.000    6.286 
#    0.000    0.000    0.000    0.000    0.000    0.000 
#    0.000  121.143    0.000    0.000    0.000    0.000 
#
# Total GULP energy -346924.094872 kJ/mol
# GULP energy per Si atom -12390.146245 kJ/mol
# Density = 1.901171 g / cm^3
# Si number density = 19.055081 Si / 1000 Ang^3
#
#
#
# Elastic Constant Matrix: (Units=GPa)
#
#
# Indices 1 2 3 4 5 6 
#
# 1 92.1366 29.8373 33.6447 -0.0001 22.4858 0.0005
# 2 29.8373 91.2440 26.7923 0.0000 -0.0197 0.0000
# 3 33.6447 26.7923 87.6986 0.0000 13.1989 0.0001
# 4 -0.0001 0.0000 0.0000 13.9153 0.0000 -0.1655
# 5 22.4858 -0.0197 13.1989 0.0000 36.6319 0.0000
# 6 0.0005 0.0000 0.0001 -0.1655 0.0000 25.8643
#
#
#
# Elastic Compliance Matrix: (Units=1/GPa)
#
#
# Indices 1 2 3 4 5 6 
#
# 1 0.015427 -0.004034 -0.003447 0.000000 -0.008230 0.000000
# 2 -0.004034 0.013164 -0.003011 0.000000 0.003568 0.000000
# 3 -0.003447 -0.003011 0.014091 0.000000 -0.002963 0.000000
# 4 0.000000 0.000000 0.000000 0.071869 0.000000 0.000460
# 5 -0.008230 0.003568 -0.002963 0.000000 0.033420 0.000000
# 6 0.000000 0.000000 0.000000 0.000460 0.000000 0.038666
#
#
# Mechanical properties :
#
#
# Convention : Reuss Voigt Hill
#
# Bulk Modulus (GPa) = 46.08990 50.18088 48.13539
# Shear Modulus (GPa) = 23.27163 27.33597 25.30380
#
# Velocity S-wave (km/s) = 3.49848 3.79169 3.64803
# Velocity P-wave (km/s) = 6.36862 6.74989 6.56203
#
# Compressibility (1/GPa) = 0.02169673
#
# Stress axis : x y z
#
# Youngs Moduli (GPa) = 64.82052 75.96629 70.96735
#
# Poissons Ratio (x) = 0.30647 0.24465
# Poissons Ratio (y) = 0.26150 0.21368
# Poissons Ratio (z) = 0.22346 0.22873
#
# Static dielectric constant tensor:
#      x y z
#    x 4.503260 0.000000 0.381300 
#    y 0.000000 3.347750 0.000000 
#    z 0.381300 0.000000 3.730290 
# 
# 
# High freq. dielectric constant tensor:
#      x y z
#    x 1.766460 0.000000 0.004020 
#    y 0.000000 1.699680 0.000000 
#    z 0.004020 0.000000 1.718770 
# 
# From -- ./inp_files/301784.got.cif
#   From: 2010.06.25/outbox.cif.g09.slc.cpg/sg12_151_cif.got.tgz:301784.got - 2010.06.28 00:19:55.
