data_PCOD8085842
_publ_section_title
;
Structure prediction by ZEFSAII (Michael W. Deem and Ramdas Pophale) SiO2 
 PCOD8085842
Probable space group: C 2/M
;
_chemical_formula_sum "Si O2"
_cell_formula_units_Z 48
_cell_length_a 14.793872
_cell_length_b 29.824226
_cell_length_c 11.209744
_cell_angle_alpha 90.000000
_cell_angle_beta 146.413812
_cell_angle_gamma 90.000000
_cell_volume 2736.034938
_symmetry_space_group_name_H-M "C 2/M"
_symmetry_group_IT_number 12
_symmetry_cell_setting 'monoclinic'
loop_
_space_group_symop_operation_xyz
x,y,z
-x,y,-z
-x,-y,-z
x,-y,z
1/2+x,1/2+y,z
1/2-x,1/2+y,-z
1/2-x,1/2-y,-z
1/2+x,1/2-y,z
loop_
_atom_site_type_symbol
_atom_site_label
_atom_site_fract_x
_atom_site_fract_y
_atom_site_fract_z
Si Si1 0.314091 0.316341 0.497691
Si Si2 0.855026 0.134798 0.182771
Si Si3 0.823037 0.292299 0.151823
Si Si4 0.820305 0.393433 0.769752
Si Si5 0.702569 0.779755 0.607269
Si Si6 0.463178 0.549204 0.598238
O O1 0.488142 0.332846 0.639474
O O2 0.172821 0.353095 0.318133
O O3 0.261356 0.272667 0.366747
O O4 0.320647 0.307065 0.647170
O O5 0.778445 0.127501 0.227954
O O6 0.915881 0.085316 0.204285
O O7 0.724072 0.159215 0.954490
O O8 0.754411 0.292907 0.210936
O O9 0.016985 0.289205 0.365285
O O10 0.750000 0.250000 0.000000
O O11 0.725144 0.434561 0.602457
O O12 0.000000 0.410598 0.000000
O O13 0.500000 0.545639 0.500000
O O14 0.482281 0.500000 0.679897
#
# Coordination Sequence:
#
# PCOD8085842 Si02
#       6
#     8   8   8   8   8   8
#     4  10  19  34  45  70  98 135 176 207 247 297
#     4  10  19  32  52  71 101 138 167 210 257 301
#     4  11  20  33  49  70 100 138 170 211 253 295
#     4  10  19  30  51  74 102 135 165 208 262 307
#     4  10  22  32  48  70  99 135 178 212 243 294
#     4   8  16  31  51  75 101 129 165 207 258 314
#
# _framework density 17.543635999999999
#
# number of rings (size 3 to 8) (size 9 to 14) (size 15 to 20)
#    0.000    2.167    1.667    3.500    2.333    1.000 
#    0.000    0.000    0.000    0.000    0.000   11.667 
#    0.000    0.000    0.000    0.333    0.000    0.000 
#
# Total GULP energy -297411.544924 kJ/mol
# GULP energy per Si atom -12392.147705 kJ/mol
# Density = 1.750371 g / cm^3
# Si number density = 17.543636 Si / 1000 Ang^3
#
#
#
# Elastic Constant Matrix: (Units=GPa)
#
#
# Indices 1 2 3 4 5 6 
#
# 1 69.3503 25.1151 9.3032 0.0000 -2.3718 0.0000
# 2 25.1151 137.9172 40.3603 0.0000 -5.5790 0.0000
# 3 9.3032 40.3603 67.6310 0.0000 0.5430 0.0000
# 4 0.0000 0.0000 0.0000 20.9267 0.0000 -0.7015
# 5 -2.3718 -5.5790 0.5430 0.0000 25.2003 0.0000
# 6 0.0000 0.0000 0.0000 -0.7015 0.0000 13.0334
#
#
#
# Elastic Compliance Matrix: (Units=1/GPa)
#
#
# Indices 1 2 3 4 5 6 
#
# 1 0.015474 -0.002613 -0.000576 0.000000 0.000890 0.000000
# 2 -0.002613 0.009334 -0.005226 0.000000 0.001933 0.000000
# 3 -0.000576 -0.005226 0.017997 0.000000 -0.001599 0.000000
# 4 0.000000 0.000000 0.000000 0.047872 0.000000 0.002577
# 5 0.000890 0.001933 -0.001599 0.000000 0.040228 0.000000
# 6 0.000000 0.000000 0.000000 0.002577 0.000000 0.076865
#
#
# Mechanical properties :
#
#
# Convention : Reuss Voigt Hill
#
# Bulk Modulus (GPa) = 38.50088 47.16174 42.83131
# Shear Modulus (GPa) = 21.43532 25.17342 23.30437
#
# Velocity S-wave (km/s) = 3.49926 3.79212 3.64863
# Velocity P-wave (km/s) = 6.19030 6.79076 6.49747
#
# Compressibility (1/GPa) = 0.02597344
#
# Stress axis : x y z
#
# Youngs Moduli (GPa) = 64.62604 107.13206 55.56409
#
# Poissons Ratio (x) = 0.27995 0.03202
# Poissons Ratio (y) = 0.16888 0.29041
# Poissons Ratio (z) = 0.03724 0.55992
#
# Static dielectric constant tensor:
#      x y z
#    x 3.215430 0.000000 0.050590 
#    y 0.000000 3.570640 0.000000 
#    z 0.050590 0.000000 3.257420 
# 
# 
# High freq. dielectric constant tensor:
#      x y z
#    x 1.662400 0.000000 0.016700 
#    y 0.000000 1.669890 0.000000 
#    z 0.016700 0.000000 1.665380 
# 
# From -- ./inp_files/68382.got.cif
#   From: 2010.06.25/outbox.cif.g09.slc.cpg/sg12_35_cif.got.tgz:68382.got - 2010.06.28 00:19:55.
