data_PCOD8085069
_publ_section_title
;
Structure prediction by ZEFSAII (Michael W. Deem and Ramdas Pophale) SiO2 
 PCOD8085069
Probable space group: C 2/M
;
_chemical_formula_sum "Si O2"
_cell_formula_units_Z 64
_cell_length_a 15.232720
_cell_length_b 29.357282
_cell_length_c 8.811739
_cell_angle_alpha 90.000000
_cell_angle_beta 58.673401
_cell_angle_gamma 90.000000
_cell_volume 3366.072160
_symmetry_space_group_name_H-M "C 2/M"
_symmetry_group_IT_number 12
_symmetry_cell_setting 'monoclinic'
loop_
_space_group_symop_operation_xyz
x,y,z
-x,y,-z
-x,-y,-z
x,-y,z
1/2+x,1/2+y,z
1/2-x,1/2+y,-z
1/2-x,1/2-y,-z
1/2+x,1/2-y,z
loop_
_atom_site_type_symbol
_atom_site_label
_atom_site_fract_x
_atom_site_fract_y
_atom_site_fract_z
Si Si1 0.393595 0.628741 0.529201
Si Si2 0.423625 0.949887 0.300393
Si Si3 0.381031 0.120800 0.583144
Si Si4 0.554519 0.684891 0.799070
Si Si5 0.756176 0.950152 0.744899
Si Si6 0.642579 0.294361 0.196821
Si Si7 0.250650 0.205517 0.790265
Si Si8 0.345158 0.948397 0.867447
O O1 0.500000 0.610414 0.500000
O O2 0.402889 0.644687 0.346136
O O3 0.318446 0.586229 0.593188
O O4 0.352489 0.667565 0.678778
O O5 0.372470 0.908170 0.437842
O O6 0.362539 0.951358 0.198929
O O7 0.542567 0.940309 0.160532
O O8 0.412847 0.000000 0.392348
O O9 0.500000 0.133195 0.500000
O O10 0.315988 0.167147 0.644430
O O11 0.329376 0.088011 0.751729
O O12 0.472647 0.713326 0.769318
O O13 0.650291 0.715645 0.773986
O O14 0.500000 0.664423 0.000000
O O15 0.807056 0.000000 0.674714
O O16 0.746675 0.938501 0.931201
O O17 0.678736 0.249681 0.253935
O O18 0.717172 0.308850 0.991225
O O19 0.335545 0.000000 0.813976
#
# Coordination Sequence:
#
# PCOD8085069 Si02
#       8
#     8   8   8   8   8   8   8   8
#     4  10  20  35  53  73 100 132 168 208 250 302
#     4   9  17  30  47  70 101 134 166 200 244 299
#     4  10  19  29  47  74 102 132 166 206 247 292
#     4   9  19  36  57  77  98 132 170 203 252 309
#     4  10  19  31  50  73  96 127 168 210 249 292
#     4   9  20  36  55  77 101 134 170 207 254 307
#     4  10  19  35  55  76 105 133 167 214 253 293
#     4   9  17  30  47  69 100 135 166 199 246 301
#
# _framework density 19.013258
#
# number of rings (size 3 to 8) (size 9 to 14) (size 15 to 20)
#    0.000    2.500    0.000    2.250    0.000    5.250 
#    0.000    2.500    0.000    4.875    0.000    0.000 
#    0.000    0.000    0.000    0.000    0.000    0.000 
#
# Total GULP energy -396440.292270 kJ/mol
# GULP energy per Si atom -12388.759133 kJ/mol
# Density = 1.896998 g / cm^3
# Si number density = 19.013258 Si / 1000 Ang^3
#
#
#
# Elastic Constant Matrix: (Units=GPa)
#
#
# Indices 1 2 3 4 5 6 
#
# 1 67.6499 40.3166 29.2205 0.0000 2.0345 0.0000
# 2 40.3166 103.0067 52.0625 0.0000 -6.9622 0.0000
# 3 29.2205 52.0625 86.0881 0.0000 0.5557 0.0000
# 4 0.0000 0.0000 0.0000 23.2025 0.0000 -5.0214
# 5 2.0345 -6.9622 0.5557 0.0000 22.2854 0.0000
# 6 0.0000 0.0000 0.0000 -5.0214 0.0000 20.8265
#
#
#
# Elastic Compliance Matrix: (Units=1/GPa)
#
#
# Indices 1 2 3 4 5 6 
#
# 1 0.020097 -0.006759 -0.002709 0.000000 -0.003879 0.000000
# 2 -0.006759 0.016738 -0.007868 0.000000 0.006042 0.000000
# 3 -0.002709 -0.007868 0.017311 0.000000 -0.002642 0.000000
# 4 0.000000 0.000000 0.000000 0.045471 0.000000 0.010963
# 5 -0.003879 0.006042 -0.002642 0.000000 0.047180 0.000000
# 6 0.000000 0.000000 0.000000 0.010963 0.000000 0.050659
#
#
# Mechanical properties :
#
#
# Convention : Reuss Voigt Hill
#
# Bulk Modulus (GPa) = 51.34762 55.54932 53.44847
# Shear Modulus (GPa) = 20.95394 22.27254 21.61324
#
# Velocity S-wave (km/s) = 3.32335 3.42632 3.37522
# Velocity P-wave (km/s) = 6.46460 6.70316 6.58496
#
# Compressibility (1/GPa) = 0.01947510
#
# Stress axis : x y z
#
# Youngs Moduli (GPa) = 49.75943 59.74282 57.76839
#
# Poissons Ratio (x) = 0.40379 0.15648
# Poissons Ratio (y) = 0.33632 0.45450
# Poissons Ratio (z) = 0.13479 0.47003
#
# Static dielectric constant tensor:
#      x y z
#    x 3.430760 0.000000 -0.007540 
#    y 0.000000 3.281830 0.000000 
#    z -0.007540 0.000000 3.543810 
# 
# 
# High freq. dielectric constant tensor:
#      x y z
#    x 1.730830 0.000000 0.001420 
#    y 0.000000 1.718950 0.000000 
#    z 0.001420 0.000000 1.745300 
# 
# From -- ./inp_files/68207.got.cif
#   From: 2010.06.25/outbox.cif.g09.slc.cpg/sg12_35_cif.got.tgz:68207.got - 2010.06.28 00:19:55.
