data_PCOD8085079
_publ_section_title
;
Structure prediction by ZEFSAII (Michael W. Deem and Ramdas Pophale) SiO2 
 PCOD8085079
Probable space group: C 2/M
;
_chemical_formula_sum "Si O2"
_cell_formula_units_Z 56
_cell_length_a 29.397782
_cell_length_b 23.377584
_cell_length_c 12.356028
_cell_angle_alpha 90.000000
_cell_angle_beta 20.588282
_cell_angle_gamma 90.000000
_cell_volume 2986.097227
_symmetry_space_group_name_H-M "C 2/M"
_symmetry_group_IT_number 12
_symmetry_cell_setting 'monoclinic'
loop_
_space_group_symop_operation_xyz
x,y,z
-x,y,-z
-x,-y,-z
x,-y,z
1/2+x,1/2+y,z
1/2-x,1/2+y,-z
1/2-x,1/2-y,-z
1/2+x,1/2-y,z
loop_
_atom_site_type_symbol
_atom_site_label
_atom_site_fract_x
_atom_site_fract_y
_atom_site_fract_z
Si Si1 0.829843 0.346072 0.152460
Si Si2 0.503289 0.935249 0.864171
Si Si3 0.766388 0.647557 0.668606
Si Si4 0.386710 0.654937 0.197225
Si Si5 0.854731 0.682373 0.858087
Si Si6 0.643626 0.317116 0.150254
Si Si7 0.477293 0.228467 0.165697
O O1 0.707652 0.324588 0.495676
O O2 0.806596 0.348804 0.075514
O O3 0.873287 0.407905 0.102275
O O4 0.942245 0.299467 0.917028
O O5 0.624543 0.899248 0.550799
O O6 0.514471 0.000000 0.797045
O O7 0.500000 0.933047 0.000000
O O8 0.690637 0.627445 0.728964
O O9 0.826656 0.712631 0.525529
O O10 0.668827 0.647807 0.984921
O O11 0.500000 0.614783 0.000000
O O12 0.475984 0.706641 0.949909
O O13 0.850265 0.749920 0.885235
O O14 0.000000 0.662806 0.500000
O O15 0.750338 0.663985 0.000609
O O16 0.500000 0.336479 0.500000
O O17 0.500000 0.195734 0.000000
#
# Coordination Sequence:
#
# PCOD8085079 Si02
#       7
#     8   8   8   8   8   8   8
#     4  11  19  35  54  80 113 141 186 242 279 328
#     4  10  20  38  64  86 107 140 186 240 300 353
#     4  11  20  38  54  76 116 144 192 232 275 344
#     4  11  23  28  48  85 114 147 180 221 287 341
#     4  10  21  36  52  77 115 160 198 229 266 326
#     4  10  23  36  52  79 114 165 197 216 274 341
#     4  10  19  29  47  76 110 145 176 219 276 329
#
# _framework density 18.753575000000001
#
# number of rings (size 3 to 8) (size 9 to 14) (size 15 to 20)
#    0.000    1.571    2.857    3.857    8.000    1.143 
#    0.000    0.000    0.000    6.000    0.000    0.000 
#    0.000    0.000    0.000    0.000    0.000    0.000 
#
# Total GULP energy -346898.655205 kJ/mol
# GULP energy per Si atom -12389.237686 kJ/mol
# Density = 1.871089 g / cm^3
# Si number density = 18.753575 Si / 1000 Ang^3
#
#
#
# Elastic Constant Matrix: (Units=GPa)
#
#
# Indices 1 2 3 4 5 6 
#
# 1 122.1745 9.3402 56.0391 -0.0013 0.4513 -0.0010
# 2 9.3402 53.2503 21.1698 0.0002 1.5683 0.0004
# 3 56.0391 21.1698 116.4895 0.0062 1.6102 0.0017
# 4 -0.0013 0.0002 0.0062 9.0099 -0.0005 0.8687
# 5 0.4513 1.5683 1.6102 -0.0005 39.6427 0.0001
# 6 -0.0010 0.0004 0.0017 0.8687 0.0001 12.6484
#
#
#
# Elastic Compliance Matrix: (Units=1/GPa)
#
#
# Indices 1 2 3 4 5 6 
#
# 1 0.010504 0.000177 -0.005087 0.000005 0.000080 0.000001
# 2 0.000177 0.020261 -0.003758 0.000002 -0.000651 0.000000
# 3 -0.005087 -0.003758 0.011718 -0.000009 -0.000269 -0.000001
# 4 0.000005 0.000002 -0.000009 0.111729 0.000002 -0.007674
# 5 0.000080 -0.000651 -0.000269 0.000002 0.025261 0.000000
# 6 0.000001 0.000000 -0.000001 -0.007674 0.000000 0.079589
#
#
# Mechanical properties :
#
#
# Convention : Reuss Voigt Hill
#
# Bulk Modulus (GPa) = 39.76368 51.66806 45.71587
# Shear Modulus (GPa) = 17.55738 25.95121 21.75429
#
# Velocity S-wave (km/s) = 3.06308 3.72398 3.40958
# Velocity P-wave (km/s) = 5.81027 6.78981 6.31905
#
# Compressibility (1/GPa) = 0.02514858
#
# Stress axis : x y z
#
# Youngs Moduli (GPa) = 95.19933 49.35472 85.33730
#
# Poissons Ratio (x) = -0.00875 0.43408
# Poissons Ratio (y) = -0.01689 0.32074
# Poissons Ratio (z) = 0.48424 0.18550
#
# Static dielectric constant tensor:
#      x y z
#    x 3.831130 0.000000 -0.250390 
#    y 0.000000 2.996290 0.000000 
#    z -0.250390 0.000000 3.560660 
# 
# 
# High freq. dielectric constant tensor:
#      x y z
#    x 1.743100 0.000000 -0.008670 
#    y 0.000000 1.653720 0.000000 
#    z -0.008670 0.000000 1.737640 
# 
# From -- ./inp_files/190382.got.cif
#   From: 2010.06.25/outbox.cif.g09.slc.cpg/sg12_96_cif.got.tgz:190382.got - 2010.06.28 00:19:55.
