data_PCOD8085841
_publ_section_title
;
Structure prediction by ZEFSAII (Michael W. Deem and Ramdas Pophale) SiO2 
 PCOD8085841
Probable space group: C 2/M
;
_chemical_formula_sum "Si O2"
_cell_formula_units_Z 56
_cell_length_a 14.896982
_cell_length_b 13.141677
_cell_length_c 20.004358
_cell_angle_alpha 90.000000
_cell_angle_beta 126.452320
_cell_angle_gamma 90.000000
_cell_volume 3150.065744
_symmetry_space_group_name_H-M "C 2/M"
_symmetry_group_IT_number 12
_symmetry_cell_setting 'monoclinic'
loop_
_space_group_symop_operation_xyz
x,y,z
-x,y,-z
-x,-y,-z
x,-y,z
1/2+x,1/2+y,z
1/2-x,1/2+y,-z
1/2-x,1/2-y,-z
1/2+x,1/2-y,z
loop_
_atom_site_type_symbol
_atom_site_label
_atom_site_fract_x
_atom_site_fract_y
_atom_site_fract_z
Si Si1 0.105110 0.386244 0.127085
Si Si2 0.198487 0.880910 0.694437
Si Si3 0.815173 0.881039 0.574486
Si Si4 0.460459 0.381293 0.260065
Si Si5 0.878733 0.690001 0.007148
Si Si6 0.863062 0.118449 0.076285
Si Si7 0.373178 0.268234 0.466968
O O1 0.139606 0.500000 0.119461
O O2 0.176884 0.357424 0.223778
O O3 0.973660 0.380610 0.083075
O O4 0.128141 0.310567 0.075981
O O5 0.111495 0.835431 0.710392
O O6 0.188773 0.822285 0.621123
O O7 0.177693 0.000000 0.671468
O O8 0.697211 0.831780 0.543448
O O9 0.868161 0.843074 0.528105
O O10 0.908434 0.856865 0.672275
O O11 0.792265 0.000000 0.557287
O O12 0.436275 0.500000 0.250747
O O13 0.416391 0.341238 0.169500
O O14 0.909089 0.806763 0.039552
O O15 0.767794 0.639500 0.985815
O O16 0.891134 0.000000 0.074333
O O17 0.500000 0.241302 0.500000
#
# Coordination Sequence:
#
# PCOD8085841 Si02
#       7
#     8   8   8   8   8   8   8
#     4  10  19  33  50  74 103 133 176 222 263 311
#     4  10  19  32  55  80 106 137 174 226 271 310
#     4  10  22  38  57  82 113 146 179 219 273 331
#     4   9  17  32  53  76 103 137 175 218 264 314
#     4  10  19  30  51  73  97 138 174 216 264 310
#     4  10  19  32  49  75 104 136 176 216 261 312
#     4  11  22  36  58  87 110 141 181 228 271 325
#
# _framework density 17.777405999999999
#
# number of rings (size 3 to 8) (size 9 to 14) (size 15 to 20)
#    0.000    2.000    2.857    2.143    2.000    0.857 
#    0.000    1.429    0.000    0.857    0.000    0.000 
#    0.000    0.000    0.000    0.000    0.000    0.000 
#
# Total GULP energy -346983.089922 kJ/mol
# GULP energy per Si atom -12392.253211 kJ/mol
# Density = 1.773694 g / cm^3
# Si number density = 17.777406 Si / 1000 Ang^3
#
#
#
# Elastic Constant Matrix: (Units=GPa)
#
#
# Indices 1 2 3 4 5 6 
#
# 1 85.7125 33.6268 42.2973 0.0000 4.7731 0.0000
# 2 33.6268 84.7294 48.7385 0.0000 -6.0827 0.0000
# 3 42.2973 48.7385 108.9449 0.0000 2.7681 0.0000
# 4 0.0000 0.0000 0.0000 28.5274 0.0000 -2.4338
# 5 4.7731 -6.0827 2.7681 0.0000 26.2745 0.0000
# 6 0.0000 0.0000 0.0000 -2.4338 0.0000 18.7206
#
#
#
# Elastic Compliance Matrix: (Units=1/GPa)
#
#
# Indices 1 2 3 4 5 6 
#
# 1 0.015456 -0.003995 -0.004129 0.000000 -0.003298 0.000000
# 2 -0.003995 0.017459 -0.006398 0.000000 0.005442 0.000000
# 3 -0.004129 -0.006398 0.013699 0.000000 -0.002174 0.000000
# 4 0.000000 0.000000 0.000000 0.035447 0.000000 0.004608
# 5 -0.003298 0.005442 -0.002174 0.000000 0.040148 0.000000
# 6 0.000000 0.000000 0.000000 0.004608 0.000000 0.054016
#
#
# Mechanical properties :
#
#
# Convention : Reuss Voigt Hill
#
# Bulk Modulus (GPa) = 56.91768 58.74577 57.83172
# Shear Modulus (GPa) = 23.68255 25.01944 24.35100
#
# Velocity S-wave (km/s) = 3.65385 3.75557 3.70506
# Velocity P-wave (km/s) = 7.06309 7.20574 7.13477
#
# Compressibility (1/GPa) = 0.01756923
#
# Stress axis : x y z
#
# Youngs Moduli (GPa) = 64.70067 57.27839 72.99548
#
# Poissons Ratio (x) = 0.22885 0.30143
# Poissons Ratio (y) = 0.25850 0.46699
# Poissons Ratio (z) = 0.26718 0.36644
#
# Static dielectric constant tensor:
#      x y z
#    x 3.354440 0.000000 0.151650 
#    y 0.000000 3.176770 0.000000 
#    z 0.151650 0.000000 3.494660 
# 
# 
# High freq. dielectric constant tensor:
#      x y z
#    x 1.679590 0.000000 0.015460 
#    y 0.000000 1.663550 0.000000 
#    z 0.015460 0.000000 1.701690 
# 
# From -- ./inp_files/269388.got.cif
#   From: 2010.06.25/outbox.cif.g09.slc.cpg/sg12_135_cif.got.tgz:269388.got - 2010.06.28 00:19:55.
