data_PCOD8085888
_publ_section_title
;
Structure prediction by ZEFSAII (Michael W. Deem and Ramdas Pophale) SiO2 
 PCOD8085888
Probable space group: C 2/M
;
_chemical_formula_sum "Si O2"
_cell_formula_units_Z 64
_cell_length_a 20.152613
_cell_length_b 9.146013
_cell_length_c 20.975974
_cell_angle_alpha 90.000000
_cell_angle_beta 63.586455
_cell_angle_gamma 90.000000
_cell_volume 3462.602283
_symmetry_space_group_name_H-M "C 2/M"
_symmetry_group_IT_number 12
_symmetry_cell_setting 'monoclinic'
loop_
_space_group_symop_operation_xyz
x,y,z
-x,y,-z
-x,-y,-z
x,-y,z
1/2+x,1/2+y,z
1/2-x,1/2+y,-z
1/2-x,1/2-y,-z
1/2+x,1/2-y,z
loop_
_atom_site_type_symbol
_atom_site_label
_atom_site_fract_x
_atom_site_fract_y
_atom_site_fract_z
Si Si1 0.176775 0.829287 0.553757
Si Si2 0.265133 0.668116 0.086049
Si Si3 0.748559 0.172033 0.235054
Si Si4 0.365684 0.673799 0.286657
Si Si5 0.863697 0.831543 0.928966
Si Si6 0.975716 0.828390 0.441537
Si Si7 0.482956 0.168213 0.807504
Si Si8 0.083348 0.668078 0.301270
O O1 0.250000 0.750000 0.500000
O O2 0.154583 0.775291 0.633581
O O3 0.110308 0.789855 0.533664
O O4 0.193786 0.000000 0.547091
O O5 0.236249 0.500000 0.094237
O O6 0.282402 0.712737 0.151509
O O7 0.202240 0.774322 0.087096
O O8 0.340303 0.687030 0.013034
O O9 0.801347 0.234547 0.267633
O O10 0.665229 0.234040 0.278875
O O11 0.743269 0.000000 0.244642
O O12 0.375608 0.500000 0.277987
O O13 0.440815 0.747986 0.233130
O O14 0.938334 0.739976 0.885250
O O15 0.878452 0.000000 0.905430
O O16 0.000000 0.766539 0.500000
O O17 0.024298 0.758118 0.365977
O O18 0.989393 0.000000 0.431448
O O19 0.432772 0.185697 0.766389
O O20 0.499464 0.000000 0.816179
O O21 0.077309 0.500000 0.325090
#
# Coordination Sequence:
#
# PCOD8085888 Si02
#       8
#     8   8   8   8   8   8   8   8
#     4  10  22  38  56  79 108 142 178 216 263 322
#     4   9  17  33  53  79 113 144 179 225 272 323
#     4   9  18  35  57  81 109 141 178 224 274 319
#     4  10  21  38  59  80 107 142 182 226 269 323
#     4  10  19  30  53  83 110 144 183 223 272 324
#     4  10  22  39  56  79 112 144 174 220 275 319
#     4  11  21  36  57  80 109 145 183 227 273 319
#     4  10  20  35  58  82 105 140 184 226 266 313
#
# _framework density 18.483208999999999
#
# number of rings (size 3 to 8) (size 9 to 14) (size 15 to 20)
#    0.000    2.125    2.500    0.750    1.750    2.250 
#    0.000    1.875    0.000    3.750    0.000    0.000 
#    0.000    0.000    0.000    0.000    0.000    0.000 
#
# Total GULP energy -396825.618038 kJ/mol
# GULP energy per Si atom -12400.800564 kJ/mol
# Density = 1.844114 g / cm^3
# Si number density = 18.483209 Si / 1000 Ang^3
#
#
#
# Elastic Constant Matrix: (Units=GPa)
#
#
# Indices 1 2 3 4 5 6 
#
# 1 111.8574 31.1243 42.0191 -0.0001 -11.7305 0.0000
# 2 31.1243 50.0884 37.7947 -0.0001 -10.9631 0.0003
# 3 42.0191 37.7947 100.5732 0.0000 -19.4122 -0.0001
# 4 -0.0001 -0.0001 0.0000 28.6790 0.0000 -7.3817
# 5 -11.7305 -10.9631 -19.4122 0.0000 35.6103 0.0000
# 6 0.0000 0.0003 -0.0001 -7.3817 0.0000 24.7986
#
#
#
# Elastic Compliance Matrix: (Units=1/GPa)
#
#
# Indices 1 2 3 4 5 6 
#
# 1 0.011413 -0.004801 -0.002821 0.000000 0.000744 0.000000
# 2 -0.004801 0.030218 -0.008784 0.000000 0.002933 0.000000
# 3 -0.002821 -0.008784 0.015335 0.000000 0.004726 0.000000
# 4 0.000000 0.000000 0.000000 0.037762 0.000000 0.011240
# 5 0.000744 0.002933 0.004726 0.000000 0.031806 0.000000
# 6 0.000000 0.000000 0.000000 0.011240 0.000000 0.043671
#
#
# Mechanical properties :
#
#
# Convention : Reuss Voigt Hill
#
# Bulk Modulus (GPa) = 41.39908 53.82166 47.61037
# Shear Modulus (GPa) = 23.68921 27.92298 25.80610
#
# Velocity S-wave (km/s) = 3.58391 3.89102 3.74062
# Velocity P-wave (km/s) = 6.29069 7.02632 6.66865
#
# Compressibility (1/GPa) = 0.02415513
#
# Stress axis : x y z
#
# Youngs Moduli (GPa) = 87.61604 33.09319 65.21239
#
# Poissons Ratio (x) = 0.15888 0.18395
# Poissons Ratio (y) = 0.42063 0.57280
# Poissons Ratio (z) = 0.24714 0.29068
#
# Static dielectric constant tensor:
#      x y z
#    x 3.579880 0.000000 0.103540 
#    y 0.000000 3.301140 0.000000 
#    z 0.103540 0.000000 3.578030 
# 
# 
# High freq. dielectric constant tensor:
#      x y z
#    x 1.709630 0.000000 -0.006860 
#    y 0.000000 1.702650 0.000000 
#    z -0.006860 0.000000 1.727450 
# 
# From -- ./inp_files/319896.got.cif
#   From: 2010.06.25/outbox.cif.g09.slc.cpg/sg12_160_cif.got.tgz:319896.got - 2010.06.28 00:19:55.
