data_PCOD8085140
_publ_section_title
;
Structure prediction by ZEFSAII (Michael W. Deem and Ramdas Pophale) SiO2 
 PCOD8085140
Probable space group: C 2/M
;
_chemical_formula_sum "Si O2"
_cell_formula_units_Z 64
_cell_length_a 27.928447
_cell_length_b 9.608638
_cell_length_c 15.757040
_cell_angle_alpha 90.000000
_cell_angle_beta 90.000000
_cell_angle_gamma 90.000000
_cell_volume 4228.470024
_symmetry_space_group_name_H-M "C 2/M"
_symmetry_group_IT_number 12
_symmetry_cell_setting 'monoclinic'
loop_
_space_group_symop_operation_xyz
x,y,z
-x,y,-z
-x,-y,-z
x,-y,z
1/2+x,1/2+y,z
1/2-x,1/2+y,-z
1/2-x,1/2-y,-z
1/2+x,1/2-y,z
loop_
_atom_site_type_symbol
_atom_site_label
_atom_site_fract_x
_atom_site_fract_y
_atom_site_fract_z
Si Si1 0.797935 0.662136 0.000001
Si Si2 0.204368 0.656795 0.500000
Si Si3 0.862160 0.662549 0.839454
Si Si4 0.637839 0.837450 0.839454
Si Si5 0.298180 0.838495 0.316184
Si Si6 0.945495 0.839612 0.097778
Si Si7 0.945494 0.839612 0.902223
Si Si8 0.798179 0.661505 0.683817
O O1 0.784260 0.500000 0.000003
O O2 0.828170 0.703289 0.917482
O O3 0.750000 0.750000 0.000000
O O4 0.828170 0.703294 0.082519
O O5 0.223427 0.500000 0.500000
O O6 0.250000 0.750000 0.500000
O O7 0.177235 0.684237 0.589828
O O8 0.177235 0.684237 0.410171
O O9 0.874441 0.500000 0.840131
O O10 0.911757 0.745257 0.844157
O O11 0.836630 0.710314 0.752817
O O12 0.663369 0.789687 0.752816
O O13 0.588242 0.754742 0.844156
O O14 0.625559 0.000000 0.840134
O O15 0.250000 0.750000 0.305741
O O16 0.284747 0.000000 0.301081
O O17 0.000000 0.814376 0.126920
O O18 0.931214 0.000000 0.109994
O O19 0.939290 0.795576 0.000000
O O20 0.931212 0.000000 0.890008
O O21 0.784747 0.500000 0.698920
#
# Coordination Sequence:
#
# PCOD8085140 Si02
#       8
#     8   8   8   8   8   8   8   8
#     4  10  20  30  39  56  85 117 146 171 199 240
#     4   8  14  26  42  60  83 112 143 179 216 245
#     4  10  19  30  43  63  88 114 144 176 211 252
#     4  10  19  30  43  63  88 114 144 176 211 252
#     4   9  17  28  43  63  88 116 147 179 211 250
#     4   9  18  32  48  65  84 108 141 179 217 257
#     4   9  18  32  48  65  84 108 141 179 217 257
#     4   9  17  28  43  63  88 116 147 179 211 250
#
# _framework density 15.135498
#
# number of rings (size 3 to 8) (size 9 to 14) (size 15 to 20)
#    0.000    2.750    1.250    1.500    0.000    2.500 
#    0.000    1.250    0.000    0.000    0.000    0.875 
#    0.000    7.000    0.000    0.000    0.000    0.000 
#
# Total GULP energy -396589.950897 kJ/mol
# GULP energy per Si atom -12393.435966 kJ/mol
# Density = 1.510105 g / cm^3
# Si number density = 15.135498 Si / 1000 Ang^3
#
#
#
# Elastic Constant Matrix: (Units=GPa)
#
#
# Indices 1 2 3 4 5 6 
#
# 1 90.4016 46.1767 57.1015 0.0000 -0.0008 0.0000
# 2 46.1767 47.8858 37.2992 0.0000 -0.0003 0.0000
# 3 57.1015 37.2992 132.4491 0.0000 -0.0013 0.0000
# 4 0.0000 0.0000 0.0000 14.2547 0.0000 0.0002
# 5 -0.0008 -0.0003 -0.0013 0.0000 10.7445 0.0000
# 6 0.0000 0.0000 0.0000 0.0002 0.0000 31.2840
#
#
#
# Elastic Compliance Matrix: (Units=1/GPa)
#
#
# Indices 1 2 3 4 5 6 
#
# 1 0.024065 -0.019375 -0.004919 0.000000 0.000001 0.000000
# 2 -0.019375 0.042350 -0.003573 0.000000 -0.000001 0.000000
# 3 -0.004919 -0.003573 0.010677 0.000000 0.000001 0.000000
# 4 0.000000 0.000000 0.000000 0.070152 0.000000 0.000000
# 5 0.000001 -0.000001 0.000001 0.000000 0.093071 0.000000
# 6 0.000000 0.000000 0.000000 0.000000 0.000000 0.031965
#
#
# Mechanical properties :
#
#
# Convention : Reuss Voigt Hill
#
# Bulk Modulus (GPa) = 46.82107 61.32126 54.07117
# Shear Modulus (GPa) = 14.91937 19.93389 17.42663
#
# Velocity S-wave (km/s) = 3.14302 3.63303 3.39687
# Velocity P-wave (km/s) = 6.64629 7.62898 7.15453
#
# Compressibility (1/GPa) = 0.02135791
#
# Stress axis : x y z
#
# Youngs Moduli (GPa) = 41.55336 23.61279 93.65988
#
# Poissons Ratio (x) = 0.45750 0.46070
# Poissons Ratio (y) = 0.80510 0.33467
# Poissons Ratio (z) = 0.20439 0.08437
#
# Static dielectric constant tensor:
#      x y z
#    x 2.786240 0.000000 0.000000 
#    y 0.000000 2.880620 0.000000 
#    z 0.000000 0.000000 3.363340 
# 
# 
# High freq. dielectric constant tensor:
#      x y z
#    x 1.549790 0.000000 0.000000 
#    y 0.000000 1.584710 0.000000 
#    z 0.000000 0.000000 1.581240 
# 
# From -- ./inp_files/248378.got.cif
#   From: 2010.06.25/outbox.cif.g09.slc.cpg/sg12_125_cif.got.tgz:248378.got - 2010.06.28 00:19:55.
