data_PCOD8085674
_publ_section_title
;
Structure prediction by ZEFSAII (Michael W. Deem and Ramdas Pophale) SiO2 
 PCOD8085674
Probable space group: C 2/M
;
_chemical_formula_sum "Si O2"
_cell_formula_units_Z 48
_cell_length_a 32.171750
_cell_length_b 10.436821
_cell_length_c 28.319390
_cell_angle_alpha 90.000000
_cell_angle_beta 163.578084
_cell_angle_gamma 90.000000
_cell_volume 2688.224262
_symmetry_space_group_name_H-M "C 2/M"
_symmetry_group_IT_number 12
_symmetry_cell_setting 'monoclinic'
loop_
_space_group_symop_operation_xyz
x,y,z
-x,y,-z
-x,-y,-z
x,-y,z
1/2+x,1/2+y,z
1/2-x,1/2+y,-z
1/2-x,1/2-y,-z
1/2+x,1/2-y,z
loop_
_atom_site_type_symbol
_atom_site_label
_atom_site_fract_x
_atom_site_fract_y
_atom_site_fract_z
Si Si1 0.856452 0.355098 0.559069
Si Si2 0.906871 0.354366 0.261133
Si Si3 0.376838 0.855305 0.690608
Si Si4 0.796276 0.354301 0.926258
Si Si5 0.600518 0.862669 0.562989
Si Si6 0.176421 0.137333 0.692647
O O1 0.794890 0.500000 0.484090
O O2 0.735612 0.250363 0.411823
O O3 0.903708 0.333279 0.664415
O O4 0.001316 0.333050 0.686222
O O5 0.843988 0.500000 0.194832
O O6 0.776298 0.250083 0.117861
O O7 0.007887 0.326236 0.416299
O O8 0.316768 0.000000 0.634309
O O9 0.529402 0.834352 0.883779
O O10 0.756158 0.500000 0.898501
O O11 0.737893 0.326082 0.810506
O O12 0.500000 0.871848 0.500000
O O13 0.720463 0.749946 0.703479
O O14 0.679696 0.000000 0.641291
O O15 0.000000 0.128337 0.500000
O O16 0.241969 0.000000 0.747771
#
# Coordination Sequence:
#
# PCOD8085674 Si02
#       6
#     8   8   8   8   8   8
#     4   9  19  36  54  71  96 131 166 201 244 293
#     4  10  19  30  48  76 103 126 160 204 245 286
#     4   9  19  36  54  71  96 131 166 201 244 293
#     4  10  19  30  48  76 103 126 160 204 245 286
#     4   9  15  25  42  66  94 125 157 190 231 283
#     4   9  15  25  42  66  94 125 157 190 231 283
#
# _framework density 17.855654000000001
#
# number of rings (size 3 to 8) (size 9 to 14) (size 15 to 20)
#    0.000    2.667    3.333    0.000    0.000    2.000 
#    0.000    0.000    0.000    1.000    0.000    7.000 
#    0.000    0.000    0.000    0.000    0.000    0.000 
#
# Total GULP energy -297347.922395 kJ/mol
# GULP energy per Si atom -12389.496766 kJ/mol
# Density = 1.781501 g / cm^3
# Si number density = 17.855654 Si / 1000 Ang^3
#
#
#
# Elastic Constant Matrix: (Units=GPa)
#
#
# Indices 1 2 3 4 5 6 
#
# 1 10.3012 5.7035 0.9083 0.0079 -3.1455 -0.0016
# 2 5.7035 145.2395 37.3588 0.0052 8.1837 0.0096
# 3 0.9083 37.3588 63.9192 0.0188 -8.1408 0.0071
# 4 0.0079 0.0052 0.0188 41.2598 0.0083 -14.4420
# 5 -3.1455 8.1837 -8.1408 0.0083 14.5990 0.0063
# 6 -0.0016 0.0096 0.0071 -14.4420 0.0063 42.0466
#
#
#
# Elastic Compliance Matrix: (Units=1/GPa)
#
#
# Indices 1 2 3 4 5 6 
#
# 1 0.110792 -0.008045 0.007257 -0.000034 0.032428 -0.000012
# 2 -0.008045 0.009589 -0.006884 0.000007 -0.010947 0.000003
# 3 0.007257 -0.006884 0.021804 -0.000018 0.017582 -0.000011
# 4 -0.000034 0.000007 -0.000018 0.027549 -0.000041 0.009462
# 5 0.032428 -0.010947 0.017582 -0.000041 0.091425 -0.000027
# 6 -0.000012 0.000003 -0.000011 0.009462 -0.000027 0.027033
#
#
# Mechanical properties :
#
#
# Convention : Reuss Voigt Hill
#
# Bulk Modulus (GPa) = 7.88378 34.15567 21.01973
# Shear Modulus (GPa) = 14.45853 31.28035 22.86944
#
# Velocity S-wave (km/s) = 2.84869 4.19005 3.58270
# Velocity P-wave (km/s) = 3.90447 6.52525 5.37698
#
# Compressibility (1/GPa) = 0.12684268
#
# Stress axis : x y z
#
# Youngs Moduli (GPa) = 9.02589 104.28936 45.86218
#
# Poissons Ratio (x) = 0.83898 -0.33284
# Poissons Ratio (y) = 0.07261 0.31573
# Poissons Ratio (z) = -0.06551 0.71795
#
# Static dielectric constant tensor:
#      x y z
#    x 3.095640 0.000000 -0.234490 
#    y 0.000000 4.993000 -0.000010 
#    z -0.234490 -0.000010 3.017110 
# 
# 
# High freq. dielectric constant tensor:
#      x y z
#    x 1.662890 0.000000 -0.032460 
#    y 0.000000 1.722530 0.000000 
#    z -0.032460 0.000000 1.654630 
# 
# From -- ./inp_files/94510.got.cif
#   From: 2010.06.25/outbox.cif.g09.slc.cpg/sg12_48_cif.got.tgz:94510.got - 2010.06.28 00:19:55.
