data_PCOD8085182
_publ_section_title
;
Structure prediction by ZEFSAII (Michael W. Deem and Ramdas Pophale) SiO2 
 PCOD8085182
Probable space group: C 2/M
;
_chemical_formula_sum "Si O2"
_cell_formula_units_Z 64
_cell_length_a 22.599503
_cell_length_b 9.032214
_cell_length_c 18.761075
_cell_angle_alpha 90.000000
_cell_angle_beta 83.212544
_cell_angle_gamma 90.000000
_cell_volume 3802.737234
_symmetry_space_group_name_H-M "C 2/M"
_symmetry_group_IT_number 12
_symmetry_cell_setting 'monoclinic'
loop_
_space_group_symop_operation_xyz
x,y,z
-x,y,-z
-x,-y,-z
x,-y,z
1/2+x,1/2+y,z
1/2-x,1/2+y,-z
1/2-x,1/2-y,-z
1/2+x,1/2-y,z
loop_
_atom_site_type_symbol
_atom_site_label
_atom_site_fract_x
_atom_site_fract_y
_atom_site_fract_z
Si Si1 0.502440 0.673538 0.292451
Si Si2 0.463129 0.833200 0.848342
Si Si3 0.458340 0.828783 0.571650
Si Si4 0.099746 0.667093 0.874329
Si Si5 0.431495 0.332754 0.986895
Si Si6 0.325422 0.829759 0.543031
Si Si7 0.869847 0.825855 0.267820
Si Si8 0.212486 0.327899 0.608828
O O1 0.512323 0.500000 0.282742
O O2 0.542591 0.752594 0.226778
O O3 0.523790 0.725827 0.365937
O O4 0.433284 0.716575 0.293253
O O5 0.530852 0.832053 0.863836
O O6 0.423130 0.748191 0.912261
O O7 0.438999 0.000000 0.844194
O O8 0.500000 0.785933 0.500000
O O9 0.391040 0.792612 0.560180
O O10 0.467023 0.000000 0.591817
O O11 0.123900 0.500000 0.877267
O O12 0.137057 0.753103 0.808979
O O13 0.108347 0.748567 0.948698
O O14 0.408000 0.500000 0.983219
O O15 0.500000 0.331255 0.000000
O O16 0.280570 0.725200 0.592592
O O17 0.322483 0.795037 0.459394
O O18 0.307825 0.000000 0.559573
O O19 0.818066 0.763804 0.324548
O O20 0.862383 0.000000 0.260152
O O21 0.211227 0.500000 0.628962
#
# Coordination Sequence:
#
# PCOD8085182 Si02
#       8
#     8   8   8   8   8   8   8   8
#     4  10  20  31  44  65  92 121 154 192 231 272
#     4   9  16  26  40  57  81 116 154 188 223 267
#     4  10  20  34  51  69  92 122 153 186 226 273
#     4   9  16  25  38  58  84 115 152 188 222 267
#     4   9  15  23  36  55  82 115 149 185 225 267
#     4   9  19  34  50  69  92 118 149 186 229 274
#     4  10  19  30  44  64  92 123 153 188 232 275
#     4  10  19  32  51  70  89 116 151 190 229 272
#
# _framework density 16.829982999999999
#
# number of rings (size 3 to 8) (size 9 to 14) (size 15 to 20)
#    0.000    2.500    0.000    3.000    0.000    8.250 
#    0.000    0.000    0.000    0.000    0.000    0.000 
#    0.000    1.000    0.000    3.750    0.000    6.125 
#
# Total GULP energy -396856.714112 kJ/mol
# GULP energy per Si atom -12401.772316 kJ/mol
# Density = 1.679168 g / cm^3
# Si number density = 16.829983 Si / 1000 Ang^3
#
#
#
# Elastic Constant Matrix: (Units=GPa)
#
#
# Indices 1 2 3 4 5 6 
#
# 1 44.9490 32.6238 38.3927 0.0000 -8.9446 0.0000
# 2 32.6238 115.0415 66.8636 0.0000 -14.1366 0.0000
# 3 38.3927 66.8636 127.8956 0.0000 -22.9902 0.0000
# 4 0.0000 0.0000 0.0000 37.4195 0.0000 -4.3856
# 5 -8.9446 -14.1366 -22.9902 0.0000 18.5013 0.0000
# 6 0.0000 0.0000 0.0000 -4.3856 0.0000 18.7855
#
#
#
# Elastic Compliance Matrix: (Units=1/GPa)
#
#
# Indices 1 2 3 4 5 6 
#
# 1 0.031998 -0.004914 -0.006349 0.000000 0.003826 0.000000
# 2 -0.004914 0.013290 -0.005247 0.000000 0.001260 0.000000
# 3 -0.006349 -0.005247 0.014415 0.000000 0.010834 0.000000
# 4 0.000000 0.000000 0.000000 0.027476 0.000000 0.006414
# 5 0.003826 0.001260 0.010834 0.000000 0.070326 0.000000
# 6 0.000000 0.000000 0.000000 0.006414 0.000000 0.054730
#
#
# Mechanical properties :
#
#
# Convention : Reuss Voigt Hill
#
# Bulk Modulus (GPa) = 37.47429 62.62735 50.05082
# Shear Modulus (GPa) = 19.67357 24.94165 22.30761
#
# Velocity S-wave (km/s) = 3.42271 3.85382 3.64465
# Velocity P-wave (km/s) = 6.15911 7.55613 6.89311
#
# Compressibility (1/GPa) = 0.02668496
#
# Stress axis : x y z
#
# Youngs Moduli (GPa) = 31.25197 75.24344 69.37173
#
# Poissons Ratio (x) = 0.36975 0.44041
# Poissons Ratio (y) = 0.15357 0.36396
# Poissons Ratio (z) = 0.19841 0.39477
#
# Static dielectric constant tensor:
#      x y z
#    x 2.718120 0.000000 -0.151340 
#    y 0.000000 3.301730 0.000000 
#    z -0.151340 0.000000 3.228840 
# 
# 
# High freq. dielectric constant tensor:
#      x y z
#    x 1.590270 0.000000 -0.019920 
#    y 0.000000 1.665140 0.000000 
#    z -0.019920 0.000000 1.656320 
# 
# From -- ./inp_files/281422.got.cif
#   From: 2010.06.25/outbox.cif.g09.slc.cpg/sg12_141_cif.got.tgz:281422.got - 2010.06.28 00:19:55.
