data_PCOD8085016
_publ_section_title
;
Structure prediction by ZEFSAII (Michael W. Deem and Ramdas Pophale) SiO2 
 PCOD8085016
Probable space group: C 2/M
;
_chemical_formula_sum "Si O2"
_cell_formula_units_Z 56
_cell_length_a 36.026912
_cell_length_b 7.717013
_cell_length_c 14.885547
_cell_angle_alpha 90.000000
_cell_angle_beta 130.497726
_cell_angle_gamma 90.000000
_cell_volume 3147.033059
_symmetry_space_group_name_H-M "C 2/M"
_symmetry_group_IT_number 12
_symmetry_cell_setting 'monoclinic'
loop_
_space_group_symop_operation_xyz
x,y,z
-x,y,-z
-x,-y,-z
x,-y,z
1/2+x,1/2+y,z
1/2-x,1/2+y,-z
1/2-x,1/2-y,-z
1/2+x,1/2-y,z
loop_
_atom_site_type_symbol
_atom_site_label
_atom_site_fract_x
_atom_site_fract_y
_atom_site_fract_z
Si Si1 0.632838 0.304185 0.346640
Si Si2 0.311886 0.701057 0.032039
Si Si3 0.806809 0.202704 0.729656
Si Si4 0.063159 0.500000 0.191948
Si Si5 0.210449 0.195692 0.809171
Si Si6 0.799314 0.695938 0.398931
Si Si7 0.114869 0.202143 0.002761
Si Si8 0.549401 0.000000 0.960168
O O1 0.613952 0.500000 0.297894
O O2 0.673805 0.248698 0.338393
O O3 0.657842 0.299642 0.483618
O O4 0.587734 0.173417 0.269657
O O5 0.297023 0.500000 0.009636
O O6 0.315055 0.769460 0.139851
O O7 0.363285 0.729925 0.062778
O O8 0.269035 0.797355 0.911065
O O9 0.753107 0.284829 0.659940
O O10 0.801086 0.000000 0.736617
O O11 0.845047 0.270592 0.863330
O O12 0.008346 0.500000 0.141180
O O13 0.066136 0.500000 0.089479
O O14 0.192099 0.303563 0.694697
O O15 0.194034 0.000000 0.766064
O O16 0.801628 0.500000 0.438132
O O17 0.068120 0.325144 0.940703
O O18 0.100454 0.000000 0.996154
#
# Coordination Sequence:
#
# PCOD8085016 Si02
#       8
#     8   8   8   4   8   8   8   4
#     4  11  22  39  56  76 108 148 186 226 275 324
#     4   9  18  32  48  70 110 149 182 229 265 316
#     4   9  18  31  50  76 110 149 183 217 259 320
#     4  11  24  42  56  83 111 139 185 244 278 321
#     4  10  19  29  45  75 109 149 190 216 265 323
#     4  11  20  33  51  76 113 151 187 223 261 320
#     4  10  19  35  55  80 111 144 182 224 273 322
#     4  11  24  38  62  83 105 143 191 228 287 333
#
# _framework density 17.794539
#
# number of rings (size 3 to 8) (size 9 to 14) (size 15 to 20)
#    0.000    1.857    3.571    1.286    1.000    1.143 
#    3.857    1.429    0.000    0.000    0.000    2.000 
#    0.000    4.571    0.000    0.000    0.000    0.000 
#
# Total GULP energy -347179.916864 kJ/mol
# GULP energy per Si atom -12399.282745 kJ/mol
# Density = 1.775404 g / cm^3
# Si number density = 17.794539 Si / 1000 Ang^3
#
#
#
# Elastic Constant Matrix: (Units=GPa)
#
#
# Indices 1 2 3 4 5 6 
#
# 1 109.0190 41.4575 55.8313 0.0000 -3.1752 0.0000
# 2 41.4575 82.0185 31.5814 0.0000 10.1495 -0.0001
# 3 55.8313 31.5814 89.7391 0.0000 -4.0938 0.0000
# 4 0.0000 0.0000 0.0000 21.8529 0.0000 0.4445
# 5 -3.1752 10.1495 -4.0938 0.0000 28.4905 0.0000
# 6 0.0000 -0.0001 0.0000 0.4445 0.0000 23.9803
#
#
#
# Elastic Compliance Matrix: (Units=1/GPa)
#
#
# Indices 1 2 3 4 5 6 
#
# 1 0.014946 -0.004985 -0.007436 0.000000 0.002373 0.000000
# 2 -0.004985 0.016778 -0.003122 0.000000 -0.006981 0.000000
# 3 -0.007436 -0.003122 0.016993 0.000000 0.002725 0.000000
# 4 0.000000 0.000000 0.000000 0.045778 0.000000 -0.000849
# 5 0.002373 -0.006981 0.002725 0.000000 0.038242 0.000000
# 6 0.000000 0.000000 0.000000 -0.000849 0.000000 0.041717
#
#
# Mechanical properties :
#
#
# Convention : Reuss Voigt Hill
#
# Bulk Modulus (GPa) = 56.71759 59.83522 58.27641
# Shear Modulus (GPa) = 23.65019 24.99184 24.32102
#
# Velocity S-wave (km/s) = 3.64960 3.75169 3.70099
# Velocity P-wave (km/s) = 7.04998 7.24331 7.14730
#
# Compressibility (1/GPa) = 0.01763121
#
# Stress axis : x y z
#
# Youngs Moduli (GPa) = 66.90951 59.60188 58.84940
#
# Poissons Ratio (x) = 0.29711 0.43759
# Poissons Ratio (y) = 0.33354 0.18371
# Poissons Ratio (z) = 0.49753 0.18606
#
# Static dielectric constant tensor:
#      x y z
#    x 3.271050 0.000000 -0.208540 
#    y 0.000000 3.245850 0.000000 
#    z -0.208540 0.000000 3.056090 
# 
# 
# High freq. dielectric constant tensor:
#      x y z
#    x 1.672720 0.000000 -0.026140 
#    y 0.000000 1.692930 0.000000 
#    z -0.026140 0.000000 1.655280 
# 
# From -- ./inp_files/249323.got.cif
#   From: 2010.06.25/outbox.cif.g09.slc.cpg/sg12_125_cif.got.tgz:249323.got - 2010.06.28 00:19:55.
