data_PCOD8085431
_publ_section_title
;
Structure prediction by ZEFSAII (Michael W. Deem and Ramdas Pophale) SiO2 
 PCOD8085431
Probable space group: C 2/M
;
_chemical_formula_sum "Si O2"
_cell_formula_units_Z 56
_cell_length_a 9.288680
_cell_length_b 25.840808
_cell_length_c 16.662002
_cell_angle_alpha 90.000000
_cell_angle_beta 56.720570
_cell_angle_gamma 90.000000
_cell_volume 3343.457782
_symmetry_space_group_name_H-M "C 2/M"
_symmetry_group_IT_number 12
_symmetry_cell_setting 'monoclinic'
loop_
_space_group_symop_operation_xyz
x,y,z
-x,y,-z
-x,-y,-z
x,-y,z
1/2+x,1/2+y,z
1/2-x,1/2+y,-z
1/2-x,1/2-y,-z
1/2+x,1/2-y,z
loop_
_atom_site_type_symbol
_atom_site_label
_atom_site_fract_x
_atom_site_fract_y
_atom_site_fract_z
Si Si1 0.660517 0.185205 0.413676
Si Si2 0.135365 0.442730 0.887787
Si Si3 0.831910 0.142355 0.910377
Si Si4 0.005699 0.791686 0.586728
Si Si5 0.733493 0.789477 0.798501
Si Si6 0.930046 0.361107 0.864388
Si Si7 0.712661 0.667047 0.790297
O O1 0.500000 0.151624 0.500000
O O2 0.553541 0.232789 0.407763
O O3 0.754606 0.154377 0.313548
O O4 0.801789 0.203884 0.435530
O O5 0.194650 0.500000 0.841329
O O6 0.297861 0.410015 0.869887
O O7 0.045409 0.412344 0.841899
O O8 0.000000 0.447675 0.000000
O O9 0.785784 0.192285 0.871138
O O10 0.030318 0.144456 0.873409
O O11 0.720118 0.143644 0.024551
O O12 0.868865 0.814040 0.692751
O O13 0.000000 0.819632 0.500000
O O14 0.544822 0.809679 0.834556
O O15 0.726267 0.727926 0.802116
O O16 0.852055 0.363978 0.799607
#
# Coordination Sequence:
#
# PCOD8085431 Si02
#       7
#     8   8   8   8   8   8   8
#     4  10  20  31  46  64  91 128 168 208 245 274
#     4   8  16  34  55  69  88 121 159 202 250 288
#     4  10  19  34  45  71  98 129 167 196 233 278
#     4  10  19  30  47  64  88 125 170 214 238 276
#     4  10  20  31  45  66  98 140 170 192 228 274
#     4  10  21  30  49  69  98 132 164 198 228 284
#     4  11  21  30  45  69 104 132 163 198 232 277
#
# _framework density 16.749127999999999
#
# number of rings (size 3 to 8) (size 9 to 14) (size 15 to 20)
#    0.000    2.143    1.429    4.286    8.000    3.429 
#    0.000    0.714    0.000    3.429    0.000    0.000 
#    0.000   21.714    0.000    0.000    0.000    0.000 
#
# Total GULP energy -346975.498759 kJ/mol
# GULP energy per Si atom -12391.982099 kJ/mol
# Density = 1.671101 g / cm^3
# Si number density = 16.749128 Si / 1000 Ang^3
#
#
#
# Elastic Constant Matrix: (Units=GPa)
#
#
# Indices 1 2 3 4 5 6 
#
# 1 125.3602 28.4611 28.0975 0.0000 6.4117 0.0000
# 2 28.4611 71.6083 15.3867 0.0000 1.8378 0.0000
# 3 28.0975 15.3867 72.3256 0.0000 3.0321 0.0000
# 4 0.0000 0.0000 0.0000 3.9325 0.0000 1.1971
# 5 6.4117 1.8378 3.0321 0.0000 30.9774 0.0000
# 6 0.0000 0.0000 0.0000 1.1971 0.0000 0.9966
#
#
#
# Elastic Compliance Matrix: (Units=1/GPa)
#
#
# Indices 1 2 3 4 5 6 
#
# 1 0.009408 -0.003070 -0.002940 0.000000 -0.001477 0.000000
# 2 -0.003070 0.015645 -0.002132 0.000000 -0.000084 0.000000
# 3 -0.002940 -0.002132 0.015455 0.000000 -0.000778 0.000000
# 4 0.000000 0.000000 0.000000 0.400850 0.000000 -0.481460
# 5 -0.001477 -0.000084 -0.000778 0.000000 0.032669 0.000000
# 6 0.000000 0.000000 0.000000 -0.481460 0.000000 1.581651
#
#
# Mechanical properties :
#
#
# Convention : Reuss Voigt Hill
#
# Bulk Modulus (GPa) = 41.28100 45.90942 43.59521
# Shear Modulus (GPa) = 2.40380 20.33790 11.37085
#
# Velocity S-wave (km/s) = 1.19929 3.48841 2.60838
# Velocity P-wave (km/s) = 5.15925 6.61021 5.92928
#
# Compressibility (1/GPa) = 0.02422422
#
# Stress axis : x y z
#
# Youngs Moduli (GPa) = 106.28691 63.91692 64.70498
#
# Poissons Ratio (x) = 0.19621 0.19024
# Poissons Ratio (y) = 0.32628 0.13797
# Poissons Ratio (z) = 0.31249 0.13629
#
# Static dielectric constant tensor:
#      x y z
#    x 3.293590 0.000000 -0.116960 
#    y 0.000000 2.928010 0.000000 
#    z -0.116960 0.000000 3.853490 
# 
# 
# High freq. dielectric constant tensor:
#      x y z
#    x 1.662010 0.000000 -0.001800 
#    y 0.000000 1.582040 0.000000 
#    z -0.001800 0.000000 1.651430 
# 
# From -- ./inp_files/199672.got.cif
#   From: 2010.06.25/outbox.cif.g09.slc.cpg/sg12_100_cif.got.tgz:199672.got - 2010.06.28 00:19:55.
