data_PCOD8085535
_publ_section_title
;
Structure prediction by ZEFSAII (Michael W. Deem and Ramdas Pophale) SiO2 
 PCOD8085535
Probable space group: C 2/M
;
_chemical_formula_sum "Si O2"
_cell_formula_units_Z 48
_cell_length_a 20.159077
_cell_length_b 9.062755
_cell_length_c 29.297193
_cell_angle_alpha 90.000000
_cell_angle_beta 31.020222
_cell_angle_gamma 90.000000
_cell_volume 2758.361804
_symmetry_space_group_name_H-M "C 2/M"
_symmetry_group_IT_number 12
_symmetry_cell_setting 'monoclinic'
loop_
_space_group_symop_operation_xyz
x,y,z
-x,y,-z
-x,-y,-z
x,-y,z
1/2+x,1/2+y,z
1/2-x,1/2+y,-z
1/2-x,1/2-y,-z
1/2+x,1/2-y,z
loop_
_atom_site_type_symbol
_atom_site_label
_atom_site_fract_x
_atom_site_fract_y
_atom_site_fract_z
Si Si1 0.645646 0.672991 0.423935
Si Si2 0.718430 0.169960 0.564943
Si Si3 0.377317 0.675857 0.241894
Si Si4 0.696634 0.675297 0.902026
Si Si5 0.051052 0.175162 0.900355
Si Si6 0.475233 0.174225 0.765809
O O1 0.500000 0.719355 0.500000
O O2 0.670639 0.500000 0.400592
O O3 0.679394 0.714925 0.456171
O O4 0.735517 0.764644 0.336889
O O5 0.750000 0.250000 0.500000
O O6 0.575275 0.210831 0.666372
O O7 0.729581 0.000000 0.546931
O O8 0.378022 0.500000 0.244648
O O9 0.412421 0.735436 0.170849
O O10 0.484324 0.741257 0.212408
O O11 0.702750 0.500000 0.897735
O O12 0.654461 0.733063 0.876759
O O13 0.836838 0.737463 0.832245
O O14 0.591995 0.729636 0.001056
O O15 0.052869 0.000000 0.899230
O O16 0.474405 0.000000 0.776822
#
# Coordination Sequence:
#
# PCOD8085535 Si02
#       6
#     8   8   8   8   8   8
#     4   9  19  36  53  68  91 125 161 191 225 278
#     4   9  18  31  47  68  92 119 153 191 230 273
#     4  10  19  30  47  73 100 121 149 194 239 275
#     4   8  14  28  48  67  92 126 160 193 229 273
#     4   8  15  27  45  71  97 121 155 197 235 271
#     4   9  18  32  49  68  92 126 162 190 225 280
#
# _framework density 17.401633
#
# number of rings (size 3 to 8) (size 9 to 14) (size 15 to 20)
#    0.000    3.167    0.000    2.500    0.000    5.000 
#    0.000    1.667    0.000    3.000    0.000    5.833 
#    0.000    0.000    0.000    0.000    0.000    0.000 
#
# Total GULP energy -297508.269564 kJ/mol
# GULP energy per Si atom -12396.177898 kJ/mol
# Density = 1.736203 g / cm^3
# Si number density = 17.401633 Si / 1000 Ang^3
#
#
#
# Elastic Constant Matrix: (Units=GPa)
#
#
# Indices 1 2 3 4 5 6 
#
# 1 147.4009 40.8063 126.1870 -0.0147 -1.2487 0.0194
# 2 40.8063 34.9599 41.1908 -0.0179 5.6878 -0.0008
# 3 126.1870 41.1908 152.3754 -0.0053 0.0140 0.0125
# 4 -0.0147 -0.0179 -0.0053 18.8123 -0.0004 1.1229
# 5 -1.2487 5.6878 0.0140 -0.0004 45.8820 -0.0041
# 6 0.0194 -0.0008 0.0125 1.1229 -0.0041 23.0144
#
#
#
# Elastic Compliance Matrix: (Units=1/GPa)
#
#
# Indices 1 2 3 4 5 6 
#
# 1 0.024488 -0.007256 -0.018318 0.000008 0.001572 -0.000011
# 2 -0.007256 0.045401 -0.006264 0.000035 -0.005824 0.000008
# 3 -0.018318 -0.006264 0.023425 -0.000014 0.000271 0.000003
# 4 0.000008 0.000035 -0.000014 0.053312 -0.000004 -0.002601
# 5 0.001572 -0.005824 0.000271 -0.000004 0.022560 0.000002
# 6 -0.000011 0.000008 0.000003 -0.002601 0.000002 0.043578
#
#
# Mechanical properties :
#
#
# Convention : Reuss Voigt Hill
#
# Bulk Modulus (GPa) = 33.73859 83.45602 58.59730
# Shear Modulus (GPa) = 17.46306 25.97854 21.72080
#
# Velocity S-wave (km/s) = 3.17129 3.86797 3.53683
# Velocity P-wave (km/s) = 5.73059 8.24689 7.10109
#
# Compressibility (1/GPa) = 0.02963965
#
# Stress axis : x y z
#
# Youngs Moduli (GPa) = 40.83676 22.02587 42.68859
#
# Poissons Ratio (x) = 0.15982 0.78196
# Poissons Ratio (y) = 0.29631 0.26739
# Poissons Ratio (z) = 0.74804 0.13796
#
# Static dielectric constant tensor:
#      x y z
#    x 3.526140 -0.000030 -0.137520 
#    y -0.000030 2.887740 0.000010 
#    z -0.137520 0.000010 3.478880 
# 
# 
# High freq. dielectric constant tensor:
#      x y z
#    x 1.678440 0.000000 -0.002300 
#    y 0.000000 1.637720 0.000000 
#    z -0.002300 0.000000 1.677280 
# 
# From -- ./inp_files/249355.got.cif
#   From: 2010.06.25/outbox.cif.g09.slc.cpg/sg12_125_cif.got.tgz:249355.got - 2010.06.28 00:19:55.
