data_PCOD8085872
_publ_section_title
;
Structure prediction by ZEFSAII (Michael W. Deem and Ramdas Pophale) SiO2 
 PCOD8085872
Probable space group: C 2/M
;
_chemical_formula_sum "Si O2"
_cell_formula_units_Z 48
_cell_length_a 14.464835
_cell_length_b 16.924133
_cell_length_c 20.990837
_cell_angle_alpha 90.000000
_cell_angle_beta 31.381603
_cell_angle_gamma 90.000000
_cell_volume 2675.881573
_symmetry_space_group_name_H-M "C 2/M"
_symmetry_group_IT_number 12
_symmetry_cell_setting 'monoclinic'
loop_
_space_group_symop_operation_xyz
x,y,z
-x,y,-z
-x,-y,-z
x,-y,z
1/2+x,1/2+y,z
1/2-x,1/2+y,-z
1/2-x,1/2-y,-z
1/2+x,1/2-y,z
loop_
_atom_site_type_symbol
_atom_site_label
_atom_site_fract_x
_atom_site_fract_y
_atom_site_fract_z
Si Si1 0.314642 0.089290 0.032222
Si Si2 0.067784 0.703504 0.717998
Si Si3 0.093285 0.275742 0.849521
Si Si4 0.791097 0.174079 0.020008
Si Si5 0.884790 0.908064 0.506562
Si Si6 0.920705 0.165343 0.724479
O O1 0.210916 0.098400 0.025364
O O2 0.176433 0.108522 0.168822
O O3 0.382492 0.000000 0.999325
O O4 0.488240 0.144689 0.932081
O O5 0.128040 0.726505 0.753571
O O6 0.200878 0.639094 0.611787
O O7 0.068858 0.781394 0.672816
O O8 0.866771 0.667540 0.835486
O O9 0.280401 0.274698 0.774751
O O10 0.983490 0.196489 0.936446
O O11 0.750000 0.250000 0.000000
O O12 0.000000 0.882211 0.500000
O O13 0.992151 0.890403 0.379384
O O14 0.837416 0.000000 0.538062
#
# Coordination Sequence:
#
# PCOD8085872 Si02
#       6
#     8   8   8   8   8   8
#     4  10  19  30  51  84 114 141 171 215 279 325
#     4  10  19  37  55  76 107 146 184 219 262 320
#     4  10  19  34  54  80 115 137 177 220 267 323
#     4   8  16  34  51  74 112 139 177 216 258 321
#     4  11  24  38  52  78 114 145 179 224 275 324
#     4  12  20  34  58  80 108 145 181 224 264 322
#
# _framework density 17.938013999999999
#
# number of rings (size 3 to 8) (size 9 to 14) (size 15 to 20)
#    0.000    2.167    6.667    1.500    0.000    4.667 
#    0.000    0.000    0.000    1.000    0.000    7.000 
#    0.000    0.000    0.000    0.000    0.000    0.000 
#
# Total GULP energy -297441.890437 kJ/mol
# GULP energy per Si atom -12393.412102 kJ/mol
# Density = 1.789719 g / cm^3
# Si number density = 17.938014 Si / 1000 Ang^3
#
#
#
# Elastic Constant Matrix: (Units=GPa)
#
#
# Indices 1 2 3 4 5 6 
#
# 1 49.0629 37.5361 20.7224 0.0011 4.6534 0.0015
# 2 37.5361 66.5939 28.3934 0.0127 0.7786 -0.0013
# 3 20.7224 28.3934 75.4655 0.0227 5.1939 -0.0028
# 4 0.0011 0.0127 0.0227 25.8855 -0.0063 -0.2831
# 5 4.6534 0.7786 5.1939 -0.0063 29.4931 -0.0011
# 6 0.0015 -0.0013 -0.0028 -0.2831 -0.0011 13.3070
#
#
#
# Elastic Compliance Matrix: (Units=1/GPa)
#
#
# Indices 1 2 3 4 5 6 
#
# 1 0.036977 -0.019771 -0.002378 0.000009 -0.004893 -0.000007
# 2 -0.019771 0.028472 -0.005513 -0.000007 0.003339 0.000004
# 3 -0.002378 -0.005513 0.016138 -0.000012 -0.002321 0.000003
# 4 0.000009 -0.000007 -0.000012 0.038641 0.000009 0.000822
# 5 -0.004893 0.003339 -0.002321 0.000009 0.034999 0.000003
# 6 -0.000007 0.000004 0.000003 0.000822 0.000003 0.075166
#
#
# Mechanical properties :
#
#
# Convention : Reuss Voigt Hill
#
# Bulk Modulus (GPa) = 38.07743 40.49180 39.28462
# Shear Modulus (GPa) = 16.97960 20.70179 18.84070
#
# Velocity S-wave (km/s) = 3.07998 3.40085 3.24438
# Velocity P-wave (km/s) = 5.82423 6.16792 5.99854
#
# Compressibility (1/GPa) = 0.02626227
#
# Stress axis : x y z
#
# Youngs Moduli (GPa) = 27.04414 35.12217 61.96483
#
# Poissons Ratio (x) = 0.69440 0.14736
# Poissons Ratio (y) = 0.53469 0.34162
# Poissons Ratio (z) = 0.06431 0.19364
#
# Static dielectric constant tensor:
#      x y z
#    x 3.563730 0.000010 -0.053290 
#    y 0.000010 3.163560 0.000000 
#    z -0.053290 0.000000 3.490080 
# 
# 
# High freq. dielectric constant tensor:
#      x y z
#    x 1.685990 0.000000 0.012820 
#    y 0.000000 1.661130 0.000000 
#    z 0.012820 0.000000 1.698970 
# 
# From -- ./inp_files/311323.got.cif
#   From: 2010.06.25/outbox.cif.g09.slc.cpg/sg12_156_cif.got.tgz:311323.got - 2010.06.28 00:19:55.
