data_PCOD8085276
_publ_section_title
;
Structure prediction by ZEFSAII (Michael W. Deem and Ramdas Pophale) SiO2 
 PCOD8085276
Probable space group: C 2/M
;
_chemical_formula_sum "Si O2"
_cell_formula_units_Z 64
_cell_length_a 28.492952
_cell_length_b 9.395778
_cell_length_c 19.576860
_cell_angle_alpha 90.000000
_cell_angle_beta 47.012658
_cell_angle_gamma 90.000000
_cell_volume 3833.806095
_symmetry_space_group_name_H-M "C 2/M"
_symmetry_group_IT_number 12
_symmetry_cell_setting 'monoclinic'
loop_
_space_group_symop_operation_xyz
x,y,z
-x,y,-z
-x,-y,-z
x,-y,z
1/2+x,1/2+y,z
1/2-x,1/2+y,-z
1/2-x,1/2-y,-z
1/2+x,1/2-y,z
loop_
_atom_site_type_symbol
_atom_site_label
_atom_site_fract_x
_atom_site_fract_y
_atom_site_fract_z
Si Si1 0.115033 0.338241 0.561832
Si Si2 0.378138 0.167640 0.292275
Si Si3 0.936529 0.833638 0.027398
Si Si4 0.565864 0.334391 0.399683
Si Si5 0.491968 0.334740 0.833795
Si Si6 0.989595 0.836688 0.684550
Si Si7 0.819250 0.832182 0.232323
Si Si8 0.324112 0.837338 0.637561
O O1 0.090964 0.500000 0.585815
O O2 0.143384 0.300520 0.608283
O O3 0.168287 0.310232 0.451300
O O4 0.053644 0.246715 0.603565
O O5 0.447655 0.235779 0.210198
O O6 0.327103 0.244967 0.294561
O O7 0.380808 0.000000 0.273568
O O8 0.871412 0.773496 0.125743
O O9 0.936611 0.000000 0.041759
O O10 0.938044 0.800678 0.944538
O O11 0.000000 0.766559 0.000000
O O12 0.500000 0.278860 0.500000
O O13 0.574592 0.500000 0.406976
O O14 0.563236 0.302088 0.320766
O O15 0.628145 0.256775 0.365780
O O16 0.513677 0.500000 0.817907
O O17 0.463267 0.300773 0.786918
O O18 0.009894 0.000000 0.659438
O O19 0.749123 0.798711 0.271144
O O20 0.826275 0.000000 0.241055
O O21 0.339727 0.000000 0.640276
#
# Coordination Sequence:
#
# PCOD8085276 Si02
#       8
#     8   8   8   8   8   8   8   8
#     4   9  18  31  45  66  97 127 156 190 229 276
#     4  10  19  30  45  68  98 128 156 189 233 280
#     4   9  15  27  50  74  92 118 158 202 237 266
#     4  10  19  32  50  73  98 122 154 198 240 279
#     4   9  16  29  50  72  94 122 157 194 234 278
#     4   9  17  29  48  73  95 120 155 192 234 281
#     4  10  20  34  49  68  95 126 163 200 232 275
#     4  10  21  34  49  69  94 128 164 195 232 280
#
# _framework density 16.693591999999999
#
# number of rings (size 3 to 8) (size 9 to 14) (size 15 to 20)
#    0.000    2.500    2.500    0.375    0.000    2.250 
#    0.000    1.250    0.000    0.750    0.000    0.000 
#    0.000    0.000    0.000    0.000    0.000    0.000 
#
# Total GULP energy -396640.109452 kJ/mol
# GULP energy per Si atom -12395.003420 kJ/mol
# Density = 1.665560 g / cm^3
# Si number density = 16.693592 Si / 1000 Ang^3
#
#
#
# Elastic Constant Matrix: (Units=GPa)
#
#
# Indices 1 2 3 4 5 6 
#
# 1 114.0768 43.7212 63.6101 -0.0051 0.3218 0.0026
# 2 43.7212 49.5053 28.7019 -0.0263 -1.8323 0.0178
# 3 63.6101 28.7019 105.0152 -0.0049 -1.4436 0.0083
# 4 -0.0051 -0.0263 -0.0049 14.3852 -0.0008 0.9723
# 5 0.3218 -1.8323 -1.4436 -0.0008 22.4978 -0.0008
# 6 0.0026 0.0178 0.0083 0.9723 -0.0008 27.8572
#
#
#
# Elastic Compliance Matrix: (Units=1/GPa)
#
#
# Indices 1 2 3 4 5 6 
#
# 1 0.017036 -0.010824 -0.007382 -0.000017 -0.001599 0.000008
# 2 -0.010824 0.030934 -0.001863 0.000054 0.002555 -0.000020
# 3 -0.007382 -0.001863 0.014515 -0.000001 0.000885 -0.000002
# 4 -0.000017 0.000054 -0.000001 0.069681 0.000007 -0.002432
# 5 -0.001599 0.002555 0.000885 0.000007 0.044737 -0.000001
# 6 0.000008 -0.000020 -0.000002 -0.002432 -0.000001 0.035982
#
#
# Mechanical properties :
#
#
# Convention : Reuss Voigt Hill
#
# Bulk Modulus (GPa) = 44.75114 60.07375 52.41244
# Shear Modulus (GPa) = 19.19588 21.78563 20.49076
#
# Velocity S-wave (km/s) = 3.39469 3.61644 3.50732
# Velocity P-wave (km/s) = 6.49852 7.31453 6.91857
#
# Compressibility (1/GPa) = 0.02234580
#
# Stress axis : x y z
#
# Youngs Moduli (GPa) = 58.70088 32.32669 68.89194
#
# Poissons Ratio (x) = 0.34991 0.50859
# Poissons Ratio (y) = 0.63539 0.12835
# Poissons Ratio (z) = 0.43335 0.06023
#
# Static dielectric constant tensor:
#      x y z
#    x 3.097010 -0.000020 0.261140 
#    y -0.000020 3.057980 0.000020 
#    z 0.261140 0.000020 3.283740 
# 
# 
# High freq. dielectric constant tensor:
#      x y z
#    x 1.628840 0.000000 0.021170 
#    y 0.000000 1.631290 0.000000 
#    z 0.021170 0.000000 1.634630 
# 
# From -- ./inp_files/326905.got.cif
#   From: 2010.06.25/outbox.cif.g09.slc.cpg/sg12_164_cif.got.tgz:326905.got - 2010.06.28 00:19:55.
