data_PCOD8085502
_publ_section_title
;
Structure prediction by ZEFSAII (Michael W. Deem and Ramdas Pophale) SiO2 
 PCOD8085502
Probable space group: C 2/M
;
_chemical_formula_sum "Si O2"
_cell_formula_units_Z 64
_cell_length_a 18.206883
_cell_length_b 8.813352
_cell_length_c 30.863474
_cell_angle_alpha 90.000000
_cell_angle_beta 137.688934
_cell_angle_gamma 90.000000
_cell_volume 3333.779173
_symmetry_space_group_name_H-M "C 2/M"
_symmetry_group_IT_number 12
_symmetry_cell_setting 'monoclinic'
loop_
_space_group_symop_operation_xyz
x,y,z
-x,y,-z
-x,-y,-z
x,-y,z
1/2+x,1/2+y,z
1/2-x,1/2+y,-z
1/2-x,1/2-y,-z
1/2+x,1/2-y,z
loop_
_atom_site_type_symbol
_atom_site_label
_atom_site_fract_x
_atom_site_fract_y
_atom_site_fract_z
Si Si1 0.720298 0.820477 0.441418
Si Si2 0.828585 0.819727 0.928909
Si Si3 0.493075 0.319745 0.928846
Si Si4 0.930464 0.180182 0.807930
Si Si5 0.186175 0.319976 0.683858
Si Si6 0.021951 0.680300 0.684220
Si Si7 0.911720 0.680354 0.192226
Si Si8 0.626747 0.176819 0.562525
O O1 0.750000 0.750000 0.500000
O O2 0.600848 0.760168 0.375762
O O3 0.806759 0.771154 0.443404
O O4 0.721169 0.000000 0.446302
O O5 0.894859 0.757839 0.916137
O O6 0.705822 0.755696 0.874615
O O7 0.825714 0.000000 0.925178
O O8 0.890779 0.767351 0.000039
O O9 0.486377 0.500000 0.924906
O O10 0.479698 0.255828 0.874536
O O11 0.805888 0.235267 0.749982
O O12 0.995583 0.251467 0.797137
O O13 0.939034 0.000000 0.808961
O O14 0.178685 0.500000 0.681195
O O15 0.098772 0.252327 0.679769
O O16 0.158611 0.260809 0.623824
O O17 0.024917 0.500000 0.684060
O O18 0.067230 0.738255 0.749933
O O19 0.916660 0.500000 0.191556
O O20 0.500000 0.207060 0.500000
O O21 0.655661 0.000000 0.569752
#
# Coordination Sequence:
#
# PCOD8085502 Si02
#       8
#     8   8   8   8   8   8   8   8
#     4  11  22  36  55  78 105 134 166 205 248 295
#     4   8  14  26  46  70  93 121 161 204 239 275
#     4   8  14  26  45  69  94 121 160 205 239 274
#     4  10  19  30  47  71  98 127 159 198 243 290
#     4   9  17  31  52  74  95 125 167 207 243 288
#     4   9  18  33  53  75  97 126 166 207 244 285
#     4  10  19  31  49  72  98 127 159 197 242 290
#     4  10  20  35  55  77 103 134 167 205 249 296
#
# _framework density 19.197431999999999
#
# number of rings (size 3 to 8) (size 9 to 14) (size 15 to 20)
#    0.000    2.625    0.000    3.375    0.000    5.750 
#    0.000    0.625    0.000    5.250    0.000    1.750 
#    0.000    0.000    0.000    0.000    0.000    0.000 
#
# Total GULP energy -396747.785838 kJ/mol
# GULP energy per Si atom -12398.368307 kJ/mol
# Density = 1.915374 g / cm^3
# Si number density = 19.197432 Si / 1000 Ang^3
#
#
#
# Elastic Constant Matrix: (Units=GPa)
#
#
# Indices 1 2 3 4 5 6 
#
# 1 152.1735 26.7354 82.7317 0.0000 -6.5149 0.0000
# 2 26.7354 22.1049 27.2874 0.0000 1.8674 0.0001
# 3 82.7317 27.2874 172.4322 0.0000 -7.1208 0.0000
# 4 0.0000 0.0000 0.0000 11.7289 0.0000 -3.1782
# 5 -6.5149 1.8674 -7.1208 0.0000 41.6069 0.0000
# 6 0.0000 0.0001 0.0000 -3.1782 0.0000 26.3051
#
#
#
# Elastic Compliance Matrix: (Units=1/GPa)
#
#
# Indices 1 2 3 4 5 6 
#
# 1 0.009872 -0.007792 -0.003449 0.000000 0.001305 0.000000
# 2 -0.007792 0.063066 -0.006455 0.000000 -0.005155 0.000000
# 3 -0.003449 -0.006455 0.008526 0.000000 0.001209 0.000000
# 4 0.000000 0.000000 0.000000 0.088145 0.000000 0.010650
# 5 0.001305 -0.005155 0.001209 0.000000 0.024677 0.000000
# 6 0.000000 0.000000 0.000000 0.010650 0.000000 0.039302
#
#
# Mechanical properties :
#
#
# Convention : Reuss Voigt Hill
#
# Bulk Modulus (GPa) = 21.70510 68.91328 45.30919
# Shear Modulus (GPa) = 17.58475 29.92523 23.75499
#
# Velocity S-wave (km/s) = 3.02982 3.95247 3.52149
# Velocity P-wave (km/s) = 4.85495 7.53687 6.33936
#
# Compressibility (1/GPa) = 0.04607213
#
# Stress axis : x y z
#
# Youngs Moduli (GPa) = 101.30125 15.85631 117.29160
#
# Poissons Ratio (x) = 0.12355 0.40458
# Poissons Ratio (y) = 0.78930 0.75709
# Poissons Ratio (z) = 0.34943 0.10235
#
# Static dielectric constant tensor:
#      x y z
#    x 3.682520 0.000000 -0.033080 
#    y 0.000000 2.939720 0.000000 
#    z -0.033080 0.000000 3.959420 
# 
# 
# High freq. dielectric constant tensor:
#      x y z
#    x 1.756960 0.000000 -0.000850 
#    y 0.000000 1.686150 0.000000 
#    z -0.000850 0.000000 1.769720 
# 
# From -- ./inp_files/378361.got.cif
#   From: 2010.06.25/outbox.cif.g09.slc.cpg/sg12_190_cif.got.tgz:378361.got - 2010.06.28 00:19:55.
