data_PCOD8085113
_publ_section_title
;
Structure prediction by ZEFSAII (Michael W. Deem and Ramdas Pophale) SiO2 
 PCOD8085113
Probable space group: C 2/M
;
_chemical_formula_sum "Si O2"
_cell_formula_units_Z 56
_cell_length_a 24.512930
_cell_length_b 9.906813
_cell_length_c 22.200932
_cell_angle_alpha 90.000000
_cell_angle_beta 135.877328
_cell_angle_gamma 90.000000
_cell_volume 3753.465994
_symmetry_space_group_name_H-M "C 2/M"
_symmetry_group_IT_number 12
_symmetry_cell_setting 'monoclinic'
loop_
_space_group_symop_operation_xyz
x,y,z
-x,y,-z
-x,-y,-z
x,-y,z
1/2+x,1/2+y,z
1/2-x,1/2+y,-z
1/2-x,1/2-y,-z
1/2+x,1/2-y,z
loop_
_atom_site_type_symbol
_atom_site_label
_atom_site_fract_x
_atom_site_fract_y
_atom_site_fract_z
Si Si1 0.226127 0.841866 0.536347
Si Si2 0.576476 0.340208 0.486895
Si Si3 0.594179 0.339986 0.634709
Si Si4 0.759943 0.655451 0.801713
Si Si5 0.839432 0.347355 0.736735
Si Si6 0.881866 0.151549 0.942972
Si Si7 0.960639 0.848685 0.875682
O O1 0.250000 0.750000 0.500000
O O2 0.139611 0.791053 0.487983
O O3 0.285613 0.812693 0.637561
O O4 0.226505 0.000000 0.518691
O O5 0.582881 0.500000 0.496860
O O6 0.595769 0.279373 0.568221
O O7 0.487597 0.297072 0.397636
O O8 0.599590 0.500000 0.633499
O O9 0.669877 0.291267 0.732553
O O10 0.767723 0.500000 0.827927
O O11 0.788860 0.676199 0.756500
O O12 0.809605 0.744271 0.888428
O O13 0.870313 0.500000 0.758401
O O14 0.916349 0.252712 0.795609
O O15 0.920892 0.158725 0.908923
O O16 0.851029 0.000000 0.931059
O O17 0.947668 0.191774 0.044676
O O18 0.953782 0.000000 0.843994
#
# Coordination Sequence:
#
# PCOD8085113 Si02
#       7
#     8   8   8   8   8   8   8
#     4  10  19  30  42  58  80 106 136 169 200 233
#     4   8  13  23  39  57  77 101 131 165 200 231
#     4   8  12  20  38  60  78  99 129 165 198 231
#     4   9  14  21  36  58  79  98 126 161 193 228
#     4   9  16  25  37  54  76  99 128 165 199 227
#     4   8  14  23  33  49  75 105 130 152 183 227
#     4   8  14  24  36  49  70 102 135 158 181 225
#
# _framework density 14.919543000000001
#
# number of rings (size 3 to 8) (size 9 to 14) (size 15 to 20)
#    0.000    3.429    1.429    1.714    0.000    1.143 
#    0.000    2.857    0.000    0.857    0.000    2.000 
#    0.000    1.143    0.000    2.571    0.000    4.000 
#
# Total GULP energy -346907.974515 kJ/mol
# GULP energy per Si atom -12389.570518 kJ/mol
# Density = 1.488559 g / cm^3
# Si number density = 14.919543 Si / 1000 Ang^3
#
#
#
# Elastic Constant Matrix: (Units=GPa)
#
#
# Indices 1 2 3 4 5 6 
#
# 1 74.7187 35.7248 48.0293 0.0000 21.5684 0.0000
# 2 35.7248 62.9341 56.1948 0.0000 19.5259 0.0000
# 3 48.0293 56.1948 93.4453 0.0000 36.2351 0.0000
# 4 0.0000 0.0000 0.0000 21.5851 0.0000 -1.3821
# 5 21.5684 19.5259 36.2351 0.0000 27.2153 0.0000
# 6 0.0000 0.0000 0.0000 -1.3821 0.0000 10.6601
#
#
#
# Elastic Compliance Matrix: (Units=1/GPa)
#
#
# Indices 1 2 3 4 5 6 
#
# 1 0.021054 -0.005381 -0.005401 0.000000 -0.005634 0.000000
# 2 -0.005381 0.036157 -0.021856 0.000000 0.007423 0.000000
# 3 -0.005401 -0.021856 0.039032 0.000000 -0.032008 0.000000
# 4 0.000000 0.000000 0.000000 0.046716 0.000000 0.006057
# 5 -0.005634 0.007423 -0.032008 0.000000 0.078499 0.000000
# 6 0.000000 0.000000 0.000000 0.006057 0.000000 0.094593
#
#
# Mechanical properties :
#
#
# Convention : Reuss Voigt Hill
#
# Bulk Modulus (GPa) = 32.29184 56.77732 44.53458
# Shear Modulus (GPa) = 12.76649 17.96872 15.36760
#
# Velocity S-wave (km/s) = 2.92839 3.47417 3.21289
# Velocity P-wave (km/s) = 5.75543 7.36420 6.60895
#
# Compressibility (1/GPa) = 0.03096758
#
# Stress axis : x y z
#
# Youngs Moduli (GPa) = 47.49600 27.65732 25.61975
#
# Poissons Ratio (x) = 0.14883 0.13837
# Poissons Ratio (y) = 0.25558 0.55995
# Poissons Ratio (z) = 0.25651 0.60448
#
# Static dielectric constant tensor:
#      x y z
#    x 2.744840 0.000000 0.439840 
#    y 0.000000 2.764510 0.000000 
#    z 0.439840 0.000000 3.040070 
# 
# 
# High freq. dielectric constant tensor:
#      x y z
#    x 1.527980 0.000000 0.036330 
#    y 0.000000 1.546070 0.000000 
#    z 0.036330 0.000000 1.566110 
# 
# From -- ./inp_files/323815.got.cif
#   From: 2010.06.25/outbox.cif.g09.slc.cpg/sg12_162_cif.got.tgz:323815.got - 2010.06.28 00:19:55.
