data_PCOD8085698
_publ_section_title
;
Structure prediction by ZEFSAII (Michael W. Deem and Ramdas Pophale) SiO2 
 PCOD8085698
Probable space group: C 2/M
;
_chemical_formula_sum "Si O2"
_cell_formula_units_Z 64
_cell_length_a 20.329498
_cell_length_b 9.241691
_cell_length_c 23.228956
_cell_angle_alpha 90.000000
_cell_angle_beta 122.861510
_cell_angle_gamma 90.000000
_cell_volume 3665.887192
_symmetry_space_group_name_H-M "C 2/M"
_symmetry_group_IT_number 12
_symmetry_cell_setting 'monoclinic'
loop_
_space_group_symop_operation_xyz
x,y,z
-x,y,-z
-x,-y,-z
x,-y,z
1/2+x,1/2+y,z
1/2-x,1/2+y,-z
1/2-x,1/2-y,-z
1/2+x,1/2-y,z
loop_
_atom_site_type_symbol
_atom_site_label
_atom_site_fract_x
_atom_site_fract_y
_atom_site_fract_z
Si Si1 0.669383 0.832033 0.960153
Si Si2 0.270733 0.165910 0.828132
Si Si3 0.084508 0.329886 0.031409
Si Si4 0.367180 0.668395 0.564847
Si Si5 0.368685 0.167679 0.184712
Si Si6 0.957967 0.830615 0.319800
Si Si7 0.689546 0.665515 0.673852
Si Si8 0.722803 0.830714 0.574130
O O1 0.620651 0.807471 0.878320
O O2 0.688663 0.000000 0.978403
O O3 0.750000 0.750000 0.000000
O O4 0.618802 0.767479 0.988406
O O5 0.359646 0.205633 0.887484
O O6 0.215270 0.269668 0.838031
O O7 0.257170 0.187791 0.753736
O O8 0.250873 0.000000 0.835667
O O9 0.073870 0.500000 0.019368
O O10 0.000000 0.255644 0.000000
O O11 0.363461 0.500000 0.546580
O O12 0.455297 0.717261 0.620770
O O13 0.341402 0.758894 0.497409
O O14 0.310268 0.701986 0.591923
O O15 0.438183 0.247986 0.251464
O O16 0.371222 0.000000 0.202689
O O17 0.895085 0.790371 0.339705
O O18 0.953421 0.000000 0.304250
O O19 0.686978 0.500000 0.651009
O O20 0.712924 0.768121 0.632892
O O21 0.705774 0.000000 0.568134
#
# Coordination Sequence:
#
# PCOD8085698 Si02
#       8
#     8   8   8   8   8   8   8   8
#     4  10  19  31  51  76  99 130 170 211 254 299
#     4   9  17  32  53  73  96 137 177 204 245 301
#     4   9  17  31  51  73  99 131 171 215 251 291
#     4   9  19  37  57  75 100 135 173 207 241 292
#     4  10  19  30  48  78 106 128 161 211 264 300
#     4   9  19  36  56  75  99 135 174 207 243 293
#     4   9  18  32  51  76 100 130 173 210 244 293
#     4  10  20  34  54  78 104 135 166 201 253 302
#
# _framework density 17.458257
#
# number of rings (size 3 to 8) (size 9 to 14) (size 15 to 20)
#    0.000    2.625    1.250    1.500    0.000    4.000 
#    2.250    2.500    0.000    1.500    0.000    0.000 
#    0.000    0.000    0.000    0.000    0.000    0.000 
#
# Total GULP energy -396745.495010 kJ/mol
# GULP energy per Si atom -12398.296719 kJ/mol
# Density = 1.741852 g / cm^3
# Si number density = 17.458257 Si / 1000 Ang^3
#
#
#
# Elastic Constant Matrix: (Units=GPa)
#
#
# Indices 1 2 3 4 5 6 
#
# 1 120.6351 39.3822 87.7624 0.0000 9.4488 0.0000
# 2 39.3822 58.5230 55.6525 0.0000 -2.2964 0.0000
# 3 87.7624 55.6525 142.1365 0.0000 4.7525 0.0000
# 4 0.0000 0.0000 0.0000 28.0903 0.0000 -2.6790
# 5 9.4488 -2.2964 4.7525 0.0000 31.6360 0.0000
# 6 0.0000 0.0000 0.0000 -2.6790 0.0000 22.6747
#
#
#
# Elastic Compliance Matrix: (Units=1/GPa)
#
#
# Indices 1 2 3 4 5 6 
#
# 1 0.015590 -0.002533 -0.008515 0.000000 -0.003561 0.000000
# 2 -0.002533 0.028048 -0.009559 0.000000 0.004229 0.000000
# 3 -0.008515 -0.009559 0.016055 0.000000 -0.000562 0.000000
# 4 0.000000 0.000000 0.000000 0.036005 0.000000 0.004254
# 5 -0.003561 0.004229 -0.000562 0.000000 0.033065 0.000000
# 6 0.000000 0.000000 0.000000 0.004254 0.000000 0.044605
#
#
# Mechanical properties :
#
#
# Convention : Reuss Voigt Hill
#
# Bulk Modulus (GPa) = 54.11908 76.32097 65.22003
# Shear Modulus (GPa) = 22.65075 25.71337 24.18206
#
# Velocity S-wave (km/s) = 3.60588 3.84193 3.72578
# Velocity P-wave (km/s) = 6.95722 7.96817 7.47980
#
# Compressibility (1/GPa) = 0.01847777
#
# Stress axis : x y z
#
# Youngs Moduli (GPa) = 64.14234 35.65256 62.28623
#
# Poissons Ratio (x) = 0.09032 0.53038
# Poissons Ratio (y) = 0.16250 0.59541
# Poissons Ratio (z) = 0.54619 0.34081
#
# Static dielectric constant tensor:
#      x y z
#    x 3.436830 0.000000 0.006030 
#    y 0.000000 3.146940 0.000000 
#    z 0.006030 0.000000 3.402220 
# 
# 
# High freq. dielectric constant tensor:
#      x y z
#    x 1.662740 0.000000 0.001390 
#    y 0.000000 1.663120 0.000000 
#    z 0.001390 0.000000 1.683180 
# 
# From -- ./inp_files/320160.got.cif
#   From: 2010.06.25/outbox.cif.g09.slc.cpg/sg12_161_cif.got.tgz:320160.got - 2010.06.28 00:19:55.
