data_PCOD8085105
_publ_section_title
;
Structure prediction by ZEFSAII (Michael W. Deem and Ramdas Pophale) SiO2 
 PCOD8085105
Probable space group: C 2/M
;
_chemical_formula_sum "Si O2"
_cell_formula_units_Z 64
_cell_length_a 10.858859
_cell_length_b 17.467524
_cell_length_c 19.353023
_cell_angle_alpha 90.000000
_cell_angle_beta 87.521237
_cell_angle_gamma 90.000000
_cell_volume 3667.395981
_symmetry_space_group_name_H-M "C 2/M"
_symmetry_group_IT_number 12
_symmetry_cell_setting 'monoclinic'
loop_
_space_group_symop_operation_xyz
x,y,z
-x,y,-z
-x,-y,-z
x,-y,z
1/2+x,1/2+y,z
1/2-x,1/2+y,-z
1/2-x,1/2-y,-z
1/2+x,1/2-y,z
loop_
_atom_site_type_symbol
_atom_site_label
_atom_site_fract_x
_atom_site_fract_y
_atom_site_fract_z
Si Si1 0.998201 0.807359 0.079898
Si Si2 0.152786 0.590484 0.631762
Si Si3 0.677629 0.314650 0.276739
Si Si4 0.235930 0.732155 0.138516
Si Si5 0.782313 0.583603 0.784210
Si Si6 0.644858 0.084280 0.481704
Si Si7 0.502960 0.416049 0.798688
Si Si8 0.891573 0.338329 0.651355
O O1 0.870866 0.761012 0.099478
O O2 0.000527 0.886068 0.122506
O O3 0.123764 0.761239 0.093882
O O4 0.000000 0.829025 0.000000
O O5 0.122674 0.500000 0.643722
O O6 0.245168 0.619555 0.687823
O O7 0.211016 0.603334 0.553421
O O8 0.035274 0.645336 0.639654
O O9 0.751138 0.277935 0.210428
O O10 0.557595 0.355640 0.250777
O O11 0.634878 0.250028 0.331510
O O12 0.198083 0.644351 0.154842
O O13 0.830547 0.500000 0.807919
O O14 0.640133 0.578374 0.767603
O O15 0.851206 0.606385 0.713359
O O16 0.500000 0.084561 0.500000
O O17 0.678911 0.142768 0.419153
O O18 0.685211 0.000000 0.455226
O O19 0.439401 0.500000 0.798849
#
# Coordination Sequence:
#
# PCOD8085105 Si02
#       8
#     8   8   8   8   8   8   8   8
#     4  10  19  34  54  76 101 134 167 203 252 306
#     4  10  20  33  52  74 100 136 173 214 262 308
#     4  10  21  31  52  73 106 130 167 210 260 306
#     4   9  20  32  51  76 104 132 165 212 254 301
#     4   9  17  30  51  73  96 129 166 207 250 301
#     4   8  15  30  47  69 100 131 169 213 256 304
#     4   9  19  35  51  73 102 130 163 205 250 298
#     4  10  19  29  51  75  98 129 172 214 255 302
#
# _framework density 17.451073999999998
#
# number of rings (size 3 to 8) (size 9 to 14) (size 15 to 20)
#    0.000    2.625    0.000    2.625    8.750    0.750 
#    0.000    0.000    0.000    0.375    0.000    3.500 
#    0.000    0.000    0.000    0.000    0.000    0.000 
#
# Total GULP energy -396546.698206 kJ/mol
# GULP energy per Si atom -12392.084319 kJ/mol
# Density = 1.741135 g / cm^3
# Si number density = 17.451074 Si / 1000 Ang^3
#
#
#
# Elastic Constant Matrix: (Units=GPa)
#
#
# Indices 1 2 3 4 5 6 
#
# 1 53.7602 19.4794 23.4367 0.0000 0.2323 0.0000
# 2 19.4794 89.9311 34.3970 0.0000 1.6249 0.0000
# 3 23.4367 34.3970 99.5067 0.0000 7.0966 0.0000
# 4 0.0000 0.0000 0.0000 18.8430 0.0000 3.5499
# 5 0.2323 1.6249 7.0966 0.0000 20.5199 0.0000
# 6 0.0000 0.0000 0.0000 3.5499 0.0000 21.9847
#
#
#
# Elastic Compliance Matrix: (Units=1/GPa)
#
#
# Indices 1 2 3 4 5 6 
#
# 1 0.021508 -0.003121 -0.004088 0.000000 0.001417 0.000000
# 2 -0.003121 0.013272 -0.003876 0.000000 0.000325 0.000000
# 3 -0.004088 -0.003876 0.012639 0.000000 -0.004018 0.000000
# 4 0.000000 0.000000 0.000000 0.054735 0.000000 -0.008838
# 5 0.001417 0.000325 -0.004018 0.000000 0.050081 0.000000
# 6 0.000000 0.000000 0.000000 -0.008838 0.000000 0.046913
#
#
# Mechanical properties :
#
#
# Convention : Reuss Voigt Hill
#
# Bulk Modulus (GPa) = 39.60497 44.20271 41.90384
# Shear Modulus (GPa) = 21.76426 23.32851 22.54639
#
# Velocity S-wave (km/s) = 3.53534 3.66019 3.59831
# Velocity P-wave (km/s) = 6.27766 6.57625 6.42869
#
# Compressibility (1/GPa) = 0.02524935
#
# Stress axis : x y z
#
# Youngs Moduli (GPa) = 46.49452 75.34531 79.12135
#
# Poissons Ratio (x) = 0.23513 0.32345
# Poissons Ratio (y) = 0.14510 0.30668
# Poissons Ratio (z) = 0.19007 0.29204
#
# Static dielectric constant tensor:
#      x y z
#    x 3.066400 0.000000 0.015130 
#    y 0.000000 3.419730 0.000000 
#    z 0.015130 0.000000 3.356810 
# 
# 
# High freq. dielectric constant tensor:
#      x y z
#    x 1.653720 0.000000 -0.001210 
#    y 0.000000 1.676320 0.000000 
#    z -0.001210 0.000000 1.673760 
# 
# From -- ./inp_files/263908.got.cif
#   From: 2010.06.25/outbox.cif.g09.slc.cpg/sg12_132_cif.got.tgz:263908.got - 2010.06.28 00:19:55.
