data_PCOD8085793
_publ_section_title
;
Structure prediction by ZEFSAII (Michael W. Deem and Ramdas Pophale) SiO2 
 PCOD8085793
Probable space group: C 2/M
;
_chemical_formula_sum "Si O2"
_cell_formula_units_Z 56
_cell_length_a 20.886181
_cell_length_b 9.205418
_cell_length_c 18.613866
_cell_angle_alpha 90.000000
_cell_angle_beta 52.717297
_cell_angle_gamma 90.000000
_cell_volume 2847.506257
_symmetry_space_group_name_H-M "C 2/M"
_symmetry_group_IT_number 12
_symmetry_cell_setting 'monoclinic'
loop_
_space_group_symop_operation_xyz
x,y,z
-x,y,-z
-x,-y,-z
x,-y,z
1/2+x,1/2+y,z
1/2-x,1/2+y,-z
1/2-x,1/2-y,-z
1/2+x,1/2-y,z
loop_
_atom_site_type_symbol
_atom_site_label
_atom_site_fract_x
_atom_site_fract_y
_atom_site_fract_z
Si Si1 0.963277 0.172066 0.136423
Si Si2 0.101488 0.673223 0.287825
Si Si3 0.419017 0.168962 0.414686
Si Si4 0.887843 0.169764 0.044119
Si Si5 0.274855 0.168984 0.911702
Si Si6 0.680501 0.168327 0.379045
Si Si7 0.153881 0.826703 0.664807
O O1 0.914522 0.237949 0.101553
O O2 0.922924 0.230455 0.236657
O O3 0.954163 0.000000 0.145751
O O4 0.056160 0.223887 0.061493
O O5 0.101583 0.500000 0.294034
O O6 0.144459 0.722590 0.183806
O O7 0.149778 0.737579 0.324303
O O8 0.010031 0.731061 0.347623
O O9 0.390000 0.194236 0.515540
O O10 0.357650 0.254911 0.405014
O O11 0.415616 0.000000 0.395966
O O12 0.795291 0.205591 0.096892
O O13 0.904476 0.000000 0.037620
O O14 0.279709 0.000000 0.927513
O O15 0.250000 0.250000 0.000000
O O16 0.764952 0.232753 0.351507
O O17 0.696451 0.000000 0.354385
O O18 0.157714 0.000000 0.652307
#
# Coordination Sequence:
#
# PCOD8085793 Si02
#       7
#     8   8   8   8   8   8   8
#     4   8  14  25  44  69  92 118 155 198 238 278
#     4   9  18  33  53  75  98 131 174 211 242 287
#     4  10  20  33  51  75 103 134 166 204 251 300
#     4   8  14  26  44  66  91 119 157 199 235 274
#     4  10  20  32  49  72  99 128 159 199 244 290
#     4   9  17  32  54  76  97 128 174 216 244 282
#     4  10  19  30  50  77 103 128 160 208 257 296
#
# _framework density 19.666329999999999
#
# number of rings (size 3 to 8) (size 9 to 14) (size 15 to 20)
#    0.000    2.857    0.000    2.571    2.000    5.143 
#    0.000    0.000    0.000    6.857    0.000    2.000 
#    0.000    0.000    0.000    0.000    0.000    0.000 
#
# Total GULP energy -346908.664947 kJ/mol
# GULP energy per Si atom -12389.595177 kJ/mol
# Density = 1.962157 g / cm^3
# Si number density = 19.666330 Si / 1000 Ang^3
#
#
#
# Elastic Constant Matrix: (Units=GPa)
#
#
# Indices 1 2 3 4 5 6 
#
# 1 85.9332 19.2551 39.4070 0.0000 -0.4180 -0.0001
# 2 19.2551 19.2656 19.7224 0.0000 2.0138 -0.0005
# 3 39.4070 19.7224 108.2660 0.0000 -5.5861 0.0000
# 4 0.0000 0.0000 0.0000 17.9761 0.0000 4.1307
# 5 -0.4180 2.0138 -5.5861 0.0000 35.5612 0.0000
# 6 -0.0001 -0.0005 0.0000 4.1307 0.0000 17.1148
#
#
#
# Elastic Compliance Matrix: (Units=1/GPa)
#
#
# Indices 1 2 3 4 5 6 
#
# 1 0.016059 -0.012439 -0.003562 0.000000 0.000334 0.000000
# 2 -0.012439 0.074517 -0.009348 0.000000 -0.005835 0.000002
# 3 -0.003562 -0.009348 0.012361 0.000000 0.002429 0.000000
# 4 0.000000 0.000000 0.000000 0.058896 0.000000 -0.014215
# 5 0.000334 -0.005835 0.002429 0.000000 0.028836 0.000000
# 6 0.000000 0.000002 0.000000 -0.014215 0.000000 0.061860
#
#
# Mechanical properties :
#
#
# Convention : Reuss Voigt Hill
#
# Bulk Modulus (GPa) = 19.14238 41.13709 30.13973
# Shear Modulus (GPa) = 15.59374 23.13578 19.36476
#
# Velocity S-wave (km/s) = 2.81893 3.43361 3.14134
# Velocity P-wave (km/s) = 4.51108 6.05661 5.34006
#
# Compressibility (1/GPa) = 0.05224011
#
# Stress axis : x y z
#
# Youngs Moduli (GPa) = 62.26949 13.41967 80.89748
#
# Poissons Ratio (x) = 0.16692 0.28817
# Poissons Ratio (y) = 0.77455 0.75624
# Poissons Ratio (z) = 0.22181 0.12545
#
# Static dielectric constant tensor:
#      x y z
#    x 3.384600 0.000000 -0.148080 
#    y 0.000000 2.875910 0.000000 
#    z -0.148080 0.000000 3.862730 
# 
# 
# High freq. dielectric constant tensor:
#      x y z
#    x 1.772540 0.000000 -0.007300 
#    y 0.000000 1.683140 0.000000 
#    z -0.007300 0.000000 1.789070 
# 
# From -- ./inp_files/282808.got.cif
#   From: 2010.06.25/outbox.cif.g09.slc.cpg/sg12_142_cif.got.tgz:282808.got - 2010.06.28 00:19:55.
