data_PCOD8085302
_publ_section_title
;
Structure prediction by ZEFSAII (Michael W. Deem and Ramdas Pophale) SiO2 
 PCOD8085302
Probable space group: C 2/M
;
_chemical_formula_sum "Si O2"
_cell_formula_units_Z 56
_cell_length_a 36.110371
_cell_length_b 9.799423
_cell_length_c 32.577696
_cell_angle_alpha 90.000000
_cell_angle_beta 17.766756
_cell_angle_gamma 90.000000
_cell_volume 3517.677048
_symmetry_space_group_name_H-M "C 2/M"
_symmetry_group_IT_number 12
_symmetry_cell_setting 'monoclinic'
loop_
_space_group_symop_operation_xyz
x,y,z
-x,y,-z
-x,-y,-z
x,-y,z
1/2+x,1/2+y,z
1/2-x,1/2+y,-z
1/2-x,1/2-y,-z
1/2+x,1/2-y,z
loop_
_atom_site_type_symbol
_atom_site_label
_atom_site_fract_x
_atom_site_fract_y
_atom_site_fract_z
Si Si1 0.526708 0.844339 0.538193
Si Si2 0.569971 0.160083 0.967775
Si Si3 0.608679 0.650410 0.613091
Si Si4 0.120401 0.839282 0.508412
Si Si5 0.606983 0.162030 0.774056
Si Si6 0.803303 0.344144 0.716475
Si Si7 0.897391 0.348079 0.311250
O O1 0.534742 0.743037 0.568049
O O2 0.395488 0.823434 0.656635
O O3 0.630865 0.807703 0.395544
O O4 0.542035 0.000000 0.536960
O O5 0.694174 0.241069 0.838212
O O6 0.598772 0.000000 0.941274
O O7 0.500000 0.193372 0.000000
O O8 0.487351 0.213724 0.092467
O O9 0.556560 0.500000 0.677553
O O10 0.574153 0.693557 0.603254
O O11 0.752801 0.647354 0.465258
O O12 0.549814 0.753600 0.708175
O O13 0.258310 0.784661 0.357211
O O14 0.110851 0.000000 0.508955
O O15 0.564110 0.212047 0.774048
O O16 0.615125 0.000000 0.764035
O O17 0.756083 0.500000 0.765421
O O18 0.950408 0.500000 0.261935
#
# Coordination Sequence:
#
# PCOD8085302 Si02
#       7
#     8   8   8   8   8   8   8
#     4   9  18  32  47  62  84 113 143 178 215 252
#     4  10  19  30  46  67  89 114 145 178 209 247
#     4   8  14  23  36  58  86 110 135 172 211 245
#     4   9  16  27  44  65  89 115 141 173 214 255
#     4   8  15  27  41  61  90 118 143 174 211 249
#     4   9  19  34  47  61  85 115 144 176 216 253
#     4   8  13  23  38  54  79 116 146 166 199 250
#
# _framework density 15.919597
#
# number of rings (size 3 to 8) (size 9 to 14) (size 15 to 20)
#    0.000    3.286    0.000    3.429    0.000    3.143 
#    0.000    5.000    0.000    0.000    0.000    1.000 
#    0.000    0.000    0.000    0.000    0.000    0.000 
#
# Total GULP energy -347069.262308 kJ/mol
# GULP energy per Si atom -12395.330797 kJ/mol
# Density = 1.588336 g / cm^3
# Si number density = 15.919597 Si / 1000 Ang^3
#
#
#
# Elastic Constant Matrix: (Units=GPa)
#
#
# Indices 1 2 3 4 5 6 
#
# 1 124.1877 65.4889 39.3462 0.0098 17.3156 0.0001
# 2 65.4889 69.4787 33.1891 -0.0121 6.4013 -0.0003
# 3 39.3462 33.1891 60.4116 0.0598 8.3891 -0.0057
# 4 0.0098 -0.0121 0.0598 22.7692 -0.0033 -0.2467
# 5 17.3156 6.4013 8.3891 -0.0033 19.5302 0.0017
# 6 0.0001 -0.0003 -0.0057 -0.2467 0.0017 31.1880
#
#
#
# Elastic Compliance Matrix: (Units=1/GPa)
#
#
# Indices 1 2 3 4 5 6 
#
# 1 0.018121 -0.015157 -0.002057 -0.000012 -0.010215 0.000000
# 2 -0.015157 0.032258 -0.008772 0.000048 0.006633 -0.000001
# 3 -0.002057 -0.008772 0.023459 -0.000066 -0.005378 0.000004
# 4 -0.000012 0.000048 -0.000066 0.043923 0.000031 0.000347
# 5 -0.010215 0.006633 -0.005378 0.000031 0.060395 -0.000004
# 6 0.000000 -0.000001 0.000004 0.000347 -0.000004 0.032066
#
#
# Mechanical properties :
#
#
# Convention : Reuss Voigt Hill
#
# Bulk Modulus (GPa) = 45.73030 58.90294 52.31662
# Shear Modulus (GPa) = 18.55410 22.43441 20.49426
#
# Velocity S-wave (km/s) = 3.41763 3.75805 3.59187
# Velocity P-wave (km/s) = 6.66046 7.47738 7.08071
#
# Compressibility (1/GPa) = 0.02186734
#
# Stress axis : x y z
#
# Youngs Moduli (GPa) = 55.18454 30.99978 42.62825
#
# Poissons Ratio (x) = 0.46986 0.08768
# Poissons Ratio (y) = 0.83642 0.37392
# Poissons Ratio (z) = 0.11351 0.27192
#
# Static dielectric constant tensor:
#      x y z
#    x 3.147330 -0.000010 0.262800 
#    y -0.000010 3.006490 0.000050 
#    z 0.262800 0.000050 2.770290 
# 
# 
# High freq. dielectric constant tensor:
#      x y z
#    x 1.616640 0.000000 0.017000 
#    y 0.000000 1.601750 0.000000 
#    z 0.017000 0.000000 1.570470 
# 
# From -- ./inp_files/370718.got.cif
#   From: 2010.06.25/outbox.cif.g09.slc.cpg/sg12_186_cif.got.tgz:370718.got - 2010.06.28 00:19:55.
