data_PCOD8085001
_publ_section_title
;
Structure prediction by ZEFSAII (Michael W. Deem and Ramdas Pophale) SiO2 
 PCOD8085001
Probable space group: C 2/M
;
_chemical_formula_sum "Si O2"
_cell_formula_units_Z 48
_cell_length_a 23.664470
_cell_length_b 9.305745
_cell_length_c 17.384653
_cell_angle_alpha 90.000000
_cell_angle_beta 132.829352
_cell_angle_gamma 90.000000
_cell_volume 2807.656828
_symmetry_space_group_name_H-M "C 2/M"
_symmetry_group_IT_number 12
_symmetry_cell_setting 'monoclinic'
loop_
_space_group_symop_operation_xyz
x,y,z
-x,y,-z
-x,-y,-z
x,-y,z
1/2+x,1/2+y,z
1/2-x,1/2+y,-z
1/2-x,1/2-y,-z
1/2+x,1/2-y,z
loop_
_atom_site_type_symbol
_atom_site_label
_atom_site_fract_x
_atom_site_fract_y
_atom_site_fract_z
Si Si1 0.375319 0.330013 0.386289
Si Si2 0.196007 0.168323 0.008423
Si Si3 0.501366 0.670246 0.621636
Si Si4 0.560768 0.671076 0.118147
Si Si5 0.224291 0.168720 0.210259
Si Si6 0.024759 0.829175 0.812794
O O1 0.361292 0.500000 0.371344
O O2 0.423458 0.277867 0.356057
O O3 0.423073 0.282912 0.506323
O O4 0.294298 0.250395 0.315073
O O5 0.221994 0.206486 0.118294
O O6 0.202261 0.000000 0.997407
O O7 0.250000 0.250000 0.000000
O O8 0.109144 0.223480 0.915852
O O9 0.504516 0.500000 0.627494
O O10 0.503099 0.736216 0.709185
O O11 0.558895 0.500000 0.111517
O O12 0.646249 0.726369 0.177981
O O13 0.536709 0.725739 0.180878
O O14 0.500000 0.733271 0.000000
O O15 0.234698 0.000000 0.233368
O O16 0.023221 0.000000 0.808085
#
# Coordination Sequence:
#
# PCOD8085001 Si02
#       6
#     8   8   8   8   8   8
#     4   9  17  31  49  68  93 123 155 189 227 272
#     4  10  19  29  45  70  96 118 145 186 233 278
#     4   8  15  28  47  68  88 118 160 195 221 263
#     4   9  15  27  45  65  91 123 155 188 225 267
#     4  10  19  30  46  71  97 119 150 190 232 274
#     4   9  15  26  46  68  88 116 157 195 224 260
#
# _framework density 17.096105000000001
#
# number of rings (size 3 to 8) (size 9 to 14) (size 15 to 20)
#    0.000    2.833    1.667    2.000    0.000    2.000 
#    0.000    2.500    0.000    2.500    0.000    0.000 
#    0.000    0.000    0.000    0.000    0.000    0.000 
#
# Total GULP energy -297516.917964 kJ/mol
# GULP energy per Si atom -12396.538248 kJ/mol
# Density = 1.705719 g / cm^3
# Si number density = 17.096105 Si / 1000 Ang^3
#
#
#
# Elastic Constant Matrix: (Units=GPa)
#
#
# Indices 1 2 3 4 5 6 
#
# 1 127.3730 23.7897 63.8430 0.0000 14.0935 0.0000
# 2 23.7897 18.1037 25.1874 0.0000 6.3965 0.0000
# 3 63.8430 25.1874 128.2259 0.0000 14.1860 0.0000
# 4 0.0000 0.0000 0.0000 23.9747 0.0000 6.2058
# 5 14.0935 6.3965 14.1860 0.0000 33.0430 0.0000
# 6 0.0000 0.0000 0.0000 6.2058 0.0000 18.0007
#
#
#
# Elastic Compliance Matrix: (Units=1/GPa)
#
#
# Indices 1 2 3 4 5 6 
#
# 1 0.011702 -0.009590 -0.003775 0.000000 -0.001514 0.000000
# 2 -0.009590 0.086339 -0.011326 0.000000 -0.007761 0.000000
# 3 -0.003775 -0.011326 0.012055 0.000000 -0.001373 0.000000
# 4 0.000000 0.000000 0.000000 0.045798 0.000000 -0.015789
# 5 -0.001514 -0.007761 -0.001373 0.000000 0.033001 0.000000
# 6 0.000000 0.000000 0.000000 -0.015789 0.000000 0.060997
#
#
# Mechanical properties :
#
#
# Convention : Reuss Voigt Hill
#
# Bulk Modulus (GPa) = 16.47081 55.48252 35.97667
# Shear Modulus (GPa) = 15.64891 25.72920 20.68905
#
# Velocity S-wave (km/s) = 3.02876 3.88361 3.48251
# Velocity P-wave (km/s) = 4.67828 7.25491 6.10410
#
# Compressibility (1/GPa) = 0.06071348
#
# Stress axis : x y z
#
# Youngs Moduli (GPa) = 85.45741 11.58224 82.95345
#
# Poissons Ratio (x) = 0.11107 0.31315
# Poissons Ratio (y) = 0.81954 0.93955
# Poissons Ratio (z) = 0.32260 0.13118
#
# Static dielectric constant tensor:
#      x y z
#    x 3.458410 0.000000 -0.152590 
#    y 0.000000 2.641250 0.000000 
#    z -0.152590 0.000000 3.374270 
# 
# 
# High freq. dielectric constant tensor:
#      x y z
#    x 1.666250 0.000000 -0.001000 
#    y 0.000000 1.601280 0.000000 
#    z -0.001000 0.000000 1.666520 
# 
# From -- ./inp_files/231481.got.cif
#   From: 2010.06.25/outbox.cif.g09.slc.cpg/sg12_116_cif.got.tgz:231481.got - 2010.06.28 00:19:55.
