data_PCOD8085183
_publ_section_title
;
Structure prediction by ZEFSAII (Michael W. Deem and Ramdas Pophale) SiO2 
 PCOD8085183
Probable space group: C 2/M
;
_chemical_formula_sum "Si O2"
_cell_formula_units_Z 56
_cell_length_a 27.027802
_cell_length_b 9.059590
_cell_length_c 13.612271
_cell_angle_alpha 90.000000
_cell_angle_beta 115.824589
_cell_angle_gamma 90.000000
_cell_volume 3000.240123
_symmetry_space_group_name_H-M "C 2/M"
_symmetry_group_IT_number 12
_symmetry_cell_setting 'monoclinic'
loop_
_space_group_symop_operation_xyz
x,y,z
-x,y,-z
-x,-y,-z
x,-y,z
1/2+x,1/2+y,z
1/2-x,1/2+y,-z
1/2-x,1/2-y,-z
1/2+x,1/2-y,z
loop_
_atom_site_type_symbol
_atom_site_label
_atom_site_fract_x
_atom_site_fract_y
_atom_site_fract_z
Si Si1 0.372486 0.174108 0.941782
Si Si2 0.781567 0.827753 0.753962
Si Si3 0.163062 0.327076 0.596908
Si Si4 0.949843 0.325281 0.178499
Si Si5 0.666388 0.831497 0.382022
Si Si6 0.941957 0.666796 0.822901
Si Si7 0.946035 0.323720 0.395666
O O1 0.313663 0.250330 0.871773
O O2 0.416272 0.238074 0.899656
O O3 0.364269 0.000000 0.918149
O O4 0.394327 0.211974 0.069618
O O5 0.716482 0.795774 0.710618
O O6 0.799511 0.767241 0.663701
O O7 0.794531 0.000000 0.768340
O O8 0.153009 0.500000 0.574497
O O9 0.173321 0.262460 0.496635
O O10 0.108675 0.258354 0.599796
O O11 0.958337 0.500000 0.193394
O O12 0.946218 0.259516 0.284883
O O13 0.002207 0.254465 0.166397
O O14 0.601716 0.825422 0.302704
O O15 0.687990 0.000000 0.393272
O O16 0.957443 0.500000 0.864014
O O17 0.944393 0.500000 0.392527
O O18 0.000000 0.267282 0.500000
#
# Coordination Sequence:
#
# PCOD8085183 Si02
#       7
#     8   8   8   8   8   8   8
#     4   9  17  29  45  66  93 121 151 186 221 262
#     4  10  19  30  44  64  93 123 151 184 223 265
#     4   9  17  28  42  63  92 123 148 179 227 271
#     4   9  15  24  42  67  92 119 149 183 225 269
#     4   9  16  28  47  69  93 118 146 181 224 274
#     4   8  13  22  40  66  91 113 140 180 227 266
#     4   9  16  26  42  67  96 118 142 182 229 273
#
# _framework density 18.665172999999999
#
# number of rings (size 3 to 8) (size 9 to 14) (size 15 to 20)
#    0.000    3.000    0.000    3.000    0.000    5.143 
#    0.000    1.429    0.000    6.857    0.000    2.000 
#    0.000   10.286    0.000    0.000    0.000    0.000 
#
# Total GULP energy -347019.684128 kJ/mol
# GULP energy per Si atom -12393.560147 kJ/mol
# Density = 1.862269 g / cm^3
# Si number density = 18.665173 Si / 1000 Ang^3
#
#
#
# Elastic Constant Matrix: (Units=GPa)
#
#
# Indices 1 2 3 4 5 6 
#
# 1 103.4300 22.6419 61.9118 0.0000 18.1963 0.0000
# 2 22.6419 30.7060 25.0170 0.0000 6.9940 0.0000
# 3 61.9118 25.0170 150.8406 0.0000 5.6569 0.0000
# 4 0.0000 0.0000 0.0000 18.1252 0.0000 5.3525
# 5 18.1963 6.9940 5.6569 0.0000 24.8510 0.0000
# 6 0.0000 0.0000 0.0000 5.3525 0.0000 12.6042
#
#
#
# Elastic Compliance Matrix: (Units=1/GPa)
#
#
# Indices 1 2 3 4 5 6 
#
# 1 0.015402 -0.005205 -0.005134 0.000000 -0.008644 0.000000
# 2 -0.005205 0.041650 -0.004513 0.000000 -0.006883 0.000000
# 3 -0.005134 -0.004513 0.009377 0.000000 0.002895 0.000000
# 4 0.000000 0.000000 0.000000 0.063083 0.000000 -0.026789
# 5 -0.008644 -0.006883 0.002895 0.000000 0.047847 0.000000
# 6 0.000000 0.000000 0.000000 -0.026789 0.000000 0.090715
#
#
# Mechanical properties :
#
#
# Convention : Reuss Voigt Hill
#
# Bulk Modulus (GPa) = 27.23048 56.01310 41.62179
# Shear Modulus (GPa) = 16.12804 22.80983 19.46894
#
# Velocity S-wave (km/s) = 2.94270 3.49958 3.23315
# Velocity P-wave (km/s) = 5.11533 6.81205 6.02373
#
# Compressibility (1/GPa) = 0.03672355
#
# Stress axis : x y z
#
# Youngs Moduli (GPa) = 64.92775 24.00974 106.64719
#
# Poissons Ratio (x) = 0.12497 0.54754
# Poissons Ratio (y) = 0.33796 0.48131
# Poissons Ratio (z) = 0.33335 0.10836
#
# Static dielectric constant tensor:
#      x y z
#    x 3.506190 0.000000 0.064310 
#    y 0.000000 2.798520 0.000000 
#    z 0.064310 0.000000 3.575220 
# 
# 
# High freq. dielectric constant tensor:
#      x y z
#    x 1.716060 0.000000 0.012770 
#    y 0.000000 1.650180 0.000000 
#    z 0.012770 0.000000 1.736390 
# 
# From -- ./inp_files/244312.got.cif
#   From: 2010.06.25/outbox.cif.g09.slc.cpg/sg12_123_cif.got.tgz:244312.got - 2010.06.28 00:19:55.
