data_PCOD8085015
_publ_section_title
;
Structure prediction by ZEFSAII (Michael W. Deem and Ramdas Pophale) SiO2 
 PCOD8085015
Probable space group: C 2/M
;
_chemical_formula_sum "Si O2"
_cell_formula_units_Z 64
_cell_length_a 24.251815
_cell_length_b 8.777493
_cell_length_c 20.116202
_cell_angle_alpha 90.000000
_cell_angle_beta 56.994378
_cell_angle_gamma 90.000000
_cell_volume 3591.074805
_symmetry_space_group_name_H-M "C 2/M"
_symmetry_group_IT_number 12
_symmetry_cell_setting 'monoclinic'
loop_
_space_group_symop_operation_xyz
x,y,z
-x,y,-z
-x,-y,-z
x,-y,z
1/2+x,1/2+y,z
1/2-x,1/2+y,-z
1/2-x,1/2-y,-z
1/2+x,1/2-y,z
loop_
_atom_site_type_symbol
_atom_site_label
_atom_site_fract_x
_atom_site_fract_y
_atom_site_fract_z
Si Si1 0.543404 0.320292 0.763782
Si Si2 0.373563 0.679706 0.168983
Si Si3 0.355729 0.679009 0.033091
Si Si4 0.206700 0.680638 0.151451
Si Si5 0.906257 0.319899 0.869452
Si Si6 0.271382 0.179058 0.720403
Si Si7 0.717168 0.823604 0.431100
Si Si8 0.348268 0.175982 0.393709
O O1 0.533170 0.500000 0.772017
O O2 0.572221 0.256338 0.815160
O O3 0.474166 0.241454 0.795524
O O4 0.592329 0.278126 0.671749
O O5 0.371896 0.500000 0.178780
O O6 0.388743 0.722248 0.082395
O O7 0.302412 0.747298 0.235873
O O8 0.361591 0.500000 0.015685
O O9 0.279621 0.732198 0.081227
O O10 0.396851 0.767520 0.951100
O O11 0.202188 0.500000 0.151912
O O12 0.152432 0.750036 0.137468
O O13 0.192901 0.741852 0.236245
O O14 0.906865 0.500000 0.865873
O O15 0.308929 0.216784 0.626516
O O16 0.264559 0.000000 0.735981
O O17 0.658982 0.793391 0.522052
O O18 0.779778 0.719306 0.404461
O O19 0.740131 0.000000 0.419374
O O20 0.363574 0.000000 0.368834
#
# Coordination Sequence:
#
# PCOD8085015 Si02
#       8
#     8   8   8   8   8   8   8   8
#     4  11  21  35  52  68  93 135 173 200 231 288
#     4   8  15  28  50  73  92 118 164 206 232 272
#     4   9  17  33  55  75  91 119 162 207 244 287
#     4   8  16  30  52  75  96 122 161 207 244 276
#     4  11  22  34  47  71 101 129 158 201 252 292
#     4   8  12  25  50  76  95 120 161 204 234 271
#     4   9  16  28  50  76 102 130 162 193 232 288
#     4  10  19  29  45  75 108 131 153 195 245 288
#
# _framework density 17.821963
#
# number of rings (size 3 to 8) (size 9 to 14) (size 15 to 20)
#    0.000    2.750    1.250    3.000    0.000    1.000 
#    0.000    4.375    0.000    2.250    0.000    5.250 
#    0.000    0.000    0.000    0.000    0.000    0.000 
#
# Total GULP energy -396563.758694 kJ/mol
# GULP energy per Si atom -12392.617459 kJ/mol
# Density = 1.778140 g / cm^3
# Si number density = 17.821963 Si / 1000 Ang^3
#
#
#
# Elastic Constant Matrix: (Units=GPa)
#
#
# Indices 1 2 3 4 5 6 
#
# 1 55.2543 15.4415 40.1060 -0.0011 -1.3452 0.0008
# 2 15.4415 35.4601 21.9590 -0.0017 0.5955 0.0021
# 3 40.1060 21.9590 110.9078 -0.0015 10.9313 0.0011
# 4 -0.0011 -0.0017 -0.0015 27.2879 0.0002 -2.2264
# 5 -1.3452 0.5955 10.9313 0.0002 25.6668 -0.0002
# 6 0.0008 0.0021 0.0011 -2.2264 -0.0002 17.9213
#
#
#
# Elastic Compliance Matrix: (Units=1/GPa)
#
#
# Indices 1 2 3 4 5 6 
#
# 1 0.026347 -0.006085 -0.008844 0.000000 0.005289 0.000000
# 2 -0.006085 0.033651 -0.004545 0.000001 0.000836 -0.000003
# 3 -0.008844 -0.004545 0.013726 0.000000 -0.006204 0.000000
# 4 0.000000 0.000001 0.000000 0.037022 0.000000 0.004599
# 5 0.005289 0.000836 -0.006204 0.000000 0.041861 0.000000
# 6 0.000000 -0.000003 0.000000 0.004599 0.000000 0.056371
#
#
# Mechanical properties :
#
#
# Convention : Reuss Voigt Hill
#
# Bulk Modulus (GPa) = 28.75524 39.62613 34.19068
# Shear Modulus (GPa) = 19.26668 22.44958 20.85813
#
# Velocity S-wave (km/s) = 3.29152 3.55302 3.42477
# Velocity P-wave (km/s) = 5.53310 6.25417 5.90465
#
# Compressibility (1/GPa) = 0.03477627
#
# Stress axis : x y z
#
# Youngs Moduli (GPa) = 37.95541 29.71703 72.85550
#
# Poissons Ratio (x) = 0.18083 0.64432
# Poissons Ratio (y) = 0.23096 0.33109
# Poissons Ratio (z) = 0.33567 0.13505
#
# Static dielectric constant tensor:
#      x y z
#    x 3.502050 0.000000 0.293390 
#    y 0.000000 2.966390 0.000000 
#    z 0.293390 0.000000 3.421440 
# 
# 
# High freq. dielectric constant tensor:
#      x y z
#    x 1.669900 0.000000 0.021480 
#    y 0.000000 1.657200 0.000000 
#    z 0.021480 0.000000 1.692910 
# 
# From -- ./inp_files/324179.got.cif
#   From: 2010.06.25/outbox.cif.g09.slc.cpg/sg12_163_cif.got.tgz:324179.got - 2010.06.28 00:19:55.
