data_PCOD8085679
_publ_section_title
;
Structure prediction by ZEFSAII (Michael W. Deem and Ramdas Pophale) SiO2 
 PCOD8085679
Probable space group: C 2/M
;
_chemical_formula_sum "Si O2"
_cell_formula_units_Z 64
_cell_length_a 19.655997
_cell_length_b 8.824293
_cell_length_c 25.474579
_cell_angle_alpha 90.000000
_cell_angle_beta 126.447429
_cell_angle_gamma 90.000000
_cell_volume 3554.310079
_symmetry_space_group_name_H-M "C 2/M"
_symmetry_group_IT_number 12
_symmetry_cell_setting 'monoclinic'
loop_
_space_group_symop_operation_xyz
x,y,z
-x,y,-z
-x,-y,-z
x,-y,z
1/2+x,1/2+y,z
1/2-x,1/2+y,-z
1/2-x,1/2-y,-z
1/2+x,1/2-y,z
loop_
_atom_site_type_symbol
_atom_site_label
_atom_site_fract_x
_atom_site_fract_y
_atom_site_fract_z
Si Si1 0.289008 0.169850 0.940385
Si Si2 0.190367 0.321627 0.807823
Si Si3 0.026240 0.322808 0.798785
Si Si4 0.703834 0.822248 0.697493
Si Si5 0.240664 0.820496 0.552365
Si Si6 0.596514 0.178550 0.551572
Si Si7 0.851169 0.179040 0.690057
Si Si8 0.120282 0.829778 0.931037
O O1 0.267409 0.247842 0.875251
O O2 0.207084 0.169836 0.939211
O O3 0.320731 0.000000 0.944254
O O4 0.364027 0.260359 0.004044
O O5 0.205682 0.500000 0.815876
O O6 0.100323 0.281070 0.792024
O O7 0.192185 0.250469 0.749951
O O8 0.005183 0.500000 0.789227
O O9 0.052042 0.272391 0.869210
O O10 0.946094 0.227902 0.744082
O O11 0.626630 0.774248 0.623912
O O12 0.792534 0.770974 0.712352
O O13 0.702423 0.000000 0.704754
O O14 0.250000 0.750000 0.500000
O O15 0.150701 0.769017 0.534016
O O16 0.318206 0.761462 0.622971
O O17 0.244676 0.000000 0.550838
O O18 0.500000 0.226963 0.500000
O O19 0.610632 0.000000 0.548658
O O20 0.845496 0.000000 0.678309
O O21 0.084778 0.000000 0.920769
#
# Coordination Sequence:
#
# PCOD8085679 Si02
#       8
#     8   8   8   8   8   8   8   8
#     4   9  16  26  42  67  97 126 160 205 254 297
#     4   9  17  30  48  71  99 131 168 205 244 296
#     4  10  19  30  48  76 105 131 164 208 252 295
#     4   8  16  32  52  72  96 131 170 202 237 291
#     4  11  22  37  56  78 105 136 173 215 259 307
#     4   9  18  34  56  80 106 137 172 210 255 307
#     4  10  20  36  55  74 100 135 172 207 249 302
#     4   9  16  27  44  66  95 131 166 201 246 299
#
# _framework density 18.006308000000001
#
# number of rings (size 3 to 8) (size 9 to 14) (size 15 to 20)
#    0.000    2.625    0.000    3.375    0.000    4.750 
#    0.000    5.625    0.000    0.750    0.000    5.250 
#    0.000    0.000    0.000    0.000    0.000    0.000 
#
# Total GULP energy -396766.592050 kJ/mol
# GULP energy per Si atom -12398.956002 kJ/mol
# Density = 1.796532 g / cm^3
# Si number density = 18.006308 Si / 1000 Ang^3
#
#
#
# Elastic Constant Matrix: (Units=GPa)
#
#
# Indices 1 2 3 4 5 6 
#
# 1 63.7720 33.4586 76.3860 0.0000 -7.6877 0.0000
# 2 33.4586 82.7819 53.0758 0.0000 -1.1328 0.0000
# 3 76.3860 53.0758 159.3791 0.0000 -17.5914 0.0000
# 4 0.0000 0.0000 0.0000 32.8654 0.0000 2.7060
# 5 -7.6877 -1.1328 -17.5914 0.0000 24.3431 0.0000
# 6 0.0000 0.0000 0.0000 2.7060 0.0000 21.1305
#
#
#
# Elastic Compliance Matrix: (Units=1/GPa)
#
#
# Indices 1 2 3 4 5 6 
#
# 1 0.038207 -0.004687 -0.016782 0.000000 -0.000279 0.000000
# 2 -0.004687 0.016173 -0.003499 0.000000 -0.003256 0.000000
# 3 -0.016782 -0.003499 0.016169 0.000000 0.006222 0.000000
# 4 0.000000 0.000000 0.000000 0.030751 0.000000 -0.003938
# 5 -0.000279 -0.003256 0.006222 0.000000 0.045336 0.000000
# 6 0.000000 0.000000 0.000000 -0.003938 0.000000 0.047829
#
#
# Mechanical properties :
#
#
# Convention : Reuss Voigt Hill
#
# Bulk Modulus (GPa) = 48.50914 70.19709 59.35311
# Shear Modulus (GPa) = 19.89867 25.20199 22.55033
#
# Velocity S-wave (km/s) = 3.32790 3.74521 3.54271
# Velocity P-wave (km/s) = 6.46260 7.60075 7.05467
#
# Compressibility (1/GPa) = 0.02061467
#
# Stress axis : x y z
#
# Youngs Moduli (GPa) = 26.17304 61.83116 61.84528
#
# Poissons Ratio (x) = 0.28978 1.03787
# Poissons Ratio (y) = 0.12266 0.21640
# Poissons Ratio (z) = 0.43923 0.21635
#
# Static dielectric constant tensor:
#      x y z
#    x 3.093270 0.000000 -0.278000 
#    y 0.000000 3.306700 0.000000 
#    z -0.278000 0.000000 3.618190 
# 
# 
# High freq. dielectric constant tensor:
#      x y z
#    x 1.663030 0.000000 -0.002330 
#    y 0.000000 1.694790 0.000000 
#    z -0.002330 0.000000 1.711800 
# 
# From -- ./inp_files/346207.got.cif
#   From: 2010.06.25/outbox.cif.g09.slc.cpg/sg12_174_cif.got.tgz:346207.got - 2010.06.28 00:19:55.
