data_PCOD8085379
_publ_section_title
;
Structure prediction by ZEFSAII (Michael W. Deem and Ramdas Pophale) SiO2 
 PCOD8085379
Probable space group: C 2/M
;
_chemical_formula_sum "Si O2"
_cell_formula_units_Z 52
_cell_length_a 23.081552
_cell_length_b 9.136960
_cell_length_c 26.970078
_cell_angle_alpha 90.000000
_cell_angle_beta 147.916413
_cell_angle_gamma 90.000000
_cell_volume 3021.140588
_symmetry_space_group_name_H-M "C 2/M"
_symmetry_group_IT_number 12
_symmetry_cell_setting 'monoclinic'
loop_
_space_group_symop_operation_xyz
x,y,z
-x,y,-z
-x,-y,-z
x,-y,z
1/2+x,1/2+y,z
1/2-x,1/2+y,-z
1/2-x,1/2-y,-z
1/2+x,1/2-y,z
loop_
_atom_site_type_symbol
_atom_site_label
_atom_site_fract_x
_atom_site_fract_y
_atom_site_fract_z
Si Si1 0.751231 0.172821 0.313883
Si Si2 0.365410 0.170025 0.308000
Si Si3 0.320364 0.831398 0.010351
Si Si4 0.577741 0.161589 0.508686
Si Si5 0.266102 0.840665 0.860648
Si Si6 0.032404 0.834975 0.133506
Si Si7 0.500000 0.746864 0.000000
O O1 0.812552 0.221045 0.308983
O O2 0.823464 0.223161 0.414024
O O3 0.635716 0.250506 0.229807
O O4 0.735450 0.000000 0.303918
O O5 0.497099 0.195457 0.403533
O O6 0.311124 0.212751 0.216543
O O7 0.338565 0.000000 0.300860
O O8 0.257111 0.820573 0.912715
O O9 0.340429 0.000000 0.040134
O O10 0.250000 0.750000 0.000000
O O11 0.433916 0.749264 0.087314
O O12 0.500000 0.165762 0.500000
O O13 0.629669 0.000000 0.540767
O O14 0.391665 0.840183 0.932827
O O15 0.220026 0.000000 0.811947
O O16 0.026015 0.844684 0.068710
O O17 0.034911 0.000000 0.155272
#
# Coordination Sequence:
#
# PCOD8085379 Si02
#       7
#     8   8   8   8   8   8   4
#     4  11  20  29  45  70 100 133 168 204 245 295
#     4  10  19  30  46  69  99 133 169 203 244 296
#     4  10  22  39  55  74  99 130 170 211 252 295
#     4   8  16  30  44  62  94 133 167 202 240 288
#     4  10  20  32  50  73 102 132 164 206 251 294
#     4  11  21  33  51  74 101 133 168 206 249 297
#     4  10  20  30  48  72 102 132 166 200 246 300
#
# _framework density 17.212042
#
# number of rings (size 3 to 8) (size 9 to 14) (size 15 to 20)
#    0.000    2.000    1.538    4.154    0.000    7.692 
#    0.000    0.000    0.000    0.000    0.000    1.077 
#    0.000    0.000    0.000    0.000    0.000    0.000 
#
# Total GULP energy -322195.842637 kJ/mol
# GULP energy per Si atom -12392.147794 kJ/mol
# Density = 1.717287 g / cm^3
# Si number density = 17.212042 Si / 1000 Ang^3
#
#
#
# Elastic Constant Matrix: (Units=GPa)
#
#
# Indices 1 2 3 4 5 6 
#
# 1 73.3229 37.9122 32.8660 0.0000 6.0021 0.0000
# 2 37.9122 150.2910 73.0156 0.0000 4.4435 -0.0001
# 3 32.8660 73.0156 131.2767 -0.0002 1.4563 -0.0001
# 4 0.0000 0.0000 -0.0002 30.1622 -0.0001 0.6301
# 5 6.0021 4.4435 1.4563 -0.0001 12.6507 0.0000
# 6 0.0000 -0.0001 -0.0001 0.6301 0.0000 18.8656
#
#
#
# Elastic Compliance Matrix: (Units=1/GPa)
#
#
# Indices 1 2 3 4 5 6 
#
# 1 0.016780 -0.002782 -0.002580 0.000000 -0.006687 0.000000
# 2 -0.002782 0.009666 -0.004663 0.000000 -0.001539 0.000000
# 3 -0.002580 -0.004663 0.010839 0.000000 0.001614 0.000000
# 4 0.000000 0.000000 0.000000 0.033177 0.000000 -0.001108
# 5 -0.006687 -0.001539 0.001614 0.000000 0.082575 0.000000
# 6 0.000000 0.000000 0.000000 -0.001108 0.000000 0.053044
#
#
# Mechanical properties :
#
#
# Convention : Reuss Voigt Hill
#
# Bulk Modulus (GPa) = 58.01537 71.38644 64.70090
# Shear Modulus (GPa) = 21.56327 26.40880 23.98604
#
# Velocity S-wave (km/s) = 3.54333 3.92129 3.73709
# Velocity P-wave (km/s) = 7.10772 7.87825 7.50288
#
# Compressibility (1/GPa) = 0.01723681
#
# Stress axis : x y z
#
# Youngs Moduli (GPa) = 59.59308 103.45131 92.26080
#
# Poissons Ratio (x) = 0.28781 0.23799
# Poissons Ratio (y) = 0.16579 0.43020
# Poissons Ratio (z) = 0.15372 0.48237
#
# Static dielectric constant tensor:
#      x y z
#    x 1.432370 0.000000 -1.130600 
#    y 0.000000 3.310690 0.000000 
#    z -1.130600 0.000000 2.937320 
# 
# 
# High freq. dielectric constant tensor:
#      x y z
#    x 1.602300 0.000000 -0.003690 
#    y 0.000000 1.677650 0.000000 
#    z -0.003690 0.000000 1.678450 
# 
# From -- ./inp_files/381904.got.cif
#   From: 2010.06.25/outbox.cif.g09.slc.cpg/sg12_191_cif.got.tgz:381904.got - 2010.06.28 00:19:55.
