data_PCOD8085831
_publ_section_title
;
Structure prediction by ZEFSAII (Michael W. Deem and Ramdas Pophale) SiO2 
 PCOD8085831
Probable space group: C 2/M
;
_chemical_formula_sum "Si O2"
_cell_formula_units_Z 64
_cell_length_a 22.912606
_cell_length_b 9.049981
_cell_length_c 23.088625
_cell_angle_alpha 90.000000
_cell_angle_beta 44.972022
_cell_angle_gamma 90.000000
_cell_volume 3383.709367
_symmetry_space_group_name_H-M "C 2/M"
_symmetry_group_IT_number 12
_symmetry_cell_setting 'monoclinic'
loop_
_space_group_symop_operation_xyz
x,y,z
-x,y,-z
-x,-y,-z
x,-y,z
1/2+x,1/2+y,z
1/2-x,1/2+y,-z
1/2-x,1/2-y,-z
1/2+x,1/2-y,z
loop_
_atom_site_type_symbol
_atom_site_label
_atom_site_fract_x
_atom_site_fract_y
_atom_site_fract_z
Si Si1 0.922747 0.836529 0.697131
Si Si2 0.195408 0.673689 0.588542
Si Si3 0.268607 0.326743 0.661505
Si Si4 0.270146 0.329363 0.074465
Si Si5 0.228853 0.336971 0.814682
Si Si6 0.077710 0.659182 0.408749
Si Si7 0.875234 0.171241 0.890375
Si Si8 0.991515 0.325967 0.263769
O O1 0.825823 0.842417 0.756716
O O2 0.958661 0.769853 0.613363
O O3 0.946257 0.721988 0.729945
O O4 0.959474 0.000000 0.683161
O O5 0.201759 0.500000 0.572451
O O6 0.250000 0.750000 0.500000
O O7 0.223360 0.714926 0.633812
O O8 0.100298 0.728801 0.654637
O O9 0.289694 0.500000 0.649906
O O10 0.214606 0.285046 0.757529
O O11 0.352232 0.234436 0.601608
O O12 0.244356 0.500000 0.097123
O O13 0.305574 0.273672 0.111894
O O14 0.190494 0.239159 0.108826
O O15 0.345031 0.306608 0.977035
O O16 0.189820 0.500000 0.851385
O O17 0.110847 0.500000 0.360633
O O18 0.000000 0.618740 0.500000
O O19 0.966107 0.248056 0.822119
O O20 0.883394 0.000000 0.867310
O O21 0.991145 0.500000 0.253539
#
# Coordination Sequence:
#
# PCOD8085831 Si02
#       8
#     8   8   8   8   8   8   8   8
#     4  10  20  33  51  77 107 143 181 217 269 332
#     4  10  24  43  61  82 107 142 189 237 283 329
#     4   9  20  39  57  76 104 141 184 226 272 332
#     4  10  19  30  50  81 116 149 181 223 272 326
#     4   9  17  31  53  78 108 142 178 219 266 326
#     4  10  21  34  51  77 108 136 170 224 278 329
#     4  10  20  33  50  78 115 151 186 220 268 336
#     4  11  22  36  56  80 110 144 184 235 280 325
#
# _framework density 18.914154
#
# number of rings (size 3 to 8) (size 9 to 14) (size 15 to 20)
#    0.000    2.125    1.250    2.625    1.750    6.000 
#    0.000    0.000    0.000    0.750    0.000    5.250 
#    0.000    0.000    0.000    0.000    0.000    0.000 
#
# Total GULP energy -396472.455214 kJ/mol
# GULP energy per Si atom -12389.764225 kJ/mol
# Density = 1.887110 g / cm^3
# Si number density = 18.914154 Si / 1000 Ang^3
#
#
#
# Elastic Constant Matrix: (Units=GPa)
#
#
# Indices 1 2 3 4 5 6 
#
# 1 61.0571 34.5421 44.6839 0.0017 21.9156 -0.0025
# 2 34.5421 89.8354 58.1081 0.0055 3.7631 -0.0081
# 3 44.6839 58.1081 127.0007 0.0005 11.0895 -0.0010
# 4 0.0017 0.0055 0.0005 31.6669 -0.0013 6.0004
# 5 21.9156 3.7631 11.0895 -0.0013 33.4203 0.0021
# 6 -0.0025 -0.0081 -0.0010 6.0004 0.0021 10.6432
#
#
#
# Elastic Compliance Matrix: (Units=1/GPa)
#
#
# Indices 1 2 3 4 5 6 
#
# 1 0.031389 -0.007363 -0.006127 -0.000002 -0.017721 0.000006
# 2 -0.007363 0.017551 -0.005858 -0.000005 0.004796 0.000013
# 3 -0.006127 -0.005858 0.012669 0.000002 0.000474 -0.000006
# 4 -0.000002 -0.000005 0.000002 0.035356 0.000004 -0.019933
# 5 -0.017721 0.004796 0.000474 0.000004 0.040845 -0.000011
# 6 0.000006 0.000013 -0.000006 -0.019933 -0.000011 0.105194
#
#
# Mechanical properties :
#
#
# Convention : Reuss Voigt Hill
#
# Bulk Modulus (GPa) = 43.64824 61.39571 52.52197
# Shear Modulus (GPa) = 17.28073 24.51668 20.89871
#
# Velocity S-wave (km/s) = 3.02593 3.60420 3.32765
# Velocity P-wave (km/s) = 5.94436 7.06052 6.52635
#
# Compressibility (1/GPa) = 0.02291043
#
# Stress axis : x y z
#
# Youngs Moduli (GPa) = 31.85838 56.97591 78.93320
#
# Poissons Ratio (x) = 0.41954 0.48365
# Poissons Ratio (y) = 0.23459 0.46243
# Poissons Ratio (z) = 0.19521 0.33379
#
# Static dielectric constant tensor:
#      x y z
#    x 3.420040 0.000000 0.352190 
#    y 0.000000 3.739340 0.000000 
#    z 0.352190 0.000000 3.745250 
# 
# 
# High freq. dielectric constant tensor:
#      x y z
#    x 1.699630 0.000000 0.024480 
#    y 0.000000 1.745550 0.000000 
#    z 0.024480 0.000000 1.737330 
# 
# From -- ./inp_files/345932.got.cif
#   From: 2010.06.25/outbox.cif.g09.slc.cpg/sg12_173_cif.got.tgz:345932.got - 2010.06.28 00:19:55.
