data_PCOD8085630
_publ_section_title
;
Structure prediction by ZEFSAII (Michael W. Deem and Ramdas Pophale) SiO2 
 PCOD8085630
Probable space group: C 2/M
;
_chemical_formula_sum "Si O2"
_cell_formula_units_Z 64
_cell_length_a 17.876176
_cell_length_b 9.526878
_cell_length_c 24.251009
_cell_angle_alpha 90.000000
_cell_angle_beta 57.908986
_cell_angle_gamma 90.000000
_cell_volume 3498.997871
_symmetry_space_group_name_H-M "C 2/M"
_symmetry_group_IT_number 12
_symmetry_cell_setting 'monoclinic'
loop_
_space_group_symop_operation_xyz
x,y,z
-x,y,-z
-x,-y,-z
x,-y,z
1/2+x,1/2+y,z
1/2-x,1/2+y,-z
1/2-x,1/2-y,-z
1/2+x,1/2-y,z
loop_
_atom_site_type_symbol
_atom_site_label
_atom_site_fract_x
_atom_site_fract_y
_atom_site_fract_z
Si Si1 0.901900 0.337773 0.181096
Si Si2 0.358893 0.157061 0.569707
Si Si3 0.570099 0.838771 0.190682
Si Si4 0.772174 0.838124 0.688593
Si Si5 0.533626 0.158170 0.573819
Si Si6 0.588121 0.336285 0.933446
Si Si7 0.246678 0.663096 0.056742
Si Si8 0.056766 0.835984 0.305692
O O1 0.889563 0.500000 0.169556
O O2 0.818474 0.284541 0.249102
O O3 0.907765 0.248562 0.124071
O O4 0.989552 0.312795 0.181416
O O5 0.285982 0.257937 0.625265
O O6 0.446228 0.162112 0.571820
O O7 0.383978 0.204157 0.497406
O O8 0.320074 0.000000 0.584034
O O9 0.658721 0.798177 0.124113
O O10 0.560329 0.734792 0.245170
O O11 0.572970 0.000000 0.210371
O O12 0.850219 0.807802 0.701103
O O13 0.766782 0.000000 0.674763
O O14 0.523470 0.266100 0.628359
O O15 0.548501 0.000000 0.590674
O O16 0.589357 0.500000 0.918098
O O17 0.670710 0.293091 0.938393
O O18 0.500000 0.293325 0.000000
O O19 0.249709 0.500000 0.039727
O O20 0.250000 0.750000 0.000000
O O21 0.036558 0.000000 0.307212
#
# Coordination Sequence:
#
# PCOD8085630 Si02
#       8
#     8   8   8   8   8   8   8   8
#     4  10  21  36  53  73  98 132 171 205 243 292
#     4   8  14  25  44  70  97 128 164 199 242 296
#     4  10  21  36  52  71  98 132 169 206 243 289
#     4   9  18  31  47  71 101 128 159 204 252 294
#     4   8  14  26  44  68  99 130 161 200 244 293
#     4  10  21  36  54  78 106 132 161 202 250 294
#     4  10  21  36  55  79 104 132 166 202 244 292
#     4  10  19  30  48  74 100 128 163 203 250 298
#
# _framework density 18.290952000000001
#
# number of rings (size 3 to 8) (size 9 to 14) (size 15 to 20)
#    0.000    2.625    0.000    2.625    0.000    3.250 
#    0.000    2.500    0.000    0.750    0.000    0.000 
#    0.000    0.000    0.000    0.000    0.000    0.000 
#
# Total GULP energy -396793.916414 kJ/mol
# GULP energy per Si atom -12399.809888 kJ/mol
# Density = 1.824932 g / cm^3
# Si number density = 18.290952 Si / 1000 Ang^3
#
#
#
# Elastic Constant Matrix: (Units=GPa)
#
#
# Indices 1 2 3 4 5 6 
#
# 1 71.6235 48.2876 72.8521 0.0000 -7.1510 0.0001
# 2 48.2876 98.8752 99.4184 0.0000 5.8249 0.0001
# 3 72.8521 99.4184 189.1173 0.0000 -4.7830 0.0000
# 4 0.0000 0.0000 0.0000 43.5870 0.0000 6.2701
# 5 -7.1510 5.8249 -4.7830 0.0000 22.9253 0.0000
# 6 0.0001 0.0001 0.0000 6.2701 0.0000 12.5050
#
#
#
# Elastic Compliance Matrix: (Units=1/GPa)
#
#
# Indices 1 2 3 4 5 6 
#
# 1 0.025604 -0.007013 -0.005961 0.000000 0.008525 0.000000
# 2 -0.007013 0.024877 -0.010648 0.000000 -0.010730 0.000000
# 3 -0.005961 -0.010648 0.013273 0.000000 0.003615 0.000000
# 4 0.000000 0.000000 0.000000 0.024726 0.000000 -0.012398
# 5 0.008525 -0.010730 0.003615 0.000000 0.049759 0.000000
# 6 0.000000 0.000000 0.000000 -0.012398 0.000000 0.086185
#
#
# Mechanical properties :
#
#
# Convention : Reuss Voigt Hill
#
# Bulk Modulus (GPa) = 60.56514 88.97023 74.76769
# Shear Modulus (GPa) = 18.03946 25.07399 21.55672
#
# Velocity S-wave (km/s) = 3.14387 3.70650 3.43672
# Velocity P-wave (km/s) = 6.80900 8.18931 7.53085
#
# Compressibility (1/GPa) = 0.01651115
#
# Stress axis : x y z
#
# Youngs Moduli (GPa) = 39.05599 40.19849 75.34142
#
# Poissons Ratio (x) = 0.28189 0.44913
# Poissons Ratio (y) = 0.27388 0.80220
# Poissons Ratio (z) = 0.23282 0.42801
#
# Static dielectric constant tensor:
#      x y z
#    x 3.088220 0.000000 -0.081940 
#    y 0.000000 3.418390 0.000000 
#    z -0.081940 0.000000 3.539850 
# 
# 
# High freq. dielectric constant tensor:
#      x y z
#    x 1.685230 0.000000 -0.005810 
#    y 0.000000 1.707030 0.000000 
#    z -0.005810 0.000000 1.725000 
# 
# From -- ./inp_files/345988.got.cif
#   From: 2010.06.25/outbox.cif.g09.slc.cpg/sg12_173_cif.got.tgz:345988.got - 2010.06.28 00:19:55.
