data_PCOD8085655
_publ_section_title
;
Structure prediction by ZEFSAII (Michael W. Deem and Ramdas Pophale) SiO2 
 PCOD8085655
Probable space group: C 2/M
;
_chemical_formula_sum "Si O2"
_cell_formula_units_Z 48
_cell_length_a 22.509668
_cell_length_b 9.166102
_cell_length_c 19.485590
_cell_angle_alpha 90.000000
_cell_angle_beta 136.451258
_cell_angle_gamma 90.000000
_cell_volume 2769.928349
_symmetry_space_group_name_H-M "C 2/M"
_symmetry_group_IT_number 12
_symmetry_cell_setting 'monoclinic'
loop_
_space_group_symop_operation_xyz
x,y,z
-x,y,-z
-x,-y,-z
x,-y,z
1/2+x,1/2+y,z
1/2-x,1/2+y,-z
1/2-x,1/2-y,-z
1/2+x,1/2-y,z
loop_
_atom_site_type_symbol
_atom_site_label
_atom_site_fract_x
_atom_site_fract_y
_atom_site_fract_z
Si Si1 0.839936 0.169425 0.581900
Si Si2 0.626931 0.832431 0.653670
Si Si3 0.059471 0.332172 0.448266
Si Si4 0.050197 0.660580 0.970950
Si Si5 0.202779 0.327746 0.187313
Si Si6 0.904469 0.830806 0.787890
O O1 0.750000 0.250000 0.500000
O O2 0.907797 0.227684 0.583720
O O3 0.879719 0.198995 0.689305
O O4 0.823762 0.000000 0.555005
O O5 0.609902 0.793962 0.560147
O O6 0.541844 0.803316 0.626977
O O7 0.701132 0.729093 0.745488
O O8 0.655966 0.000000 0.684541
O O9 0.076663 0.500000 0.442648
O O10 0.051055 0.500000 0.936926
O O11 0.002425 0.773195 0.880602
O O12 0.147191 0.710944 0.072248
O O13 0.000000 0.651833 0.000000
O O14 0.202636 0.500000 0.200403
O O15 0.163918 0.252311 0.222185
O O16 0.901573 0.000000 0.804944
#
# Coordination Sequence:
#
# PCOD8085655 Si02
#       6
#     8   8   8   8   8   8
#     4  11  23  35  49  72 100 129 162 197 234 282
#     4   9  18  33  52  73  97 125 159 199 239 282
#     4   9  19  35  52  71  97 128 161 197 238 283
#     4   8  16  30  46  68  97 125 156 196 241 285
#     4  10  19  30  48  75 101 125 158 198 239 285
#     4  10  20  32  47  70  99 129 161 198 238 281
#
# _framework density 17.328968
#
# number of rings (size 3 to 8) (size 9 to 14) (size 15 to 20)
#    0.000    2.500    0.000    4.500    0.000   11.667 
#    0.000    1.667    0.000    1.000    0.000    0.000 
#    0.000    0.000    0.000    0.000    0.000    0.000 
#
# Total GULP energy -297579.144487 kJ/mol
# GULP energy per Si atom -12399.131020 kJ/mol
# Density = 1.728953 g / cm^3
# Si number density = 17.328968 Si / 1000 Ang^3
#
#
#
# Elastic Constant Matrix: (Units=GPa)
#
#
# Indices 1 2 3 4 5 6 
#
# 1 77.1692 54.5834 52.0576 0.0000 6.4547 0.0000
# 2 54.5834 110.4001 78.8761 0.0000 4.4530 0.0000
# 3 52.0576 78.8761 121.5434 0.0000 21.6626 0.0000
# 4 0.0000 0.0000 0.0000 32.8926 0.0000 4.0572
# 5 6.4547 4.4530 21.6626 0.0000 27.0616 0.0000
# 6 0.0000 0.0000 0.0000 4.0572 0.0000 31.0184
#
#
#
# Elastic Compliance Matrix: (Units=1/GPa)
#
#
# Indices 1 2 3 4 5 6 
#
# 1 0.021030 -0.007474 -0.004061 0.000000 -0.000535 0.000000
# 2 -0.007474 0.020760 -0.011641 0.000000 0.007685 0.000000
# 3 -0.004061 -0.011641 0.019838 0.000000 -0.012996 0.000000
# 4 0.000000 0.000000 0.000000 0.030901 0.000000 -0.004042
# 5 -0.000535 0.007685 -0.012996 0.000000 0.046219 0.000000
# 6 0.000000 0.000000 0.000000 -0.004042 0.000000 0.032768
#
#
# Mechanical properties :
#
#
# Convention : Reuss Voigt Hill
#
# Bulk Modulus (GPa) = 65.46792 75.57188 70.51990
# Shear Modulus (GPa) = 22.42567 26.43421 24.42994
#
# Velocity S-wave (km/s) = 3.60128 3.90992 3.75877
# Velocity P-wave (km/s) = 7.42656 8.00550 7.72146
#
# Compressibility (1/GPa) = 0.01527466
#
# Stress axis : x y z
#
# Youngs Moduli (GPa) = 47.55194 48.16905 50.40909
#
# Poissons Ratio (x) = 0.36002 0.20473
# Poissons Ratio (y) = 0.35541 0.58681
# Poissons Ratio (z) = 0.19313 0.56073
#
# Static dielectric constant tensor:
#      x y z
#    x 3.018790 0.000000 0.263530 
#    y 0.000000 3.311550 0.000000 
#    z 0.263530 0.000000 3.583020 
# 
# 
# High freq. dielectric constant tensor:
#      x y z
#    x 1.641660 0.000000 0.018560 
#    y 0.000000 1.677050 0.000000 
#    z 0.018560 0.000000 1.674240 
# 
# From -- ./inp_files/280776.got.cif
#   From: 2010.06.25/outbox.cif.g09.slc.cpg/sg12_141_cif.got.tgz:280776.got - 2010.06.28 00:19:55.
