data_PCOD8085465
_publ_section_title
;
Structure prediction by ZEFSAII (Michael W. Deem and Ramdas Pophale) SiO2 
 PCOD8085465
Probable space group: C 2/M
;
_chemical_formula_sum "Si O2"
_cell_formula_units_Z 56
_cell_length_a 18.410510
_cell_length_b 9.195807
_cell_length_c 19.399062
_cell_angle_alpha 90.000000
_cell_angle_beta 113.907501
_cell_angle_gamma 90.000000
_cell_volume 3002.465641
_symmetry_space_group_name_H-M "C 2/M"
_symmetry_group_IT_number 12
_symmetry_cell_setting 'monoclinic'
loop_
_space_group_symop_operation_xyz
x,y,z
-x,y,-z
-x,-y,-z
x,-y,z
1/2+x,1/2+y,z
1/2-x,1/2+y,-z
1/2-x,1/2-y,-z
1/2+x,1/2-y,z
loop_
_atom_site_type_symbol
_atom_site_label
_atom_site_fract_x
_atom_site_fract_y
_atom_site_fract_z
Si Si1 0.813561 0.329418 0.977464
Si Si2 0.854162 0.168550 0.306568
Si Si3 0.738845 0.164307 0.835849
Si Si4 0.174926 0.833173 0.550259
Si Si5 0.857551 0.331720 0.594744
Si Si6 0.079647 0.338982 0.863607
Si Si7 0.992259 0.169138 0.722773
O O1 0.792418 0.500000 0.963129
O O2 0.810106 0.254563 0.900555
O O3 0.750000 0.250000 0.000000
O O4 0.899763 0.307934 0.047708
O O5 0.783218 0.260990 0.245122
O O6 0.860118 0.209915 0.389063
O O7 0.938831 0.205644 0.305497
O O8 0.832342 0.000000 0.288064
O O9 0.662019 0.168532 0.854355
O O10 0.767884 0.000000 0.833416
O O11 0.130966 0.734766 0.476966
O O12 0.268784 0.804639 0.587065
O O13 0.156098 0.000000 0.524592
O O14 0.880250 0.500000 0.600105
O O15 0.913616 0.252922 0.670794
O O16 0.042400 0.500000 0.841388
O O17 0.018098 0.222772 0.808987
O O18 0.973143 0.000000 0.719580
#
# Coordination Sequence:
#
# PCOD8085465 Si02
#       7
#     8   8   8   8   8   8   8
#     4   9  15  23  37  58  87 123 158 192 230 273
#     4   9  18  32  49  69  94 124 157 193 232 274
#     4   9  16  25  39  62  92 123 154 190 231 276
#     4   9  19  36  54  70  90 120 158 194 229 274
#     4  10  20  34  52  71  93 121 153 192 233 277
#     4   8  15  26  39  59  89 122 155 190 226 267
#     4  10  19  30  47  70  96 124 153 190 233 277
#
# _framework density 18.651337999999999
#
# number of rings (size 3 to 8) (size 9 to 14) (size 15 to 20)
#    0.000    2.857    0.000    2.571    0.000    6.286 
#    0.000    2.857    0.000    0.000    0.000    1.000 
#    0.000    8.000    0.000    0.000    0.000    0.000 
#
# Total GULP energy -347105.485387 kJ/mol
# GULP energy per Si atom -12396.624478 kJ/mol
# Density = 1.860889 g / cm^3
# Si number density = 18.651338 Si / 1000 Ang^3
#
#
#
# Elastic Constant Matrix: (Units=GPa)
#
#
# Indices 1 2 3 4 5 6 
#
# 1 12.7146 13.7896 8.5209 0.0000 6.9872 0.0000
# 2 13.7896 113.6409 53.4791 0.0000 20.6669 0.0000
# 3 8.5209 53.4791 83.3547 0.0000 30.8514 0.0000
# 4 0.0000 0.0000 0.0000 42.7064 0.0000 5.1898
# 5 6.9872 20.6669 30.8514 0.0000 16.5133 0.0000
# 6 0.0000 0.0000 0.0000 5.1898 0.0000 16.0608
#
#
#
# Elastic Compliance Matrix: (Units=1/GPa)
#
#
# Indices 1 2 3 4 5 6 
#
# 1 0.121699 -0.011782 0.028265 0.000000 -0.089554 0.000000
# 2 -0.011782 0.013770 -0.010038 0.000000 0.006506 0.000000
# 3 0.028265 -0.010038 0.049673 0.000000 -0.092199 0.000000
# 4 0.000000 0.000000 0.000000 0.024373 0.000000 -0.007876
# 5 -0.089554 0.006506 -0.092199 0.000000 0.262560 0.000000
# 6 0.000000 0.000000 0.000000 -0.007876 0.000000 0.064808
#
#
# Mechanical properties :
#
#
# Convention : Reuss Voigt Hill
#
# Bulk Modulus (GPa) = 5.04973 40.14329 22.59651
# Shear Modulus (GPa) = 8.47450 23.98412 16.22931
#
# Velocity S-wave (km/s) = 2.13389 3.58986 2.95302
# Velocity P-wave (km/s) = 2.96389 6.22515 4.87531
#
# Compressibility (1/GPa) = 0.19803022
#
# Stress axis : x y z
#
# Youngs Moduli (GPa) = 8.21697 72.62063 20.13180
#
# Poissons Ratio (x) = 0.85564 -0.56902
# Poissons Ratio (y) = 0.09682 0.20209
# Poissons Ratio (z) = -0.23225 0.72898
#
# Static dielectric constant tensor:
#      x y z
#    x 2.886250 0.000000 0.059270 
#    y 0.000000 3.563460 0.000000 
#    z 0.059270 0.000000 3.849040 
# 
# 
# High freq. dielectric constant tensor:
#      x y z
#    x 1.659540 0.000000 0.009190 
#    y 0.000000 1.733680 0.000000 
#    z 0.009190 0.000000 1.740540 
# 
# From -- ./inp_files/319344.got.cif
#   From: 2010.06.25/outbox.cif.g09.slc.cpg/sg12_160_cif.got.tgz:319344.got - 2010.06.28 00:19:55.
