data_PCOD8085368
_publ_section_title
;
Structure prediction by ZEFSAII (Michael W. Deem and Ramdas Pophale) SiO2 
 PCOD8085368
Probable space group: C 2/M
;
_chemical_formula_sum "Si O2"
_cell_formula_units_Z 64
_cell_length_a 18.622326
_cell_length_b 9.038963
_cell_length_c 22.604320
_cell_angle_alpha 90.000000
_cell_angle_beta 114.045779
_cell_angle_gamma 90.000000
_cell_volume 3474.717353
_symmetry_space_group_name_H-M "C 2/M"
_symmetry_group_IT_number 12
_symmetry_cell_setting 'monoclinic'
loop_
_space_group_symop_operation_xyz
x,y,z
-x,y,-z
-x,-y,-z
x,-y,z
1/2+x,1/2+y,z
1/2-x,1/2+y,-z
1/2-x,1/2-y,-z
1/2+x,1/2-y,z
loop_
_atom_site_type_symbol
_atom_site_label
_atom_site_fract_x
_atom_site_fract_y
_atom_site_fract_z
Si Si1 0.444696 0.675715 0.235963
Si Si2 0.864462 0.825503 0.384973
Si Si3 0.324826 0.324629 0.995519
Si Si4 0.783446 0.173849 0.239341
Si Si5 0.020564 0.823964 0.378901
Si Si6 0.172753 0.823632 0.497797
Si Si7 0.644947 0.324812 0.127759
Si Si8 0.022426 0.176036 0.882942
O O1 0.444929 0.500000 0.234000
O O2 0.356704 0.727803 0.223588
O O3 0.507077 0.730489 0.306666
O O4 0.469538 0.741469 0.180831
O O5 0.800371 0.784608 0.313443
O O6 0.839936 0.761402 0.440202
O O7 0.949583 0.760879 0.395349
O O8 0.872455 0.000000 0.392640
O O9 0.315849 0.500000 0.998056
O O10 0.331431 0.272835 0.929898
O O11 0.250000 0.250000 0.000000
O O12 0.403494 0.267849 0.054363
O O13 0.705396 0.258993 0.194936
O O14 0.769687 0.000000 0.226789
O O15 0.102388 0.765501 0.432287
O O16 0.018368 0.000000 0.380170
O O17 0.250000 0.750000 0.500000
O O18 0.180034 0.000000 0.498874
O O19 0.646999 0.500000 0.133576
O O20 0.557802 0.265045 0.114300
O O21 0.021738 0.000000 0.881328
#
# Coordination Sequence:
#
# PCOD8085368 Si02
#       8
#     8   8   8   8   8   8   8   8
#     4   8  14  26  47  72  91 114 157 201 228 263
#     4   8  15  29  49  70  91 121 162 199 228 268
#     4  10  20  34  52  72  94 124 161 197 232 272
#     4   9  17  31  51  72  94 122 157 195 234 276
#     4   8  14  26  46  69  89 116 159 201 228 261
#     4  10  19  30  46  69  97 125 154 193 238 280
#     4  10  20  32  48  72 100 126 154 190 232 280
#     4   9  17  30  47  67  95 128 155 184 229 282
#
# _framework density 18.418763999999999
#
# number of rings (size 3 to 8) (size 9 to 14) (size 15 to 20)
#    0.000    3.000    0.000    3.000    0.000    5.500 
#    0.000    2.500    0.000    6.750    0.000    0.000 
#    0.000    0.000    0.000    0.000    0.000    0.000 
#
# Total GULP energy -396666.121027 kJ/mol
# GULP energy per Si atom -12395.816282 kJ/mol
# Density = 1.837684 g / cm^3
# Si number density = 18.418764 Si / 1000 Ang^3
#
#
#
# Elastic Constant Matrix: (Units=GPa)
#
#
# Indices 1 2 3 4 5 6 
#
# 1 144.6894 22.3221 86.6037 0.0000 15.6888 0.0000
# 2 22.3221 11.5421 21.5137 0.0000 2.3957 0.0000
# 3 86.6037 21.5137 151.2540 0.0000 14.7798 0.0000
# 4 0.0000 0.0000 0.0000 18.5214 0.0000 3.7490
# 5 15.6888 2.3957 14.7798 0.0000 30.3131 0.0000
# 6 0.0000 0.0000 0.0000 3.7490 0.0000 25.6909
#
#
#
# Elastic Compliance Matrix: (Units=1/GPa)
#
#
# Indices 1 2 3 4 5 6 
#
# 1 0.012245 -0.014341 -0.004686 0.000000 -0.002919 0.000000
# 2 -0.014341 0.134733 -0.011169 0.000000 0.002220 0.000000
# 3 -0.004686 -0.011169 0.011088 0.000000 -0.002098 0.000000
# 4 0.000000 0.000000 0.000000 0.055635 0.000000 -0.008119
# 5 -0.002919 0.002220 -0.002098 0.000000 0.035348 0.000000
# 6 0.000000 0.000000 0.000000 -0.008119 0.000000 0.040109
#
#
# Mechanical properties :
#
#
# Convention : Reuss Voigt Hill
#
# Bulk Modulus (GPa) = 10.23824 63.15159 36.69492
# Shear Modulus (GPa) = 13.08524 26.70815 19.89669
#
# Velocity S-wave (km/s) = 2.66828 3.81208 3.29027
# Velocity P-wave (km/s) = 3.88119 7.33055 5.86518
#
# Compressibility (1/GPa) = 0.09767302
#
# Stress axis : x y z
#
# Youngs Moduli (GPa) = 81.66333 7.42207 90.18521
#
# Poissons Ratio (x) = 0.10644 0.42263
# Poissons Ratio (y) = 1.17117 1.00730
# Poissons Ratio (z) = 0.38269 0.08290
#
# Static dielectric constant tensor:
#      x y z
#    x 3.529210 0.000000 -0.112880 
#    y 0.000000 2.778650 0.000000 
#    z -0.112880 0.000000 3.826280 
# 
# 
# High freq. dielectric constant tensor:
#      x y z
#    x 1.718770 0.000000 -0.000350 
#    y 0.000000 1.650450 0.000000 
#    z -0.000350 0.000000 1.734480 
# 
# From -- ./inp_files/309932.got.cif
#   From: 2010.06.25/outbox.cif.g09.slc.cpg/sg12_155_cif.got.tgz:309932.got - 2010.06.28 00:19:55.
