data_PCOD8085889
_publ_section_title
;
Structure prediction by ZEFSAII (Michael W. Deem and Ramdas Pophale) SiO2 
 PCOD8085889
Probable space group: C 2/M
;
_chemical_formula_sum "Si O2"
_cell_formula_units_Z 64
_cell_length_a 20.025436
_cell_length_b 9.367985
_cell_length_c 20.549316
_cell_angle_alpha 90.000000
_cell_angle_beta 66.397585
_cell_angle_gamma 90.000000
_cell_volume 3532.522665
_symmetry_space_group_name_H-M "C 2/M"
_symmetry_group_IT_number 12
_symmetry_cell_setting 'monoclinic'
loop_
_space_group_symop_operation_xyz
x,y,z
-x,y,-z
-x,-y,-z
x,-y,z
1/2+x,1/2+y,z
1/2-x,1/2+y,-z
1/2-x,1/2-y,-z
1/2+x,1/2-y,z
loop_
_atom_site_type_symbol
_atom_site_label
_atom_site_fract_x
_atom_site_fract_y
_atom_site_fract_z
Si Si1 0.905023 0.332766 0.911674
Si Si2 0.364449 0.834178 0.447417
Si Si3 0.451884 0.156767 0.083226
Si Si4 0.502718 0.332504 0.423141
Si Si5 0.659809 0.335251 0.310730
Si Si6 0.769992 0.836820 0.584122
Si Si7 0.842839 0.164316 0.055451
Si Si8 0.814265 0.662398 0.826937
O O1 0.890238 0.500000 0.931706
O O2 0.879955 0.290851 0.848972
O O3 0.991696 0.298037 0.881661
O O4 0.859222 0.244605 0.982162
O O5 0.440772 0.753126 0.407771
O O6 0.314508 0.813029 0.402423
O O7 0.322094 0.769608 0.525240
O O8 0.379750 0.000000 0.455040
O O9 0.387808 0.270931 0.099108
O O10 0.417978 0.000000 0.110771
O O11 0.500000 0.149792 0.000000
O O12 0.500000 0.291298 0.500000
O O13 0.489124 0.500000 0.418660
O O14 0.580387 0.282719 0.364909
O O15 0.656124 0.500000 0.294133
O O16 0.719559 0.305796 0.343623
O O17 0.686477 0.255383 0.236885
O O18 0.794282 0.000000 0.558617
O O19 0.758589 0.184525 0.103430
O O20 0.865297 0.000000 0.039018
O O21 0.823182 0.500000 0.800857
#
# Coordination Sequence:
#
# PCOD8085889 Si02
#       8
#     8   8   8   8   8   8   8   8
#     4   9  18  34  54  75 102 137 174 212 255 303
#     4  10  19  30  53  84 106 129 168 214 256 302
#     4   8  15  29  50  74  99 130 168 207 249 300
#     4  10  19  35  56  76 104 138 168 209 260 309
#     4  10  21  37  56  74  98 140 181 209 253 316
#     4   9  18  35  53  74 106 137 167 208 256 307
#     4  10  19  31  51  79 106 133 168 214 264 304
#     4  10  22  37  51  73 106 138 169 216 267 302
#
# _framework density 18.117364999999999
#
# number of rings (size 3 to 8) (size 9 to 14) (size 15 to 20)
#    0.000    2.500    1.250    1.875    0.000    5.500 
#    0.000    1.250    0.000    7.500    0.000    0.000 
#    0.000    0.000    0.000    0.000    0.000    0.000 
#
# Total GULP energy -396747.749962 kJ/mol
# GULP energy per Si atom -12398.367186 kJ/mol
# Density = 1.807613 g / cm^3
# Si number density = 18.117365 Si / 1000 Ang^3
#
#
#
# Elastic Constant Matrix: (Units=GPa)
#
#
# Indices 1 2 3 4 5 6 
#
# 1 116.2022 47.6743 25.1917 0.0000 23.5292 0.0000
# 2 47.6743 77.0250 32.1266 0.0000 10.4874 -0.0001
# 3 25.1917 32.1266 53.5040 0.0000 18.7758 0.0000
# 4 0.0000 0.0000 0.0000 25.9764 0.0000 -2.9231
# 5 23.5292 10.4874 18.7758 0.0000 22.2066 0.0000
# 6 0.0000 -0.0001 0.0000 -2.9231 0.0000 31.4628
#
#
#
# Elastic Compliance Matrix: (Units=1/GPa)
#
#
# Indices 1 2 3 4 5 6 
#
# 1 0.014021 -0.008090 0.003026 0.000000 -0.013595 0.000000
# 2 -0.008090 0.022000 -0.012460 0.000000 0.008717 0.000000
# 3 0.003026 -0.012460 0.033851 0.000000 -0.025944 0.000000
# 4 0.000000 0.000000 0.000000 0.038903 0.000000 0.003614
# 5 -0.013595 0.008717 -0.025944 0.000000 0.077255 0.000000
# 6 0.000000 0.000000 0.000000 0.003614 0.000000 0.032119
#
#
# Mechanical properties :
#
#
# Convention : Reuss Voigt Hill
#
# Bulk Modulus (GPa) = 28.71410 50.74626 39.73018
# Shear Modulus (GPa) = 18.88179 25.37838 22.13009
#
# Velocity S-wave (km/s) = 3.23180 3.74676 3.49877
# Velocity P-wave (km/s) = 5.45980 6.84018 6.18860
#
# Compressibility (1/GPa) = 0.03482610
#
# Stress axis : x y z
#
# Youngs Moduli (GPa) = 71.32007 45.45447 29.54118
#
# Poissons Ratio (x) = 0.36771 -0.08941
# Poissons Ratio (y) = 0.57696 0.36808
# Poissons Ratio (z) = -0.21585 0.56636
#
# Static dielectric constant tensor:
#      x y z
#    x 3.922870 0.000000 0.150710 
#    y 0.000000 3.377330 0.000000 
#    z 0.150710 0.000000 2.926580 
# 
# 
# High freq. dielectric constant tensor:
#      x y z
#    x 1.721860 0.000000 0.007790 
#    y 0.000000 1.702150 0.000000 
#    z 0.007790 0.000000 1.659520 
# 
# From -- ./inp_files/319805.got.cif
#   From: 2010.06.25/outbox.cif.g09.slc.cpg/sg12_160_cif.got.tgz:319805.got - 2010.06.28 00:19:55.
