data_PCOD8085505
_publ_section_title
;
Structure prediction by ZEFSAII (Michael W. Deem and Ramdas Pophale) SiO2 
 PCOD8085505
Probable space group: C 2/M
;
_chemical_formula_sum "Si O2"
_cell_formula_units_Z 64
_cell_length_a 25.265297
_cell_length_b 9.280315
_cell_length_c 31.976122
_cell_angle_alpha 90.000000
_cell_angle_beta 27.272144
_cell_angle_gamma 90.000000
_cell_volume 3435.457371
_symmetry_space_group_name_H-M "C 2/M"
_symmetry_group_IT_number 12
_symmetry_cell_setting 'monoclinic'
loop_
_space_group_symop_operation_xyz
x,y,z
-x,y,-z
-x,-y,-z
x,-y,z
1/2+x,1/2+y,z
1/2-x,1/2+y,-z
1/2-x,1/2-y,-z
1/2+x,1/2-y,z
loop_
_atom_site_type_symbol
_atom_site_label
_atom_site_fract_x
_atom_site_fract_y
_atom_site_fract_z
Si Si1 0.372566 0.170244 0.191742
Si Si2 0.486300 0.331852 0.255607
Si Si3 0.689333 0.671611 0.175199
Si Si4 0.911730 0.161549 0.984224
Si Si5 0.185917 0.670219 0.672801
Si Si6 0.141107 0.844919 0.073644
Si Si7 0.848900 0.170302 0.704464
Si Si8 0.053079 0.828441 0.505510
O O1 0.470166 0.247775 0.094379
O O2 0.370455 0.213852 0.242445
O O3 0.251918 0.219746 0.256084
O O4 0.392868 0.000000 0.172936
O O5 0.455445 0.500000 0.281005
O O6 0.572167 0.284339 0.232616
O O7 0.369149 0.241035 0.330891
O O8 0.543896 0.282864 0.171726
O O9 0.710333 0.500000 0.157171
O O10 0.671449 0.729562 0.234627
O O11 0.801795 0.752188 0.078697
O O12 0.903473 0.141784 0.941095
O O13 0.919792 0.000000 0.998888
O O14 0.179423 0.500000 0.671730
O O15 0.317241 0.728035 0.579788
O O16 0.177081 0.000000 0.066881
O O17 0.250000 0.750000 0.000000
O O18 0.971847 0.226531 0.600631
O O19 0.851035 0.000000 0.705413
O O20 0.000000 0.765949 0.500000
O O21 0.053722 0.000000 0.502851
#
# Coordination Sequence:
#
# PCOD8085505 Si02
#       8
#     8   8   8   8   8   8   8   8
#     4  10  19  32  53  81 107 133 170 218 265 311
#     4  10  20  34  50  72 107 143 175 213 258 309
#     4  10  21  37  55  74 101 144 186 215 250 305
#     4  11  22  34  50  75 107 142 175 215 264 308
#     4  10  19  30  53  86 110 131 165 217 272 312
#     4  10  19  30  47  71  98 132 174 218 256 295
#     4   9  18  34  56  79 104 135 175 219 262 309
#     4   9  15  29  55  86 111 128 162 220 272 308
#
# _framework density 18.629252000000001
#
# number of rings (size 3 to 8) (size 9 to 14) (size 15 to 20)
#    0.000    2.125    3.750    0.375    0.000    2.000 
#    0.000    3.750    0.000    1.875    0.000    0.000 
#    0.000    0.000    0.000    0.000    0.000    0.000 
#
# Total GULP energy -396447.380921 kJ/mol
# GULP energy per Si atom -12388.980654 kJ/mol
# Density = 1.858685 g / cm^3
# Si number density = 18.629252 Si / 1000 Ang^3
#
#
#
# Elastic Constant Matrix: (Units=GPa)
#
#
# Indices 1 2 3 4 5 6 
#
# 1 88.1193 27.8304 45.7876 -0.0140 -6.0692 0.0043
# 2 27.8304 43.6775 30.1595 -0.0184 -11.4623 0.0454
# 3 45.7876 30.1595 96.2124 -0.0119 -16.9532 0.0915
# 4 -0.0140 -0.0184 -0.0119 14.3098 0.0124 -6.7773
# 5 -6.0692 -11.4623 -16.9532 0.0124 32.6801 -0.0133
# 6 0.0043 0.0454 0.0915 -6.7773 -0.0133 21.4089
#
#
#
# Elastic Compliance Matrix: (Units=1/GPa)
#
#
# Indices 1 2 3 4 5 6 
#
# 1 0.016573 -0.006987 -0.006149 0.000025 -0.002562 0.000044
# 2 -0.006987 0.033294 -0.005814 0.000007 0.007364 -0.000038
# 3 -0.006149 -0.005814 0.016049 -0.000034 0.005144 -0.000063
# 4 0.000025 0.000007 -0.000034 0.082207 -0.000031 0.026024
# 5 -0.002562 0.007364 0.005144 -0.000031 0.035375 -0.000025
# 6 0.000044 -0.000038 -0.000063 0.026024 -0.000025 0.054948
#
#
# Mechanical properties :
#
#
# Convention : Reuss Voigt Hill
#
# Bulk Modulus (GPa) = 35.69234 48.39603 42.04418
# Shear Modulus (GPa) = 17.50178 21.96188 19.73183
#
# Velocity S-wave (km/s) = 3.06842 3.43722 3.25804
# Velocity P-wave (km/s) = 5.63511 6.46433 6.06391
#
# Compressibility (1/GPa) = 0.02801722
#
# Stress axis : x y z
#
# Youngs Moduli (GPa) = 60.33788 30.03531 62.30995
#
# Poissons Ratio (x) = 0.20986 0.38312
# Poissons Ratio (y) = 0.42158 0.36226
# Poissons Ratio (z) = 0.37099 0.17462
#
# Static dielectric constant tensor:
#      x y z
#    x 3.477380 -0.000360 -0.035690 
#    y -0.000360 3.323760 -0.000170 
#    z -0.035690 -0.000170 3.565340 
# 
# 
# High freq. dielectric constant tensor:
#      x y z
#    x 1.721720 -0.000010 -0.010720 
#    y -0.000010 1.690120 0.000000 
#    z -0.010720 0.000000 1.722450 
# 
# From -- ./inp_files/382217.got.cif
#   From: 2010.06.25/outbox.cif.g09.slc.cpg/sg12_192_cif.got.tgz:382217.got - 2010.06.28 00:19:55.
