data_PCOD8085319
_publ_section_title
;
Structure prediction by ZEFSAII (Michael W. Deem and Ramdas Pophale) SiO2 
 PCOD8085319
Probable space group: C 2/M
;
_chemical_formula_sum "Si O2"
_cell_formula_units_Z 64
_cell_length_a 18.665477
_cell_length_b 9.132394
_cell_length_c 20.811065
_cell_angle_alpha 90.000000
_cell_angle_beta 91.952435
_cell_angle_gamma 90.000000
_cell_volume 3545.404878
_symmetry_space_group_name_H-M "C 2/M"
_symmetry_group_IT_number 12
_symmetry_cell_setting 'monoclinic'
loop_
_space_group_symop_operation_xyz
x,y,z
-x,y,-z
-x,-y,-z
x,-y,z
1/2+x,1/2+y,z
1/2-x,1/2+y,-z
1/2-x,1/2-y,-z
1/2+x,1/2-y,z
loop_
_atom_site_type_symbol
_atom_site_label
_atom_site_fract_x
_atom_site_fract_y
_atom_site_fract_z
Si Si1 0.072597 0.671348 0.874881
Si Si2 0.124193 0.328036 0.738742
Si Si3 0.049673 0.166661 0.063448
Si Si4 0.365091 0.831424 0.592415
Si Si5 0.327505 0.173396 0.001484
Si Si6 0.873408 0.170486 0.462973
Si Si7 0.474694 0.830720 0.379900
Si Si8 0.727188 0.332000 0.658044
O O1 0.054114 0.500000 0.872556
O O2 0.104086 0.729810 0.808578
O O3 0.132925 0.704816 0.929946
O O4 0.997302 0.754845 0.883022
O O5 0.134086 0.500000 0.740684
O O6 0.062683 0.277802 0.686972
O O7 0.199502 0.260288 0.717929
O O8 0.068669 0.000000 0.084005
O O9 0.123523 0.255402 0.053269
O O10 0.000000 0.169071 0.000000
O O11 0.348552 0.735314 0.529724
O O12 0.441842 0.797772 0.625304
O O13 0.309984 0.793436 0.647888
O O14 0.356685 0.000000 0.570928
O O15 0.318792 0.000000 0.988564
O O16 0.250000 0.250000 0.000000
O O17 0.947402 0.242418 0.441123
O O18 0.813328 0.209156 0.408890
O O19 0.886157 0.000000 0.472029
O O20 0.458287 0.000000 0.392636
O O21 0.714971 0.500000 0.675628
#
# Coordination Sequence:
#
# PCOD8085319 Si02
#       8
#     8   8   8   8   8   8   8   8
#     4   9  18  33  53  74  98 131 167 202 241 287
#     4   9  18  34  53  70  91 124 163 195 229 281
#     4   9  17  30  50  76 103 131 165 200 235 281
#     4  10  19  31  47  67  91 119 152 193 241 287
#     4  10  19  32  51  76 107 136 162 199 246 289
#     4  10  19  30  46  68  92 119 153 193 238 287
#     4   9  18  32  49  67  90 121 155 192 234 282
#     4   9  19  33  47  66  94 125 157 195 236 280
#
# _framework density 18.051534
#
# number of rings (size 3 to 8) (size 9 to 14) (size 15 to 20)
#    0.000    2.625    0.000    1.875    0.000    5.500 
#    0.000    1.250    0.000    1.500    0.000    0.000 
#    0.000    0.000    0.000    0.000    0.000    0.000 
#
# Total GULP energy -396788.590302 kJ/mol
# GULP energy per Si atom -12399.643447 kJ/mol
# Density = 1.801045 g / cm^3
# Si number density = 18.051534 Si / 1000 Ang^3
#
#
#
# Elastic Constant Matrix: (Units=GPa)
#
#
# Indices 1 2 3 4 5 6 
#
# 1 125.5335 50.2625 36.0564 0.0000 -29.4890 0.0000
# 2 50.2625 73.2168 32.0013 0.0000 -14.1333 0.0000
# 3 36.0564 32.0013 80.2870 0.0000 -27.2129 0.0000
# 4 0.0000 0.0000 0.0000 23.5044 0.0000 -7.8951
# 5 -29.4890 -14.1333 -27.2129 0.0000 25.4337 0.0000
# 6 0.0000 0.0000 0.0000 -7.8951 0.0000 30.5723
#
#
#
# Elastic Compliance Matrix: (Units=1/GPa)
#
#
# Indices 1 2 3 4 5 6 
#
# 1 0.013624 -0.007380 0.001235 0.000000 0.013017 0.000000
# 2 -0.007380 0.020721 -0.006186 0.000000 -0.003660 0.000000
# 3 0.001235 -0.006186 0.021474 0.000000 0.020971 0.000000
# 4 0.000000 0.000000 0.000000 0.046586 0.000000 0.012031
# 5 0.013017 -0.003660 0.020971 0.000000 0.074814 0.000000
# 6 0.000000 0.000000 0.000000 0.012031 0.000000 0.035816
#
#
# Mechanical properties :
#
#
# Convention : Reuss Voigt Hill
#
# Bulk Modulus (GPa) = 32.09376 57.29750 44.69563
# Shear Modulus (GPa) = 20.15458 26.61656 23.38557
#
# Velocity S-wave (km/s) = 3.34504 3.84406 3.60320
# Velocity P-wave (km/s) = 5.72159 7.17721 6.49034
#
# Compressibility (1/GPa) = 0.03115870
#
# Stress axis : x y z
#
# Youngs Moduli (GPa) = 73.40128 48.25978 46.56745
#
# Poissons Ratio (x) = 0.35614 -0.05751
# Poissons Ratio (y) = 0.54168 0.28804
# Poissons Ratio (z) = -0.09065 0.29851
#
# Static dielectric constant tensor:
#      x y z
#    x 3.447960 0.000000 -0.188730 
#    y 0.000000 3.368120 0.000000 
#    z -0.188730 0.000000 3.259950 
# 
# 
# High freq. dielectric constant tensor:
#      x y z
#    x 1.701590 0.000000 -0.017470 
#    y 0.000000 1.700030 0.000000 
#    z -0.017470 0.000000 1.675810 
# 
# From -- ./inp_files/313973.got.cif
#   From: 2010.06.25/outbox.cif.g09.slc.cpg/sg12_157_cif.got.tgz:313973.got - 2010.06.28 00:19:55.
