data_PCOD8085568
_publ_section_title
;
Structure prediction by ZEFSAII (Michael W. Deem and Ramdas Pophale) SiO2 
 PCOD8085568
Probable space group: C 2/M
;
_chemical_formula_sum "Si O2"
_cell_formula_units_Z 40
_cell_length_a 35.920582
_cell_length_b 11.138015
_cell_length_c 5.236614
_cell_angle_alpha 90.000000
_cell_angle_beta 83.821053
_cell_angle_gamma 90.000000
_cell_volume 2082.914147
_symmetry_space_group_name_H-M "C 2/M"
_symmetry_group_IT_number 12
_symmetry_cell_setting 'monoclinic'
loop_
_space_group_symop_operation_xyz
x,y,z
-x,y,-z
-x,-y,-z
x,-y,z
1/2+x,1/2+y,z
1/2-x,1/2+y,-z
1/2-x,1/2-y,-z
1/2+x,1/2-y,z
loop_
_atom_site_type_symbol
_atom_site_label
_atom_site_fract_x
_atom_site_fract_y
_atom_site_fract_z
Si Si1 0.917851 0.638732 0.062266
Si Si2 0.957349 0.356607 0.533271
Si Si3 0.258593 0.133475 0.160129
Si Si4 0.336129 0.229984 0.118739
Si Si5 0.180605 0.866525 0.387829
O O1 0.928260 0.500000 0.054726
O O2 0.936135 0.697173 0.301477
O O3 0.873332 0.651677 0.091622
O O4 0.936602 0.697602 0.797555
O O5 0.955221 0.500000 0.535704
O O6 0.000000 0.311518 0.500000
O O7 0.301046 0.145825 0.230369
O O8 0.225967 0.136848 0.400086
O O9 0.255576 0.000000 0.027039
O O10 0.250000 0.250000 0.000000
O O11 0.339581 0.330650 0.334619
O O12 0.330852 0.283241 0.840937
O O13 0.166999 0.000000 0.330282
#
# Coordination Sequence:
#
# PCOD8085568 Si02
#       5
#     8   8   8   8   8
#     4  10  19  30  47  74 105 134 164 203 250 304
#     4   9  17  30  47  68 100 139 169 195 239 305
#     4   9  19  35  54  77 105 144 185 224 267 314
#     4  11  20  34  52  76 104 133 170 218 265 308
#     4  10  21  36  53  72  99 136 179 219 259 308
#
# _framework density 19.203866000000001
#
# number of rings (size 3 to 8) (size 9 to 14) (size 15 to 20)
#    0.000    2.200    0.000    3.600    0.000    3.200 
#    0.000   13.000    0.000    0.000    0.000    0.000 
#    0.000   56.000    0.000    0.000    0.000    0.000 
#
# Total GULP energy -247791.508952 kJ/mol
# GULP energy per Si atom -12389.575448 kJ/mol
# Density = 1.916016 g / cm^3
# Si number density = 19.203866 Si / 1000 Ang^3
#
#
#
# Elastic Constant Matrix: (Units=GPa)
#
#
# Indices 1 2 3 4 5 6 
#
# 1 121.7597 8.0609 58.8640 0.0000 3.1391 0.0000
# 2 8.0609 58.2858 9.9733 0.0000 1.2452 0.0000
# 3 58.8640 9.9733 131.5798 0.0000 3.9672 0.0000
# 4 0.0000 0.0000 0.0000 17.1131 0.0000 -2.2143
# 5 3.1391 1.2452 3.9672 0.0000 29.8442 0.0000
# 6 0.0000 0.0000 0.0000 -2.2143 0.0000 18.1130
#
#
#
# Elastic Compliance Matrix: (Units=1/GPa)
#
#
# Indices 1 2 3 4 5 6 
#
# 1 0.010510 -0.000650 -0.004639 0.000000 -0.000462 0.000000
# 2 -0.000650 0.017432 -0.001015 0.000000 -0.000524 0.000000
# 3 -0.004639 -0.001015 0.009775 0.000000 -0.000769 0.000000
# 4 0.000000 0.000000 0.000000 0.059374 0.000000 0.007259
# 5 -0.000462 -0.000524 -0.000769 0.000000 0.033680 0.000000
# 6 0.000000 0.000000 0.000000 0.007259 0.000000 0.056096
#
#
# Mechanical properties :
#
#
# Convention : Reuss Voigt Hill
#
# Bulk Modulus (GPa) = 39.82420 51.71352 45.76886
# Shear Modulus (GPa) = 24.05645 28.66255 26.35950
#
# Velocity S-wave (km/s) = 3.54317 3.86753 3.70890
# Velocity P-wave (km/s) = 6.12547 6.85061 6.49816
#
# Compressibility (1/GPa) = 0.02511036
#
# Stress axis : x y z
#
# Youngs Moduli (GPa) = 95.14361 57.36724 102.29892
#
# Poissons Ratio (x) = 0.03729 0.47454
# Poissons Ratio (y) = 0.06184 0.10380
# Poissons Ratio (z) = 0.44135 0.05821
#
# Static dielectric constant tensor:
#      x y z
#    x 3.601310 0.000000 -0.085590 
#    y 0.000000 3.242810 0.000000 
#    z -0.085590 0.000000 3.597210 
# 
# 
# High freq. dielectric constant tensor:
#      x y z
#    x 1.744820 0.000000 -0.006930 
#    y 0.000000 1.704150 0.000000 
#    z -0.006930 0.000000 1.749350 
# 
# From -- ./inp_files/30588.got.cif
#   From: 2010.06.25/outbox.cif.g09.slc.cpg/sg12_16_cif.got.tgz:30588.got - 2010.06.28 00:19:55.
