data_PCOD8085208
_publ_section_title
;
Structure prediction by ZEFSAII (Michael W. Deem and Ramdas Pophale) SiO2 
 PCOD8085208
Probable space group: C 2/M
;
_chemical_formula_sum "Si O2"
_cell_formula_units_Z 56
_cell_length_a 34.766327
_cell_length_b 9.822685
_cell_length_c 11.949426
_cell_angle_alpha 90.000000
_cell_angle_beta 65.385831
_cell_angle_gamma 90.000000
_cell_volume 3709.911583
_symmetry_space_group_name_H-M "C 2/M"
_symmetry_group_IT_number 12
_symmetry_cell_setting 'monoclinic'
loop_
_space_group_symop_operation_xyz
x,y,z
-x,y,-z
-x,-y,-z
x,-y,z
1/2+x,1/2+y,z
1/2-x,1/2+y,-z
1/2-x,1/2-y,-z
1/2+x,1/2-y,z
loop_
_atom_site_type_symbol
_atom_site_label
_atom_site_fract_x
_atom_site_fract_y
_atom_site_fract_z
Si Si1 0.021841 0.159220 0.857247
Si Si2 0.615665 0.660487 0.700117
Si Si3 0.796765 0.847705 0.335548
Si Si4 0.727050 0.650517 0.376041
Si Si5 0.500878 0.156027 0.316624
Si Si6 0.634760 0.340343 0.430679
Si Si7 0.568743 0.155671 0.415916
O O1 0.071087 0.202803 0.808267
O O2 0.998772 0.244600 0.789513
O O3 0.017768 0.000000 0.832136
O O4 0.000000 0.195227 0.000000
O O5 0.621904 0.500000 0.684307
O O6 0.655128 0.712738 0.728568
O O7 0.618474 0.716200 0.570304
O O8 0.765044 0.754162 0.301934
O O9 0.783829 0.848249 0.480407
O O10 0.793970 0.000000 0.288883
O O11 0.742293 0.500000 0.322512
O O12 0.684861 0.689616 0.357819
O O13 0.545223 0.176807 0.326563
O O14 0.462780 0.195142 0.445338
O O15 0.496272 0.000000 0.282043
O O16 0.625027 0.500000 0.426615
O O17 0.609428 0.254503 0.368345
O O18 0.583758 0.000000 0.410215
#
# Coordination Sequence:
#
# PCOD8085208 Si02
#       7
#     8   8   8   8   8   8   8
#     4  10  19  30  45  63  82 107 142 178 205 236
#     4   8  14  25  38  54  78 105 135 168 201 236
#     4   8  13  22  35  48  69 104 135 158 190 234
#     4   8  14  22  32  51  77 101 128 162 195 231
#     4   9  18  31  43  58  82 109 136 171 212 243
#     4   9  15  24  39  57  80 109 135 162 201 243
#     4   9  17  28  42  60  82 107 138 172 202 242
#
# _framework density 15.094699
#
# number of rings (size 3 to 8) (size 9 to 14) (size 15 to 20)
#    0.000    3.286    1.429    2.571    0.000    1.429 
#    0.000    4.286    0.000    0.000    0.000    0.000 
#    0.000    1.143    0.000    2.571    0.000    4.000 
#
# Total GULP energy -347015.105053 kJ/mol
# GULP energy per Si atom -12393.396609 kJ/mol
# Density = 1.506034 g / cm^3
# Si number density = 15.094699 Si / 1000 Ang^3
#
#
#
# Elastic Constant Matrix: (Units=GPa)
#
#
# Indices 1 2 3 4 5 6 
#
# 1 128.1300 67.6333 29.9794 0.0000 -5.3521 0.0000
# 2 67.6333 73.6286 26.4663 0.0000 3.9739 0.0000
# 3 29.9794 26.4663 44.9948 0.0000 1.1745 0.0000
# 4 0.0000 0.0000 0.0000 13.5103 0.0000 3.0052
# 5 -5.3521 3.9739 1.1745 0.0000 13.8433 0.0000
# 6 0.0000 0.0000 0.0000 3.0052 0.0000 32.3234
#
#
#
# Elastic Compliance Matrix: (Units=1/GPa)
#
#
# Indices 1 2 3 4 5 6 
#
# 1 0.016891 -0.015174 -0.002619 0.000000 0.011108 0.000000
# 2 -0.015174 0.031089 -0.007808 0.000000 -0.014129 0.000000
# 3 -0.002619 -0.007808 0.028594 0.000000 -0.001197 0.000000
# 4 0.000000 0.000000 0.000000 0.075581 0.000000 -0.007027
# 5 0.011108 -0.014129 -0.001197 0.000000 0.080689 0.000000
# 6 0.000000 0.000000 0.000000 -0.007027 0.000000 0.031591
#
#
# Mechanical properties :
#
#
# Convention : Reuss Voigt Hill
#
# Bulk Modulus (GPa) = 39.41277 54.99018 47.20147
# Shear Modulus (GPa) = 15.42773 20.11369 17.77071
#
# Velocity S-wave (km/s) = 3.20044 3.65430 3.43488
# Velocity P-wave (km/s) = 6.31063 7.36983 6.86071
#
# Compressibility (1/GPa) = 0.02537249
#
# Stress axis : x y z
#
# Youngs Moduli (GPa) = 59.20443 32.16584 34.97283
#
# Poissons Ratio (x) = 0.48807 0.09158
# Poissons Ratio (y) = 0.89834 0.27307
# Poissons Ratio (z) = 0.15504 0.25115
#
# Static dielectric constant tensor:
#      x y z
#    x 3.135770 0.000000 -0.126240 
#    y 0.000000 2.883340 0.000000 
#    z -0.126240 0.000000 2.395060 
# 
# 
# High freq. dielectric constant tensor:
#      x y z
#    x 1.590450 0.000000 -0.008080 
#    y 0.000000 1.571190 0.000000 
#    z -0.008080 0.000000 1.509300 
# 
# From -- ./inp_files/188000.got.cif
#   From: 2010.06.25/outbox.cif.g09.slc.cpg/sg12_94_cif.got.tgz:188000.got - 2010.06.28 00:19:55.
