data_PCOD8085548
_publ_section_title
;
Structure prediction by ZEFSAII (Michael W. Deem and Ramdas Pophale) SiO2 
 PCOD8085548
Probable space group: C 2/M
;
_chemical_formula_sum "Si O2"
_cell_formula_units_Z 56
_cell_length_a 17.564667
_cell_length_b 9.539218
_cell_length_c 19.265734
_cell_angle_alpha 90.000000
_cell_angle_beta 67.829911
_cell_angle_gamma 90.000000
_cell_volume 2989.379109
_symmetry_space_group_name_H-M "C 2/M"
_symmetry_group_IT_number 12
_symmetry_cell_setting 'monoclinic'
loop_
_space_group_symop_operation_xyz
x,y,z
-x,y,-z
-x,-y,-z
x,-y,z
1/2+x,1/2+y,z
1/2-x,1/2+y,-z
1/2-x,1/2-y,-z
1/2+x,1/2-y,z
loop_
_atom_site_type_symbol
_atom_site_label
_atom_site_fract_x
_atom_site_fract_y
_atom_site_fract_z
Si Si1 0.967195 0.842058 0.902080
Si Si2 0.032977 0.838387 0.639744
Si Si3 0.368548 0.656827 0.064876
Si Si4 0.319394 0.661775 0.513573
Si Si5 0.854405 0.833533 0.654870
Si Si6 0.788242 0.340970 0.197960
Si Si7 0.548678 0.160470 0.767490
O O1 0.050699 0.839634 0.916294
O O2 0.974338 0.735492 0.835140
O O3 0.951160 0.000000 0.879822
O O4 0.892645 0.794068 0.978495
O O5 0.093987 0.821681 0.554551
O O6 0.064846 0.741313 0.690701
O O7 0.944420 0.781907 0.645804
O O8 0.028883 0.000000 0.666261
O O9 0.332598 0.500000 0.074970
O O10 0.299824 0.756812 0.122107
O O11 0.291123 0.500000 0.524654
O O12 0.250000 0.750000 0.500000
O O13 0.331127 0.723903 0.586809
O O14 0.788778 0.776714 0.733559
O O15 0.851763 0.000000 0.652217
O O16 0.770420 0.500000 0.182296
O O17 0.867466 0.330605 0.219081
O O18 0.523384 0.000000 0.762012
#
# Coordination Sequence:
#
# PCOD8085548 Si02
#       7
#     8   8   8   8   8   8   8
#     4   8  14  26  44  67  96 129 163 199 241 289
#     4  10  20  34  53  73  95 130 170 201 234 284
#     4   8  14  25  43  68  97 126 159 203 246 284
#     4  10  20  35  56  79 101 126 160 202 244 286
#     4   9  18  34  53  72  97 130 167 201 235 284
#     4   9  17  29  47  70  97 129 161 198 246 294
#     4  10  19  30  47  73 103 130 158 201 251 292
#
# _framework density 18.732987000000001
#
# number of rings (size 3 to 8) (size 9 to 14) (size 15 to 20)
#    0.000    2.857    0.000    2.571    0.000    4.571 
#    0.000    5.000    0.000    2.571    0.000    0.000 
#    0.000    0.000    0.000    0.000    0.000    0.000 
#
# Total GULP energy -347133.417175 kJ/mol
# GULP energy per Si atom -12397.622042 kJ/mol
# Density = 1.869035 g / cm^3
# Si number density = 18.732987 Si / 1000 Ang^3
#
#
#
# Elastic Constant Matrix: (Units=GPa)
#
#
# Indices 1 2 3 4 5 6 
#
# 1 41.2570 19.8957 19.9901 0.0000 -16.7423 0.0000
# 2 19.8957 77.3079 49.1937 0.0000 -11.1387 -0.0001
# 3 19.9901 49.1937 118.8509 0.0000 -29.0485 0.0000
# 4 0.0000 0.0000 0.0000 34.1126 0.0000 1.2660
# 5 -16.7423 -11.1387 -29.0485 0.0000 19.5338 0.0000
# 6 0.0000 -0.0001 0.0000 1.2660 0.0000 15.8438
#
#
#
# Elastic Compliance Matrix: (Units=1/GPa)
#
#
# Indices 1 2 3 4 5 6 
#
# 1 0.041916 -0.009185 0.006681 0.000000 0.040623 0.000000
# 2 -0.009185 0.019593 -0.009046 0.000000 -0.010153 0.000000
# 3 0.006681 -0.009046 0.017553 0.000000 0.026671 0.000000
# 4 0.000000 0.000000 0.000000 0.029402 0.000000 -0.002349
# 5 0.040623 -0.010153 0.026671 0.000000 0.119883 0.000000
# 6 0.000000 0.000000 0.000000 -0.002349 0.000000 0.063304
#
#
# Mechanical properties :
#
#
# Convention : Reuss Voigt Hill
#
# Bulk Modulus (GPa) = 17.87003 46.17497 32.02250
# Shear Modulus (GPa) = 14.99675 23.78713 19.39194
#
# Velocity S-wave (km/s) = 2.83247 3.56729 3.22091
# Velocity P-wave (km/s) = 4.50081 6.45523 5.56449
#
# Compressibility (1/GPa) = 0.05595962
#
# Stress axis : x y z
#
# Youngs Moduli (GPa) = 23.85735 51.03926 56.96965
#
# Poissons Ratio (x) = 0.46882 -0.38059
# Poissons Ratio (y) = 0.21914 0.51536
# Poissons Ratio (z) = -0.15938 0.46171
#
# Static dielectric constant tensor:
#      x y z
#    x 3.106430 0.000000 -0.113740 
#    y 0.000000 3.413630 0.000000 
#    z -0.113740 0.000000 3.802770 
# 
# 
# High freq. dielectric constant tensor:
#      x y z
#    x 1.693660 0.000000 -0.006370 
#    y 0.000000 1.706780 0.000000 
#    z -0.006370 0.000000 1.746020 
# 
# From -- ./inp_files/313759.got.cif
#   From: 2010.06.25/outbox.cif.g09.slc.cpg/sg12_157_cif.got.tgz:313759.got - 2010.06.28 00:19:55.
