data_PCOD8085086
_publ_section_title
;
Structure prediction by ZEFSAII (Michael W. Deem and Ramdas Pophale) SiO2 
 PCOD8085086
Probable space group: C 2/M
;
_chemical_formula_sum "Si O2"
_cell_formula_units_Z 48
_cell_length_a 29.177982
_cell_length_b 9.784305
_cell_length_c 12.110058
_cell_angle_alpha 90.000000
_cell_angle_beta 50.882649
_cell_angle_gamma 90.000000
_cell_volume 2682.330173
_symmetry_space_group_name_H-M "C 2/M"
_symmetry_group_IT_number 12
_symmetry_cell_setting 'monoclinic'
loop_
_space_group_symop_operation_xyz
x,y,z
-x,y,-z
-x,-y,-z
x,-y,z
1/2+x,1/2+y,z
1/2-x,1/2+y,-z
1/2-x,1/2-y,-z
1/2+x,1/2-y,z
loop_
_atom_site_type_symbol
_atom_site_label
_atom_site_fract_x
_atom_site_fract_y
_atom_site_fract_z
Si Si1 0.282344 0.651958 0.533037
Si Si2 0.238598 0.654104 0.843381
Si Si3 0.488159 0.337326 0.894590
Si Si4 0.127222 0.159351 0.056814
Si Si5 0.409583 0.338291 0.415711
Si Si6 0.365502 0.659109 0.709142
O O1 0.282756 0.500000 0.481360
O O2 0.250000 0.750000 0.500000
O O3 0.247218 0.652443 0.699942
O O4 0.349316 0.703298 0.446238
O O5 0.224210 0.500000 0.907466
O O6 0.298008 0.715705 0.810230
O O7 0.185339 0.753988 0.950723
O O8 0.492667 0.500000 0.888828
O O9 0.423619 0.291702 0.950056
O O10 0.536230 0.274357 0.736211
O O11 0.500000 0.279626 0.000000
O O12 0.104647 0.184449 0.217308
O O13 0.142375 0.000000 0.016276
O O14 0.417894 0.500000 0.406000
O O15 0.406232 0.280271 0.547629
O O16 0.357792 0.500000 0.692697
#
# Coordination Sequence:
#
# PCOD8085086 Si02
#       6
#     8   8   8   8   8   8
#     4   9  18  30  48  70  91 124 160 191 232 280
#     4   9  18  32  47  68 100 129 153 187 240 292
#     4   9  18  29  42  67  99 126 155 194 239 280
#     4  10  19  29  48  75  96 121 161 200 228 271
#     4   8  15  29  46  64  94 128 151 188 243 283
#     4   8  15  29  47  69  94 121 158 197 235 279
#
# _framework density 17.89489
#
# number of rings (size 3 to 8) (size 9 to 14) (size 15 to 20)
#    0.000    3.167    0.000    2.500    2.333    1.333 
#    0.000    3.333    0.000    2.500    0.000    1.167 
#    0.000    0.000    0.000    0.000    0.000    0.000 
#
# Total GULP energy -297405.484098 kJ/mol
# GULP energy per Si atom -12391.895171 kJ/mol
# Density = 1.785416 g / cm^3
# Si number density = 17.894890 Si / 1000 Ang^3
#
#
#
# Elastic Constant Matrix: (Units=GPa)
#
#
# Indices 1 2 3 4 5 6 
#
# 1 106.1581 21.7402 53.3157 0.0000 18.0205 0.0000
# 2 21.7402 28.4557 18.4378 0.0000 1.7500 0.0000
# 3 53.3157 18.4378 113.5551 0.0000 -7.0871 0.0000
# 4 0.0000 0.0000 0.0000 16.6554 0.0000 -1.0763
# 5 18.0205 1.7500 -7.0871 0.0000 21.0761 0.0000
# 6 0.0000 0.0000 0.0000 -1.0763 0.0000 19.6560
#
#
#
# Elastic Compliance Matrix: (Units=1/GPa)
#
#
# Indices 1 2 3 4 5 6 
#
# 1 0.018188 -0.007319 -0.008461 0.000000 -0.017789 0.000000
# 2 -0.007319 0.042859 -0.003426 0.000000 0.001548 0.000000
# 3 -0.008461 -0.003426 0.014100 0.000000 0.012261 0.000000
# 4 0.000000 0.000000 0.000000 0.060254 0.000000 0.003299
# 5 -0.017789 0.001548 0.012261 0.000000 0.066651 0.000000
# 6 0.000000 0.000000 0.000000 0.003299 0.000000 0.051056
#
#
# Mechanical properties :
#
#
# Convention : Reuss Voigt Hill
#
# Bulk Modulus (GPa) = 27.22240 48.35069 37.78654
# Shear Modulus (GPa) = 16.46007 21.78918 19.12463
#
# Velocity S-wave (km/s) = 3.03614 3.49323 3.27267
# Velocity P-wave (km/s) = 5.24750 6.58393 5.95334
#
# Compressibility (1/GPa) = 0.03673446
#
# Stress axis : x y z
#
# Youngs Moduli (GPa) = 54.98136 23.33242 70.91973
#
# Poissons Ratio (x) = 0.17077 0.60007
# Poissons Ratio (y) = 0.40242 0.24296
# Poissons Ratio (z) = 0.46521 0.07993
#
# Static dielectric constant tensor:
#      x y z
#    x 3.384710 0.000000 0.075020 
#    y 0.000000 2.891190 0.000000 
#    z 0.075020 0.000000 3.660970 
# 
# 
# High freq. dielectric constant tensor:
#      x y z
#    x 1.697010 0.000000 0.007960 
#    y 0.000000 1.627350 0.000000 
#    z 0.007960 0.000000 1.701360 
# 
# From -- ./inp_files/154213.got.cif
#   From: 2010.06.25/outbox.cif.g09.slc.cpg/sg12_78_cif.got.tgz:154213.got - 2010.06.28 00:19:55.
