data_PCOD8085409
_publ_section_title
;
Structure prediction by ZEFSAII (Michael W. Deem and Ramdas Pophale) SiO2 
 PCOD8085409
Probable space group: C 2/M
;
_chemical_formula_sum "Si O2"
_cell_formula_units_Z 64
_cell_length_a 25.605789
_cell_length_b 9.141876
_cell_length_c 16.631275
_cell_angle_alpha 90.000000
_cell_angle_beta 61.006562
_cell_angle_gamma 90.000000
_cell_volume 3405.225361
_symmetry_space_group_name_H-M "C 2/M"
_symmetry_group_IT_number 12
_symmetry_cell_setting 'monoclinic'
loop_
_space_group_symop_operation_xyz
x,y,z
-x,y,-z
-x,-y,-z
x,-y,z
1/2+x,1/2+y,z
1/2-x,1/2+y,-z
1/2-x,1/2-y,-z
1/2+x,1/2-y,z
loop_
_atom_site_type_symbol
_atom_site_label
_atom_site_fract_x
_atom_site_fract_y
_atom_site_fract_z
Si Si1 0.042298 0.830774 0.691833
Si Si2 0.067722 0.657282 0.949924
Si Si3 0.122089 0.833349 0.777147
Si Si4 0.272210 0.329659 0.190879
Si Si5 0.439311 0.327880 0.502696
Si Si6 0.141193 0.670537 0.316680
Si Si7 0.579360 0.171288 0.196533
Si Si8 0.139468 0.172875 0.013095
O O1 0.103743 0.810406 0.697556
O O2 0.058523 0.774959 0.590969
O O3 0.985826 0.741862 0.769617
O O4 0.022405 0.000000 0.704972
O O5 0.101306 0.500000 0.939122
O O6 0.080483 0.720572 0.853218
O O7 0.081169 0.778941 0.007093
O O8 0.000000 0.619657 0.000000
O O9 0.190253 0.797816 0.754628
O O10 0.108097 0.000000 0.813836
O O11 0.264600 0.500000 0.182287
O O12 0.206559 0.260394 0.248938
O O13 0.305259 0.270903 0.084715
O O14 0.500000 0.276895 0.500000
O O15 0.429718 0.500000 0.517363
O O16 0.383664 0.250061 0.586237
O O17 0.146555 0.500000 0.332722
O O18 0.097278 0.699284 0.275118
O O19 0.576351 0.000000 0.177427
O O20 0.632488 0.244814 0.103571
O O21 0.140977 0.000000 0.026544
#
# Coordination Sequence:
#
# PCOD8085409 Si02
#       8
#     8   8   8   8   8   8   8   8
#     4  10  20  35  56  81 108 140 176 218 267 319
#     4  10  19  30  46  71 105 139 173 218 268 310
#     4   9  18  33  54  75  99 137 180 216 257 312
#     4   8  17  36  56  75 102 140 183 220 254 306
#     4  10  20  36  57  81 110 138 172 219 267 315
#     4  10  21  37  57  78 105 141 178 217 267 322
#     4  11  22  33  50  80 112 139 174 222 271 316
#     4  10  20  34  53  74 102 143 184 218 257 310
#
# _framework density 18.794644999999999
#
# number of rings (size 3 to 8) (size 9 to 14) (size 15 to 20)
#    0.000    2.250    1.250    2.625    0.000    5.250 
#    0.000    3.750    0.000    0.000    0.000    0.000 
#    0.000    0.000    0.000    0.000    0.000    0.000 
#
# Total GULP energy -396501.528036 kJ/mol
# GULP energy per Si atom -12390.672751 kJ/mol
# Density = 1.875187 g / cm^3
# Si number density = 18.794645 Si / 1000 Ang^3
#
#
#
# Elastic Constant Matrix: (Units=GPa)
#
#
# Indices 1 2 3 4 5 6 
#
# 1 66.2830 22.7736 34.8241 0.0000 -9.5203 0.0000
# 2 22.7736 61.5181 37.1853 -0.0001 -4.0704 -0.0002
# 3 34.8241 37.1853 111.6284 0.0000 -6.1198 0.0000
# 4 0.0000 -0.0001 0.0000 38.4691 0.0000 -2.1540
# 5 -9.5203 -4.0704 -6.1198 0.0000 30.9618 0.0000
# 6 0.0000 -0.0002 0.0000 -2.1540 0.0000 17.0687
#
#
#
# Elastic Compliance Matrix: (Units=1/GPa)
#
#
# Indices 1 2 3 4 5 6 
#
# 1 0.019529 -0.004252 -0.004425 0.000000 0.004571 0.000000
# 2 -0.004252 0.021336 -0.005761 0.000000 0.000359 0.000000
# 3 -0.004425 -0.005761 0.012275 0.000000 0.000308 0.000000
# 4 0.000000 0.000000 0.000000 0.026180 0.000000 0.003304
# 5 0.004571 0.000359 0.000308 0.000000 0.033811 0.000000
# 6 0.000000 0.000000 0.000000 0.003304 0.000000 0.059004
#
#
# Mechanical properties :
#
#
# Convention : Reuss Voigt Hill
#
# Bulk Modulus (GPa) = 41.21579 47.66617 44.44098
# Shear Modulus (GPa) = 23.91202 26.94301 25.42752
#
# Velocity S-wave (km/s) = 3.57077 3.79033 3.68219
# Velocity P-wave (km/s) = 6.24321 6.67623 6.46335
#
# Compressibility (1/GPa) = 0.02426255
#
# Stress axis : x y z
#
# Youngs Moduli (GPa) = 51.20482 46.87006 81.46744
#
# Poissons Ratio (x) = 0.19930 0.36052
# Poissons Ratio (y) = 0.21773 0.46934
# Poissons Ratio (z) = 0.22660 0.27002
#
# Static dielectric constant tensor:
#      x y z
#    x 3.487370 0.000000 0.013270 
#    y 0.000000 3.391950 0.000000 
#    z 0.013270 0.000000 3.552820 
# 
# 
# High freq. dielectric constant tensor:
#      x y z
#    x 1.719660 0.000000 0.008330 
#    y 0.000000 1.723220 0.000000 
#    z 0.008330 0.000000 1.723150 
# 
# From -- ./inp_files/249118.got.cif
#   From: 2010.06.25/outbox.cif.g09.slc.cpg/sg12_125_cif.got.tgz:249118.got - 2010.06.28 00:19:55.
