data_PCOD8085242
_publ_section_title
;
Structure prediction by ZEFSAII (Michael W. Deem and Ramdas Pophale) SiO2 
 PCOD8085242
Probable space group: C 2/M
;
_chemical_formula_sum "Si O2"
_cell_formula_units_Z 64
_cell_length_a 23.287685
_cell_length_b 9.141618
_cell_length_c 21.982768
_cell_angle_alpha 90.000000
_cell_angle_beta 125.136448
_cell_angle_gamma 90.000000
_cell_volume 3827.103883
_symmetry_space_group_name_H-M "C 2/M"
_symmetry_group_IT_number 12
_symmetry_cell_setting 'monoclinic'
loop_
_space_group_symop_operation_xyz
x,y,z
-x,y,-z
-x,-y,-z
x,-y,z
1/2+x,1/2+y,z
1/2-x,1/2+y,-z
1/2-x,1/2-y,-z
1/2+x,1/2-y,z
loop_
_atom_site_type_symbol
_atom_site_label
_atom_site_fract_x
_atom_site_fract_y
_atom_site_fract_z
Si Si1 0.711117 0.330273 0.922097
Si Si2 0.216472 0.669157 0.156154
Si Si3 0.724283 0.326858 0.284497
Si Si4 0.419901 0.330830 0.742790
Si Si5 0.063855 0.829329 0.881731
Si Si6 0.930658 0.330930 0.990523
Si Si7 0.281178 0.332310 0.425814
Si Si8 0.660824 0.667987 0.418483
O O1 0.730317 0.500000 0.940656
O O2 0.738866 0.273178 0.874118
O O3 0.627624 0.301604 0.873843
O O4 0.750000 0.250000 0.000000
O O5 0.232846 0.500000 0.179752
O O6 0.239764 0.764485 0.227642
O O7 0.134096 0.694109 0.094172
O O8 0.729188 0.500000 0.285872
O O9 0.648231 0.270034 0.262352
O O10 0.784626 0.266678 0.367341
O O11 0.426044 0.500000 0.761901
O O12 0.492611 0.257963 0.810022
O O13 0.410700 0.305770 0.664056
O O14 0.083681 0.754697 0.956756
O O15 0.054667 0.000000 0.889155
O O16 0.940138 0.500000 0.013349
O O17 0.000000 0.268783 0.000000
O O18 0.274013 0.500000 0.400730
O O19 0.347845 0.311443 0.513310
O O20 0.215101 0.286528 0.426415
O O21 0.686768 0.500000 0.421149
#
# Coordination Sequence:
#
# PCOD8085242 Si02
#       8
#     8   8   8   8   8   8   8   8
#     4  10  20  34  51  68  86 114 152 194 235 270
#     4  10  20  33  46  63  89 117 149 190 229 267
#     4  10  19  30  45  66  93 122 150 184 226 271
#     4   8  15  28  44  66  95 119 145 184 222 262
#     4  10  19  31  49  69  88 116 153 189 226 267
#     4  10  20  32  46  65  92 123 149 179 225 275
#     4   9  15  24  41  64  91 123 153 181 217 263
#     4   8  14  25  41  62  91 125 154 180 215 261
#
# _framework density 16.722829000000001
#
# number of rings (size 3 to 8) (size 9 to 14) (size 15 to 20)
#    0.000    2.625    1.250    2.250    0.000    1.750 
#    0.000    2.500    0.000    0.000    0.000    0.875 
#    0.000    7.000    0.000    0.000    0.000    0.000 
#
# Total GULP energy -396542.147886 kJ/mol
# GULP energy per Si atom -12391.942121 kJ/mol
# Density = 1.668477 g / cm^3
# Si number density = 16.722829 Si / 1000 Ang^3
#
#
#
# Elastic Constant Matrix: (Units=GPa)
#
#
# Indices 1 2 3 4 5 6 
#
# 1 63.9524 22.2976 32.8174 0.0000 -20.1646 0.0000
# 2 22.2976 50.6624 41.9442 0.0000 -12.2478 0.0000
# 3 32.8174 41.9442 124.8054 0.0000 -26.7446 0.0000
# 4 0.0000 0.0000 0.0000 26.1002 0.0000 -6.6675
# 5 -20.1646 -12.2478 -26.7446 0.0000 19.2463 0.0000
# 6 0.0000 0.0000 0.0000 -6.6675 0.0000 15.6477
#
#
#
# Elastic Compliance Matrix: (Units=1/GPa)
#
#
# Indices 1 2 3 4 5 6 
#
# 1 0.024553 -0.005559 0.000237 0.000000 0.022516 0.000000
# 2 -0.005559 0.029207 -0.008002 0.000000 0.001643 0.000000
# 3 0.000237 -0.008002 0.013673 0.000000 0.014156 0.000000
# 4 0.000000 0.000000 0.000000 0.042994 0.000000 0.018320
# 5 0.022516 0.001643 0.014156 0.000000 0.096265 0.000000
# 6 0.000000 0.000000 0.000000 0.018320 0.000000 0.071713
#
#
# Mechanical properties :
#
#
# Convention : Reuss Voigt Hill
#
# Bulk Modulus (GPa) = 24.51903 48.17097 36.34500
# Shear Modulus (GPa) = 15.69127 21.68957 18.69042
#
# Velocity S-wave (km/s) = 3.06652 3.60530 3.34677
# Velocity P-wave (km/s) = 5.21842 6.79698 6.05932
#
# Compressibility (1/GPa) = 0.04078465
#
# Stress axis : x y z
#
# Youngs Moduli (GPa) = 40.72891 34.23786 73.13704
#
# Poissons Ratio (x) = 0.19033 -0.01735
# Poissons Ratio (y) = 0.22642 0.58526
# Poissons Ratio (z) = -0.00966 0.27398
#
# Static dielectric constant tensor:
#      x y z
#    x 3.020080 0.000000 0.051950 
#    y 0.000000 3.039480 0.000000 
#    z 0.051950 0.000000 3.494710 
# 
# 
# High freq. dielectric constant tensor:
#      x y z
#    x 1.599270 0.000000 -0.006850 
#    y 0.000000 1.636210 0.000000 
#    z -0.006850 0.000000 1.658230 
# 
# From -- ./inp_files/323764.got.cif
#   From: 2010.06.25/outbox.cif.g09.slc.cpg/sg12_162_cif.got.tgz:323764.got - 2010.06.28 00:19:55.
