data_PCOD8085503
_publ_section_title
;
Structure prediction by ZEFSAII (Michael W. Deem and Ramdas Pophale) SiO2 
 PCOD8085503
Probable space group: C 2/M
;
_chemical_formula_sum "Si O2"
_cell_formula_units_Z 48
_cell_length_a 19.397079
_cell_length_b 9.110291
_cell_length_c 29.615610
_cell_angle_alpha 90.000000
_cell_angle_beta 31.485042
_cell_angle_gamma 90.000000
_cell_volume 2733.312548
_symmetry_space_group_name_H-M "C 2/M"
_symmetry_group_IT_number 12
_symmetry_cell_setting 'monoclinic'
loop_
_space_group_symop_operation_xyz
x,y,z
-x,y,-z
-x,-y,-z
x,-y,z
1/2+x,1/2+y,z
1/2-x,1/2+y,-z
1/2-x,1/2-y,-z
1/2+x,1/2-y,z
loop_
_atom_site_type_symbol
_atom_site_label
_atom_site_fract_x
_atom_site_fract_y
_atom_site_fract_z
Si Si1 0.405463 0.170560 0.265785
Si Si2 0.446002 0.168431 0.143179
Si Si3 0.880167 0.330749 0.035357
Si Si4 0.619053 0.325499 0.401913
Si Si5 0.621289 0.827520 0.211679
Si Si6 0.320366 0.827830 0.720910
O O1 0.478190 0.202513 0.177472
O O2 0.256100 0.233917 0.347333
O O3 0.493618 0.239957 0.256741
O O4 0.392099 0.000000 0.282940
O O5 0.328892 0.271445 0.191054
O O6 0.397459 0.000000 0.164856
O O7 0.576842 0.196424 0.040649
O O8 0.847268 0.500000 0.063389
O O9 0.751880 0.237965 0.116949
O O10 0.000000 0.277847 0.000000
O O11 0.500000 0.272936 0.500000
O O12 0.620911 0.500000 0.394603
O O13 0.600512 0.254016 0.363025
O O14 0.606235 0.791220 0.273000
O O15 0.631169 0.000000 0.197844
O O16 0.318487 0.000000 0.711841
#
# Coordination Sequence:
#
# PCOD8085503 Si02
#       6
#     8   8   8   8   8   8
#     4   8  16  32  51  70  96 127 161 199 241 289
#     4   9  17  32  51  68  92 132 174 206 238 277
#     4  10  19  30  47  71  98 129 170 213 242 271
#     4   9  18  35  59  78  92 121 163 199 234 288
#     4  10  20  32  47  70 101 134 161 195 245 293
#     4  10  19  30  48  73 100 128 158 195 243 291
#
# _framework density 17.561108999999998
#
# number of rings (size 3 to 8) (size 9 to 14) (size 15 to 20)
#    0.000    2.667    1.667    1.500    0.000    2.667 
#    0.000    4.167    0.000    0.000    0.000    0.000 
#    0.000    0.000    0.000    0.000    0.000    0.000 
#
# Total GULP energy -297506.004623 kJ/mol
# GULP energy per Si atom -12396.083526 kJ/mol
# Density = 1.752114 g / cm^3
# Si number density = 17.561109 Si / 1000 Ang^3
#
#
#
# Elastic Constant Matrix: (Units=GPa)
#
#
# Indices 1 2 3 4 5 6 
#
# 1 151.3744 39.7634 76.7833 0.0001 0.2609 0.0002
# 2 39.7634 37.6660 32.8309 0.0009 5.7474 -0.0007
# 3 76.7833 32.8309 131.2152 -0.0001 12.2966 -0.0001
# 4 0.0001 0.0009 -0.0001 22.1898 -0.0001 4.0161
# 5 0.2609 5.7474 12.2966 -0.0001 22.2199 0.0003
# 6 0.0002 -0.0007 -0.0001 4.0161 0.0003 19.9656
#
#
#
# Elastic Compliance Matrix: (Units=1/GPa)
#
#
# Indices 1 2 3 4 5 6 
#
# 1 0.011314 -0.008329 -0.004985 0.000000 0.004780 -0.000001
# 2 -0.008329 0.040480 -0.004517 -0.000002 -0.007873 0.000002
# 3 -0.004985 -0.004517 0.012185 0.000000 -0.005516 0.000000
# 4 0.000000 -0.000002 0.000000 0.046768 0.000001 -0.009408
# 5 0.004780 -0.007873 -0.005516 0.000001 0.050038 -0.000001
# 6 -0.000001 0.000002 0.000000 -0.009408 -0.000001 0.051979
#
#
# Mechanical properties :
#
#
# Convention : Reuss Voigt Hill
#
# Bulk Modulus (GPa) = 35.31238 68.77895 52.04566
# Shear Modulus (GPa) = 19.39004 24.26692 21.82848
#
# Velocity S-wave (km/s) = 3.32647 3.72137 3.52945
# Velocity P-wave (km/s) = 5.90812 7.59706 6.80519
#
# Compressibility (1/GPa) = 0.02831868
#
# Stress axis : x y z
#
# Youngs Moduli (GPa) = 88.38468 24.70356 82.06726
#
# Poissons Ratio (x) = 0.20575 0.40909
# Poissons Ratio (y) = 0.73613 0.37068
# Poissons Ratio (z) = 0.44058 0.11158
#
# Static dielectric constant tensor:
#      x y z
#    x 3.589830 0.000000 0.037240 
#    y 0.000000 3.067550 0.000000 
#    z 0.037240 0.000000 3.247310 
# 
# 
# High freq. dielectric constant tensor:
#      x y z
#    x 1.682350 0.000000 0.012150 
#    y 0.000000 1.658180 0.000000 
#    z 0.012150 0.000000 1.665420 
# 
# From -- ./inp_files/230359.got.cif
#   From: 2010.06.25/outbox.cif.g09.slc.cpg/sg12_116_cif.got.tgz:230359.got - 2010.06.28 00:19:55.
