data_PCOD8085963
_publ_section_title
;
Structure prediction by ZEFSAII (Michael W. Deem and Ramdas Pophale) SiO2 
 PCOD8085963
Probable space group: C 2/M
;
_chemical_formula_sum "Si O2"
_cell_formula_units_Z 64
_cell_length_a 10.116633
_cell_length_b 27.304928
_cell_length_c 15.507116
_cell_angle_alpha 90.000000
_cell_angle_beta 109.037917
_cell_angle_gamma 90.000000
_cell_volume 4049.291706
_symmetry_space_group_name_H-M "C 2/M"
_symmetry_group_IT_number 12
_symmetry_cell_setting 'monoclinic'
loop_
_space_group_symop_operation_xyz
x,y,z
-x,y,-z
-x,-y,-z
x,-y,z
1/2+x,1/2+y,z
1/2-x,1/2+y,-z
1/2-x,1/2-y,-z
1/2+x,1/2-y,z
loop_
_atom_site_type_symbol
_atom_site_label
_atom_site_fract_x
_atom_site_fract_y
_atom_site_fract_z
Si Si1 0.802781 0.200599 0.105563
Si Si2 0.198564 0.558125 0.601712
Si Si3 0.937525 0.634937 0.892373
Si Si4 0.454847 0.634937 0.892373
Si Si5 0.596852 0.941875 0.398288
Si Si6 0.781291 0.442460 0.755511
Si Si7 0.974220 0.942460 0.755511
Si Si8 0.194798 0.690334 0.889597
O O1 0.689875 0.172838 0.139128
O O2 0.825455 0.254631 0.150911
O O3 0.949253 0.172838 0.139127
O O4 0.748432 0.199750 0.996866
O O5 0.202534 0.500000 0.600199
O O6 0.178725 0.578213 0.500000
O O7 0.345500 0.577656 0.670321
O O8 0.066061 0.575241 0.632122
O O9 0.883436 0.583022 0.846122
O O10 0.053707 0.659012 0.856097
O O11 0.000000 0.625371 0.000000
O O12 0.462685 0.583022 0.846121
O O13 0.302390 0.659012 0.856098
O O14 0.500000 0.625371 0.000000
O O15 0.675179 0.922344 0.329679
O O16 0.602334 0.000000 0.399801
O O17 0.808428 0.500000 0.770621
O O18 0.619138 0.429538 0.738276
O O19 0.962192 0.000000 0.770621
#
# Coordination Sequence:
#
# PCOD8085963 Si02
#       8
#     8   8   8   8   8   8   8   8
#     4   9  16  32  47  65  90 115 149 197 243 276
#     4   8  15  29  48  68  89 114 148 192 236 272
#     4  10  19  31  46  66  94 125 157 191 225 270
#     4  10  19  31  46  66  94 125 157 191 225 270
#     4   8  15  29  48  68  89 114 148 192 236 272
#     4  10  20  32  45  64  95 131 160 187 221 267
#     4  10  20  32  45  64  95 131 160 187 221 267
#     4   9  18  28  49  69  84 115 155 195 243 278
#
# _framework density 15.805232999999999
#
# number of rings (size 3 to 8) (size 9 to 14) (size 15 to 20)
#    0.000    2.750    1.250    1.500    1.750    4.000 
#    0.000    2.500    0.000    0.000    0.000    0.000 
#    0.000    6.000    0.000    0.000    0.000    0.000 
#
# Total GULP energy -396618.532182 kJ/mol
# GULP energy per Si atom -12394.329131 kJ/mol
# Density = 1.576926 g / cm^3
# Si number density = 15.805233 Si / 1000 Ang^3
#
#
#
# Elastic Constant Matrix: (Units=GPa)
#
#
# Indices 1 2 3 4 5 6 
#
# 1 151.5738 51.7384 54.0366 0.0000 -4.2713 0.0000
# 2 51.7384 63.7033 37.1077 0.0000 -1.0020 0.0000
# 3 54.0366 37.1077 67.1648 0.0000 -1.5083 0.0000
# 4 0.0000 0.0000 0.0000 3.6102 0.0000 -1.2703
# 5 -4.2713 -1.0020 -1.5083 0.0000 17.7693 0.0000
# 6 0.0000 0.0000 0.0000 -1.2703 0.0000 22.1652
#
#
#
# Elastic Compliance Matrix: (Units=1/GPa)
#
#
# Indices 1 2 3 4 5 6 
#
# 1 0.010361 -0.005242 -0.005401 0.000000 0.001736 0.000000
# 2 -0.005242 0.025800 -0.010052 0.000000 -0.000658 0.000000
# 3 -0.005401 -0.010052 0.024793 0.000000 0.000239 0.000000
# 4 0.000000 0.000000 0.000000 0.282693 0.000000 0.016201
# 5 0.001736 -0.000658 0.000239 0.000000 0.056677 0.000000
# 6 0.000000 0.000000 0.000000 0.016201 0.000000 0.046044
#
#
# Mechanical properties :
#
#
# Convention : Reuss Voigt Hill
#
# Bulk Modulus (GPa) = 51.11148 63.13413 57.12280
# Shear Modulus (GPa) = 10.11576 18.01290 14.06433
#
# Velocity S-wave (km/s) = 2.53262 3.37958 2.98628
# Velocity P-wave (km/s) = 6.40006 7.43374 6.93618
#
# Compressibility (1/GPa) = 0.01956508
#
# Stress axis : x y z
#
# Youngs Moduli (GPa) = 96.51599 38.76005 40.33422
#
# Poissons Ratio (x) = 0.20316 0.21784
# Poissons Ratio (y) = 0.50590 0.40543
# Poissons Ratio (z) = 0.52127 0.38961
#
# Static dielectric constant tensor:
#      x y z
#    x 3.324100 0.000000 -0.030350 
#    y 0.000000 2.832740 0.000000 
#    z -0.030350 0.000000 2.880760 
# 
# 
# High freq. dielectric constant tensor:
#      x y z
#    x 1.628420 0.000000 -0.003850 
#    y 0.000000 1.580400 0.000000 
#    z -0.003850 0.000000 1.572170 
# 
# From -- ./inp_files/199843.got.cif
#   From: 2010.06.25/outbox.cif.g09.slc.cpg/sg12_100_cif.got.tgz:199843.got - 2010.06.28 00:19:55.
