data_PCOD8085460
_publ_section_title
;
Structure prediction by ZEFSAII (Michael W. Deem and Ramdas Pophale) SiO2 
 PCOD8085460
Probable space group: C 2/M
;
_chemical_formula_sum "Si O2"
_cell_formula_units_Z 56
_cell_length_a 8.890562
_cell_length_b 19.042492
_cell_length_c 20.453629
_cell_angle_alpha 90.000000
_cell_angle_beta 115.764245
_cell_angle_gamma 90.000000
_cell_volume 3118.534745
_symmetry_space_group_name_H-M "C 2/M"
_symmetry_group_IT_number 12
_symmetry_cell_setting 'monoclinic'
loop_
_space_group_symop_operation_xyz
x,y,z
-x,y,-z
-x,-y,-z
x,-y,z
1/2+x,1/2+y,z
1/2-x,1/2+y,-z
1/2-x,1/2-y,-z
1/2+x,1/2-y,z
loop_
_atom_site_type_symbol
_atom_site_label
_atom_site_fract_x
_atom_site_fract_y
_atom_site_fract_z
Si Si1 0.254816 0.174201 0.078728
Si Si2 0.169718 0.416523 0.500000
Si Si3 0.041773 0.673463 0.220267
Si Si4 0.402640 0.674201 0.078728
Si Si5 0.398762 0.673463 0.220268
Si Si6 0.968046 0.920007 0.644913
Si Si7 0.321780 0.920007 0.644913
O O1 0.404303 0.135922 0.146542
O O2 0.323940 0.250000 0.073940
O O3 0.095599 0.181605 0.095599
O O4 0.201065 0.136095 0.000000
O O5 0.181500 0.500000 0.500000
O O6 0.321847 0.387542 0.572387
O O7 0.177071 0.387542 0.427612
O O8 0.000000 0.389159 0.500000
O O9 0.215398 0.679452 0.215398
O O10 0.055810 0.625566 0.286985
O O11 0.980539 0.750000 0.230539
O O12 0.388781 0.635922 0.146542
O O13 0.518161 0.625566 0.286985
O O14 0.134220 0.916015 0.634220
O O15 0.928335 0.000000 0.658198
O O16 0.388061 0.000000 0.658198
#
# Coordination Sequence:
#
# PCOD8085460 Si02
#       7
#     8   8   8   8   8   8   8
#     4   9  16  26  42  64  90 120 153 188 225 266
#     4   9  17  29  48  73  94 115 149 191 230 267
#     4  10  19  30  47  70  95 122 151 187 230 272
#     4   9  16  26  42  64  90 120 153 188 225 266
#     4  10  19  30  47  70  95 122 151 187 230 272
#     4   9  18  33  51  69  91 121 155 188 224 269
#     4   9  18  33  51  69  91 121 155 188 224 269
#
# _framework density 17.957149999999999
#
# number of rings (size 3 to 8) (size 9 to 14) (size 15 to 20)
#    0.000    2.714    0.000    3.857    0.000    5.714 
#    0.000    0.714    0.000    0.857    0.000    6.000 
#    0.000    0.000    0.000    0.000    0.000    0.000 
#
# Total GULP energy -346968.482221 kJ/mol
# GULP energy per Si atom -12391.731508 kJ/mol
# Density = 1.791628 g / cm^3
# Si number density = 17.957150 Si / 1000 Ang^3
#
#
#
# Elastic Constant Matrix: (Units=GPa)
#
#
# Indices 1 2 3 4 5 6 
#
# 1 80.0337 23.8377 70.4126 0.0000 -2.5060 0.0000
# 2 23.8377 38.7295 53.2074 0.0000 -1.1981 0.0000
# 3 70.4126 53.2074 221.1355 0.0000 -3.2498 0.0000
# 4 0.0000 0.0000 0.0000 12.3338 0.0000 0.1382
# 5 -2.5060 -1.1981 -3.2498 0.0000 35.5578 0.0000
# 6 0.0000 0.0000 0.0000 0.1382 0.0000 15.7229
#
#
#
# Elastic Compliance Matrix: (Units=1/GPa)
#
#
# Indices 1 2 3 4 5 6 
#
# 1 0.017945 -0.004762 -0.004558 0.000000 0.000688 0.000000
# 2 -0.004762 0.039840 -0.008066 0.000000 0.000270 0.000000
# 3 -0.004558 -0.008066 0.007916 0.000000 0.000131 0.000000
# 4 0.000000 0.000000 0.000000 0.081086 0.000000 -0.000713
# 5 0.000688 0.000270 0.000131 0.000000 0.028193 0.000000
# 6 0.000000 0.000000 0.000000 -0.000713 0.000000 0.063608
#
#
# Mechanical properties :
#
#
# Convention : Reuss Voigt Hill
#
# Bulk Modulus (GPa) = 32.33105 70.53491 51.43298
# Shear Modulus (GPa) = 17.62623 25.55229 21.58926
#
# Velocity S-wave (km/s) = 3.13640 3.77631 3.47113
# Velocity P-wave (km/s) = 5.58209 7.64060 6.69098
#
# Compressibility (1/GPa) = 0.03093002
#
# Stress axis : x y z
#
# Youngs Moduli (GPa) = 55.72725 25.10030 126.32501
#
# Poissons Ratio (x) = 0.11952 0.57579
# Poissons Ratio (y) = 0.26535 1.01892
# Poissons Ratio (z) = 0.25401 0.20246
#
# Static dielectric constant tensor:
#      x y z
#    x 3.378480 0.000000 -0.034770 
#    y 0.000000 2.849550 0.000000 
#    z -0.034770 0.000000 4.230850 
# 
# 
# High freq. dielectric constant tensor:
#      x y z
#    x 1.705520 0.000000 -0.000820 
#    y 0.000000 1.627220 0.000000 
#    z -0.000820 0.000000 1.725620 
# 
# From -- ./inp_files/258702.got.cif
#   From: 2010.06.25/outbox.cif.g09.slc.cpg/sg12_130_cif.got.tgz:258702.got - 2010.06.28 00:19:55.
