data_PCOD8085976
_publ_section_title
;
Structure prediction by ZEFSAII (Michael W. Deem and Ramdas Pophale) SiO2 
 PCOD8085976
Probable space group: C 2/M
;
_chemical_formula_sum "Si O2"
_cell_formula_units_Z 64
_cell_length_a 28.862097
_cell_length_b 22.035573
_cell_length_c 12.868660
_cell_angle_alpha 90.000000
_cell_angle_beta 26.907995
_cell_angle_gamma 90.000000
_cell_volume 3703.914069
_symmetry_space_group_name_H-M "C 2/M"
_symmetry_group_IT_number 12
_symmetry_cell_setting 'monoclinic'
loop_
_space_group_symop_operation_xyz
x,y,z
-x,y,-z
-x,-y,-z
x,-y,z
1/2+x,1/2+y,z
1/2-x,1/2+y,-z
1/2-x,1/2-y,-z
1/2+x,1/2-y,z
loop_
_atom_site_type_symbol
_atom_site_label
_atom_site_fract_x
_atom_site_fract_y
_atom_site_fract_z
Si Si1 0.113786 0.842132 0.392561
Si Si2 0.250000 0.750000 0.759703
Si Si3 0.878654 0.567186 0.242692
Si Si4 0.613787 0.342132 0.152295
Si Si5 0.881680 0.642512 0.039457
Si Si6 0.791683 0.429502 0.796768
Si Si7 0.291683 0.929502 0.036500
Si Si8 0.118321 0.357490 0.566176
O O1 0.167837 0.784436 0.334561
O O2 0.106127 0.826660 0.287747
O O3 0.177460 0.903901 0.284200
O O4 0.999999 0.851338 0.667359
O O5 0.186542 0.702987 0.816610
O O6 0.313455 0.797015 0.562785
O O7 0.167839 0.784434 0.994093
O O8 0.830138 0.500000 0.339721
O O9 0.840836 0.600991 0.214903
O O10 0.840836 0.600988 0.421755
O O11 0.000000 0.562884 0.000000
O O12 0.677461 0.403900 0.005959
O O13 0.869685 0.606985 0.954163
O O14 0.000000 0.660237 0.816821
O O15 0.792896 0.500000 0.764595
O O16 0.869685 0.393016 0.567098
O O17 0.825511 0.419456 0.848979
O O18 0.292898 0.000000 0.063818
#
# Coordination Sequence:
#
# PCOD8085976 Si02
#       8
#     8   8   8   8   8   8   8   8
#     4   9  17  29  45  65  93 130 164 194 232 278
#     4  10  19  31  46  68  96 122 159 199 234 278
#     4   9  18  33  52  72  93 120 156 192 229 279
#     4   9  17  29  45  65  93 130 164 194 232 278
#     4  10  20  33  50  71  96 126 157 193 236 278
#     4   9  18  31  47  71  99 124 156 196 237 284
#     4   9  18  31  47  71  99 124 156 196 237 284
#     4  10  20  33  50  71  96 126 157 193 236 278
#
# _framework density 17.279019000000002
#
# number of rings (size 3 to 8) (size 9 to 14) (size 15 to 20)
#    0.000    2.625    0.000    1.875    0.000    4.000 
#    0.000    3.750    0.000    0.000    0.000    7.875 
#    0.000   33.000    0.000    0.000    0.000    0.000 
#
# Total GULP energy -396754.592103 kJ/mol
# GULP energy per Si atom -12398.581003 kJ/mol
# Density = 1.723969 g / cm^3
# Si number density = 17.279019 Si / 1000 Ang^3
#
#
#
# Elastic Constant Matrix: (Units=GPa)
#
#
# Indices 1 2 3 4 5 6 
#
# 1 74.2668 47.1618 36.5138 0.0000 3.2035 0.0000
# 2 47.1618 133.1390 42.1305 0.0000 3.9106 0.0000
# 3 36.5138 42.1305 75.8063 0.0001 -4.3994 0.0000
# 4 0.0000 0.0000 0.0001 23.2215 0.0000 2.0143
# 5 3.2035 3.9106 -4.3994 0.0000 22.7256 0.0000
# 6 0.0000 0.0000 0.0000 2.0143 0.0000 25.8140
#
#
#
# Elastic Compliance Matrix: (Units=1/GPa)
#
#
# Indices 1 2 3 4 5 6 
#
# 1 0.020219 -0.004752 -0.007298 0.000000 -0.003445 0.000000
# 2 -0.004752 0.010382 -0.003586 0.000000 -0.001811 0.000000
# 3 -0.007298 -0.003586 0.019009 0.000000 0.005326 0.000000
# 4 0.000000 0.000000 0.000000 0.043357 0.000000 -0.003383
# 5 -0.003445 -0.001811 0.005326 0.000000 0.045832 0.000000
# 6 0.000000 0.000000 0.000000 -0.003383 0.000000 0.039003
#
#
# Mechanical properties :
#
#
# Convention : Reuss Voigt Hill
#
# Bulk Modulus (GPa) = 54.53141 59.42492 56.97816
# Shear Modulus (GPa) = 23.23558 24.84595 24.04076
#
# Velocity S-wave (km/s) = 3.67103 3.79611 3.73410
# Velocity P-wave (km/s) = 7.04248 7.32666 7.18597
#
# Compressibility (1/GPa) = 0.01833806
#
# Stress axis : x y z
#
# Youngs Moduli (GPa) = 49.45791 96.31872 52.60623
#
# Poissons Ratio (x) = 0.45767 0.38393
# Poissons Ratio (y) = 0.23500 0.18867
# Poissons Ratio (z) = 0.36095 0.34544
#
# Static dielectric constant tensor:
#      x y z
#    x 3.162270 0.000000 -0.029010 
#    y 0.000000 3.320600 0.000000 
#    z -0.029010 0.000000 3.199600 
# 
# 
# High freq. dielectric constant tensor:
#      x y z
#    x 1.654230 0.000000 -0.000680 
#    y 0.000000 1.676190 0.000000 
#    z -0.000680 0.000000 1.655100 
# 
# From -- ./inp_files/184947.got.cif
#   From: 2010.06.25/outbox.cif.g09.slc.cpg/sg12_93_cif.got.tgz:184947.got - 2010.06.28 00:19:55.
