data_PCOD8085123
_publ_section_title
;
Structure prediction by ZEFSAII (Michael W. Deem and Ramdas Pophale) SiO2 
 PCOD8085123
Probable space group: C 2/M
;
_chemical_formula_sum "Si O2"
_cell_formula_units_Z 64
_cell_length_a 27.134465
_cell_length_b 9.067972
_cell_length_c 18.540841
_cell_angle_alpha 90.000000
_cell_angle_beta 68.185443
_cell_angle_gamma 90.000000
_cell_volume 4235.376209
_symmetry_space_group_name_H-M "C 2/M"
_symmetry_group_IT_number 12
_symmetry_cell_setting 'monoclinic'
loop_
_space_group_symop_operation_xyz
x,y,z
-x,y,-z
-x,-y,-z
x,-y,z
1/2+x,1/2+y,z
1/2-x,1/2+y,-z
1/2-x,1/2-y,-z
1/2+x,1/2-y,z
loop_
_atom_site_type_symbol
_atom_site_label
_atom_site_fract_x
_atom_site_fract_y
_atom_site_fract_z
Si Si1 0.172215 0.329396 0.523990
Si Si2 0.255428 0.826918 0.386325
Si Si3 0.547924 0.675248 0.390689
Si Si4 0.327123 0.166141 0.922422
Si Si5 0.253345 0.827470 0.226044
Si Si6 0.138919 0.170921 0.229869
Si Si7 0.208508 0.833755 0.927252
Si Si8 0.941956 0.325892 0.464106
O O1 0.183912 0.500000 0.503616
O O2 0.201024 0.243042 0.444268
O O3 0.195286 0.280802 0.589354
O O4 0.109674 0.295550 0.556687
O O5 0.267432 0.772190 0.298856
O O6 0.245507 0.000000 0.390786
O O7 0.543632 0.500000 0.406096
O O8 0.588824 0.714410 0.305495
O O9 0.491045 0.743229 0.398976
O O10 0.567631 0.755178 0.452330
O O11 0.365388 0.240792 0.842682
O O12 0.267451 0.172202 0.926346
O O13 0.346435 0.000000 0.924516
O O14 0.331109 0.251086 0.996337
O O15 0.192079 0.786994 0.244373
O O16 0.292575 0.744181 0.149985
O O17 0.263596 0.000000 0.210313
O O18 0.139050 0.000000 0.209505
O O19 0.188200 0.000000 0.929352
O O20 0.953511 0.500000 0.465742
#
# Coordination Sequence:
#
# PCOD8085123 Si02
#       8
#     8   8   8   8   8   8   8   8
#     4   9  18  30  43  60  82 108 137 170 208 246
#     4   9  17  29  44  61  81 107 139 172 204 240
#     4  10  19  30  44  61  80 105 140 174 204 243
#     4   9  16  25  38  55  76 105 136 162 192 233
#     4   9  16  26  40  57  79 106 135 166 199 235
#     4   9  17  27  39  57  80 105 133 167 202 234
#     4   9  16  25  37  54  78 106 134 163 194 230
#     4  10  19  30  43  59  82 109 136 170 210 246
#
# _framework density 15.110818999999999
#
# number of rings (size 3 to 8) (size 9 to 14) (size 15 to 20)
#    0.000    2.750    0.000    3.000    0.000    6.500 
#    0.000    2.500    0.000    0.000    0.000    0.000 
#    0.000    1.000    0.000   11.500    0.000    3.375 
#
# Total GULP energy -396746.017542 kJ/mol
# GULP energy per Si atom -12398.313048 kJ/mol
# Density = 1.507643 g / cm^3
# Si number density = 15.110819 Si / 1000 Ang^3
#
#
#
# Elastic Constant Matrix: (Units=GPa)
#
#
# Indices 1 2 3 4 5 6 
#
# 1 62.3072 28.8141 41.5075 0.0000 -1.1511 0.0000
# 2 28.8141 79.0472 62.0599 0.0000 -2.7427 0.0000
# 3 41.5075 62.0599 143.5641 0.0000 -1.8620 0.0000
# 4 0.0000 0.0000 0.0000 29.1252 0.0000 -2.4657
# 5 -1.1511 -2.7427 -1.8620 0.0000 18.4894 0.0000
# 6 0.0000 0.0000 0.0000 -2.4657 0.0000 15.3985
#
#
#
# Elastic Compliance Matrix: (Units=1/GPa)
#
#
# Indices 1 2 3 4 5 6 
#
# 1 0.020816 -0.004325 -0.004146 0.000000 0.000237 0.000000
# 2 -0.004325 0.020123 -0.007423 0.000000 0.001968 0.000000
# 3 -0.004146 -0.007423 0.011370 0.000000 -0.000214 0.000000
# 4 0.000000 0.000000 0.000000 0.034806 0.000000 0.005573
# 5 0.000237 0.001968 -0.000214 0.000000 0.054370 0.000000
# 6 0.000000 0.000000 0.000000 0.005573 0.000000 0.065834
#
#
# Mechanical properties :
#
#
# Convention : Reuss Voigt Hill
#
# Bulk Modulus (GPa) = 48.72756 61.07573 54.90164
# Shear Modulus (GPa) = 20.32963 22.77176 21.55069
#
# Velocity S-wave (km/s) = 3.67191 3.88620 3.78057
# Velocity P-wave (km/s) = 7.09183 7.78736 7.44772
#
# Compressibility (1/GPa) = 0.02052227
#
# Stress axis : x y z
#
# Youngs Moduli (GPa) = 48.04090 49.69408 87.94961
#
# Poissons Ratio (x) = 0.21491 0.36461
# Poissons Ratio (y) = 0.20776 0.65284
# Poissons Ratio (z) = 0.19916 0.36888
#
# Static dielectric constant tensor:
#      x y z
#    x 2.684120 0.000000 0.029200 
#    y 0.000000 3.011430 0.000000 
#    z 0.029200 0.000000 2.991730 
# 
# 
# High freq. dielectric constant tensor:
#      x y z
#    x 1.532180 0.000000 -0.000680 
#    y 0.000000 1.590150 0.000000 
#    z -0.000680 0.000000 1.578630 
# 
# From -- ./inp_files/294532.got.cif
#   From: 2010.06.25/outbox.cif.g09.slc.cpg/sg12_148_cif.got.tgz:294532.got - 2010.06.28 00:19:55.
