data_PCOD8085066
_publ_section_title
;
Structure prediction by ZEFSAII (Michael W. Deem and Ramdas Pophale) SiO2 
 PCOD8085066
Probable space group: C 2/M
;
_chemical_formula_sum "Si O2"
_cell_formula_units_Z 64
_cell_length_a 24.234088
_cell_length_b 9.416566
_cell_length_c 16.625802
_cell_angle_alpha 90.000000
_cell_angle_beta 86.973740
_cell_angle_gamma 90.000000
_cell_volume 3788.748420
_symmetry_space_group_name_H-M "C 2/M"
_symmetry_group_IT_number 12
_symmetry_cell_setting 'monoclinic'
loop_
_space_group_symop_operation_xyz
x,y,z
-x,y,-z
-x,-y,-z
x,-y,z
1/2+x,1/2+y,z
1/2-x,1/2+y,-z
1/2-x,1/2-y,-z
1/2+x,1/2-y,z
loop_
_atom_site_type_symbol
_atom_site_label
_atom_site_fract_x
_atom_site_fract_y
_atom_site_fract_z
Si Si1 0.197090 0.662680 0.336491
Si Si2 0.530827 0.665934 0.322236
Si Si3 0.788981 0.664696 0.109279
Si Si4 0.685093 0.332722 0.740110
Si Si5 0.105819 0.339578 0.211379
Si Si6 0.589840 0.331872 0.626339
Si Si7 0.183785 0.662202 0.069800
Si Si8 0.620522 0.333603 0.448516
O O1 0.195991 0.500000 0.364658
O O2 0.258828 0.710829 0.309739
O O3 0.159577 0.688748 0.261559
O O4 0.175456 0.756661 0.412220
O O5 0.528979 0.500000 0.304569
O O6 0.555485 0.738561 0.240383
O O7 0.469975 0.728454 0.343666
O O8 0.568265 0.702243 0.396386
O O9 0.782201 0.500000 0.133043
O O10 0.821294 0.747093 0.176594
O O11 0.728595 0.730163 0.101460
O O12 0.824459 0.683841 0.024828
O O13 0.684000 0.500000 0.759119
O O14 0.634416 0.284237 0.688464
O O15 0.084616 0.500000 0.222904
O O16 0.125203 0.307966 0.118323
O O17 0.585882 0.500000 0.619620
O O18 0.606961 0.272299 0.537737
O O19 0.203182 0.500000 0.087121
O O20 0.633269 0.500000 0.449104
#
# Coordination Sequence:
#
# PCOD8085066 Si02
#       8
#     8   8   8   8   8   8   8   8
#     4   9  17  29  45  66  93 125 155 186 232 286
#     4   9  17  30  49  72  94 117 156 207 243 270
#     4  10  19  29  47  74 100 123 155 196 232 271
#     4  10  19  33  49  64  94 135 164 186 228 291
#     4   9  16  29  48  69  95 124 152 184 231 286
#     4   9  18  32  50  68  89 127 167 194 234 289
#     4   9  17  31  49  71  99 129 155 184 231 287
#     4   9  17  30  49  71  93 117 154 204 246 277
#
# _framework density 16.892122000000001
#
# number of rings (size 3 to 8) (size 9 to 14) (size 15 to 20)
#    0.000    2.750    1.250    0.750    0.000    3.500 
#    0.000    1.875    0.000    3.750    0.000    5.250 
#    0.000    0.000    0.000    0.000    0.000    0.000 
#
# Total GULP energy -396785.804130 kJ/mol
# GULP energy per Si atom -12399.556379 kJ/mol
# Density = 1.685367 g / cm^3
# Si number density = 16.892122 Si / 1000 Ang^3
#
#
#
# Elastic Constant Matrix: (Units=GPa)
#
#
# Indices 1 2 3 4 5 6 
#
# 1 86.8138 37.8919 67.4500 0.0000 -7.0763 0.0000
# 2 37.8919 56.4473 55.2935 0.0000 -6.5451 0.0000
# 3 67.4500 55.2935 136.2775 0.0000 -20.3723 0.0000
# 4 0.0000 0.0000 0.0000 28.2684 0.0000 -5.2735
# 5 -7.0763 -6.5451 -20.3723 0.0000 20.6718 0.0000
# 6 0.0000 0.0000 0.0000 -5.2735 0.0000 19.1201
#
#
#
# Elastic Compliance Matrix: (Units=1/GPa)
#
#
# Indices 1 2 3 4 5 6 
#
# 1 0.020071 -0.006067 -0.007895 0.000000 -0.002832 0.000000
# 2 -0.006067 0.031381 -0.010033 0.000000 -0.002029 0.000000
# 3 -0.007895 -0.010033 0.016932 0.000000 0.010808 0.000000
# 4 0.000000 0.000000 0.000000 0.037294 0.000000 0.010286
# 5 -0.002832 -0.002029 0.010808 0.000000 0.057415 0.000000
# 6 0.000000 0.000000 0.000000 0.010286 0.000000 0.055138
#
#
# Mechanical properties :
#
#
# Convention : Reuss Voigt Hill
#
# Bulk Modulus (GPa) = 49.03715 66.75660 57.89688
# Shear Modulus (GPa) = 18.31370 21.53891 19.92631
#
# Velocity S-wave (km/s) = 3.29622 3.57471 3.43829
# Velocity P-wave (km/s) = 6.60147 7.52617 7.07893
#
# Compressibility (1/GPa) = 0.02039270
#
# Stress axis : x y z
#
# Youngs Moduli (GPa) = 49.82390 31.86625 59.05900
#
# Poissons Ratio (x) = 0.19334 0.46630
# Poissons Ratio (y) = 0.30230 0.59254
# Poissons Ratio (z) = 0.39338 0.31971
#
# Static dielectric constant tensor:
#      x y z
#    x 3.033710 0.000000 -0.176210 
#    y 0.000000 3.061620 0.000000 
#    z -0.176210 0.000000 3.332350 
# 
# 
# High freq. dielectric constant tensor:
#      x y z
#    x 1.626520 0.000000 -0.017180 
#    y 0.000000 1.638190 0.000000 
#    z -0.017180 0.000000 1.655010 
# 
# From -- ./inp_files/287601.got.cif
#   From: 2010.06.25/outbox.cif.g09.slc.cpg/sg12_144_cif.got.tgz:287601.got - 2010.06.28 00:19:55.
