data_PCOD8085259
_publ_section_title
;
Structure prediction by ZEFSAII (Michael W. Deem and Ramdas Pophale) SiO2 
 PCOD8085259
Probable space group: C 2/M
;
_chemical_formula_sum "Si O2"
_cell_formula_units_Z 56
_cell_length_a 31.689247
_cell_length_b 8.860607
_cell_length_c 13.380946
_cell_angle_alpha 90.000000
_cell_angle_beta 114.432649
_cell_angle_gamma 90.000000
_cell_volume 3420.719096
_symmetry_space_group_name_H-M "C 2/M"
_symmetry_group_IT_number 12
_symmetry_cell_setting 'monoclinic'
loop_
_space_group_symop_operation_xyz
x,y,z
-x,y,-z
-x,-y,-z
x,-y,z
1/2+x,1/2+y,z
1/2-x,1/2+y,-z
1/2-x,1/2-y,-z
1/2+x,1/2-y,z
loop_
_atom_site_type_symbol
_atom_site_label
_atom_site_fract_x
_atom_site_fract_y
_atom_site_fract_z
Si Si1 0.996905 0.169866 0.378468
Si Si2 0.763626 0.175005 0.663968
Si Si3 0.180324 0.825150 0.479151
Si Si4 0.223355 0.676253 0.119728
Si Si5 0.096369 0.324237 0.702840
Si Si6 0.318335 0.323695 0.105733
Si Si7 0.090183 0.675759 0.463526
O O1 0.952927 0.269347 0.301979
O O2 0.000000 0.170167 0.500000
O O3 0.043491 0.243121 0.379829
O O4 0.991574 0.000000 0.331811
O O5 0.800508 0.203561 0.612734
O O6 0.716081 0.262870 0.596094
O O7 0.786393 0.237159 0.786978
O O8 0.751110 0.000000 0.662669
O O9 0.132120 0.738000 0.438753
O O10 0.172173 0.000000 0.494428
O O11 0.215775 0.500000 0.129272
O O12 0.275146 0.715353 0.134546
O O13 0.186360 0.734804 0.002867
O O14 0.102739 0.500000 0.732760
O O15 0.135592 0.228314 0.794644
O O16 0.100005 0.289981 0.588995
O O17 0.320682 0.500000 0.084151
O O18 0.083974 0.500000 0.437651
#
# Coordination Sequence:
#
# PCOD8085259 Si02
#       7
#     8   8   8   8   8   8   8
#     4   9  17  29  45  65  91 122 154 188 228 274
#     4  10  20  33  48  67  93 123 155 193 232 270
#     4  10  20  32  47  68  93 123 158 191 227 273
#     4  10  20  33  49  68  92 122 155 192 231 272
#     4  10  19  30  45  67  95 124 155 190 229 273
#     4  10  20  32  47  68  93 122 156 190 228 274
#     4  10  19  30  46  68  95 125 155 190 230 272
#
# _framework density 16.370826999999998
#
# number of rings (size 3 to 8) (size 9 to 14) (size 15 to 20)
#    0.000    2.143    0.000    3.857    0.000    9.143 
#    0.000    0.000    0.000    0.000    0.000    1.000 
#    0.000    8.000    0.000    0.000    0.000    0.000 
#
# Total GULP energy -347316.539086 kJ/mol
# GULP energy per Si atom -12404.162110 kJ/mol
# Density = 1.633357 g / cm^3
# Si number density = 16.370827 Si / 1000 Ang^3
#
#
#
# Elastic Constant Matrix: (Units=GPa)
#
#
# Indices 1 2 3 4 5 6 
#
# 1 79.1585 31.7531 20.9694 0.0000 11.8811 0.0000
# 2 31.7531 53.8634 25.7319 0.0000 -5.5062 0.0000
# 3 20.9694 25.7319 57.7822 0.0000 -0.8233 0.0000
# 4 0.0000 0.0000 0.0000 29.9487 0.0000 4.2160
# 5 11.8811 -5.5062 -0.8233 0.0000 21.3538 0.0000
# 6 0.0000 0.0000 0.0000 4.2160 0.0000 31.2277
#
#
#
# Elastic Compliance Matrix: (Units=1/GPa)
#
#
# Indices 1 2 3 4 5 6 
#
# 1 0.020412 -0.012569 -0.002020 0.000000 -0.014676 0.000000
# 2 -0.012569 0.032031 -0.009491 0.000000 0.014887 0.000000
# 3 -0.002020 -0.009491 0.022259 0.000000 -0.000465 0.000000
# 4 0.000000 0.000000 0.000000 0.034037 0.000000 -0.004595
# 5 -0.014676 0.014887 -0.000465 0.000000 0.058816 0.000000
# 6 0.000000 0.000000 0.000000 -0.004595 0.000000 0.032643
#
#
# Mechanical properties :
#
#
# Convention : Reuss Voigt Hill
#
# Bulk Modulus (GPa) = 37.67341 38.63476 38.15408
# Shear Modulus (GPa) = 19.43969 23.99600 21.71785
#
# Velocity S-wave (km/s) = 3.44969 3.83270 3.64623
# Velocity P-wave (km/s) = 6.23936 6.57549 6.40963
#
# Compressibility (1/GPa) = 0.02654392
#
# Stress axis : x y z
#
# Youngs Moduli (GPa) = 48.98972 31.22003 44.92531
#
# Poissons Ratio (x) = 0.39240 0.09073
# Poissons Ratio (y) = 0.61574 0.42637
# Poissons Ratio (z) = 0.09894 0.29630
#
# Static dielectric constant tensor:
#      x y z
#    x 3.049100 0.000000 0.086780 
#    y 0.000000 3.257740 0.000000 
#    z 0.086780 0.000000 2.878650 
# 
# 
# High freq. dielectric constant tensor:
#      x y z
#    x 1.619010 0.000000 0.012410 
#    y 0.000000 1.652420 0.000000 
#    z 0.012410 0.000000 1.602630 
# 
# From -- ./inp_files/186793.got.cif
#   From: 2010.06.25/outbox.cif.g09.slc.cpg/sg12_94_cif.got.tgz:186793.got - 2010.06.28 00:19:55.
