data_PCOD8085594
_publ_section_title
;
Structure prediction by ZEFSAII (Michael W. Deem and Ramdas Pophale) SiO2 
 PCOD8085594
Probable space group: C 2/M
;
_chemical_formula_sum "Si O2"
_cell_formula_units_Z 64
_cell_length_a 17.362311
_cell_length_b 13.881521
_cell_length_c 23.061088
_cell_angle_alpha 90.000000
_cell_angle_beta 39.237888
_cell_angle_gamma 90.000000
_cell_volume 3515.713526
_symmetry_space_group_name_H-M "C 2/M"
_symmetry_group_IT_number 12
_symmetry_cell_setting 'monoclinic'
loop_
_space_group_symop_operation_xyz
x,y,z
-x,y,-z
-x,-y,-z
x,-y,z
1/2+x,1/2+y,z
1/2-x,1/2+y,-z
1/2-x,1/2-y,-z
1/2+x,1/2-y,z
loop_
_atom_site_type_symbol
_atom_site_label
_atom_site_fract_x
_atom_site_fract_y
_atom_site_fract_z
Si Si1 0.532456 0.109538 0.635083
Si Si2 0.008398 0.223757 0.562969
Si Si3 0.073247 0.109887 0.014966
Si Si4 0.641308 0.108811 0.163929
Si Si5 0.532903 0.112676 0.918723
Si Si6 0.733767 0.613729 0.287700
Si Si7 0.390610 0.770120 0.920984
Si Si8 0.753200 0.112431 0.587177
O O1 0.523204 0.172610 0.583261
O O2 0.406021 0.120329 0.743325
O O3 0.639395 0.146035 0.615199
O O4 0.555385 0.000000 0.601792
O O5 0.126756 0.161409 0.508550
O O6 0.000000 0.241871 0.500000
O O7 0.890629 0.168083 0.656383
O O8 0.214562 0.123550 0.918351
O O9 0.041212 0.000000 0.050747
O O10 0.039744 0.177372 0.090831
O O11 0.000000 0.141206 0.000000
O O12 0.573931 0.191162 0.163920
O O13 0.608653 0.000000 0.160466
O O14 0.659446 0.151945 0.817308
O O15 0.418060 0.138826 0.945857
O O16 0.544607 0.000000 0.917797
O O17 0.500000 0.159626 0.000000
O O18 0.711633 0.500000 0.293553
O O19 0.772195 0.640003 0.331034
O O20 0.250000 0.750000 0.000000
O O21 0.775939 0.000000 0.568731
#
# Coordination Sequence:
#
# PCOD8085594 Si02
#       8
#     8   8   8   8   8   8   8   8
#     4  10  20  33  51  74 101 134 167 200 246 307
#     4  10  20  33  52  77 103 130 163 208 257 305
#     4   9  18  32  49  69  97 134 174 211 247 293
#     4   9  18  33  51  71  94 125 168 212 250 295
#     4  10  20  33  50  74 104 134 165 207 256 300
#     4   9  18  33  53  76 100 129 167 209 253 299
#     4  10  19  30  48  71  95 126 165 208 250 287
#     4   9  17  32  54  76  98 127 166 210 253 299
#
# _framework density 18.203987000000001
#
# number of rings (size 3 to 8) (size 9 to 14) (size 15 to 20)
#    0.000    2.500    0.000    2.250    0.000    7.250 
#    0.000    0.000    0.000    1.500    0.000    3.500 
#    0.000    0.000    0.000    0.000    0.000    0.000 
#
# Total GULP energy -396543.377441 kJ/mol
# GULP energy per Si atom -12391.980545 kJ/mol
# Density = 1.816255 g / cm^3
# Si number density = 18.203987 Si / 1000 Ang^3
#
#
#
# Elastic Constant Matrix: (Units=GPa)
#
#
# Indices 1 2 3 4 5 6 
#
# 1 74.5873 40.4163 35.7911 0.0000 -4.4043 0.0000
# 2 40.4163 66.7443 39.8702 0.0000 2.0116 0.0000
# 3 35.7911 39.8702 98.4043 0.0001 -8.0547 -0.0001
# 4 0.0000 0.0000 0.0001 21.3317 0.0000 4.1811
# 5 -4.4043 2.0116 -8.0547 0.0000 19.6424 0.0000
# 6 0.0000 0.0000 -0.0001 4.1811 0.0000 35.9891
#
#
#
# Elastic Compliance Matrix: (Units=1/GPa)
#
#
# Indices 1 2 3 4 5 6 
#
# 1 0.021120 -0.011318 -0.002704 0.000000 0.004786 0.000000
# 2 -0.011318 0.026422 -0.007262 0.000000 -0.008221 0.000000
# 3 -0.002704 -0.007262 0.014589 0.000000 0.006120 0.000000
# 4 0.000000 0.000000 0.000000 0.047971 0.000000 -0.005573
# 5 0.004786 -0.008221 0.006120 0.000000 0.055335 0.000000
# 6 0.000000 0.000000 0.000000 -0.005573 0.000000 0.028434
#
#
# Mechanical properties :
#
#
# Convention : Reuss Voigt Hill
#
# Bulk Modulus (GPa) = 51.11720 52.43235 51.77478
# Shear Modulus (GPa) = 20.57965 23.63652 22.10809
#
# Velocity S-wave (km/s) = 3.36594 3.60728 3.48870
# Velocity P-wave (km/s) = 6.57627 6.79817 6.68814
#
# Compressibility (1/GPa) = 0.01956289
#
# Stress axis : x y z
#
# Youngs Moduli (GPa) = 47.34817 37.84794 68.54547
#
# Poissons Ratio (x) = 0.42836 0.18537
# Poissons Ratio (y) = 0.53588 0.49775
# Poissons Ratio (z) = 0.12805 0.27484
#
# Static dielectric constant tensor:
#      x y z
#    x 3.440010 0.000000 0.007130 
#    y 0.000000 3.456140 0.000000 
#    z 0.007130 0.000000 3.417860 
# 
# 
# High freq. dielectric constant tensor:
#      x y z
#    x 1.709520 0.000000 -0.005350 
#    y 0.000000 1.700450 0.000000 
#    z -0.005350 0.000000 1.690410 
# 
# From -- ./inp_files/270675.got.cif
#   From: 2010.06.25/outbox.cif.g09.slc.cpg/sg12_136_cif.got.tgz:270675.got - 2010.06.28 00:19:55.
