data_PCOD8085008
_publ_section_title
;
Structure prediction by ZEFSAII (Michael W. Deem and Ramdas Pophale) SiO2 
 PCOD8085008
Probable space group: C 2/M
;
_chemical_formula_sum "Si O2"
_cell_formula_units_Z 48
_cell_length_a 30.173506
_cell_length_b 9.060981
_cell_length_c 10.286117
_cell_angle_alpha 90.000000
_cell_angle_beta 102.434610
_cell_angle_gamma 90.000000
_cell_volume 2746.272034
_symmetry_space_group_name_H-M "C 2/M"
_symmetry_group_IT_number 12
_symmetry_cell_setting 'monoclinic'
loop_
_space_group_symop_operation_xyz
x,y,z
-x,y,-z
-x,-y,-z
x,-y,z
1/2+x,1/2+y,z
1/2-x,1/2+y,-z
1/2-x,1/2-y,-z
1/2+x,1/2-y,z
loop_
_atom_site_type_symbol
_atom_site_label
_atom_site_fract_x
_atom_site_fract_y
_atom_site_fract_z
Si Si1 0.612544 0.172857 0.288131
Si Si2 0.297473 0.333451 0.676268
Si Si3 0.966647 0.828024 0.364187
Si Si4 0.475804 0.329763 0.850133
Si Si5 0.880849 0.673134 0.407012
Si Si6 0.290535 0.333368 0.362930
O O1 0.656370 0.251548 0.253901
O O2 0.568522 0.229346 0.185321
O O3 0.607626 0.213024 0.436764
O O4 0.618348 0.000000 0.270276
O O5 0.298681 0.500000 0.730786
O O6 0.292372 0.332247 0.518871
O O7 0.254932 0.249001 0.713818
O O8 0.920577 0.735329 0.341735
O O9 0.000000 0.776828 0.500000
O O10 0.989461 0.789161 0.242030
O O11 0.954627 0.000000 0.370485
O O12 0.460760 0.500000 0.829831
O O13 0.500000 0.294085 0.000000
O O14 0.875748 0.500000 0.382519
O O15 0.834010 0.748706 0.333160
O O16 0.290101 0.500000 0.308898
#
# Coordination Sequence:
#
# PCOD8085008 Si02
#       6
#     8   8   8   8   8   8
#     4  10  19  30  46  69  97 129 165 203 245 292
#     4   9  16  26  42  64  94 129 163 199 243 292
#     4  10  19  32  51  72  95 127 166 204 246 294
#     4  10  21  36  52  71  97 129 166 207 249 293
#     4  10  19  29  45  70  99 129 163 202 245 291
#     4   9  16  26  41  64  96 129 161 199 244 291
#
# _framework density 17.478238999999999
#
# number of rings (size 3 to 8) (size 9 to 14) (size 15 to 20)
#    0.000    2.333    1.667    2.000    0.000    6.667 
#    0.000    0.000    0.000    0.000    0.000    1.167 
#    0.000    0.000    0.000    0.000    0.000    0.000 
#
# Total GULP energy -297666.015077 kJ/mol
# GULP energy per Si atom -12402.750628 kJ/mol
# Density = 1.743846 g / cm^3
# Si number density = 17.478239 Si / 1000 Ang^3
#
#
#
# Elastic Constant Matrix: (Units=GPa)
#
#
# Indices 1 2 3 4 5 6 
#
# 1 159.5228 81.5030 43.5410 0.0000 19.7550 0.0000
# 2 81.5030 117.2604 31.7856 0.0000 15.2969 0.0000
# 3 43.5410 31.7856 57.8125 0.0000 -0.3822 0.0000
# 4 0.0000 0.0000 0.0000 11.6624 0.0000 8.2106
# 5 19.7550 15.2969 -0.3822 0.0000 16.9548 0.0000
# 6 0.0000 0.0000 0.0000 8.2106 0.0000 41.0913
#
#
#
# Elastic Compliance Matrix: (Units=1/GPa)
#
#
# Indices 1 2 3 4 5 6 
#
# 1 0.011757 -0.005388 -0.005952 0.000000 -0.008972 0.000000
# 2 -0.005388 0.014152 -0.003766 0.000000 -0.006575 0.000000
# 3 -0.005952 -0.003766 0.023922 0.000000 0.010872 0.000000
# 4 0.000000 0.000000 0.000000 0.099783 0.000000 -0.019938
# 5 -0.008972 -0.006575 0.010872 0.000000 0.075611 0.000000
# 6 0.000000 0.000000 0.000000 -0.019938 0.000000 0.028320
#
#
# Mechanical properties :
#
#
# Convention : Reuss Voigt Hill
#
# Bulk Modulus (GPa) = 50.97042 72.02831 61.49936
# Shear Modulus (GPa) = 17.22378 25.79275 21.50826
#
# Velocity S-wave (km/s) = 3.14258 3.84566 3.51176
# Velocity P-wave (km/s) = 6.51101 7.81144 7.19068
#
# Compressibility (1/GPa) = 0.01961922
#
# Stress axis : x y z
#
# Youngs Moduli (GPa) = 85.05447 70.66280 41.80215
#
# Poissons Ratio (x) = 0.38075 0.24879
# Poissons Ratio (y) = 0.45829 0.15743
# Poissons Ratio (z) = 0.50622 0.26612
#
# Static dielectric constant tensor:
#      x y z
#    x 3.343480 0.000000 0.119320 
#    y 0.000000 3.320640 0.000000 
#    z 0.119320 0.000000 2.738620 
# 
# 
# High freq. dielectric constant tensor:
#      x y z
#    x 1.689040 0.000000 0.016830 
#    y 0.000000 1.686870 0.000000 
#    z 0.016830 0.000000 1.611560 
# 
# From -- ./inp_files/185749.got.cif
#   From: 2010.06.25/outbox.cif.g09.slc.cpg/sg12_93_cif.got.tgz:185749.got - 2010.06.28 00:19:55.
