data_PCOD8085048
_publ_section_title
;
Structure prediction by ZEFSAII (Michael W. Deem and Ramdas Pophale) SiO2 
 PCOD8085048
Probable space group: C 2/M
;
_chemical_formula_sum "Si O2"
_cell_formula_units_Z 64
_cell_length_a 23.553640
_cell_length_b 9.257369
_cell_length_c 16.963446
_cell_angle_alpha 90.000000
_cell_angle_beta 94.746331
_cell_angle_gamma 90.000000
_cell_volume 3686.106238
_symmetry_space_group_name_H-M "C 2/M"
_symmetry_group_IT_number 12
_symmetry_cell_setting 'monoclinic'
loop_
_space_group_symop_operation_xyz
x,y,z
-x,y,-z
-x,-y,-z
x,-y,z
1/2+x,1/2+y,z
1/2-x,1/2+y,-z
1/2-x,1/2-y,-z
1/2+x,1/2-y,z
loop_
_atom_site_type_symbol
_atom_site_label
_atom_site_fract_x
_atom_site_fract_y
_atom_site_fract_z
Si Si1 0.352238 0.163161 0.317765
Si Si2 0.237337 0.336876 0.576123
Si Si3 0.189503 0.169548 0.262448
Si Si4 0.578901 0.832894 0.216381
Si Si5 0.381408 0.668676 0.095367
Si Si6 0.719529 0.666976 0.810569
Si Si7 0.545845 0.164814 0.768108
Si Si8 0.063343 0.667538 0.031904
O O1 0.329268 0.184673 0.404644
O O2 0.323642 0.285953 0.262453
O O3 0.420445 0.177864 0.312212
O O4 0.332646 0.000000 0.288719
O O5 0.250290 0.500000 0.554564
O O6 0.250000 0.250000 0.500000
O O7 0.277516 0.289513 0.653430
O O8 0.126719 0.234825 0.261791
O O9 0.222546 0.240052 0.191049
O O10 0.185696 0.000000 0.247971
O O11 0.519582 0.790057 0.252471
O O12 0.573047 0.796479 0.123886
O O13 0.594407 0.000000 0.231801
O O14 0.395603 0.500000 0.093246
O O15 0.314957 0.693847 0.111876
O O16 0.424745 0.738696 0.162451
O O17 0.390474 0.740505 0.011421
O O18 0.735840 0.500000 0.801951
O O19 0.547182 0.000000 0.800162
O O20 0.073191 0.500000 0.014179
O O21 0.000000 0.715645 0.000000
#
# Coordination Sequence:
#
# PCOD8085048 Si02
#       8
#     8   8   8   8   8   8   8   8
#     4   8  15  28  48  74 101 127 160 201 242 285
#     4   9  18  32  52  79 103 126 157 195 241 290
#     4  10  21  36  52  73 101 130 163 201 245 295
#     4  10  20  33  51  73  97 131 170 204 246 296
#     4  10  19  29  46  73  99 125 164 213 256 291
#     4   9  17  30  48  70  96 126 164 206 246 293
#     4   9  16  30  50  70  97 132 167 204 246 290
#     4  10  19  33  49  69  98 131 170 210 249 295
#
# _framework density 17.362494999999999
#
# number of rings (size 3 to 8) (size 9 to 14) (size 15 to 20)
#    0.000    2.625    1.250    1.875    0.000    5.250 
#    0.000    0.625    0.000    0.750    0.000    5.250 
#    0.000    0.000    0.000    0.000    0.000    0.000 
#
# Total GULP energy -396555.485432 kJ/mol
# GULP energy per Si atom -12392.358920 kJ/mol
# Density = 1.732298 g / cm^3
# Si number density = 17.362495 Si / 1000 Ang^3
#
#
#
# Elastic Constant Matrix: (Units=GPa)
#
#
# Indices 1 2 3 4 5 6 
#
# 1 131.8948 55.7887 53.2015 0.0000 -25.1425 0.0000
# 2 55.7887 77.7303 41.0205 0.0000 -11.9651 0.0000
# 3 53.2015 41.0205 74.9210 0.0000 -23.5027 0.0000
# 4 0.0000 0.0000 0.0000 27.2365 0.0000 -3.4008
# 5 -25.1425 -11.9651 -23.5027 0.0000 25.8928 0.0000
# 6 0.0000 0.0000 0.0000 -3.4008 0.0000 28.1455
#
#
#
# Elastic Compliance Matrix: (Units=1/GPa)
#
#
# Indices 1 2 3 4 5 6 
#
# 1 0.012989 -0.006367 -0.003780 0.000000 0.006239 0.000000
# 2 -0.006367 0.021228 -0.008338 0.000000 -0.003941 0.000000
# 3 -0.003780 -0.008338 0.025497 0.000000 0.015619 0.000000
# 4 0.000000 0.000000 0.000000 0.037278 0.000000 0.004504
# 5 0.006239 -0.003941 0.015619 0.000000 0.057035 0.000000
# 6 0.000000 0.000000 0.000000 0.004504 0.000000 0.036074
#
#
# Mechanical properties :
#
#
# Convention : Reuss Voigt Hill
#
# Bulk Modulus (GPa) = 43.96861 64.95193 54.46027
# Shear Modulus (GPa) = 21.30803 25.22399 23.26601
#
# Velocity S-wave (km/s) = 3.50701 3.81568 3.66459
# Velocity P-wave (km/s) = 6.46356 7.54341 7.02427
#
# Compressibility (1/GPa) = 0.02274350
#
# Stress axis : x y z
#
# Youngs Moduli (GPa) = 76.98722 47.10679 39.22078
#
# Poissons Ratio (x) = 0.29994 0.14826
# Poissons Ratio (y) = 0.49020 0.32702
# Poissons Ratio (z) = 0.29103 0.39277
#
# Static dielectric constant tensor:
#      x y z
#    x 3.507360 0.000000 -0.427920 
#    y 0.000000 3.250360 0.000000 
#    z -0.427920 0.000000 2.989660 
# 
# 
# High freq. dielectric constant tensor:
#      x y z
#    x 1.672320 0.000000 -0.036130 
#    y 0.000000 1.675340 0.000000 
#    z -0.036130 0.000000 1.630520 
# 
# From -- ./inp_files/287650.got.cif
#   From: 2010.06.25/outbox.cif.g09.slc.cpg/sg12_144_cif.got.tgz:287650.got - 2010.06.28 00:19:55.
