data_PCOD8085516
_publ_section_title
;
Structure prediction by ZEFSAII (Michael W. Deem and Ramdas Pophale) SiO2 
 PCOD8085516
Probable space group: C 2/M
;
_chemical_formula_sum "Si O2"
_cell_formula_units_Z 48
_cell_length_a 20.385134
_cell_length_b 9.001534
_cell_length_c 23.057671
_cell_angle_alpha 90.000000
_cell_angle_beta 140.149363
_cell_angle_gamma 90.000000
_cell_volume 2711.191577
_symmetry_space_group_name_H-M "C 2/M"
_symmetry_group_IT_number 12
_symmetry_cell_setting 'monoclinic'
loop_
_space_group_symop_operation_xyz
x,y,z
-x,y,-z
-x,-y,-z
x,-y,z
1/2+x,1/2+y,z
1/2-x,1/2+y,-z
1/2-x,1/2-y,-z
1/2+x,1/2-y,z
loop_
_atom_site_type_symbol
_atom_site_label
_atom_site_fract_x
_atom_site_fract_y
_atom_site_fract_z
Si Si1 0.924799 0.176644 0.782496
Si Si2 0.046325 0.669858 0.764955
Si Si3 0.730375 0.329306 0.047110
Si Si4 0.968093 0.328328 0.044215
Si Si5 0.404956 0.665326 0.588790
Si Si6 0.244149 0.664985 0.583629
O O1 0.809643 0.220252 0.683704
O O2 0.009317 0.237801 0.795404
O O3 0.944345 0.249576 0.858009
O O4 0.937146 0.000000 0.793537
O O5 0.009207 0.500000 0.746473
O O6 0.168713 0.680524 0.844516
O O7 0.000945 0.735676 0.674342
O O8 0.699769 0.500000 0.014545
O O9 0.750000 0.250000 0.000000
O O10 0.640708 0.248964 0.020905
O O11 0.959513 0.500000 0.056697
O O12 0.000000 0.308615 0.000000
O O13 0.444223 0.500000 0.601629
O O14 0.321498 0.664063 0.582481
O O15 0.352942 0.730202 0.495044
O O16 0.201109 0.500000 0.565082
#
# Coordination Sequence:
#
# PCOD8085516 Si02
#       6
#     8   8   8   8   8   8
#     4  10  19  31  50  73  98 133 173 213 258 307
#     4  10  19  30  47  72 102 134 167 209 258 307
#     4  11  22  35  55  79 104 137 176 217 262 311
#     4  11  24  39  54  75 105 140 177 218 263 311
#     4   9  16  25  40  65  96 131 166 203 249 301
#     4   8  15  26  40  63  95 129 164 203 251 304
#
# _framework density 17.704393
#
# number of rings (size 3 to 8) (size 9 to 14) (size 15 to 20)
#    0.000    2.167    1.667    3.500    0.000    8.000 
#    0.000    0.000    0.000    0.000    0.000    1.167 
#    0.000    9.333    0.000    0.000    0.000    0.000 
#
# Total GULP energy -297567.340893 kJ/mol
# GULP energy per Si atom -12398.639204 kJ/mol
# Density = 1.766410 g / cm^3
# Si number density = 17.704393 Si / 1000 Ang^3
#
#
#
# Elastic Constant Matrix: (Units=GPa)
#
#
# Indices 1 2 3 4 5 6 
#
# 1 45.8396 39.5474 31.4138 0.0000 0.6149 0.0000
# 2 39.5474 145.3710 78.8893 0.0000 -2.8867 0.0000
# 3 31.4138 78.8893 153.6075 0.0000 -6.5232 0.0000
# 4 0.0000 0.0000 0.0000 35.7234 0.0000 -0.3665
# 5 0.6149 -2.8867 -6.5232 0.0000 13.4660 0.0000
# 6 0.0000 0.0000 0.0000 -0.3665 0.0000 18.7197
#
#
#
# Elastic Compliance Matrix: (Units=1/GPa)
#
#
# Indices 1 2 3 4 5 6 
#
# 1 0.029474 -0.006563 -0.002832 0.000000 -0.004125 0.000000
# 2 -0.006563 0.011000 -0.004282 0.000000 0.000583 0.000000
# 3 -0.002832 -0.004282 0.009449 0.000000 0.003789 0.000000
# 4 0.000000 0.000000 0.000000 0.027998 0.000000 0.000548
# 5 -0.004125 0.000583 0.003789 0.000000 0.076410 0.000000
# 6 0.000000 0.000000 0.000000 0.000548 0.000000 0.053430
#
#
# Mechanical properties :
#
#
# Convention : Reuss Voigt Hill
#
# Bulk Modulus (GPa) = 44.31064 71.61322 57.96193
# Shear Modulus (GPa) = 20.60670 26.57965 23.59317
#
# Velocity S-wave (km/s) = 3.41534 3.87887 3.65446
# Velocity P-wave (km/s) = 6.37457 7.78447 7.11453
#
# Compressibility (1/GPa) = 0.02256794
#
# Stress axis : x y z
#
# Youngs Moduli (GPa) = 33.92874 90.90983 105.82600
#
# Poissons Ratio (x) = 0.59665 0.29970
# Poissons Ratio (y) = 0.22268 0.45318
# Poissons Ratio (z) = 0.09609 0.38931
#
# Static dielectric constant tensor:
#      x y z
#    x 2.890520 0.000000 0.202880 
#    y 0.000000 3.568640 0.000000 
#    z 0.202880 0.000000 3.867830 
# 
# 
# High freq. dielectric constant tensor:
#      x y z
#    x 1.608850 0.000000 0.002210 
#    y 0.000000 1.704650 0.000000 
#    z 0.002210 0.000000 1.707740 
# 
# From -- ./inp_files/345380.got.cif
#   From: 2010.06.25/outbox.cif.g09.slc.cpg/sg12_173_cif.got.tgz:345380.got - 2010.06.28 00:19:55.
