data_PCOD8085519
_publ_section_title
;
Structure prediction by ZEFSAII (Michael W. Deem and Ramdas Pophale) SiO2 
 PCOD8085519
Probable space group: C 2/M
;
_chemical_formula_sum "Si O2"
_cell_formula_units_Z 64
_cell_length_a 30.473086
_cell_length_b 8.707379
_cell_length_c 16.392050
_cell_angle_alpha 90.000000
_cell_angle_beta 132.666713
_cell_angle_gamma 90.000000
_cell_volume 3198.208095
_symmetry_space_group_name_H-M "C 2/M"
_symmetry_group_IT_number 12
_symmetry_cell_setting 'monoclinic'
loop_
_space_group_symop_operation_xyz
x,y,z
-x,y,-z
-x,-y,-z
x,-y,z
1/2+x,1/2+y,z
1/2-x,1/2+y,-z
1/2-x,1/2-y,-z
1/2+x,1/2-y,z
loop_
_atom_site_type_symbol
_atom_site_label
_atom_site_fract_x
_atom_site_fract_y
_atom_site_fract_z
Si Si1 0.694648 0.683204 0.207591
Si Si2 0.690360 0.170114 0.946448
Si Si3 0.679934 0.677085 0.662017
Si Si4 0.193484 0.680368 0.383969
Si Si5 0.891072 0.823544 0.035828
Si Si6 0.884640 0.176920 0.585637
Si Si7 0.599060 0.169275 0.690306
Si Si8 0.018058 0.817726 0.720299
O O1 0.697368 0.500000 0.211912
O O2 0.756409 0.740339 0.243357
O O3 0.686338 0.747709 0.286621
O O4 0.635093 0.742220 0.082908
O O5 0.662402 0.295868 0.969930
O O6 0.654247 0.151339 0.818937
O O7 0.698002 0.000000 0.996388
O O8 0.750000 0.250000 0.000000
O O9 0.688050 0.500000 0.695088
O O10 0.663119 0.699606 0.546293
O O11 0.623994 0.739947 0.643538
O O12 0.202164 0.500000 0.386073
O O13 0.250000 0.750000 0.500000
O O14 0.134665 0.719906 0.362033
O O15 0.949310 0.750858 0.155460
O O16 0.904979 0.000000 0.039582
O O17 0.949550 0.233100 0.638198
O O18 0.887294 0.000000 0.616934
O O19 0.544857 0.252768 0.669471
O O20 0.576880 0.000000 0.634772
O O21 0.026390 0.000000 0.727313
#
# Coordination Sequence:
#
# PCOD8085519 Si02
#       8
#     8   8   8   8   8   8   8   8
#     4  11  22  37  59  88 120 149 184 236 290 344
#     4  10  19  30  47  72 105 146 189 234 283 334
#     4  11  22  35  55  84 116 151 193 239 290 344
#     4  12  24  40  63  89 117 149 185 229 286 344
#     4   9  19  35  56  81 109 146 189 232 281 333
#     4  10  22  40  62  86 113 148 192 240 287 339
#     4  10  21  35  51  77 114 153 193 237 285 338
#     4   9  19  39  62  82 111 153 198 239 280 332
#
# _framework density 20.011206000000001
#
# number of rings (size 3 to 8) (size 9 to 14) (size 15 to 20)
#    0.000    1.750    1.250    3.375    0.000    7.000 
#    0.000    3.125    0.000    3.750    0.000    0.000 
#    0.000    0.000    0.000    0.000    0.000    0.000 
#
# Total GULP energy -396535.137337 kJ/mol
# GULP energy per Si atom -12391.723042 kJ/mol
# Density = 1.996566 g / cm^3
# Si number density = 20.011206 Si / 1000 Ang^3
#
#
#
# Elastic Constant Matrix: (Units=GPa)
#
#
# Indices 1 2 3 4 5 6 
#
# 1 90.7173 26.4452 10.1737 0.0000 -1.8297 0.0000
# 2 26.4452 73.6122 23.2583 0.0000 1.4023 0.0000
# 3 10.1737 23.2583 51.8657 0.0000 -11.3220 0.0000
# 4 0.0000 0.0000 0.0000 20.7415 0.0000 -5.5275
# 5 -1.8297 1.4023 -11.3220 0.0000 29.3161 0.0000
# 6 0.0000 0.0000 0.0000 -5.5275 0.0000 33.8076
#
#
#
# Elastic Compliance Matrix: (Units=1/GPa)
#
#
# Indices 1 2 3 4 5 6 
#
# 1 0.012344 -0.004365 -0.000273 0.000000 0.000874 0.000000
# 2 -0.004365 0.017772 -0.008036 0.000000 -0.004226 0.000000
# 3 -0.000273 -0.008036 0.025137 0.000000 0.010075 0.000000
# 4 0.000000 0.000000 0.000000 0.050409 0.000000 0.008242
# 5 0.000874 -0.004226 0.010075 0.000000 0.038259 0.000000
# 6 0.000000 0.000000 0.000000 0.008242 0.000000 0.030927
#
#
# Mechanical properties :
#
#
# Convention : Reuss Voigt Hill
#
# Bulk Modulus (GPa) = 33.43908 37.32773 35.38340
# Shear Modulus (GPa) = 23.79087 27.19423 25.49255
#
# Velocity S-wave (km/s) = 3.45175 3.69039 3.57306
# Velocity P-wave (km/s) = 5.71249 6.07063 5.89428
#
# Compressibility (1/GPa) = 0.02990513
#
# Stress axis : x y z
#
# Youngs Moduli (GPa) = 81.01141 56.26720 39.78174
#
# Poissons Ratio (x) = 0.24560 0.01087
# Poissons Ratio (y) = 0.35360 0.31969
# Poissons Ratio (z) = 0.02214 0.45217
#
# Static dielectric constant tensor:
#      x y z
#    x 3.393720 0.000000 0.068760 
#    y 0.000000 3.651320 0.000000 
#    z 0.068760 0.000000 3.891110 
# 
# 
# High freq. dielectric constant tensor:
#      x y z
#    x 1.771120 0.000000 -0.000500 
#    y 0.000000 1.778730 0.000000 
#    z -0.000500 0.000000 1.786100 
# 
# From -- ./inp_files/249913.got.cif
#   From: 2010.06.25/outbox.cif.g09.slc.cpg/sg12_125_cif.got.tgz:249913.got - 2010.06.28 00:19:55.
