data_PCOD8085764
_publ_section_title
;
Structure prediction by ZEFSAII (Michael W. Deem and Ramdas Pophale) SiO2 
 PCOD8085764
Probable space group: C 2/M
;
_chemical_formula_sum "Si O2"
_cell_formula_units_Z 64
_cell_length_a 28.268564
_cell_length_b 9.477476
_cell_length_c 14.174923
_cell_angle_alpha 90.000000
_cell_angle_beta 94.064279
_cell_angle_gamma 90.000000
_cell_volume 3788.118833
_symmetry_space_group_name_H-M "C 2/M"
_symmetry_group_IT_number 12
_symmetry_cell_setting 'monoclinic'
loop_
_space_group_symop_operation_xyz
x,y,z
-x,y,-z
-x,-y,-z
x,-y,z
1/2+x,1/2+y,z
1/2-x,1/2+y,-z
1/2-x,1/2-y,-z
1/2+x,1/2-y,z
loop_
_atom_site_type_symbol
_atom_site_label
_atom_site_fract_x
_atom_site_fract_y
_atom_site_fract_z
Si Si1 0.506318 0.164222 0.391468
Si Si2 0.204171 0.162995 0.022939
Si Si3 0.160268 0.160149 0.825782
Si Si4 0.174014 0.835924 0.224598
Si Si5 0.579685 0.665918 0.677181
Si Si6 0.275706 0.161333 0.296447
Si Si7 0.854532 0.337980 0.448285
Si Si8 0.888066 0.338190 0.653975
O O1 0.500000 0.203850 0.500000
O O2 0.471005 0.258025 0.323154
O O3 0.558806 0.204959 0.366075
O O4 0.495165 0.000000 0.373166
O O5 0.162766 0.183320 0.938728
O O6 0.219615 0.000000 0.033685
O O7 0.250000 0.250000 0.000000
O O8 0.183168 0.216501 0.119152
O O9 0.107949 0.197354 0.778729
O O10 0.200751 0.252487 0.784032
O O11 0.172471 0.000000 0.800061
O O12 0.220243 0.800195 0.295053
O O13 0.129312 0.753569 0.260468
O O14 0.161197 0.000000 0.225024
O O15 0.572822 0.500000 0.658006
O O16 0.608584 0.732601 0.594651
O O17 0.301716 0.190072 0.400030
O O18 0.281225 0.000000 0.266146
O O19 0.871043 0.500000 0.431282
O O20 0.854003 0.308606 0.559520
O O21 0.885518 0.500000 0.684768
#
# Coordination Sequence:
#
# PCOD8085764 Si02
#       8
#     8   8   8   8   8   8   8   8
#     4  10  19  35  55  74  98 131 170 209 251 300
#     4  10  19  33  53  76 102 134 169 208 251 295
#     4   9  18  31  49  75 105 131 162 206 250 297
#     4  10  21  34  48  73 105 134 167 210 254 292
#     4  10  19  30  49  79 105 127 161 207 256 298
#     4   9  17  30  49  72 100 134 171 203 239 292
#     4   9  17  32  50  69  99 138 172 201 238 294
#     4  10  21  35  51  71  97 135 174 204 247 303
#
# _framework density 16.894928
#
# number of rings (size 3 to 8) (size 9 to 14) (size 15 to 20)
#    0.000    2.375    2.500    0.375    0.000    3.250 
#    0.000    0.000    0.000    0.750    0.000    5.250 
#    0.000    0.000    0.000    0.000    0.000    0.000 
#
# Total GULP energy -396746.047654 kJ/mol
# GULP energy per Si atom -12398.313989 kJ/mol
# Density = 1.685647 g / cm^3
# Si number density = 16.894928 Si / 1000 Ang^3
#
#
#
# Elastic Constant Matrix: (Units=GPa)
#
#
# Indices 1 2 3 4 5 6 
#
# 1 98.1109 51.0251 60.3883 0.0000 -6.0350 0.0000
# 2 51.0251 64.6825 46.3031 0.0000 -4.2354 0.0000
# 3 60.3883 46.3031 103.3755 0.0000 -6.8088 0.0000
# 4 0.0000 0.0000 0.0000 24.9178 0.0000 -3.5397
# 5 -6.0350 -4.2354 -6.8088 0.0000 24.2837 0.0000
# 6 0.0000 0.0000 0.0000 -3.5397 0.0000 27.5652
#
#
#
# Elastic Compliance Matrix: (Units=1/GPa)
#
#
# Indices 1 2 3 4 5 6 
#
# 1 0.020134 -0.010953 -0.006777 0.000000 0.001193 0.000000
# 2 -0.010953 0.028746 -0.006445 0.000000 0.000484 0.000000
# 3 -0.006777 -0.006445 0.016641 0.000000 0.001858 0.000000
# 4 0.000000 0.000000 0.000000 0.040878 0.000000 0.005249
# 5 0.001193 0.000484 0.001858 0.000000 0.042082 0.000000
# 6 0.000000 0.000000 0.000000 0.005249 0.000000 0.036952
#
#
# Mechanical properties :
#
#
# Convention : Reuss Voigt Hill
#
# Bulk Modulus (GPa) = 58.23854 64.62246 61.43050
# Shear Modulus (GPa) = 20.87625 22.58351 21.72988
#
# Velocity S-wave (km/s) = 3.51900 3.66006 3.59022
# Velocity P-wave (km/s) = 7.14542 7.49627 7.32294
#
# Compressibility (1/GPa) = 0.01717076
#
# Stress axis : x y z
#
# Youngs Moduli (GPa) = 49.66826 34.78702 60.09085
#
# Poissons Ratio (x) = 0.38103 0.40721
# Poissons Ratio (y) = 0.54403 0.38731
# Poissons Ratio (z) = 0.33658 0.22422
#
# Static dielectric constant tensor:
#      x y z
#    x 3.200080 0.000000 0.312010 
#    y 0.000000 3.192650 0.000000 
#    z 0.312010 0.000000 3.131650 
# 
# 
# High freq. dielectric constant tensor:
#      x y z
#    x 1.641970 0.000000 0.020490 
#    y 0.000000 1.653780 0.000000 
#    z 0.020490 0.000000 1.634840 
# 
# From -- ./inp_files/243971.got.cif
#   From: 2010.06.25/outbox.cif.g09.slc.cpg/sg12_122_cif.got.tgz:243971.got - 2010.06.28 00:19:55.
