data_PCOD8085881
_publ_section_title
;
Structure prediction by ZEFSAII (Michael W. Deem and Ramdas Pophale) SiO2 
 PCOD8085881
Probable space group: C 2/M
;
_chemical_formula_sum "Si O2"
_cell_formula_units_Z 36
_cell_length_a 5.325093
_cell_length_b 32.921372
_cell_length_c 11.812255
_cell_angle_alpha 90.000000
_cell_angle_beta 58.395563
_cell_angle_gamma 90.000000
_cell_volume 1763.671211
_symmetry_space_group_name_H-M "C 2/M"
_symmetry_group_IT_number 12
_symmetry_cell_setting 'monoclinic'
loop_
_space_group_symop_operation_xyz
x,y,z
-x,y,-z
-x,-y,-z
x,-y,z
1/2+x,1/2+y,z
1/2-x,1/2+y,-z
1/2-x,1/2-y,-z
1/2+x,1/2-y,z
loop_
_atom_site_type_symbol
_atom_site_label
_atom_site_fract_x
_atom_site_fract_y
_atom_site_fract_z
Si Si1 0.023160 0.146637 0.620284
Si Si2 0.858793 0.592955 0.148302
Si Si3 0.238994 0.046728 0.775889
Si Si4 0.616561 0.266617 0.648535
Si Si5 0.500000 0.921390 0.500000
O O1 0.722581 0.131192 0.751352
O O2 0.000000 0.164811 0.500000
O O3 0.157819 0.184736 0.657231
O O4 0.218411 0.106966 0.563086
O O5 0.570083 0.567115 0.184022
O O6 0.109632 0.566163 0.149730
O O7 0.000000 0.610459 0.000000
O O8 0.473791 0.050599 0.617216
O O9 0.177355 0.000000 0.817218
O O10 0.750000 0.250000 0.500000
O O11 0.268827 0.254965 0.721240
#
# Coordination Sequence:
#
# PCOD8085881 Si02
#       5
#     8   8   8   8   4
#     4  11  20  36  60  83 117 150 190 236 284 339
#     4  11  25  41  59  85 116 155 197 234 285 345
#     4  11  23  39  62  85 116 151 194 245 292 340
#     4  10  19  30  52  85 113 139 182 231 279 326
#     4  10  21  36  56  92 118 148 190 244 296 342
#
# _framework density 20.411968999999999
#
# number of rings (size 3 to 8) (size 9 to 14) (size 15 to 20)
#    0.000    1.333    4.444    3.000    0.000    2.667 
#    0.000    3.333    0.000    1.333    0.000    0.000 
#    0.000    0.000    0.000    0.000    0.000    0.000 
#
# Total GULP energy -223058.700161 kJ/mol
# GULP energy per Si atom -12392.150009 kJ/mol
# Density = 2.036551 g / cm^3
# Si number density = 20.411969 Si / 1000 Ang^3
#
#
#
# Elastic Constant Matrix: (Units=GPa)
#
#
# Indices 1 2 3 4 5 6 
#
# 1 125.7804 18.9163 3.6123 0.0000 10.9999 0.0000
# 2 18.9163 92.4211 18.8386 0.0000 -5.2831 0.0000
# 3 3.6123 18.8386 89.1021 0.0000 11.5973 0.0000
# 4 0.0000 0.0000 0.0000 6.0679 0.0000 -0.0506
# 5 10.9999 -5.2831 11.5973 0.0000 17.7932 0.0000
# 6 0.0000 0.0000 0.0000 -0.0506 0.0000 33.7649
#
#
#
# Elastic Compliance Matrix: (Units=1/GPa)
#
#
# Indices 1 2 3 4 5 6 
#
# 1 0.008889 -0.002428 0.001051 0.000000 -0.006901 0.000000
# 2 -0.002428 0.012461 -0.003511 0.000000 0.007489 0.000000
# 3 0.001051 -0.003511 0.013269 0.000000 -0.010341 0.000000
# 4 0.000000 0.000000 0.000000 0.164805 0.000000 0.000247
# 5 -0.006901 0.007489 -0.010341 0.000000 0.069431 0.000000
# 6 0.000000 0.000000 0.000000 0.000247 0.000000 0.029617
#
#
# Mechanical properties :
#
#
# Convention : Reuss Voigt Hill
#
# Bulk Modulus (GPa) = 40.25305 43.33756 41.79530
# Shear Modulus (GPa) = 15.79641 29.25430 22.52536
#
# Velocity S-wave (km/s) = 2.78489 3.78986 3.32556
# Velocity P-wave (km/s) = 5.48670 6.35832 5.93853
#
# Compressibility (1/GPa) = 0.02484284
#
# Stress axis : x y z
#
# Youngs Moduli (GPa) = 112.49996 80.25189 75.36549
#
# Poissons Ratio (x) = 0.19486 -0.07923
# Poissons Ratio (y) = 0.27316 0.26460
# Poissons Ratio (z) = -0.11827 0.28176
#
# Static dielectric constant tensor:
#      x y z
#    x 4.509490 0.000000 0.192030 
#    y 0.000000 3.650500 0.000000 
#    z 0.192030 0.000000 3.948590 
# 
# 
# High freq. dielectric constant tensor:
#      x y z
#    x 1.805860 0.000000 -0.000870 
#    y 0.000000 1.796840 0.000000 
#    z -0.000870 0.000000 1.765680 
# 
# From -- ./inp_files/115805.got.cif
#   From: 2010.06.25/outbox.cif.g09.slc.cpg/sg12_58_cif.got.tgz:115805.got - 2010.06.28 00:19:55.
