data_PCOD8085023
_publ_section_title
;
Structure prediction by ZEFSAII (Michael W. Deem and Ramdas Pophale) SiO2 
 PCOD8085023
Probable space group: C 2/M
;
_chemical_formula_sum "Si O2"
_cell_formula_units_Z 56
_cell_length_a 9.419571
_cell_length_b 25.380643
_cell_length_c 17.486966
_cell_angle_alpha 90.000000
_cell_angle_beta 128.438856
_cell_angle_gamma 90.000000
_cell_volume 3274.619413
_symmetry_space_group_name_H-M "C 2/M"
_symmetry_group_IT_number 12
_symmetry_cell_setting 'monoclinic'
loop_
_space_group_symop_operation_xyz
x,y,z
-x,y,-z
-x,-y,-z
x,-y,z
1/2+x,1/2+y,z
1/2-x,1/2+y,-z
1/2-x,1/2-y,-z
1/2+x,1/2-y,z
loop_
_atom_site_type_symbol
_atom_site_label
_atom_site_fract_x
_atom_site_fract_y
_atom_site_fract_z
Si Si1 0.764869 0.724346 0.384192
Si Si2 0.390591 0.812048 0.572466
Si Si3 0.110861 0.637763 0.765508
Si Si4 0.950733 0.660940 0.868128
Si Si5 0.090039 0.782672 0.172779
Si Si6 0.064981 0.938567 0.107213
Si Si7 0.791982 0.863397 0.082688
O O1 0.734799 0.781998 0.409324
O O2 0.778015 0.678296 0.455329
O O3 0.607440 0.712120 0.270856
O O4 0.951859 0.728798 0.400154
O O5 0.486596 0.862293 0.645914
O O6 0.969339 0.639530 0.788282
O O7 0.236566 0.690245 0.810622
O O8 0.237659 0.586477 0.809894
O O9 0.934943 0.724012 0.866342
O O10 0.769954 0.638975 0.849189
O O11 0.119949 0.637665 0.970344
O O12 0.909219 0.814092 0.092552
O O13 0.911933 0.916098 0.113037
O O14 0.084817 0.000000 0.129145
O O15 0.000000 0.925502 0.000000
#
# Coordination Sequence:
#
# PCOD8085023 Si02
#       7
#     8   8   8   8   8   8   8
#     4   9  17  27  43  65  97 136 163 191 231 267
#     4   9  17  29  43  67  97 133 164 196 223 286
#     4  10  19  31  50  70  97 132 170 199 238 291
#     4  11  19  31  44  72 104 130 166 197 236 286
#     4  10  19  29  46  68 101 143 162 194 224 290
#     4  10  20  38  56  69  90 125 167 213 258 299
#     4  10  22  32  46  70  98 131 168 203 242 292
#
# _framework density 17.101223000000001
#
# number of rings (size 3 to 8) (size 9 to 14) (size 15 to 20)
#    0.000    2.143    2.857    1.286    2.000    1.143 
#    0.000    2.143    0.000    0.000    0.000   18.000 
#    0.000    0.000    0.000   39.857    0.000    0.000 
#
# Total GULP energy -346909.954936 kJ/mol
# GULP energy per Si atom -12389.641248 kJ/mol
# Density = 1.706230 g / cm^3
# Si number density = 17.101223 Si / 1000 Ang^3
#
#
#
# Elastic Constant Matrix: (Units=GPa)
#
#
# Indices 1 2 3 4 5 6 
#
# 1 95.4391 34.7408 19.9433 0.0000 -18.0893 0.0000
# 2 34.7408 86.8350 26.8801 0.0000 -2.9970 0.0000
# 3 19.9433 26.8801 65.2939 0.0000 -7.4640 0.0000
# 4 0.0000 0.0000 0.0000 17.3430 0.0000 2.1492
# 5 -18.0893 -2.9970 -7.4640 0.0000 19.9186 0.0000
# 6 0.0000 0.0000 0.0000 2.1492 0.0000 12.9290
#
#
#
# Elastic Compliance Matrix: (Units=1/GPa)
#
#
# Indices 1 2 3 4 5 6 
#
# 1 0.014947 -0.005246 -0.000986 0.000000 0.012415 0.000000
# 2 -0.005246 0.015039 -0.005093 0.000000 -0.004410 0.000000
# 3 -0.000986 -0.005093 0.018308 0.000000 0.005198 0.000000
# 4 0.000000 0.000000 0.000000 0.058873 0.000000 -0.009787
# 5 0.012415 -0.004410 0.005198 0.000000 0.062764 0.000000
# 6 0.000000 0.000000 0.000000 -0.009787 0.000000 0.078972
#
#
# Mechanical properties :
#
#
# Convention : Reuss Voigt Hill
#
# Bulk Modulus (GPa) = 38.99775 45.63292 42.31534
# Shear Modulus (GPa) = 17.85071 21.10506 19.47789
#
# Velocity S-wave (km/s) = 3.23434 3.51682 3.37853
# Velocity P-wave (km/s) = 6.06642 6.57516 6.32591
#
# Compressibility (1/GPa) = 0.02564251
#
# Stress axis : x y z
#
# Youngs Moduli (GPa) = 66.90427 66.49245 54.62205
#
# Poissons Ratio (x) = 0.34882 0.05388
# Poissons Ratio (y) = 0.35098 0.27820
# Poissons Ratio (z) = 0.06600 0.33866
#
# Static dielectric constant tensor:
#      x y z
#    x 3.449280 0.000000 -0.096260 
#    y 0.000000 2.757420 0.000000 
#    z -0.096260 0.000000 3.504690 
# 
# 
# High freq. dielectric constant tensor:
#      x y z
#    x 1.676190 0.000000 -0.005830 
#    y 0.000000 1.596730 0.000000 
#    z -0.005830 0.000000 1.662590 
# 
# From -- ./inp_files/259415.got.cif
#   From: 2010.06.25/outbox.cif.g09.slc.cpg/sg12_130_cif.got.tgz:259415.got - 2010.06.28 00:19:55.
