data_PCOD8085421
_publ_section_title
;
Structure prediction by ZEFSAII (Michael W. Deem and Ramdas Pophale) SiO2 
 PCOD8085421
Probable space group: C 2/M
;
_chemical_formula_sum "Si O2"
_cell_formula_units_Z 64
_cell_length_a 24.815917
_cell_length_b 9.193137
_cell_length_c 17.381523
_cell_angle_alpha 90.000000
_cell_angle_beta 103.476876
_cell_angle_gamma 90.000000
_cell_volume 3856.163559
_symmetry_space_group_name_H-M "C 2/M"
_symmetry_group_IT_number 12
_symmetry_cell_setting 'monoclinic'
loop_
_space_group_symop_operation_xyz
x,y,z
-x,y,-z
-x,-y,-z
x,-y,z
1/2+x,1/2+y,z
1/2-x,1/2+y,-z
1/2-x,1/2-y,-z
1/2+x,1/2-y,z
loop_
_atom_site_type_symbol
_atom_site_label
_atom_site_fract_x
_atom_site_fract_y
_atom_site_fract_z
Si Si1 0.319877 0.670514 0.916638
Si Si2 0.217164 0.165786 0.666239
Si Si3 0.296087 0.168345 0.188630
Si Si4 0.901597 0.165744 0.806807
Si Si5 0.340679 0.828530 0.658226
Si Si6 0.127365 0.330115 0.926418
Si Si7 0.516933 0.667250 0.921157
Si Si8 0.807290 0.830877 0.508199
O O1 0.318039 0.500000 0.935396
O O2 0.261179 0.728795 0.866012
O O3 0.367264 0.708221 0.871016
O O4 0.332878 0.756450 0.998282
O O5 0.190435 0.257081 0.725860
O O6 0.280197 0.216359 0.670001
O O7 0.178072 0.185073 0.577609
O O8 0.218356 0.000000 0.693564
O O9 0.346737 0.199593 0.148552
O O10 0.288294 0.000000 0.203444
O O11 0.886968 0.273185 0.732581
O O12 0.966217 0.185456 0.845824
O O13 0.887831 0.000000 0.778333
O O14 0.351133 0.748063 0.579435
O O15 0.346460 0.000000 0.647679
O O16 0.123929 0.500000 0.943938
O O17 0.066374 0.263594 0.905209
O O18 0.536766 0.500000 0.933571
O O19 0.500000 0.723176 0.000000
O O20 0.750000 0.750000 0.500000
O O21 0.801451 0.000000 0.528751
#
# Coordination Sequence:
#
# PCOD8085421 Si02
#       8
#     8   8   8   8   8   8   8   8
#     4  10  19  34  52  70  96 133 168 202 245 293
#     4   9  18  30  46  71 100 131 165 199 237 286
#     4  10  21  34  49  71 100 133 168 200 243 299
#     4  10  19  32  53  74  95 129 168 205 247 292
#     4  10  19  30  46  73 104 131 163 200 245 297
#     4  11  23  35  49  73  99 128 167 210 251 291
#     4  10  20  37  55  71  92 126 171 209 247 298
#     4   9  17  29  45  69 100 132 166 200 240 292
#
# _framework density 16.596806999999998
#
# number of rings (size 3 to 8) (size 9 to 14) (size 15 to 20)
#    0.000    2.125    2.500    2.250    0.000    5.250 
#    0.000    0.000    0.000    0.000    0.000    0.875 
#    0.000    7.000    0.000    0.000    0.000    0.000 
#
# Total GULP energy -396809.900506 kJ/mol
# GULP energy per Si atom -12400.309391 kJ/mol
# Density = 1.655903 g / cm^3
# Si number density = 16.596807 Si / 1000 Ang^3
#
#
#
# Elastic Constant Matrix: (Units=GPa)
#
#
# Indices 1 2 3 4 5 6 
#
# 1 62.4532 34.1186 31.5728 0.0000 -9.0507 0.0000
# 2 34.1186 85.5690 64.2620 0.0000 -3.9354 0.0000
# 3 31.5728 64.2620 117.8855 0.0000 -0.9792 0.0000
# 4 0.0000 0.0000 0.0000 33.8994 0.0000 0.8196
# 5 -9.0507 -3.9354 -0.9792 0.0000 14.8364 0.0000
# 6 0.0000 0.0000 0.0000 0.8196 0.0000 23.5810
#
#
#
# Elastic Compliance Matrix: (Units=1/GPa)
#
#
# Indices 1 2 3 4 5 6 
#
# 1 0.022557 -0.006751 -0.002263 0.000000 0.011821 0.000000
# 2 -0.006751 0.022118 -0.010240 0.000000 0.001073 0.000000
# 3 -0.002263 -0.010240 0.014645 0.000000 -0.003130 0.000000
# 4 0.000000 0.000000 0.000000 0.029524 0.000000 -0.001026
# 5 0.011821 0.001073 -0.003130 0.000000 0.074691 0.000000
# 6 0.000000 0.000000 0.000000 -0.001026 0.000000 0.042443
#
#
# Mechanical properties :
#
#
# Convention : Reuss Voigt Hill
#
# Bulk Modulus (GPa) = 48.04923 58.42384 53.23654
# Shear Modulus (GPa) = 19.88687 23.52697 21.70692
#
# Velocity S-wave (km/s) = 3.46531 3.76913 3.62041
# Velocity P-wave (km/s) = 6.71006 7.36343 7.04432
#
# Compressibility (1/GPa) = 0.02081199
#
# Stress axis : x y z
#
# Youngs Moduli (GPa) = 44.33164 45.21276 68.28313
#
# Poissons Ratio (x) = 0.30523 0.15454
# Poissons Ratio (y) = 0.29928 0.69921
# Poissons Ratio (z) = 0.10033 0.46297
#
# Static dielectric constant tensor:
#      x y z
#    x 2.843930 0.000000 0.076270 
#    y 0.000000 3.150850 0.000000 
#    z 0.076270 0.000000 3.412100 
# 
# 
# High freq. dielectric constant tensor:
#      x y z
#    x 1.600100 0.000000 0.006520 
#    y 0.000000 1.645320 0.000000 
#    z 0.006520 0.000000 1.644650 
# 
# From -- ./inp_files/244015.got.cif
#   From: 2010.06.25/outbox.cif.g09.slc.cpg/sg12_123_cif.got.tgz:244015.got - 2010.06.28 00:19:55.
