data_PCOD8085434
_publ_section_title
;
Structure prediction by ZEFSAII (Michael W. Deem and Ramdas Pophale) SiO2 
 PCOD8085434
Probable space group: C 2/M
;
_chemical_formula_sum "Si O2"
_cell_formula_units_Z 64
_cell_length_a 24.598789
_cell_length_b 9.147692
_cell_length_c 18.858541
_cell_angle_alpha 90.000000
_cell_angle_beta 62.577221
_cell_angle_gamma 90.000000
_cell_volume 3766.747208
_symmetry_space_group_name_H-M "C 2/M"
_symmetry_group_IT_number 12
_symmetry_cell_setting 'monoclinic'
loop_
_space_group_symop_operation_xyz
x,y,z
-x,y,-z
-x,-y,-z
x,-y,z
1/2+x,1/2+y,z
1/2-x,1/2+y,-z
1/2-x,1/2-y,-z
1/2+x,1/2-y,z
loop_
_atom_site_type_symbol
_atom_site_label
_atom_site_fract_x
_atom_site_fract_y
_atom_site_fract_z
Si Si1 0.775100 0.832862 0.551826
Si Si2 0.756604 0.670705 0.704002
Si Si3 0.941795 0.840568 0.985005
Si Si4 0.414877 0.666567 0.497974
Si Si5 0.990142 0.827212 0.679077
Si Si6 0.977710 0.825105 0.184225
Si Si7 0.394114 0.828736 0.651811
Si Si8 0.368009 0.325954 0.154540
O O1 0.750000 0.750000 0.500000
O O2 0.747034 0.760154 0.638269
O O3 0.847846 0.818022 0.505963
O O4 0.753692 0.000000 0.562313
O O5 0.751964 0.500000 0.687702
O O6 0.821816 0.707588 0.700463
O O7 0.702069 0.720444 0.789261
O O8 0.889631 0.759548 0.064577
O O9 0.916227 0.000000 0.978563
O O10 0.000000 0.860219 0.000000
O O11 0.965661 0.761644 0.898411
O O12 0.428521 0.500000 0.512985
O O13 0.460793 0.719800 0.409534
O O14 0.423235 0.766609 0.561856
O O15 0.926019 0.748762 0.699545
O O16 0.014170 0.768546 0.740480
O O17 0.979726 0.000000 0.687037
O O18 0.912558 0.770045 0.191471
O O19 0.979710 0.000000 0.180594
O O20 0.406768 0.000000 0.646532
O O21 0.374275 0.500000 0.146135
#
# Coordination Sequence:
#
# PCOD8085434 Si02
#       8
#     8   8   8   8   8   8   8   8
#     4  10  20  32  46  65  93 124 149 183 226 268
#     4   9  18  31  48  67  88 119 156 187 222 268
#     4   7  10  19  36  64  95 116 136 175 228 269
#     4   9  19  33  48  65  85 115 156 191 223 265
#     4  10  19  30  47  68  88 116 151 189 227 268
#     4   8  14  23  40  68  96 115 140 182 231 271
#     4  10  20  33  46  63  88 119 154 191 228 264
#     4   8  13  23  44  68  92 118 145 181 223 270
#
# _framework density 16.990787999999998
#
# number of rings (size 3 to 8) (size 9 to 14) (size 15 to 20)
#    0.000    3.125    0.000    2.625    1.750    3.000 
#    0.000    0.000    0.000    0.750    0.000    0.875 
#    0.000    3.000    0.000    0.000    0.000    0.375 
#
# Total GULP energy -396522.836847 kJ/mol
# GULP energy per Si atom -12391.338651 kJ/mol
# Density = 1.695212 g / cm^3
# Si number density = 16.990788 Si / 1000 Ang^3
#
#
#
# Elastic Constant Matrix: (Units=GPa)
#
#
# Indices 1 2 3 4 5 6 
#
# 1 72.7179 18.9649 60.0505 0.0000 -1.3771 -0.0001
# 2 18.9649 32.6345 22.9486 0.0000 -2.0918 -0.0004
# 3 60.0505 22.9486 127.6146 0.0000 -16.1802 0.0000
# 4 0.0000 0.0000 0.0000 10.1533 0.0000 0.0908
# 5 -1.3771 -2.0918 -16.1802 0.0000 22.3589 0.0000
# 6 -0.0001 -0.0004 0.0000 0.0908 0.0000 23.0505
#
#
#
# Elastic Compliance Matrix: (Units=1/GPa)
#
#
# Indices 1 2 3 4 5 6 
#
# 1 0.024786 -0.006890 -0.011354 0.000000 -0.007335 0.000000
# 2 -0.006890 0.037034 -0.003338 0.000000 0.000624 0.000001
# 3 -0.011354 -0.003338 0.015030 0.000000 0.009865 0.000000
# 4 0.000000 0.000000 0.000000 0.098493 0.000000 -0.000388
# 5 -0.007335 0.000624 0.009865 0.000000 0.051471 0.000000
# 6 0.000000 0.000001 0.000000 -0.000388 0.000000 0.043385
#
#
# Mechanical properties :
#
#
# Convention : Reuss Voigt Hill
#
# Bulk Modulus (GPa) = 29.68681 48.54390 39.11535
# Shear Modulus (GPa) = 15.40392 19.84607 17.62499
#
# Velocity S-wave (km/s) = 3.01425 3.42138 3.22425
# Velocity P-wave (km/s) = 5.44284 6.65136 6.07721
#
# Compressibility (1/GPa) = 0.03368500
#
# Stress axis : x y z
#
# Youngs Moduli (GPa) = 40.34492 27.00227 66.53263
#
# Poissons Ratio (x) = 0.18604 0.75544
# Poissons Ratio (y) = 0.27797 0.22212
# Poissons Ratio (z) = 0.45810 0.09015
#
# Static dielectric constant tensor:
#      x y z
#    x 3.223520 0.000000 -0.001510 
#    y 0.000000 2.856560 0.000000 
#    z -0.001510 0.000000 3.872220 
# 
# 
# High freq. dielectric constant tensor:
#      x y z
#    x 1.642330 0.000000 -0.006990 
#    y 0.000000 1.614450 0.000000 
#    z -0.006990 0.000000 1.659060 
# 
# From -- ./inp_files/323614.got.cif
#   From: 2010.06.25/outbox.cif.g09.slc.cpg/sg12_162_cif.got.tgz:323614.got - 2010.06.28 00:19:55.
