data_PCOD8085789
_publ_section_title
;
Structure prediction by ZEFSAII (Michael W. Deem and Ramdas Pophale) SiO2 
 PCOD8085789
Probable space group: C 2/M
;
_chemical_formula_sum "Si O2"
_cell_formula_units_Z 64
_cell_length_a 24.982095
_cell_length_b 9.052315
_cell_length_c 15.974753
_cell_angle_alpha 90.000000
_cell_angle_beta 69.891305
_cell_angle_gamma 90.000000
_cell_volume 3392.405226
_symmetry_space_group_name_H-M "C 2/M"
_symmetry_group_IT_number 12
_symmetry_cell_setting 'monoclinic'
loop_
_space_group_symop_operation_xyz
x,y,z
-x,y,-z
-x,-y,-z
x,-y,z
1/2+x,1/2+y,z
1/2-x,1/2+y,-z
1/2-x,1/2-y,-z
1/2+x,1/2-y,z
loop_
_atom_site_type_symbol
_atom_site_label
_atom_site_fract_x
_atom_site_fract_y
_atom_site_fract_z
Si Si1 0.009399 0.173604 0.191585
Si Si2 0.478839 0.325590 0.631772
Si Si3 0.778954 0.673197 0.235534
Si Si4 0.277128 0.328657 0.065053
Si Si5 0.282243 0.675567 0.559869
Si Si6 0.909771 0.672581 0.166374
Si Si7 0.910116 0.169764 0.999678
Si Si8 0.409206 0.675319 0.516172
O O1 0.035951 0.221913 0.266216
O O2 0.948452 0.252273 0.215986
O O3 0.998315 0.000000 0.193768
O O4 0.054824 0.226582 0.098915
O O5 0.480867 0.500000 0.619292
O O6 0.542441 0.267848 0.574276
O O7 0.429333 0.265255 0.596986
O O8 0.771868 0.500000 0.221317
O O9 0.756736 0.757270 0.164213
O O10 0.744429 0.722808 0.336320
O O11 0.844446 0.716181 0.218094
O O12 0.259648 0.500000 0.075173
O O13 0.344119 0.306146 0.016898
O O14 0.250000 0.250000 0.000000
O O15 0.278237 0.500000 0.550597
O O16 0.250000 0.750000 0.500000
O O17 0.347088 0.737521 0.525029
O O18 0.919582 0.500000 0.163611
O O19 0.930951 0.733328 0.065922
O O20 0.924009 0.000000 0.013016
O O21 0.403709 0.500000 0.520123
#
# Coordination Sequence:
#
# PCOD8085789 Si02
#       8
#     8   8   8   8   8   8   8   8
#     4  10  19  30  50  77 100 126 166 214 258 302
#     4   8  15  28  48  75 101 127 164 211 258 305
#     4   9  20  37  52  73 106 143 181 218 262 317
#     4  10  20  35  56  79 105 139 176 217 265 317
#     4  10  21  35  55  81 108 140 178 223 272 320
#     4  10  20  33  49  69 101 139 170 205 255 310
#     4   9  19  34  49  71 101 132 170 212 256 303
#     4   8  15  30  50  73 102 131 165 210 259 307
#
# _framework density 18.865670999999999
#
# number of rings (size 3 to 8) (size 9 to 14) (size 15 to 20)
#    0.000    2.750    0.000    1.875    1.750    4.500 
#    0.000    3.750    0.000    0.750    0.000    1.750 
#    0.000    0.000    0.000    0.000    0.000    0.000 
#
# Total GULP energy -396689.947077 kJ/mol
# GULP energy per Si atom -12396.560846 kJ/mol
# Density = 1.882273 g / cm^3
# Si number density = 18.865671 Si / 1000 Ang^3
#
#
#
# Elastic Constant Matrix: (Units=GPa)
#
#
# Indices 1 2 3 4 5 6 
#
# 1 115.4968 26.7536 58.2519 0.0000 11.0222 0.0000
# 2 26.7536 40.3014 28.1192 0.0000 8.0080 0.0000
# 3 58.2519 28.1192 117.6449 0.0000 8.8752 0.0000
# 4 0.0000 0.0000 0.0000 20.3965 0.0000 4.9290
# 5 11.0222 8.0080 8.8752 0.0000 28.9239 0.0000
# 6 0.0000 0.0000 0.0000 4.9290 0.0000 27.5002
#
#
#
# Elastic Compliance Matrix: (Units=1/GPa)
#
#
# Indices 1 2 3 4 5 6 
#
# 1 0.012339 -0.004366 -0.004916 0.000000 -0.001985 0.000000
# 2 -0.004366 0.032453 -0.005162 0.000000 -0.005737 0.000000
# 3 -0.004916 -0.005162 0.012201 0.000000 -0.000441 0.000000
# 4 0.000000 0.000000 0.000000 0.051248 0.000000 -0.009185
# 5 -0.001985 -0.005737 -0.000441 0.000000 0.037054 0.000000
# 6 0.000000 0.000000 0.000000 -0.009185 0.000000 0.038010
#
#
# Mechanical properties :
#
#
# Convention : Reuss Voigt Hill
#
# Bulk Modulus (GPa) = 35.58176 55.52141 45.55158
# Shear Modulus (GPa) = 22.56708 26.05201 24.30955
#
# Velocity S-wave (km/s) = 3.46236 3.72011 3.59355
# Velocity P-wave (km/s) = 5.90639 6.92431 6.43551
#
# Compressibility (1/GPa) = 0.02810429
#
# Stress axis : x y z
#
# Youngs Moduli (GPa) = 81.04688 30.81342 81.95731
#
# Poissons Ratio (x) = 0.13454 0.40291
# Poissons Ratio (y) = 0.35388 0.42307
# Poissons Ratio (z) = 0.39843 0.15906
#
# Static dielectric constant tensor:
#      x y z
#    x 3.636150 0.000000 0.035390 
#    y 0.000000 3.167270 0.000000 
#    z 0.035390 0.000000 3.640960 
# 
# 
# High freq. dielectric constant tensor:
#      x y z
#    x 1.737480 0.000000 0.004590 
#    y 0.000000 1.698860 0.000000 
#    z 0.004590 0.000000 1.739480 
# 
# From -- ./inp_files/243763.got.cif
#   From: 2010.06.25/outbox.cif.g09.slc.cpg/sg12_122_cif.got.tgz:243763.got - 2010.06.28 00:19:55.
