data_PCOD8085074
_publ_section_title
;
Structure prediction by ZEFSAII (Michael W. Deem and Ramdas Pophale) SiO2 
 PCOD8085074
Probable space group: C 2/M
;
_chemical_formula_sum "Si O2"
_cell_formula_units_Z 56
_cell_length_a 25.278563
_cell_length_b 8.956345
_cell_length_c 16.894497
_cell_angle_alpha 90.000000
_cell_angle_beta 59.266439
_cell_angle_gamma 90.000000
_cell_volume 3287.767970
_symmetry_space_group_name_H-M "C 2/M"
_symmetry_group_IT_number 12
_symmetry_cell_setting 'monoclinic'
loop_
_space_group_symop_operation_xyz
x,y,z
-x,y,-z
-x,-y,-z
x,-y,z
1/2+x,1/2+y,z
1/2-x,1/2+y,-z
1/2-x,1/2-y,-z
1/2+x,1/2-y,z
loop_
_atom_site_type_symbol
_atom_site_label
_atom_site_fract_x
_atom_site_fract_y
_atom_site_fract_z
Si Si1 0.082487 0.824707 0.090936
Si Si2 0.843124 0.325292 0.391058
Si Si3 0.771625 0.673973 0.597171
Si Si4 0.259112 0.175206 0.780056
Si Si5 0.694377 0.177404 0.090104
Si Si6 0.878402 0.177144 0.110972
Si Si7 0.442944 0.324411 0.219210
O O1 0.129128 0.734417 0.109917
O O2 0.014438 0.783448 0.172141
O O3 0.096794 0.000000 0.087940
O O4 0.088785 0.772674 0.995133
O O5 0.849077 0.500000 0.373338
O O6 0.826883 0.285695 0.494937
O O7 0.789626 0.264962 0.375455
O O8 0.907789 0.249749 0.319979
O O9 0.754008 0.500000 0.603721
O O10 0.791820 0.715978 0.671413
O O11 0.299699 0.231238 0.822859
O O12 0.190491 0.245028 0.835252
O O13 0.250848 0.000000 0.794740
O O14 0.698395 0.000000 0.077968
O O15 0.750000 0.250000 0.000000
O O16 0.916461 0.240373 0.156648
O O17 0.877509 0.000000 0.117464
O O18 0.432535 0.500000 0.231630
#
# Coordination Sequence:
#
# PCOD8085074 Si02
#       7
#     8   8   8   8   8   8   8
#     4  10  20  34  51  73  98 130 171 204 236 283
#     4  10  19  29  47  75 104 126 154 201 250 293
#     4   9  17  32  51  71  96 129 165 199 239 288
#     4   9  16  29  52  73  94 126 166 202 234 283
#     4  11  21  34  52  73  98 130 165 205 244 283
#     4   9  15  28  50  74  97 127 166 201 230 280
#     4  10  19  32  52  72  98 135 167 196 236 293
#
# _framework density 17.032831999999999
#
# number of rings (size 3 to 8) (size 9 to 14) (size 15 to 20)
#    0.000    2.286    2.857    1.286    0.000    2.857 
#    0.000    3.571    0.000    2.571    0.000    6.000 
#    0.000    0.000    0.000    0.000    0.000    0.000 
#
# Total GULP energy -347120.792248 kJ/mol
# GULP energy per Si atom -12397.171152 kJ/mol
# Density = 1.699406 g / cm^3
# Si number density = 17.032832 Si / 1000 Ang^3
#
#
#
# Elastic Constant Matrix: (Units=GPa)
#
#
# Indices 1 2 3 4 5 6 
#
# 1 117.6691 40.5397 75.9381 0.0000 1.5492 0.0002
# 2 40.5397 41.9283 42.3754 0.0000 -1.7914 0.0004
# 3 75.9381 42.3754 154.4932 0.0000 1.6834 0.0000
# 4 0.0000 0.0000 0.0000 25.0182 0.0000 -2.7965
# 5 1.5492 -1.7914 1.6834 0.0000 27.8159 0.0000
# 6 0.0002 0.0004 0.0000 -2.7965 0.0000 24.7623
#
#
#
# Elastic Compliance Matrix: (Units=1/GPa)
#
#
# Indices 1 2 3 4 5 6 
#
# 1 0.014848 -0.009745 -0.004613 0.000000 -0.001175 0.000000
# 2 -0.009745 0.039593 -0.006108 0.000000 0.003462 -0.000001
# 3 -0.004613 -0.006108 0.010424 0.000000 -0.000767 0.000000
# 4 0.000000 0.000000 0.000000 0.040482 0.000000 0.004572
# 5 -0.001175 0.003462 -0.000767 0.000000 0.036286 0.000000
# 6 0.000000 -0.000001 0.000000 0.004572 0.000000 0.040900
#
#
# Mechanical properties :
#
#
# Convention : Reuss Voigt Hill
#
# Bulk Modulus (GPa) = 41.78059 70.19967 55.99013
# Shear Modulus (GPa) = 21.60387 25.86844 23.73615
#
# Velocity S-wave (km/s) = 3.56528 3.90133 3.73708
# Velocity P-wave (km/s) = 6.44445 7.84841 7.18083
#
# Compressibility (1/GPa) = 0.02393456
#
# Stress axis : x y z
#
# Youngs Moduli (GPa) = 67.34993 25.25708 95.93583
#
# Poissons Ratio (x) = 0.24612 0.44251
# Poissons Ratio (y) = 0.65629 0.58596
# Poissons Ratio (z) = 0.31065 0.15426
#
# Static dielectric constant tensor:
#      x y z
#    x 3.185870 0.000000 0.135980 
#    y 0.000000 2.952450 0.000000 
#    z 0.135980 0.000000 3.418050 
# 
# 
# High freq. dielectric constant tensor:
#      x y z
#    x 1.637840 0.000000 0.005380 
#    y 0.000000 1.631950 0.000000 
#    z 0.005380 0.000000 1.665470 
# 
# From -- ./inp_files/287401.got.cif
#   From: 2010.06.25/outbox.cif.g09.slc.cpg/sg12_144_cif.got.tgz:287401.got - 2010.06.28 00:19:55.
