data_PCOD8085405
_publ_section_title
;
Structure prediction by ZEFSAII (Michael W. Deem and Ramdas Pophale) SiO2 
 PCOD8085405
Probable space group: C 2/M
;
_chemical_formula_sum "Si O2"
_cell_formula_units_Z 64
_cell_length_a 31.414237
_cell_length_b 9.098816
_cell_length_c 14.226196
_cell_angle_alpha 90.000000
_cell_angle_beta 116.393550
_cell_angle_gamma 90.000000
_cell_volume 3642.442700
_symmetry_space_group_name_H-M "C 2/M"
_symmetry_group_IT_number 12
_symmetry_cell_setting 'monoclinic'
loop_
_space_group_symop_operation_xyz
x,y,z
-x,y,-z
-x,-y,-z
x,-y,z
1/2+x,1/2+y,z
1/2-x,1/2+y,-z
1/2-x,1/2-y,-z
1/2+x,1/2-y,z
loop_
_atom_site_type_symbol
_atom_site_label
_atom_site_fract_x
_atom_site_fract_y
_atom_site_fract_z
Si Si1 0.116193 0.326836 0.590377
Si Si2 0.523346 0.168637 0.383448
Si Si3 0.065217 0.168251 0.916883
Si Si4 0.706031 0.330297 0.347804
Si Si5 0.387542 0.668358 0.849447
Si Si6 0.572542 0.673365 0.712556
Si Si7 0.802479 0.829433 0.444974
Si Si8 0.470850 0.831177 0.828170
O O1 0.123142 0.500000 0.607643
O O2 0.068503 0.284595 0.488275
O O3 0.112771 0.252947 0.689862
O O4 0.160598 0.262530 0.578961
O O5 0.479378 0.270345 0.370015
O O6 0.537344 0.194756 0.289804
O O7 0.508502 0.000000 0.387795
O O8 0.082277 0.220213 0.830510
O O9 0.019720 0.256956 0.909538
O O10 0.048768 0.000000 0.894605
O O11 0.107941 0.190354 0.033338
O O12 0.721444 0.500000 0.351162
O O13 0.664938 0.284746 0.234400
O O14 0.750057 0.226284 0.367261
O O15 0.687211 0.301944 0.434873
O O16 0.397055 0.500000 0.830056
O O17 0.425889 0.766285 0.835795
O O18 0.575765 0.500000 0.700194
O O19 0.806624 0.000000 0.422556
O O20 0.474957 0.000000 0.859286
#
# Coordination Sequence:
#
# PCOD8085405 Si02
#       8
#     8   8   8   8   8   8   8   8
#     4  11  21  33  51  72  97 130 165 200 240 288
#     4   9  19  33  47  68 100 134 164 196 239 288
#     4   9  19  34  49  67  96 133 167 201 241 282
#     4   9  19  35  54  76 101 128 157 192 238 290
#     4  10  19  32  51  72  96 129 166 199 236 287
#     4  10  20  33  49  70  97 129 166 206 243 280
#     4  10  20  34  53  77 103 127 154 193 240 290
#     4  10  19  30  46  71 102 132 163 200 239 282
#
# _framework density 17.570627000000002
#
# number of rings (size 3 to 8) (size 9 to 14) (size 15 to 20)
#    0.000    2.250    0.000    3.000    0.000    6.500 
#    0.000    0.000    0.000    0.750    0.000    0.000 
#    0.000    0.000    0.000    0.000    0.000    0.000 
#
# Total GULP energy -396877.204403 kJ/mol
# GULP energy per Si atom -12402.412638 kJ/mol
# Density = 1.753064 g / cm^3
# Si number density = 17.570627 Si / 1000 Ang^3
#
#
#
# Elastic Constant Matrix: (Units=GPa)
#
#
# Indices 1 2 3 4 5 6 
#
# 1 102.1065 54.8051 50.4302 0.0000 -6.2138 0.0000
# 2 54.8051 82.7628 40.3257 0.0000 0.8380 0.0000
# 3 50.4302 40.3257 99.6119 0.0000 11.0232 0.0000
# 4 0.0000 0.0000 0.0000 20.4400 0.0000 -0.9379
# 5 -6.2138 0.8380 11.0232 0.0000 16.9160 0.0000
# 6 0.0000 0.0000 0.0000 -0.9379 0.0000 35.3721
#
#
#
# Elastic Compliance Matrix: (Units=1/GPa)
#
#
# Indices 1 2 3 4 5 6 
#
# 1 0.019074 -0.009207 -0.007280 0.000000 0.012207 0.000000
# 2 -0.009207 0.019688 -0.003046 0.000000 -0.002372 0.000000
# 3 -0.007280 -0.003046 0.016421 0.000000 -0.013224 0.000000
# 4 0.000000 0.000000 0.000000 0.048983 0.000000 0.001299
# 5 0.012207 -0.002372 -0.013224 0.000000 0.072334 0.000000
# 6 0.000000 0.000000 0.000000 0.001299 0.000000 0.028305
#
#
# Mechanical properties :
#
#
# Convention : Reuss Voigt Hill
#
# Bulk Modulus (GPa) = 62.05005 63.95592 63.00299
# Shear Modulus (GPa) = 20.06051 23.80696 21.93373
#
# Velocity S-wave (km/s) = 3.38258 3.68493 3.53699
# Velocity P-wave (km/s) = 7.11668 7.38805 7.25363
#
# Compressibility (1/GPa) = 0.01611602
#
# Stress axis : x y z
#
# Youngs Moduli (GPa) = 52.42725 50.79213 60.89659
#
# Poissons Ratio (x) = 0.46765 0.44333
# Poissons Ratio (y) = 0.48271 0.18552
# Poissons Ratio (z) = 0.38167 0.15474
#
# Static dielectric constant tensor:
#      x y z
#    x 3.118600 0.000000 -0.105630 
#    y 0.000000 3.323730 0.000000 
#    z -0.105630 0.000000 3.436660 
# 
# 
# High freq. dielectric constant tensor:
#      x y z
#    x 1.662610 0.000000 -0.011010 
#    y 0.000000 1.687280 0.000000 
#    z -0.011010 0.000000 1.676720 
# 
# From -- ./inp_files/249190.got.cif
#   From: 2010.06.25/outbox.cif.g09.slc.cpg/sg12_125_cif.got.tgz:249190.got - 2010.06.28 00:19:55.
