data_PCOD8085391
_publ_section_title
;
Structure prediction by ZEFSAII (Michael W. Deem and Ramdas Pophale) SiO2 
 PCOD8085391
Probable space group: C 2/M
;
_chemical_formula_sum "Si O2"
_cell_formula_units_Z 64
_cell_length_a 19.298353
_cell_length_b 9.543059
_cell_length_c 20.401431
_cell_angle_alpha 90.000000
_cell_angle_beta 96.801008
_cell_angle_gamma 90.000000
_cell_volume 3730.798021
_symmetry_space_group_name_H-M "C 2/M"
_symmetry_group_IT_number 12
_symmetry_cell_setting 'monoclinic'
loop_
_space_group_symop_operation_xyz
x,y,z
-x,y,-z
-x,-y,-z
x,-y,z
1/2+x,1/2+y,z
1/2-x,1/2+y,-z
1/2-x,1/2-y,-z
1/2+x,1/2-y,z
loop_
_atom_site_type_symbol
_atom_site_label
_atom_site_fract_x
_atom_site_fract_y
_atom_site_fract_z
Si Si1 0.920337 0.163326 0.668495
Si Si2 0.997708 0.336309 0.425065
Si Si3 0.372848 0.839400 0.320784
Si Si4 0.765731 0.657522 0.845854
Si Si5 0.952201 0.160143 0.229941
Si Si6 0.878046 0.160003 0.096394
Si Si7 0.218989 0.162692 0.279761
Si Si8 0.182666 0.337721 0.012219
O O1 0.843055 0.213561 0.679633
O O2 0.944069 0.251575 0.608351
O O3 0.970254 0.196337 0.736375
O O4 0.922680 0.000000 0.649719
O O5 0.015760 0.500000 0.421119
O O6 0.920177 0.301809 0.389108
O O7 0.000000 0.285160 0.500000
O O8 0.394753 0.750630 0.260725
O O9 0.291520 0.807738 0.326247
O O10 0.383902 0.000000 0.302228
O O11 0.766212 0.500000 0.817819
O O12 0.690269 0.692035 0.867696
O O13 0.784968 0.760931 0.789941
O O14 0.824570 0.672956 0.909772
O O15 0.945005 0.187990 0.150990
O O16 0.933160 0.000000 0.243486
O O17 0.876703 0.000000 0.070504
O O18 0.881695 0.264744 0.034161
O O19 0.209038 0.000000 0.262429
O O20 0.190062 0.500000 0.991447
O O21 0.250000 0.250000 0.000000
#
# Coordination Sequence:
#
# PCOD8085391 Si02
#       8
#     8   8   8   8   8   8   8   8
#     4   9  19  33  49  71  98 125 153 188 232 279
#     4   9  18  34  54  73  95 125 158 189 224 270
#     4   9  17  29  47  71  95 120 154 193 230 270
#     4   9  17  28  42  63  91 121 154 190 233 279
#     4   9  16  29  47  66  91 121 155 195 235 276
#     4   9  16  26  42  65  89 115 153 198 238 275
#     4  10  19  30  46  70  97 123 152 191 236 278
#     4   9  17  27  39  60  90 121 154 194 237 280
#
# _framework density 17.154506000000001
#
# number of rings (size 3 to 8) (size 9 to 14) (size 15 to 20)
#    0.000    2.875    1.250    1.125    0.000    3.750 
#    0.000    0.625    0.000    0.750    0.000    5.250 
#    0.000    0.000    0.000    0.000    0.000    0.000 
#
# Total GULP energy -396621.027421 kJ/mol
# GULP energy per Si atom -12394.407107 kJ/mol
# Density = 1.711546 g / cm^3
# Si number density = 17.154506 Si / 1000 Ang^3
#
#
#
# Elastic Constant Matrix: (Units=GPa)
#
#
# Indices 1 2 3 4 5 6 
#
# 1 88.6930 34.9768 39.4258 0.0000 0.3379 0.0000
# 2 34.9768 67.1859 47.4873 0.0000 0.6834 0.0000
# 3 39.4258 47.4873 102.8771 0.0000 8.2454 0.0000
# 4 0.0000 0.0000 0.0000 29.8275 0.0000 -1.6879
# 5 0.3379 0.6834 8.2454 0.0000 17.4502 0.0000
# 6 0.0000 0.0000 0.0000 -1.6879 0.0000 17.6532
#
#
#
# Elastic Compliance Matrix: (Units=1/GPa)
#
#
# Indices 1 2 3 4 5 6 
#
# 1 0.014881 -0.005413 -0.003324 0.000000 0.001495 0.000000
# 2 -0.005413 0.024347 -0.009454 0.000000 0.003619 0.000000
# 3 -0.003324 -0.009454 0.015927 0.000000 -0.007091 0.000000
# 4 0.000000 0.000000 0.000000 0.033709 0.000000 0.003223
# 5 0.001495 0.003619 -0.007091 0.000000 0.060486 0.000000
# 6 0.000000 0.000000 0.000000 0.003223 0.000000 0.056955
#
#
# Mechanical properties :
#
#
# Convention : Reuss Voigt Hill
#
# Bulk Modulus (GPa) = 53.26856 55.83731 54.55293
# Shear Modulus (GPa) = 20.08472 22.11058 21.09765
#
# Velocity S-wave (km/s) = 3.42543 3.59403 3.51074
# Velocity P-wave (km/s) = 6.83845 7.05996 6.95009
#
# Compressibility (1/GPa) = 0.01877280
#
# Stress axis : x y z
#
# Youngs Moduli (GPa) = 67.19772 41.07202 62.78776
#
# Poissons Ratio (x) = 0.22231 0.20873
# Poissons Ratio (y) = 0.36373 0.59361
# Poissons Ratio (z) = 0.22339 0.38831
#
# Static dielectric constant tensor:
#      x y z
#    x 3.095640 0.000000 0.351910 
#    y 0.000000 3.286010 0.000000 
#    z 0.351910 0.000000 3.363030 
# 
# 
# High freq. dielectric constant tensor:
#      x y z
#    x 1.630720 0.000000 0.025970 
#    y 0.000000 1.665530 0.000000 
#    z 0.025970 0.000000 1.654040 
# 
# From -- ./inp_files/319245.got.cif
#   From: 2010.06.25/outbox.cif.g09.slc.cpg/sg12_160_cif.got.tgz:319245.got - 2010.06.28 00:19:55.
