data_PCOD8085992
_publ_section_title
;
Structure prediction by ZEFSAII (Michael W. Deem and Ramdas Pophale) SiO2 
 PCOD8085992
Probable space group: C 2/M
;
_chemical_formula_sum "Si O2"
_cell_formula_units_Z 64
_cell_length_a 23.163762
_cell_length_b 8.811221
_cell_length_c 22.112628
_cell_angle_alpha 90.000000
_cell_angle_beta 125.223496
_cell_angle_gamma 90.000000
_cell_volume 3686.879416
_symmetry_space_group_name_H-M "C 2/M"
_symmetry_group_IT_number 12
_symmetry_cell_setting 'monoclinic'
loop_
_space_group_symop_operation_xyz
x,y,z
-x,y,-z
-x,-y,-z
x,-y,z
1/2+x,1/2+y,z
1/2-x,1/2+y,-z
1/2-x,1/2-y,-z
1/2+x,1/2-y,z
loop_
_atom_site_type_symbol
_atom_site_label
_atom_site_fract_x
_atom_site_fract_y
_atom_site_fract_z
Si Si1 0.316802 0.177770 0.877253
Si Si2 0.460910 0.679889 0.149342
Si Si3 0.471804 0.818007 0.281102
Si Si4 0.163571 0.821412 0.740087
Si Si5 0.320993 0.179470 0.018291
Si Si6 0.110420 0.671551 0.595450
Si Si7 0.042934 0.330825 0.438975
Si Si8 0.546210 0.679178 0.083637
O O1 0.239402 0.231690 0.810359
O O2 0.374685 0.257373 0.870175
O O3 0.324856 0.000000 0.873230
O O4 0.330373 0.226945 0.954354
O O5 0.453971 0.500000 0.149113
O O6 0.493835 0.746020 0.230717
O O7 0.383903 0.750666 0.095060
O O8 0.511103 0.732330 0.125014
O O9 0.394213 0.763614 0.254292
O O10 0.531939 0.757871 0.365571
O O11 0.471201 0.000000 0.277770
O O12 0.160375 0.776289 0.666996
O O13 0.151765 0.000000 0.740128
O O14 0.319120 0.000000 0.025599
O O15 0.250000 0.250000 0.000000
O O16 0.141405 0.500000 0.610759
O O17 0.098671 0.744971 0.520400
O O18 0.034447 0.664949 0.579795
O O19 0.071856 0.500000 0.448179
O O20 0.549757 0.500000 0.081264
O O21 0.500000 0.745277 0.000000
#
# Coordination Sequence:
#
# PCOD8085992 Si02
#       8
#     8   8   8   8   8   8   8   8
#     4  10  22  36  51  71  97 128 164 204 245 287
#     4  11  22  36  52  73 100 126 159 206 252 294
#     4  10  19  32  50  73 100 135 170 200 242 295
#     4  10  19  31  46  72 107 135 161 203 250 290
#     4  11  22  35  52  74  99 132 166 198 239 291
#     4   8  13  25  44  66  94 132 168 198 234 286
#     4   7  12  24  43  66  95 128 166 202 232 281
#     4  10  21  38  57  74  92 122 162 207 253 295
#
# _framework density 17.358853
#
# number of rings (size 3 to 8) (size 9 to 14) (size 15 to 20)
#    0.000    2.375    1.250    3.750    0.000    3.750 
#    0.000    5.625    0.000    0.000    0.000    0.875 
#    0.000    0.000    0.000    0.000    0.000    0.000 
#
# Total GULP energy -396573.513102 kJ/mol
# GULP energy per Si atom -12392.922284 kJ/mol
# Density = 1.731934 g / cm^3
# Si number density = 17.358853 Si / 1000 Ang^3
#
#
#
# Elastic Constant Matrix: (Units=GPa)
#
#
# Indices 1 2 3 4 5 6 
#
# 1 83.5815 27.9546 32.2022 0.0000 -19.0164 0.0000
# 2 27.9546 49.8154 24.9852 0.0000 -9.4868 0.0000
# 3 32.2022 24.9852 100.4483 0.0000 -36.7985 0.0000
# 4 0.0000 0.0000 0.0000 27.4914 0.0000 -2.1561
# 5 -19.0164 -9.4868 -36.7985 0.0000 23.5041 0.0000
# 6 0.0000 0.0000 0.0000 -2.1561 0.0000 25.3405
#
#
#
# Elastic Compliance Matrix: (Units=1/GPa)
#
#
# Indices 1 2 3 4 5 6 
#
# 1 0.016906 -0.007642 0.000849 0.000000 0.011922 0.000000
# 2 -0.007642 0.026396 -0.005810 0.000000 -0.004626 0.000000
# 3 0.000849 -0.005810 0.024671 0.000000 0.036967 0.000000
# 4 0.000000 0.000000 0.000000 0.036619 0.000000 0.003116
# 5 0.011922 -0.004626 0.036967 0.000000 0.108201 0.000000
# 6 0.000000 0.000000 0.000000 0.003116 0.000000 0.039728
#
#
# Mechanical properties :
#
#
# Convention : Reuss Voigt Hill
#
# Bulk Modulus (GPa) = 23.38332 44.90325 34.14329
# Shear Modulus (GPa) = 17.12426 25.18076 21.15251
#
# Velocity S-wave (km/s) = 3.14424 3.81281 3.49455
# Velocity P-wave (km/s) = 5.16541 6.73106 5.99953
#
# Compressibility (1/GPa) = 0.04276553
#
# Stress axis : x y z
#
# Youngs Moduli (GPa) = 59.15094 37.88471 40.53313
#
# Poissons Ratio (x) = 0.28952 -0.03440
# Poissons Ratio (y) = 0.45204 0.23551
# Poissons Ratio (z) = -0.05020 0.22012
#
# Static dielectric constant tensor:
#      x y z
#    x 3.023460 0.000000 -0.345900 
#    y 0.000000 3.145100 0.000000 
#    z -0.345900 0.000000 3.819980 
# 
# 
# High freq. dielectric constant tensor:
#      x y z
#    x 1.632940 0.000000 -0.020660 
#    y 0.000000 1.661420 0.000000 
#    z -0.020660 0.000000 1.683740 
# 
# From -- ./inp_files/346190.got.cif
#   From: 2010.06.25/outbox.cif.g09.slc.cpg/sg12_174_cif.got.tgz:346190.got - 2010.06.28 00:19:55.
