data_PCOD8085883
_publ_section_title
;
Structure prediction by ZEFSAII (Michael W. Deem and Ramdas Pophale) SiO2 
 PCOD8085883
Probable space group: C 2/M
;
_chemical_formula_sum "Si O2"
_cell_formula_units_Z 56
_cell_length_a 20.797140
_cell_length_b 8.820459
_cell_length_c 30.306946
_cell_angle_alpha 90.000000
_cell_angle_beta 146.881030
_cell_angle_gamma 90.000000
_cell_volume 3037.604349
_symmetry_space_group_name_H-M "C 2/M"
_symmetry_group_IT_number 12
_symmetry_cell_setting 'monoclinic'
loop_
_space_group_symop_operation_xyz
x,y,z
-x,y,-z
-x,-y,-z
x,-y,z
1/2+x,1/2+y,z
1/2-x,1/2+y,-z
1/2-x,1/2-y,-z
1/2+x,1/2-y,z
loop_
_atom_site_type_symbol
_atom_site_label
_atom_site_fract_x
_atom_site_fract_y
_atom_site_fract_z
Si Si1 0.670097 0.678978 0.232854
Si Si2 0.318447 0.679412 0.660792
Si Si3 0.694180 0.325149 0.906762
Si Si4 0.432108 0.824936 0.086139
Si Si5 0.898405 0.820553 0.323631
Si Si6 0.440715 0.823000 0.512235
Si Si7 0.542990 0.322415 0.738950
O O1 0.684870 0.500000 0.240220
O O2 0.675562 0.743625 0.285969
O O3 0.546608 0.726996 0.139936
O O4 0.774196 0.750190 0.264698
O O5 0.330679 0.500000 0.671233
O O6 0.195690 0.724891 0.567654
O O7 0.424755 0.748801 0.692780
O O8 0.665192 0.500000 0.902135
O O9 0.618819 0.220363 0.895668
O O10 0.655611 0.287536 0.834702
O O11 0.833201 0.292758 0.991935
O O12 0.468199 0.000000 0.108059
O O13 0.933594 0.753715 0.295842
O O14 0.000246 0.774725 0.415825
O O15 0.885239 0.000000 0.315202
O O16 0.500000 0.781748 0.500000
O O17 0.458126 0.000000 0.532775
O O18 0.522416 0.500000 0.722192
#
# Coordination Sequence:
#
# PCOD8085883 Si02
#       7
#     8   8   8   8   8   8   8
#     4  11  20  36  59  79 105 147 188 221 268 333
#     4   9  17  32  58  80  99 138 190 222 246 320
#     4   9  17  33  56  79 110 151 185 215 265 333
#     4  10  19  30  52  88 115 134 178 238 277 306
#     4  11  23  36  54  81 113 141 177 233 280 315
#     4  10  19  35  57  81 106 141 186 222 264 329
#     4   9  18  35  56  79 108 148 186 216 265 329
#
# _framework density 18.435580000000002
#
# number of rings (size 3 to 8) (size 9 to 14) (size 15 to 20)
#    0.000    2.143    2.857    1.286    0.000    1.429 
#    0.000    2.143    0.000    4.286    0.000    0.000 
#    0.000    0.000    0.000    0.000    0.000    0.000 
#
# Total GULP energy -347201.779774 kJ/mol
# GULP energy per Si atom -12400.063563 kJ/mol
# Density = 1.839362 g / cm^3
# Si number density = 18.435580 Si / 1000 Ang^3
#
#
#
# Elastic Constant Matrix: (Units=GPa)
#
#
# Indices 1 2 3 4 5 6 
#
# 1 144.7964 33.2071 78.6392 0.0000 3.7773 0.0001
# 2 33.2071 44.4729 31.4732 0.0001 -0.9283 0.0003
# 3 78.6392 31.4732 137.1541 0.0000 8.6250 -0.0001
# 4 0.0000 0.0001 0.0000 30.2032 0.0000 3.5166
# 5 3.7773 -0.9283 8.6250 0.0000 29.0568 0.0000
# 6 0.0001 0.0003 -0.0001 3.5166 0.0000 21.6584
#
#
#
# Elastic Compliance Matrix: (Units=1/GPa)
#
#
# Indices 1 2 3 4 5 6 
#
# 1 0.010691 -0.004352 -0.005131 0.000000 -0.000006 0.000000
# 2 -0.004352 0.028832 -0.004295 0.000000 0.002762 0.000000
# 3 -0.005131 -0.004295 0.011398 0.000000 -0.002853 0.000000
# 4 0.000000 0.000000 0.000000 0.033747 0.000000 -0.005479
# 5 -0.000006 0.002762 -0.002853 0.000000 0.035351 0.000000
# 6 0.000000 0.000000 0.000000 -0.005479 0.000000 0.047061
#
#
# Mechanical properties :
#
#
# Convention : Reuss Voigt Hill
#
# Bulk Modulus (GPa) = 42.79686 68.11805 55.45745
# Shear Modulus (GPa) = 24.70066 28.39060 26.54563
#
# Velocity S-wave (km/s) = 3.66435 3.92853 3.79873
# Velocity P-wave (km/s) = 6.41622 7.58994 7.02763
#
# Compressibility (1/GPa) = 0.02336620
#
# Stress axis : x y z
#
# Youngs Moduli (GPa) = 93.53654 34.68369 87.73581
#
# Poissons Ratio (x) = 0.15094 0.45016
# Poissons Ratio (y) = 0.40706 0.37679
# Poissons Ratio (z) = 0.47992 0.14895
#
# Static dielectric constant tensor:
#      x y z
#    x 3.473610 0.000000 0.085420 
#    y 0.000000 3.151330 0.000000 
#    z 0.085420 0.000000 3.637400 
# 
# 
# High freq. dielectric constant tensor:
#      x y z
#    x 1.701040 0.000000 0.010570 
#    y 0.000000 1.690350 0.000000 
#    z 0.010570 0.000000 1.730210 
# 
# From -- ./inp_files/363113.got.cif
#   From: 2010.06.25/outbox.cif.g09.slc.cpg/sg12_182_cif.got.tgz:363113.got - 2010.06.28 00:19:55.
