data_PCOD8085978
_publ_section_title
;
Structure prediction by ZEFSAII (Michael W. Deem and Ramdas Pophale) SiO2 
 PCOD8085978
Probable space group: C 2/M
;
_chemical_formula_sum "Si O2"
_cell_formula_units_Z 56
_cell_length_a 14.257093
_cell_length_b 32.307569
_cell_length_c 8.689927
_cell_angle_alpha 90.000000
_cell_angle_beta 51.636316
_cell_angle_gamma 90.000000
_cell_volume 3138.453129
_symmetry_space_group_name_H-M "C 2/M"
_symmetry_group_IT_number 12
_symmetry_cell_setting 'monoclinic'
loop_
_space_group_symop_operation_xyz
x,y,z
-x,y,-z
-x,-y,-z
x,-y,z
1/2+x,1/2+y,z
1/2-x,1/2+y,-z
1/2-x,1/2-y,-z
1/2+x,1/2-y,z
loop_
_atom_site_type_symbol
_atom_site_label
_atom_site_fract_x
_atom_site_fract_y
_atom_site_fract_z
Si Si1 0.136740 0.869333 0.540640
Si Si2 0.645944 0.453998 0.684604
Si Si3 0.145327 0.125211 0.181534
Si Si4 0.748472 0.302871 0.918600
Si Si5 0.167301 0.784039 0.662503
Si Si6 0.443075 0.744535 0.722433
Si Si7 0.862378 0.955457 0.962514
O O1 0.189489 0.913937 0.542358
O O2 0.175151 0.863552 0.325441
O O3 0.192964 0.830226 0.572317
O O4 0.994235 0.866680 0.711340
O O5 0.692306 0.500000 0.579752
O O6 0.504342 0.455157 0.825102
O O7 0.689742 0.446444 0.814602
O O8 0.180880 0.077644 0.118015
O O9 0.227645 0.148809 0.971717
O O10 0.691782 0.286413 0.818090
O O11 0.891112 0.291768 0.780704
O O12 0.677025 0.282464 0.135289
O O13 0.250000 0.750000 0.500000
O O14 0.033352 0.767479 0.766850
O O15 0.500000 0.733774 0.500000
O O16 0.816392 0.000000 0.950834
#
# Coordination Sequence:
#
# PCOD8085978 Si02
#       7
#     8   8   8   8   8   8   8
#     4  10  20  30  45  68 101 131 169 215 248 304
#     4   8  14  26  43  64  91 128 166 203 249 305
#     4  10  19  31  46  68  99 132 170 211 254 305
#     4  11  23  35  57  73  99 140 170 219 261 306
#     4  12  23  36  55  74 101 140 177 216 261 309
#     4  11  22  39  53  75 101 128 178 217 262 305
#     4   8  14  25  43  64  92 127 164 203 249 306
#
# _framework density 17.843184000000001
#
# number of rings (size 3 to 8) (size 9 to 14) (size 15 to 20)
#    0.000    2.000    2.857    3.000    2.000    1.714 
#    0.000    2.857    0.000    0.000    0.000    0.000 
#    0.000    1.714    0.000    2.714    0.000    1.000 
#
# Total GULP energy -346872.074498 kJ/mol
# GULP energy per Si atom -12388.288375 kJ/mol
# Density = 1.780257 g / cm^3
# Si number density = 17.843184 Si / 1000 Ang^3
#
#
#
# Elastic Constant Matrix: (Units=GPa)
#
#
# Indices 1 2 3 4 5 6 
#
# 1 48.9366 38.8237 26.2402 0.0000 7.9249 0.0000
# 2 38.8237 141.3834 48.4483 0.0000 12.5767 0.0000
# 3 26.2402 48.4483 74.1007 0.0000 16.7270 0.0000
# 4 0.0000 0.0000 0.0000 30.0732 0.0000 7.0923
# 5 7.9249 12.5767 16.7270 0.0000 18.4633 0.0000
# 6 0.0000 0.0000 0.0000 7.0923 0.0000 20.1541
#
#
#
# Elastic Compliance Matrix: (Units=1/GPa)
#
#
# Indices 1 2 3 4 5 6 
#
# 1 0.028431 -0.005566 -0.005694 0.000000 -0.003253 0.000000
# 2 -0.005566 0.010220 -0.004625 0.000000 -0.000383 0.000000
# 3 -0.005694 -0.004625 0.021713 0.000000 -0.014077 0.000000
# 4 0.000000 0.000000 0.000000 0.036262 0.000000 -0.012761
# 5 -0.003253 -0.000383 -0.014077 0.000000 0.068571 0.000000
# 6 0.000000 0.000000 0.000000 -0.012761 0.000000 0.054108
#
#
# Mechanical properties :
#
#
# Convention : Reuss Voigt Hill
#
# Bulk Modulus (GPa) = 34.97299 54.60503 44.78901
# Shear Modulus (GPa) = 19.18602 23.79868 21.49235
#
# Velocity S-wave (km/s) = 3.28267 3.65604 3.47438
# Velocity P-wave (km/s) = 5.83186 6.96357 6.42269
#
# Compressibility (1/GPa) = 0.02859349
#
# Stress axis : x y z
#
# Youngs Moduli (GPa) = 35.17325 97.84445 46.05595
#
# Poissons Ratio (x) = 0.54465 0.26224
# Poissons Ratio (y) = 0.19579 0.21299
# Poissons Ratio (z) = 0.20028 0.45249
#
# Static dielectric constant tensor:
#      x y z
#    x 3.118800 0.000000 0.166970 
#    y 0.000000 3.923720 0.000000 
#    z 0.166970 0.000000 3.212240 
# 
# 
# High freq. dielectric constant tensor:
#      x y z
#    x 1.642510 0.000000 0.039080 
#    y 0.000000 1.706720 0.000000 
#    z 0.039080 0.000000 1.669070 
# 
# From -- ./inp_files/68106.got.cif
#   From: 2010.06.25/outbox.cif.g09.slc.cpg/sg12_35_cif.got.tgz:68106.got - 2010.06.28 00:19:55.
