data_PCOD8085052
_publ_section_title
;
Structure prediction by ZEFSAII (Michael W. Deem and Ramdas Pophale) SiO2 
 PCOD8085052
Probable space group: C 2/M
;
_chemical_formula_sum "Si O2"
_cell_formula_units_Z 64
_cell_length_a 12.459589
_cell_length_b 20.790262
_cell_length_c 20.814381
_cell_angle_alpha 90.000000
_cell_angle_beta 41.019012
_cell_angle_gamma 90.000000
_cell_volume 3538.635402
_symmetry_space_group_name_H-M "C 2/M"
_symmetry_group_IT_number 12
_symmetry_cell_setting 'monoclinic'
loop_
_space_group_symop_operation_xyz
x,y,z
-x,y,-z
-x,-y,-z
x,-y,z
1/2+x,1/2+y,z
1/2-x,1/2+y,-z
1/2-x,1/2-y,-z
1/2+x,1/2-y,z
loop_
_atom_site_type_symbol
_atom_site_label
_atom_site_fract_x
_atom_site_fract_y
_atom_site_fract_z
Si Si1 0.636622 0.658811 0.586919
Si Si2 0.714639 0.199702 0.218667
Si Si3 0.138940 0.576863 0.806938
Si Si4 0.934702 0.809128 0.899415
Si Si5 0.161876 0.838087 0.193182
Si Si6 0.127482 0.670919 0.119573
Si Si7 0.444748 0.574784 0.590776
Si Si8 0.464334 0.783184 0.443116
O O1 0.528743 0.664528 0.699803
O O2 0.583142 0.591543 0.580020
O O3 0.600318 0.716978 0.555500
O O4 0.830120 0.659698 0.510265
O O5 0.746144 0.272922 0.181173
O O6 0.627091 0.164197 0.197651
O O7 0.609666 0.192476 0.331430
O O8 0.887496 0.166342 0.158376
O O9 0.116043 0.500000 0.823271
O O10 0.224694 0.603117 0.833391
O O11 0.264692 0.598291 0.693558
O O12 0.965262 0.609486 0.869177
O O13 0.849244 0.845821 0.878389
O O14 0.961308 0.735010 0.866023
O O15 0.815813 0.822764 0.012809
O O16 0.500000 0.608783 0.500000
O O17 0.438639 0.500000 0.584988
O O18 0.500000 0.766150 0.500000
#
# Coordination Sequence:
#
# PCOD8085052 Si02
#       8
#     8   8   8   8   8   8   8   8
#     4   9  18  30  45  72 104 134 165 207 250 320
#     4  10  19  32  52  76 107 138 175 223 261 322
#     4  10  20  36  55  80 112 139 176 223 267 318
#     4  10  19  34  54  74 106 139 177 227 261 324
#     4   9  18  33  51  77 106 139 175 215 271 312
#     4  10  21  33  53  79 103 139 181 219 274 309
#     4   9  18  31  51  74  99 138 172 208 251 298
#     4  10  19  29  46  75 104 138 164 202 269 313
#
# _framework density 18.086068000000001
#
# number of rings (size 3 to 8) (size 9 to 14) (size 15 to 20)
#    0.000    2.375    1.250    1.500    1.750    1.500 
#    0.000    1.250    0.000    2.625    0.000    0.000 
#    0.000    0.000    0.000    0.000    0.000    0.000 
#
# Total GULP energy -396477.614714 kJ/mol
# GULP energy per Si atom -12389.925460 kJ/mol
# Density = 1.804490 g / cm^3
# Si number density = 18.086068 Si / 1000 Ang^3
#
#
#
# Elastic Constant Matrix: (Units=GPa)
#
#
# Indices 1 2 3 4 5 6 
#
# 1 60.9107 22.7802 22.9567 -0.0027 -1.7683 0.0033
# 2 22.7802 37.3622 8.1697 -0.0055 -3.1819 -0.0013
# 3 22.9567 8.1697 60.9411 0.0035 4.2497 0.0023
# 4 -0.0027 -0.0055 0.0035 15.3505 -0.0005 -0.2150
# 5 -1.7683 -3.1819 4.2497 -0.0005 34.7339 0.0003
# 6 0.0033 -0.0013 0.0023 -0.2150 0.0003 19.0746
#
#
#
# Elastic Compliance Matrix: (Units=1/GPa)
#
#
# Indices 1 2 3 4 5 6 
#
# 1 0.024092 -0.012991 -0.007400 0.000001 0.000942 -0.000004
# 2 -0.012991 0.034893 0.000040 0.000010 0.002530 0.000005
# 3 -0.007400 0.000040 0.019383 -0.000006 -0.002745 -0.000001
# 4 0.000001 0.000010 -0.000006 0.065155 0.000003 0.000734
# 5 0.000942 0.002530 -0.002745 0.000003 0.029406 0.000000
# 6 -0.000004 0.000005 -0.000001 0.000734 0.000000 0.052434
#
#
# Mechanical properties :
#
#
# Convention : Reuss Voigt Hill
#
# Bulk Modulus (GPa) = 26.54953 29.66968 28.10961
# Shear Modulus (GPa) = 17.94558 20.85228 19.39893
#
# Velocity S-wave (km/s) = 3.15339 3.39919 3.27859
# Velocity P-wave (km/s) = 5.28866 5.64326 5.46883
#
# Compressibility (1/GPa) = 0.03766545
#
# Stress axis : x y z
#
# Youngs Moduli (GPa) = 41.50701 28.65931 51.59192
#
# Poissons Ratio (x) = 0.37232 0.38177
# Poissons Ratio (y) = 0.53922 -0.00205
# Poissons Ratio (z) = 0.30714 -0.00114
#
# Static dielectric constant tensor:
#      x y z
#    x 3.500850 0.000000 0.083450 
#    y 0.000000 3.002570 0.000000 
#    z 0.083450 0.000000 3.613240 
# 
# 
# High freq. dielectric constant tensor:
#      x y z
#    x 1.699060 0.000000 0.005290 
#    y 0.000000 1.653280 0.000000 
#    z 0.005290 0.000000 1.712820 
# 
# From -- ./inp_files/306765.got.cif
#   From: 2010.06.25/outbox.cif.g09.slc.cpg/sg12_154_cif.got.tgz:306765.got - 2010.06.28 00:19:55.
