data_PCOD8085819
_publ_section_title
;
Structure prediction by ZEFSAII (Michael W. Deem and Ramdas Pophale) SiO2 
 PCOD8085819
Probable space group: C 2/M
;
_chemical_formula_sum "Si O2"
_cell_formula_units_Z 40
_cell_length_a 20.358795
_cell_length_b 9.716129
_cell_length_c 14.127714
_cell_angle_alpha 90.000000
_cell_angle_beta 46.057339
_cell_angle_gamma 90.000000
_cell_volume 2012.197550
_symmetry_space_group_name_H-M "C 2/M"
_symmetry_group_IT_number 12
_symmetry_cell_setting 'monoclinic'
loop_
_space_group_symop_operation_xyz
x,y,z
-x,y,-z
-x,-y,-z
x,-y,z
1/2+x,1/2+y,z
1/2-x,1/2+y,-z
1/2-x,1/2-y,-z
1/2+x,1/2-y,z
loop_
_atom_site_type_symbol
_atom_site_label
_atom_site_fract_x
_atom_site_fract_y
_atom_site_fract_z
Si Si1 0.562832 0.296965 0.078795
Si Si2 0.380729 0.000000 0.978011
Si Si3 0.808385 0.000000 0.733845
Si Si4 0.808382 0.000000 0.149388
Si Si5 0.380732 0.000000 0.760526
Si Si6 0.562829 0.296965 0.295545
Si Si7 0.095014 0.000000 0.546482
Si Si8 0.404988 0.500000 0.236505
O O1 0.587167 0.328961 0.162834
O O2 0.465564 0.365009 0.151728
O O3 0.557206 0.133939 0.064226
O O4 0.643997 0.362791 0.937344
O O5 0.345062 0.000000 0.904936
O O6 0.296684 0.000000 0.133858
O O7 0.856009 0.862791 0.725328
O O8 0.817816 0.000000 0.609818
O O9 0.703310 0.000000 0.227237
O O10 0.817818 0.000000 0.254548
O O11 0.442798 0.133938 0.678634
O O12 0.465560 0.365008 0.417146
O O13 0.129302 0.000000 0.620700
#
# Coordination Sequence:
#
# PCOD8085819 Si02
#       8
#     8   4   4   4   4   8   4   4
#     4   9  17  30  49  74 102 128 157 198 249 301
#     4  10  19  30  50  80 106 124 150 201 262 302
#     4  11  18  29  49  75 101 128 163 202 246 293
#     4  11  18  29  49  75 101 128 163 202 246 293
#     4  10  19  30  50  80 106 124 150 201 262 302
#     4   9  17  30  49  74 102 128 157 198 249 301
#     4   9  19  35  52  69  94 134 176 203 232 285
#     4   9  19  35  52  69  94 134 176 203 232 285
#
# _framework density 19.878762999999999
#
# number of rings (size 3 to 8) (size 9 to 14) (size 15 to 20)
#    0.000    2.400    0.000    6.600    0.000    3.200 
#    0.000    4.000    0.000    4.800    0.000    0.000 
#    0.000    0.000    0.000    0.000    0.000    0.000 
#
# Total GULP energy -247983.236592 kJ/mol
# GULP energy per Si atom -12399.161830 kJ/mol
# Density = 1.983352 g / cm^3
# Si number density = 19.878763 Si / 1000 Ang^3
#
#
#
# Elastic Constant Matrix: (Units=GPa)
#
#
# Indices 1 2 3 4 5 6 
#
# 1 93.3290 34.2102 31.4767 0.0000 12.0772 0.0000
# 2 34.2102 163.0241 34.8730 0.0000 4.1562 0.0000
# 3 31.4767 34.8730 96.7252 0.0000 9.1795 0.0000
# 4 0.0000 0.0000 0.0000 6.1998 0.0000 -1.8559
# 5 12.0772 4.1562 9.1795 0.0000 13.7486 0.0000
# 6 0.0000 0.0000 0.0000 -1.8559 0.0000 6.4998
#
#
#
# Elastic Compliance Matrix: (Units=1/GPa)
#
#
# Indices 1 2 3 4 5 6 
#
# 1 0.013629 -0.002018 -0.002807 0.000000 -0.009488 0.000000
# 2 -0.002018 0.006948 -0.001940 0.000000 0.000967 0.000000
# 3 -0.002807 -0.001940 0.012451 0.000000 -0.005261 0.000000
# 4 0.000000 0.000000 0.000000 0.176371 0.000000 0.050359
# 5 -0.009488 0.000967 -0.005261 0.000000 0.084289 0.000000
# 6 0.000000 0.000000 0.000000 0.050359 0.000000 0.168230
#
#
# Mechanical properties :
#
#
# Convention : Reuss Voigt Hill
#
# Bulk Modulus (GPa) = 51.28889 61.57754 56.43322
# Shear Modulus (GPa) = 10.37461 22.12421 16.24941
#
# Velocity S-wave (km/s) = 2.28698 3.33972 2.86217
# Velocity P-wave (km/s) = 5.72979 6.77609 6.27479
#
# Compressibility (1/GPa) = 0.01949740
#
# Stress axis : x y z
#
# Youngs Moduli (GPa) = 73.37350 143.93012 80.31552
#
# Poissons Ratio (x) = 0.29039 0.22547
# Poissons Ratio (y) = 0.14804 0.15583
# Poissons Ratio (z) = 0.20598 0.27925
#
# Static dielectric constant tensor:
#      x y z
#    x 3.314940 0.000000 0.306690 
#    y 0.000000 4.004470 0.000000 
#    z 0.306690 0.000000 3.363970 
# 
# 
# High freq. dielectric constant tensor:
#      x y z
#    x 1.745760 0.000000 0.029600 
#    y 0.000000 1.785540 0.000000 
#    z 0.029600 0.000000 1.750490 
# 
# From -- ./inp_files/229709.got.cif
#   From: 2010.06.25/outbox.cif.g09.slc.cpg/sg12_115_cif.got.tgz:229709.got - 2010.06.28 00:19:55.
