data_PCOD8085161
_publ_section_title
;
Structure prediction by ZEFSAII (Michael W. Deem and Ramdas Pophale) SiO2 
 PCOD8085161
Probable space group: C 2/M
;
_chemical_formula_sum "Si O2"
_cell_formula_units_Z 64
_cell_length_a 20.441804
_cell_length_b 25.772252
_cell_length_c 8.820297
_cell_angle_alpha 90.000000
_cell_angle_beta 115.561729
_cell_angle_gamma 90.000000
_cell_volume 4191.983470
_symmetry_space_group_name_H-M "C 2/M"
_symmetry_group_IT_number 12
_symmetry_cell_setting 'monoclinic'
loop_
_space_group_symop_operation_xyz
x,y,z
-x,y,-z
-x,-y,-z
x,-y,z
1/2+x,1/2+y,z
1/2-x,1/2+y,-z
1/2-x,1/2-y,-z
1/2+x,1/2-y,z
loop_
_atom_site_type_symbol
_atom_site_label
_atom_site_fract_x
_atom_site_fract_y
_atom_site_fract_z
Si Si1 0.922999 0.255982 0.352787
Si Si2 0.159786 0.648488 0.231637
Si Si3 0.711496 0.695041 0.794772
Si Si4 0.576109 0.939974 0.003003
Si Si5 0.077001 0.744018 0.006788
Si Si6 0.711496 0.695041 0.128221
Si Si7 0.659786 0.148488 0.587935
Si Si8 0.923891 0.560025 0.350786
O O1 0.870473 0.207293 0.342515
O O2 0.893256 0.309381 0.391360
O O3 0.000000 0.242056 0.500000
O O4 0.928346 0.263227 0.178346
O O5 0.244499 0.658708 0.277160
O O6 0.106744 0.690618 0.104848
O O7 0.149106 0.649792 0.399106
O O8 0.139726 0.592291 0.146253
O O9 0.750000 0.750000 0.845820
O O10 0.711333 0.668615 0.961333
O O11 0.572843 0.926954 0.822843
O O12 0.593332 0.000000 0.050996
O O13 0.500000 0.923585 0.000000
O O14 0.129527 0.792707 0.101570
O O15 0.000000 0.757944 0.000000
O O16 0.755501 0.658708 0.288161
O O17 0.639725 0.092291 0.633198
O O18 0.906667 0.500000 0.364331
O O19 0.000000 0.576415 0.500000
#
# Coordination Sequence:
#
# PCOD8085161 Si02
#       8
#     8   8   8   8   8   8   8   8
#     4  10  19  30  44  62  86 114 144 177 210 249
#     4  11  20  29  44  63  85 113 144 177 211 251
#     4   8  16  30  44  59  82 111 141 174 210 247
#     4  10  20  33  47  62  83 111 143 179 215 250
#     4  10  19  30  44  62  86 114 144 177 210 249
#     4   8  16  30  44  59  82 111 141 174 210 247
#     4  11  20  29  44  63  85 113 144 177 211 251
#     4  10  20  33  47  62  83 111 143 179 215 250
#
# _framework density 15.267234999999999
#
# number of rings (size 3 to 8) (size 9 to 14) (size 15 to 20)
#    0.000    2.250    0.000    6.000    0.000    7.000 
#    0.000    0.000    0.000    0.000    0.000    0.000 
#    0.000    1.000    0.000    3.250    0.000    4.000 
#
# Total GULP energy -396734.825711 kJ/mol
# GULP energy per Si atom -12397.963303 kJ/mol
# Density = 1.523249 g / cm^3
# Si number density = 15.267235 Si / 1000 Ang^3
#
#
#
# Elastic Constant Matrix: (Units=GPa)
#
#
# Indices 1 2 3 4 5 6 
#
# 1 112.7603 46.4240 59.2227 0.0000 2.1053 0.0000
# 2 46.4240 61.3809 45.9907 0.0000 0.3138 0.0000
# 3 59.2227 45.9907 112.3992 0.0000 -1.8437 0.0000
# 4 0.0000 0.0000 0.0000 20.8034 0.0000 2.0487
# 5 2.1053 0.3138 -1.8437 0.0000 28.1719 0.0000
# 6 0.0000 0.0000 0.0000 2.0487 0.0000 23.6346
#
#
#
# Elastic Compliance Matrix: (Units=1/GPa)
#
#
# Indices 1 2 3 4 5 6 
#
# 1 0.014335 -0.007442 -0.004529 0.000000 -0.001285 0.000000
# 2 -0.007442 0.027380 -0.007286 0.000000 -0.000226 0.000000
# 3 -0.004529 -0.007286 0.014287 0.000000 0.001355 0.000000
# 4 0.000000 0.000000 0.000000 0.048483 0.000000 -0.004203
# 5 -0.001285 -0.000226 0.001355 0.000000 0.035684 0.000000
# 6 0.000000 0.000000 0.000000 -0.004203 0.000000 0.042675
#
#
# Mechanical properties :
#
#
# Convention : Reuss Voigt Hill
#
# Bulk Modulus (GPa) = 57.18120 65.53503 61.35811
# Shear Modulus (GPa) = 22.00830 23.51549 22.76189
#
# Velocity S-wave (km/s) = 3.80088 3.92887 3.86540
# Velocity P-wave (km/s) = 7.53638 7.97495 7.75877
#
# Compressibility (1/GPa) = 0.01748827
#
# Stress axis : x y z
#
# Youngs Moduli (GPa) = 69.75977 36.52239 69.99530
#
# Poissons Ratio (x) = 0.27179 0.31702
# Poissons Ratio (y) = 0.51914 0.50998
# Poissons Ratio (z) = 0.31595 0.26610
#
# Static dielectric constant tensor:
#      x y z
#    x 3.209340 0.000000 0.087290 
#    y 0.000000 2.715890 0.000000 
#    z 0.087290 0.000000 3.088720 
# 
# 
# High freq. dielectric constant tensor:
#      x y z
#    x 1.583020 0.000000 -0.009480 
#    y 0.000000 1.546510 0.000000 
#    z -0.009480 0.000000 1.596120 
# 
# From -- ./inp_files/90430.got.cif
#   From: 2010.06.25/outbox.cif.g09.slc.cpg/sg12_46_cif.got.tgz:90430.got - 2010.06.28 00:19:55.
