data_PCOD8085164
_publ_section_title
;
Structure prediction by ZEFSAII (Michael W. Deem and Ramdas Pophale) SiO2 
 PCOD8085164
Probable space group: C 2/M
;
_chemical_formula_sum "Si O2"
_cell_formula_units_Z 48
_cell_length_a 22.990318
_cell_length_b 9.364388
_cell_length_c 15.111329
_cell_angle_alpha 90.000000
_cell_angle_beta 100.525117
_cell_angle_gamma 90.000000
_cell_volume 3198.584536
_symmetry_space_group_name_H-M "C 2/M"
_symmetry_group_IT_number 12
_symmetry_cell_setting 'monoclinic'
loop_
_space_group_symop_operation_xyz
x,y,z
-x,y,-z
-x,-y,-z
x,-y,z
1/2+x,1/2+y,z
1/2-x,1/2+y,-z
1/2-x,1/2-y,-z
1/2+x,1/2-y,z
loop_
_atom_site_type_symbol
_atom_site_label
_atom_site_fract_x
_atom_site_fract_y
_atom_site_fract_z
Si Si1 0.942194 0.336265 0.425644
Si Si2 0.033641 0.338260 0.094067
Si Si3 0.671350 0.666285 0.549437
Si Si4 0.220412 0.836799 0.371310
Si Si5 0.108086 0.166107 0.233789
Si Si6 0.489346 0.839356 0.722507
O O1 0.920764 0.500000 0.426357
O O2 0.891160 0.233682 0.444416
O O3 0.958032 0.293497 0.328459
O O4 0.000000 0.309490 0.500000
O O5 0.054173 0.500000 0.078090
O O6 0.989806 0.336020 0.168098
O O7 0.091775 0.243908 0.135723
O O8 0.000000 0.271969 0.000000
O O9 0.668997 0.500000 0.570696
O O10 0.722815 0.736049 0.623876
O O11 0.684791 0.697929 0.450900
O O12 0.176631 0.808372 0.276619
O O13 0.242413 0.000000 0.378384
O O14 0.067445 0.234150 0.301147
O O15 0.093004 0.000000 0.222164
O O16 0.468656 0.000000 0.690371
#
# Coordination Sequence:
#
# PCOD8085164 Si02
#       6
#     8   8   8   8   8   8
#     4  10  19  30  44  62  87 120 151 178 213 261
#     4   8  15  28  44  64  90 116 143 176 218 266
#     4  10  20  30  44  63  85 116 154 188 218 252
#     4   9  18  32  44  60  87 118 149 184 222 260
#     4   9  16  26  44  66  88 112 141 180 221 257
#     4   8  16  28  41  61  88 117 145 171 212 263
#
# _framework density 15.006638000000001
#
# number of rings (size 3 to 8) (size 9 to 14) (size 15 to 20)
#    1.000    2.000    0.000    1.500    0.000    3.333 
#    0.000    0.000    0.000    0.000    0.000    1.167 
#    0.000    0.000    0.000    0.000    0.000    0.000 
#
# Total GULP energy -297336.845087 kJ/mol
# GULP energy per Si atom -12389.035212 kJ/mol
# Density = 1.497248 g / cm^3
# Si number density = 15.006638 Si / 1000 Ang^3
#
#
#
# Elastic Constant Matrix: (Units=GPa)
#
#
# Indices 1 2 3 4 5 6 
#
# 1 75.7333 49.1432 30.9994 0.0000 11.4079 0.0000
# 2 49.1432 84.7953 34.8092 0.0000 15.2165 0.0000
# 3 30.9994 34.8092 81.4425 0.0000 14.4147 0.0000
# 4 0.0000 0.0000 0.0000 18.8402 0.0000 3.7412
# 5 11.4079 15.2165 14.4147 0.0000 20.9389 0.0000
# 6 0.0000 0.0000 0.0000 3.7412 0.0000 29.2964
#
#
#
# Elastic Compliance Matrix: (Units=1/GPa)
#
#
# Indices 1 2 3 4 5 6 
#
# 1 0.022020 -0.011094 -0.003352 0.000000 -0.001628 0.000000
# 2 -0.011094 0.020866 -0.003509 0.000000 -0.006704 0.000000
# 3 -0.003352 -0.003509 0.016261 0.000000 -0.006818 0.000000
# 4 0.000000 0.000000 0.000000 0.054459 0.000000 -0.006955
# 5 -0.001628 -0.006704 -0.006818 0.000000 0.058210 0.000000
# 6 0.000000 0.000000 0.000000 -0.006955 0.000000 0.035022
#
#
# Mechanical properties :
#
#
# Convention : Reuss Voigt Hill
#
# Bulk Modulus (GPa) = 43.03389 52.43054 47.73221
# Shear Modulus (GPa) = 19.96058 22.28305 21.12181
#
# Velocity S-wave (km/s) = 3.65103 3.85759 3.75573
# Velocity P-wave (km/s) = 6.81999 7.40645 7.11926
#
# Compressibility (1/GPa) = 0.02323750
#
# Stress axis : x y z
#
# Youngs Moduli (GPa) = 45.41302 47.92475 61.49666
#
# Poissons Ratio (x) = 0.53167 0.20613
# Poissons Ratio (y) = 0.50380 0.21581
# Poissons Ratio (z) = 0.15222 0.16818
#
# Static dielectric constant tensor:
#      x y z
#    x 2.659460 0.000000 0.035820 
#    y 0.000000 2.934800 0.000000 
#    z 0.035820 0.000000 2.835990 
# 
# 
# High freq. dielectric constant tensor:
#      x y z
#    x 1.544080 0.000000 0.009760 
#    y 0.000000 1.582710 0.000000 
#    z 0.009760 0.000000 1.556520 
# 
# From -- ./inp_files/236858.got.cif
#   From: 2010.06.25/outbox.cif.g09.slc.cpg/sg12_119_cif.got.tgz:236858.got - 2010.06.28 00:19:55.
