data_PCOD8085943
_publ_section_title
;
Structure prediction by ZEFSAII (Michael W. Deem and Ramdas Pophale) SiO2 
 PCOD8085943
Probable space group: C 2/M
;
_chemical_formula_sum "Si O2"
_cell_formula_units_Z 36
_cell_length_a 16.331442
_cell_length_b 12.750103
_cell_length_c 29.527547
_cell_angle_alpha 90.000000
_cell_angle_beta 160.292224
_cell_angle_gamma 90.000000
_cell_volume 2073.398691
_symmetry_space_group_name_H-M "C 2/M"
_symmetry_group_IT_number 12
_symmetry_cell_setting 'monoclinic'
loop_
_space_group_symop_operation_xyz
x,y,z
-x,y,-z
-x,-y,-z
x,-y,z
1/2+x,1/2+y,z
1/2-x,1/2+y,-z
1/2-x,1/2-y,-z
1/2+x,1/2-y,z
loop_
_atom_site_type_symbol
_atom_site_label
_atom_site_fract_x
_atom_site_fract_y
_atom_site_fract_z
Si Si1 0.070407 0.121605 0.771176
Si Si2 0.065599 0.805955 0.201132
Si Si3 0.000000 0.231939 0.000000
Si Si4 0.269830 0.380450 0.964448
Si Si5 0.056659 0.384177 0.477059
O O1 0.292814 0.193394 0.870606
O O2 0.025194 0.136187 0.801027
O O3 0.834854 0.156718 0.618639
O O4 0.131258 0.000000 0.793770
O O5 0.360507 0.807051 0.351376
O O6 0.973831 0.686044 0.152317
O O7 0.958932 0.870227 0.103692
O O8 0.103476 0.157963 0.015202
O O9 0.187720 0.500000 0.915788
O O10 0.033091 0.500000 0.442648
O O11 0.000000 0.394041 0.500000
#
# Coordination Sequence:
#
# PCOD8085943 Si02
#       5
#     8   8   4   8   8
#     4   9  16  28  48  71  92 113 142 184 225 258
#     4   9  17  29  49  70  84 110 150 189 222 257
#     4  10  20  30  42  64  94 126 150 172 210 266
#     4  10  19  31  46  64  89 120 150 181 217 259
#     4   8  13  24  45  70  91 109 136 181 229 262
#
# _framework density 17.362795999999999
#
# number of rings (size 3 to 8) (size 9 to 14) (size 15 to 20)
#    0.000    2.889    0.000    4.000    0.000    0.000 
#    0.000    2.222    0.000   18.000    0.000    0.000 
#    0.000    0.000    0.000    0.000    0.000    0.000 
#
# Total GULP energy -223090.987308 kJ/mol
# GULP energy per Si atom -12393.943739 kJ/mol
# Density = 1.732328 g / cm^3
# Si number density = 17.362796 Si / 1000 Ang^3
#
#
#
# Elastic Constant Matrix: (Units=GPa)
#
#
# Indices 1 2 3 4 5 6 
#
# 1 24.9732 22.0382 21.1427 0.0014 0.6193 -0.0041
# 2 22.0382 118.6623 66.3377 -0.0065 10.3451 -0.0034
# 3 21.1427 66.3377 148.1165 0.0115 13.7519 -0.0172
# 4 0.0014 -0.0065 0.0115 23.1281 -0.0027 1.8511
# 5 0.6193 10.3451 13.7519 -0.0027 22.5494 0.0012
# 6 -0.0041 -0.0034 -0.0172 1.8511 0.0012 17.8941
#
#
#
# Elastic Compliance Matrix: (Units=1/GPa)
#
#
# Indices 1 2 3 4 5 6 
#
# 1 0.049996 -0.007281 -0.004302 -0.000003 0.004591 0.000006
# 2 -0.007281 0.012407 -0.004248 0.000006 -0.002901 -0.000004
# 3 -0.004302 -0.004248 0.009621 -0.000007 -0.003800 0.000008
# 4 -0.000003 0.000006 -0.000007 0.043598 0.000007 -0.004510
# 5 0.004591 -0.002901 -0.003800 0.000007 0.047870 -0.000007
# 6 0.000006 -0.000004 0.000008 -0.004510 -0.000007 0.056351
#
#
# Mechanical properties :
#
#
# Convention : Reuss Voigt Hill
#
# Bulk Modulus (GPa) = 24.77529 56.75435 40.76482
# Shear Modulus (GPa) = 18.87076 24.86320 21.86698
#
# Velocity S-wave (km/s) = 3.30032 3.78826 3.55268
# Velocity P-wave (km/s) = 5.36870 7.20367 6.35279
#
# Compressibility (1/GPa) = 0.04036279
#
# Stress axis : x y z
#
# Youngs Moduli (GPa) = 20.00149 80.59703 103.93812
#
# Poissons Ratio (x) = 0.58679 0.44715
# Poissons Ratio (y) = 0.14562 0.44156
# Poissons Ratio (z) = 0.08605 0.34240
#
# Static dielectric constant tensor:
#      x y z
#    x 2.916050 0.000000 0.177160 
#    y 0.000000 3.138850 -0.000020 
#    z 0.177160 -0.000020 3.726190 
# 
# 
# High freq. dielectric constant tensor:
#      x y z
#    x 1.635610 0.000000 0.004540 
#    y 0.000000 1.658260 0.000000 
#    z 0.004540 0.000000 1.681130 
# 
# From -- ./inp_files/152308.got.cif
#   From: 2010.06.25/outbox.cif.g09.slc.cpg/sg12_77_cif.got.tgz:152308.got - 2010.06.28 00:19:55.
