data_PCOD8085346
_publ_section_title
;
Structure prediction by ZEFSAII (Michael W. Deem and Ramdas Pophale) SiO2 
 PCOD8085346
Probable space group: C 2/M
;
_chemical_formula_sum "Si O2"
_cell_formula_units_Z 48
_cell_length_a 23.648184
_cell_length_b 9.242752
_cell_length_c 14.644802
_cell_angle_alpha 90.000000
_cell_angle_beta 120.037738
_cell_angle_gamma 90.000000
_cell_volume 2771.072931
_symmetry_space_group_name_H-M "C 2/M"
_symmetry_group_IT_number 12
_symmetry_cell_setting 'monoclinic'
loop_
_space_group_symop_operation_xyz
x,y,z
-x,y,-z
-x,-y,-z
x,-y,z
1/2+x,1/2+y,z
1/2-x,1/2+y,-z
1/2-x,1/2-y,-z
1/2+x,1/2-y,z
loop_
_atom_site_type_symbol
_atom_site_label
_atom_site_fract_x
_atom_site_fract_y
_atom_site_fract_z
Si Si1 0.185554 0.332423 0.633101
Si Si2 0.046249 0.333248 0.123504
Si Si3 0.845314 0.838359 0.564393
Si Si4 0.828322 0.167536 0.757390
Si Si5 0.446012 0.170607 0.380818
Si Si6 0.991163 0.165924 0.727076
O O1 0.174462 0.500000 0.606108
O O2 0.188489 0.263887 0.535679
O O3 0.255602 0.304392 0.739877
O O4 0.125325 0.273857 0.644214
O O5 0.055206 0.500000 0.159664
O O6 0.116855 0.267418 0.151529
O O7 0.013837 0.245424 0.179939
O O8 0.000000 0.317218 0.000000
O O9 0.824206 0.789628 0.647860
O O10 0.923234 0.826812 0.618387
O O11 0.821240 0.000000 0.524591
O O12 0.849578 0.000000 0.785420
O O13 0.500000 0.212636 0.500000
O O14 0.456715 0.253486 0.294554
O O15 0.447460 0.000000 0.362345
O O16 0.012639 0.000000 0.761534
#
# Coordination Sequence:
#
# PCOD8085346 Si02
#       6
#     8   8   8   8   8   8
#     4  10  19  30  46  69 102 141 175 204 241 292
#     4  10  21  37  58  80  99 123 160 211 266 314
#     4   9  17  28  43  67  99 133 170 208 246 290
#     4   9  19  33  48  72 102 132 167 207 253 302
#     4  10  19  31  48  72 105 145 180 209 243 287
#     4  10  20  33  51  76 104 135 172 212 251 297
#
# _framework density 17.321809999999999
#
# number of rings (size 3 to 8) (size 9 to 14) (size 15 to 20)
#    0.000    2.333    1.667    2.500    0.000    5.667 
#    0.000    0.000    0.000    1.000    0.000    0.000 
#    0.000    0.000    0.000    0.000    0.000    0.000 
#
# Total GULP energy -297541.021368 kJ/mol
# GULP energy per Si atom -12397.542557 kJ/mol
# Density = 1.728238 g / cm^3
# Si number density = 17.321810 Si / 1000 Ang^3
#
#
#
# Elastic Constant Matrix: (Units=GPa)
#
#
# Indices 1 2 3 4 5 6 
#
# 1 119.4267 44.1399 34.8927 0.0000 11.5917 0.0000
# 2 44.1399 81.4492 42.6079 0.0000 4.9104 0.0000
# 3 34.8927 42.6079 59.0433 0.0000 7.4415 0.0000
# 4 0.0000 0.0000 0.0000 23.7986 0.0000 -0.6353
# 5 11.5917 4.9104 7.4415 0.0000 16.2990 0.0000
# 6 0.0000 0.0000 0.0000 -0.6353 0.0000 25.0467
#
#
#
# Elastic Compliance Matrix: (Units=1/GPa)
#
#
# Indices 1 2 3 4 5 6 
#
# 1 0.011340 -0.004290 -0.002920 0.000000 -0.005439 0.000000
# 2 -0.004290 0.021351 -0.013207 0.000000 0.002648 0.000000
# 3 -0.002920 -0.013207 0.029104 0.000000 -0.007232 0.000000
# 4 0.000000 0.000000 0.000000 0.042048 0.000000 0.001067
# 5 -0.005439 0.002648 -0.007232 0.000000 0.067726 0.000000
# 6 0.000000 0.000000 0.000000 0.001067 0.000000 0.039952
#
#
# Mechanical properties :
#
#
# Convention : Reuss Voigt Hill
#
# Bulk Modulus (GPa) = 47.70465 55.91113 51.80789
# Shear Modulus (GPa) = 19.27946 22.24742 20.76344
#
# Velocity S-wave (km/s) = 3.33981 3.58768 3.46596
# Velocity P-wave (km/s) = 6.51709 7.03633 6.78168
#
# Compressibility (1/GPa) = 0.02096232
#
# Stress axis : x y z
#
# Youngs Moduli (GPa) = 88.18308 46.83518 34.35904
#
# Poissons Ratio (x) = 0.20092 0.10034
# Poissons Ratio (y) = 0.37830 0.45377
# Poissons Ratio (z) = 0.25752 0.61853
#
# Static dielectric constant tensor:
#      x y z
#    x 3.492040 0.000000 0.118520 
#    y 0.000000 3.269850 0.000000 
#    z 0.118520 0.000000 2.835990 
# 
# 
# High freq. dielectric constant tensor:
#      x y z
#    x 1.675380 0.000000 0.005640 
#    y 0.000000 1.673450 0.000000 
#    z 0.005640 0.000000 1.627170 
# 
# From -- ./inp_files/236862.got.cif
#   From: 2010.06.25/outbox.cif.g09.slc.cpg/sg12_119_cif.got.tgz:236862.got - 2010.06.28 00:19:55.
