data_PCOD8085850
_publ_section_title
;
Structure prediction by ZEFSAII (Michael W. Deem and Ramdas Pophale) SiO2 
 PCOD8085850
Probable space group: C 2/M
;
_chemical_formula_sum "Si O2"
_cell_formula_units_Z 40
_cell_length_a 31.108658
_cell_length_b 7.757679
_cell_length_c 14.217269
_cell_angle_alpha 90.000000
_cell_angle_beta 139.830128
_cell_angle_gamma 90.000000
_cell_volume 2213.230574
_symmetry_space_group_name_H-M "C 2/M"
_symmetry_group_IT_number 12
_symmetry_cell_setting 'monoclinic'
loop_
_space_group_symop_operation_xyz
x,y,z
-x,y,-z
-x,-y,-z
x,-y,z
1/2+x,1/2+y,z
1/2-x,1/2+y,-z
1/2-x,1/2-y,-z
1/2+x,1/2-y,z
loop_
_atom_site_type_symbol
_atom_site_label
_atom_site_fract_x
_atom_site_fract_y
_atom_site_fract_z
Si Si1 0.175408 0.298601 0.399202
Si Si2 0.933756 0.500000 0.267786
Si Si3 0.450766 0.306759 0.167777
Si Si4 0.910018 0.500000 0.435118
Si Si5 0.431500 0.203494 0.931248
Si Si6 0.602367 0.692662 0.456619
O O1 0.165951 0.500000 0.400803
O O2 0.250000 0.250000 0.500000
O O3 0.129190 0.237011 0.236009
O O4 0.154941 0.202281 0.460076
O O5 0.915064 0.671508 0.177775
O O6 0.891371 0.500000 0.293464
O O7 0.011127 0.500000 0.421593
O O8 0.438161 0.500000 0.185259
O O9 0.529415 0.264201 0.293232
O O10 0.420253 0.291739 0.012996
O O11 0.879028 0.328718 0.430806
O O12 0.433946 0.000000 0.950824
O O13 0.500000 0.270307 0.000000
O O14 0.604813 0.500000 0.503954
#
# Coordination Sequence:
#
# PCOD8085850 Si02
#       6
#     8   4   8   4   8   8
#     4  11  22  35  52  77 114 146 179 221 264 316
#     4   9  18  32  48  75 110 135 178 227 268 316
#     4  10  19  30  51  78 107 140 176 220 267 317
#     4   9  18  32  51  72 105 146 173 221 278 314
#     4  10  19  32  54  76 105 148 180 214 265 323
#     4  10  19  32  51  76 105 141 181 217 262 323
#
# _framework density 18.073128000000001
#
# number of rings (size 3 to 8) (size 9 to 14) (size 15 to 20)
#    0.000    2.000    4.000    0.600    0.000    2.800 
#    0.000    4.000    0.000    0.000    0.000    1.400 
#    0.000    0.000    0.000    0.000    0.000    0.000 
#
# Total GULP energy -248034.128740 kJ/mol
# GULP energy per Si atom -12401.706437 kJ/mol
# Density = 1.803199 g / cm^3
# Si number density = 18.073128 Si / 1000 Ang^3
#
#
#
# Elastic Constant Matrix: (Units=GPa)
#
#
# Indices 1 2 3 4 5 6 
#
# 1 95.4377 51.0199 57.0481 0.0000 -24.9728 0.0000
# 2 51.0199 119.6081 39.2140 0.0000 -21.9932 0.0000
# 3 57.0481 39.2140 83.1536 0.0000 -13.4008 0.0000
# 4 0.0000 0.0000 0.0000 14.1778 0.0000 1.6183
# 5 -24.9728 -21.9932 -13.4008 0.0000 36.8388 0.0000
# 6 0.0000 0.0000 0.0000 1.6183 0.0000 17.7731
#
#
#
# Elastic Compliance Matrix: (Units=1/GPa)
#
#
# Indices 1 2 3 4 5 6 
#
# 1 0.021715 -0.003922 -0.011741 0.000000 0.008107 0.000000
# 2 -0.003922 0.011343 -0.002120 0.000000 0.003342 0.000000
# 3 -0.011741 -0.002120 0.020814 0.000000 -0.001653 0.000000
# 4 0.000000 0.000000 0.000000 0.071273 0.000000 -0.006490
# 5 0.008107 0.003342 -0.001653 0.000000 0.034035 0.000000
# 6 0.000000 0.000000 0.000000 -0.006490 0.000000 0.056856
#
#
# Mechanical properties :
#
#
# Convention : Reuss Voigt Hill
#
# Bulk Modulus (GPa) = 54.62824 65.86261 60.24542
# Shear Modulus (GPa) = 19.40203 23.81910 21.61056
#
# Velocity S-wave (km/s) = 3.28003 3.63427 3.46168
# Velocity P-wave (km/s) = 6.68107 7.35744 7.02740
#
# Compressibility (1/GPa) = 0.01830555
#
# Stress axis : x y z
#
# Youngs Moduli (GPa) = 46.05175 88.15811 48.04395
#
# Poissons Ratio (x) = 0.34579 0.56409
# Poissons Ratio (y) = 0.18063 0.10184
# Poissons Ratio (z) = 0.54070 0.18687
#
# Static dielectric constant tensor:
#      x y z
#    x 3.145590 0.000000 -0.266230 
#    y 0.000000 3.457610 0.000000 
#    z -0.266230 0.000000 2.942790 
# 
# 
# High freq. dielectric constant tensor:
#      x y z
#    x 1.672570 0.000000 -0.024650 
#    y 0.000000 1.715070 0.000000 
#    z -0.024650 0.000000 1.667200 
# 
# From -- ./inp_files/162448.got.cif
#   From: 2010.06.25/outbox.cif.g09.slc.cpg/sg12_82_cif.got.tgz:162448.got - 2010.06.28 00:19:55.
