data_PCOD8085051
_publ_section_title
;
Structure prediction by ZEFSAII (Michael W. Deem and Ramdas Pophale) SiO2 
 PCOD8085051
Probable space group: C 2/M
;
_chemical_formula_sum "Si O2"
_cell_formula_units_Z 64
_cell_length_a 19.631067
_cell_length_b 8.878693
_cell_length_c 25.122593
_cell_angle_alpha 90.000000
_cell_angle_beta 55.070459
_cell_angle_gamma 90.000000
_cell_volume 3590.007845
_symmetry_space_group_name_H-M "C 2/M"
_symmetry_group_IT_number 12
_symmetry_cell_setting 'monoclinic'
loop_
_space_group_symop_operation_xyz
x,y,z
-x,y,-z
-x,-y,-z
x,-y,z
1/2+x,1/2+y,z
1/2-x,1/2+y,-z
1/2-x,1/2-y,-z
1/2+x,1/2-y,z
loop_
_atom_site_type_symbol
_atom_site_label
_atom_site_fract_x
_atom_site_fract_y
_atom_site_fract_z
Si Si1 0.162333 0.178906 0.052145
Si Si2 0.408154 0.176621 0.196457
Si Si3 0.066944 0.678403 0.188766
Si Si4 0.519868 0.822934 0.051081
Si Si5 0.866810 0.330970 0.566802
Si Si6 0.477484 0.829672 0.425262
Si Si7 0.421077 0.676422 0.703261
Si Si8 0.270412 0.322814 0.695148
O O1 0.134593 0.239536 0.122024
O O2 0.099294 0.229527 0.034215
O O3 0.168637 0.000000 0.050968
O O4 0.250000 0.250000 0.000000
O O5 0.475112 0.228940 0.210548
O O6 0.440767 0.221297 0.123085
O O7 0.318115 0.250751 0.248287
O O8 0.396152 0.000000 0.205214
O O9 0.078821 0.500000 0.177663
O O10 0.080520 0.728753 0.242571
O O11 0.540182 0.000000 0.047518
O O12 0.500000 0.776087 0.000000
O O13 0.832821 0.500000 0.576725
O O14 0.896239 0.273303 0.494945
O O15 0.793812 0.231299 0.625072
O O16 0.945309 0.326111 0.569968
O O17 0.496184 0.720280 0.367192
O O18 0.463280 0.000000 0.410749
O O19 0.422757 0.500000 0.715111
O O20 0.339046 0.726420 0.707616
O O21 0.265040 0.500000 0.694977
#
# Coordination Sequence:
#
# PCOD8085051 Si02
#       8
#     8   8   8   8   8   8   8   8
#     4  11  22  37  56  78 105 134 169 211 254 301
#     4   8  16  32  51  70  94 128 166 196 233 290
#     4  10  20  36  55  72  96 133 171 203 241 293
#     4   9  18  34  56  79 103 135 172 207 249 302
#     4   8  14  25  42  65  92 123 160 201 244 289
#     4   8  14  26  43  63  92 128 161 196 242 294
#     4  10  19  29  46  75 104 127 158 203 249 293
#     4   9  17  29  46  70  99 128 159 199 246 295
#
# _framework density 17.827259000000002
#
# number of rings (size 3 to 8) (size 9 to 14) (size 15 to 20)
#    0.000    2.875    0.000    3.375    0.000    2.250 
#    0.000    8.125    0.000    0.750    0.000    0.000 
#    0.000    0.000    0.000    0.000    0.000    0.000 
#
# Total GULP energy -396622.776733 kJ/mol
# GULP energy per Si atom -12394.461773 kJ/mol
# Density = 1.778668 g / cm^3
# Si number density = 17.827259 Si / 1000 Ang^3
#
#
#
# Elastic Constant Matrix: (Units=GPa)
#
#
# Indices 1 2 3 4 5 6 
#
# 1 65.2752 31.3762 78.2444 -0.0003 -2.6467 -0.0012
# 2 31.3762 62.0737 49.7555 -0.0009 5.1830 -0.0023
# 3 78.2444 49.7555 167.0198 0.0000 -9.2446 0.0000
# 4 -0.0003 -0.0009 0.0000 32.3821 -0.0001 3.2015
# 5 -2.6467 5.1830 -9.2446 -0.0001 22.9785 -0.0008
# 6 -0.0012 -0.0023 0.0000 3.2015 -0.0008 20.0089
#
#
#
# Elastic Compliance Matrix: (Units=1/GPa)
#
#
# Indices 1 2 3 4 5 6 
#
# 1 0.036714 -0.006172 -0.015393 0.000000 -0.000572 0.000001
# 2 -0.006172 0.023536 -0.004555 0.000000 -0.007852 0.000002
# 3 -0.015393 -0.004555 0.014844 0.000000 0.005227 -0.000001
# 4 0.000000 0.000000 0.000000 0.031378 0.000000 -0.005021
# 5 -0.000572 -0.007852 0.005227 0.000000 0.047327 0.000001
# 6 0.000001 0.000002 -0.000001 -0.005021 0.000001 0.050781
#
#
# Mechanical properties :
#
#
# Convention : Reuss Voigt Hill
#
# Bulk Modulus (GPa) = 43.75179 68.12454 55.93817
# Shear Modulus (GPa) = 18.90805 24.07340 21.49073
#
# Velocity S-wave (km/s) = 3.26026 3.67873 3.47579
# Velocity P-wave (km/s) = 6.22637 7.50604 6.89596
#
# Compressibility (1/GPa) = 0.02285621
#
# Stress axis : x y z
#
# Youngs Moduli (GPa) = 27.23741 42.48803 67.36506
#
# Poissons Ratio (x) = 0.26224 1.03693
# Poissons Ratio (y) = 0.16811 0.30682
# Poissons Ratio (z) = 0.41926 0.19352
#
# Static dielectric constant tensor:
#      x y z
#    x 2.661620 0.000000 -0.346820 
#    y 0.000000 3.196540 0.000000 
#    z -0.346820 0.000000 3.816150 
# 
# 
# High freq. dielectric constant tensor:
#      x y z
#    x 1.656130 0.000000 -0.000610 
#    y 0.000000 1.677110 0.000000 
#    z -0.000610 0.000000 1.707590 
# 
# From -- ./inp_files/365197.got.cif
#   From: 2010.06.25/outbox.cif.g09.slc.cpg/sg12_183_cif.got.tgz:365197.got - 2010.06.28 00:19:55.
