data_PCOD8085678
_publ_section_title
;
Structure prediction by ZEFSAII (Michael W. Deem and Ramdas Pophale) SiO2 
 PCOD8085678
Probable space group: C 2/M
;
_chemical_formula_sum "Si O2"
_cell_formula_units_Z 56
_cell_length_a 27.011266
_cell_length_b 9.437140
_cell_length_c 13.650593
_cell_angle_alpha 90.000000
_cell_angle_beta 61.187620
_cell_angle_gamma 90.000000
_cell_volume 3048.887337
_symmetry_space_group_name_H-M "C 2/M"
_symmetry_group_IT_number 12
_symmetry_cell_setting 'monoclinic'
loop_
_space_group_symop_operation_xyz
x,y,z
-x,y,-z
-x,-y,-z
x,-y,z
1/2+x,1/2+y,z
1/2-x,1/2+y,-z
1/2-x,1/2-y,-z
1/2+x,1/2-y,z
loop_
_atom_site_type_symbol
_atom_site_label
_atom_site_fract_x
_atom_site_fract_y
_atom_site_fract_z
Si Si1 0.947857 0.160547 0.668834
Si Si2 0.557751 0.166180 0.892937
Si Si3 0.281316 0.836878 0.774937
Si Si4 0.169417 0.840744 0.108318
Si Si5 0.843222 0.164205 0.100679
Si Si6 0.958398 0.337825 0.314815
Si Si7 0.392498 0.162254 0.563183
O O1 0.890242 0.164643 0.782286
O O2 0.939075 0.242170 0.574381
O O3 0.992955 0.236684 0.693659
O O4 0.967172 0.000000 0.628195
O O5 0.610848 0.244128 0.888108
O O6 0.557097 0.208636 0.779749
O O7 0.566515 0.000000 0.900316
O O8 0.500000 0.217109 0.000000
O O9 0.286873 0.754426 0.872379
O O10 0.218621 0.810948 0.790972
O O11 0.328424 0.788959 0.650116
O O12 0.289451 0.000000 0.794645
O O13 0.193729 0.000000 0.081827
O O14 0.161092 0.782573 0.006937
O O15 0.861393 0.000000 0.088493
O O16 0.980255 0.500000 0.295333
O O17 0.903045 0.320495 0.436874
O O18 0.402239 0.000000 0.586967
#
# Coordination Sequence:
#
# PCOD8085678 Si02
#       7
#     8   8   8   8   8   8   8
#     4  10  19  30  48  76 105 129 158 199 244 289
#     4  10  22  38  54  73  96 125 165 207 242 284
#     4   9  18  32  51  75 100 128 163 199 236 286
#     4   9  18  31  48  74 105 132 158 194 243 293
#     4  10  20  34  52  74 100 130 163 199 243 290
#     4  10  20  34  51  70  95 130 168 202 241 289
#     4   9  18  33  51  71  99 132 162 196 240 289
#
# _framework density 18.367356999999998
#
# number of rings (size 3 to 8) (size 9 to 14) (size 15 to 20)
#    0.000    2.429    0.000    2.143    0.000    4.857 
#    0.000    0.714    0.000    0.000    0.000    0.000 
#    0.000    0.000    0.000    0.000    0.000    0.000 
#
# Total GULP energy -347176.758323 kJ/mol
# GULP energy per Si atom -12399.169940 kJ/mol
# Density = 1.832555 g / cm^3
# Si number density = 18.367357 Si / 1000 Ang^3
#
#
#
# Elastic Constant Matrix: (Units=GPa)
#
#
# Indices 1 2 3 4 5 6 
#
# 1 127.5819 60.3255 58.4428 0.0000 10.8071 0.0000
# 2 60.3255 72.6792 42.3345 0.0000 8.0979 0.0000
# 3 58.4428 42.3345 111.1706 0.0000 18.3129 0.0000
# 4 0.0000 0.0000 0.0000 19.4016 0.0000 3.7173
# 5 10.8071 8.0979 18.3129 0.0000 11.9603 0.0000
# 6 0.0000 0.0000 0.0000 3.7173 0.0000 32.1471
#
#
#
# Elastic Compliance Matrix: (Units=1/GPa)
#
#
# Indices 1 2 3 4 5 6 
#
# 1 0.014042 -0.009439 -0.003678 0.000000 -0.000666 0.000000
# 2 -0.009439 0.024070 -0.003911 0.000000 -0.001780 0.000000
# 3 -0.003678 -0.003911 0.015291 0.000000 -0.017442 0.000000
# 4 0.000000 0.000000 0.000000 0.052710 0.000000 -0.006095
# 5 -0.000666 -0.001780 -0.017442 0.000000 0.112122 0.000000
# 6 0.000000 0.000000 0.000000 -0.006095 0.000000 0.031812
#
#
# Mechanical properties :
#
#
# Convention : Reuss Voigt Hill
#
# Bulk Modulus (GPa) = 51.68443 70.40415 61.04429
# Shear Modulus (GPa) = 17.20863 22.72375 19.96619
#
# Velocity S-wave (km/s) = 3.06423 3.52117 3.30062
# Velocity P-wave (km/s) = 6.38120 7.41255 6.91613
#
# Compressibility (1/GPa) = 0.01934819
#
# Stress axis : x y z
#
# Youngs Moduli (GPa) = 71.21262 41.54574 65.39785
#
# Poissons Ratio (x) = 0.39215 0.24053
# Poissons Ratio (y) = 0.67217 0.25574
# Poissons Ratio (z) = 0.26192 0.16247
#
# Static dielectric constant tensor:
#      x y z
#    x 3.250450 0.000000 -0.215670 
#    y 0.000000 3.494790 0.000000 
#    z -0.215670 0.000000 3.622300 
# 
# 
# High freq. dielectric constant tensor:
#      x y z
#    x 1.697990 0.000000 -0.018940 
#    y 0.000000 1.709910 0.000000 
#    z -0.018940 0.000000 1.720030 
# 
# From -- ./inp_files/180721.got.cif
#   From: 2010.06.25/outbox.cif.g09.slc.cpg/sg12_91_cif.got.tgz:180721.got - 2010.06.28 00:19:55.
