data_PCOD8085310
_publ_section_title
;
Structure prediction by ZEFSAII (Michael W. Deem and Ramdas Pophale) SiO2 
 PCOD8085310
Probable space group: C 2/M
;
_chemical_formula_sum "Si O2"
_cell_formula_units_Z 64
_cell_length_a 30.335014
_cell_length_b 9.540100
_cell_length_c 11.933293
_cell_angle_alpha 90.000000
_cell_angle_beta 93.654439
_cell_angle_gamma 90.000000
_cell_volume 3446.461610
_symmetry_space_group_name_H-M "C 2/M"
_symmetry_group_IT_number 12
_symmetry_cell_setting 'monoclinic'
loop_
_space_group_symop_operation_xyz
x,y,z
-x,y,-z
-x,-y,-z
x,-y,z
1/2+x,1/2+y,z
1/2-x,1/2+y,-z
1/2-x,1/2-y,-z
1/2+x,1/2-y,z
loop_
_atom_site_type_symbol
_atom_site_label
_atom_site_fract_x
_atom_site_fract_y
_atom_site_fract_z
Si Si1 0.588851 0.667290 0.260827
Si Si2 0.248481 0.156407 0.286087
Si Si3 0.418462 0.666206 0.220103
Si Si4 0.112599 0.833235 0.020607
Si Si5 0.830045 0.166265 0.582392
Si Si6 0.788717 0.156522 0.957812
Si Si7 0.001591 0.832719 0.371942
Si Si8 0.169107 0.166008 0.670609
O O1 0.588659 0.500000 0.261500
O O2 0.591265 0.723925 0.132862
O O3 0.630495 0.728847 0.335870
O O4 0.545039 0.723677 0.315616
O O5 0.218055 0.215571 0.382146
O O6 0.215676 0.149643 0.176085
O O7 0.288593 0.260743 0.267187
O O8 0.266669 0.000000 0.315768
O O9 0.420637 0.500000 0.226687
O O10 0.460154 0.728226 0.294421
O O11 0.373813 0.719171 0.271174
O O12 0.417711 0.715350 0.089561
O O13 0.162824 0.778491 0.009160
O O14 0.115422 0.000000 0.027775
O O15 0.835889 0.219291 0.457159
O O16 0.832875 0.000000 0.589081
O O17 0.784728 0.000000 0.009035
O O18 0.750000 0.250000 0.000000
O O19 0.000000 0.776822 0.500000
O O20 0.000634 0.000000 0.373348
O O21 0.175600 0.000000 0.680297
#
# Coordination Sequence:
#
# PCOD8085310 Si02
#       8
#     8   8   8   8   8   8   8   8
#     4   9  15  25  42  60  84 121 156 186 229 283
#     4  10  19  31  46  66  92 121 158 197 232 276
#     4   9  17  27  39  60  89 117 147 188 233 273
#     4   9  16  27  41  58  84 118 154 187 227 281
#     4   9  16  28  44  63  88 120 156 190 230 279
#     4  10  19  31  47  66  91 125 162 197 232 275
#     4   9  16  25  38  59  87 117 150 188 231 280
#     4  10  19  30  46  67  94 125 155 192 236 278
#
# _framework density 18.569770999999999
#
# number of rings (size 3 to 8) (size 9 to 14) (size 15 to 20)
#    0.000    2.625    1.250    1.875    0.000    5.000 
#    0.000    2.500    0.000    0.000    0.000    0.000 
#    0.000    6.500    0.000    5.250    0.000    5.000 
#
# Total GULP energy -396657.000972 kJ/mol
# GULP energy per Si atom -12395.531280 kJ/mol
# Density = 1.852751 g / cm^3
# Si number density = 18.569771 Si / 1000 Ang^3
#
#
#
# Elastic Constant Matrix: (Units=GPa)
#
#
# Indices 1 2 3 4 5 6 
#
# 1 127.2271 18.3253 48.7341 0.0000 0.6710 0.0000
# 2 18.3253 18.3052 9.5361 0.0000 -2.0252 0.0000
# 3 48.7341 9.5361 109.6489 0.0000 1.2586 0.0000
# 4 0.0000 0.0000 0.0000 11.2874 0.0000 -0.7363
# 5 0.6710 -2.0252 1.2586 0.0000 38.7776 0.0000
# 6 0.0000 0.0000 0.0000 -0.7363 0.0000 16.0996
#
#
#
# Elastic Compliance Matrix: (Units=1/GPa)
#
#
# Indices 1 2 3 4 5 6 
#
# 1 0.010624 -0.008626 -0.003966 0.000000 -0.000506 0.000000
# 2 -0.008626 0.064613 -0.001827 0.000000 0.003583 0.000000
# 3 -0.003966 -0.001827 0.011046 0.000000 -0.000385 0.000000
# 4 0.000000 0.000000 0.000000 0.088859 0.000000 0.004064
# 5 -0.000506 0.003583 -0.000385 0.000000 0.025996 0.000000
# 6 0.000000 0.000000 0.000000 0.004064 0.000000 0.062299
#
#
# Mechanical properties :
#
#
# Convention : Reuss Voigt Hill
#
# Bulk Modulus (GPa) = 17.40765 45.37467 31.39116
# Shear Modulus (GPa) = 16.05532 25.13863 20.59697
#
# Velocity S-wave (km/s) = 2.94359 3.68331 3.33403
# Velocity P-wave (km/s) = 4.57684 6.52509 5.63579
#
# Compressibility (1/GPa) = 0.05744599
#
# Stress axis : x y z
#
# Youngs Moduli (GPa) = 94.12457 15.47686 90.53026
#
# Poissons Ratio (x) = 0.13350 0.35905
# Poissons Ratio (y) = 0.81189 0.16537
# Poissons Ratio (z) = 0.37330 0.02827
#
# Static dielectric constant tensor:
#      x y z
#    x 3.513280 0.000000 0.014960 
#    y 0.000000 2.663720 0.000000 
#    z 0.014960 0.000000 3.754770 
# 
# 
# High freq. dielectric constant tensor:
#      x y z
#    x 1.726720 0.000000 -0.000720 
#    y 0.000000 1.630930 0.000000 
#    z -0.000720 0.000000 1.742060 
# 
# From -- ./inp_files/182128.got.cif
#   From: 2010.06.25/outbox.cif.g09.slc.cpg/sg12_92_cif.got.tgz:182128.got - 2010.06.28 00:19:55.
