data_PCOD8085811
_publ_section_title
;
Structure prediction by ZEFSAII (Michael W. Deem and Ramdas Pophale) SiO2 
 PCOD8085811
Probable space group: C 2/M
;
_chemical_formula_sum "Si O2"
_cell_formula_units_Z 48
_cell_length_a 31.327178
_cell_length_b 14.137507
_cell_length_c 10.347084
_cell_angle_alpha 90.000000
_cell_angle_beta 33.056311
_cell_angle_gamma 90.000000
_cell_volume 2499.639629
_symmetry_space_group_name_H-M "C 2/M"
_symmetry_group_IT_number 12
_symmetry_cell_setting 'monoclinic'
loop_
_space_group_symop_operation_xyz
x,y,z
-x,y,-z
-x,-y,-z
x,-y,z
1/2+x,1/2+y,z
1/2-x,1/2+y,-z
1/2-x,1/2-y,-z
1/2+x,1/2-y,z
loop_
_atom_site_type_symbol
_atom_site_label
_atom_site_fract_x
_atom_site_fract_y
_atom_site_fract_z
Si Si1 0.641252 0.261633 0.119229
Si Si2 0.783987 0.108667 0.417329
Si Si3 0.559030 0.391254 0.139935
Si Si4 0.545942 0.895782 0.250677
Si Si5 0.932414 0.743033 0.420627
Si Si6 0.793587 0.733171 0.590178
O O1 0.584668 0.345440 0.211510
O O2 0.622358 0.167226 0.083564
O O3 0.625754 0.250560 0.309623
O O4 0.732136 0.283317 0.863032
O O5 0.781674 0.163344 0.558701
O O6 0.718961 0.152408 0.485905
O O7 0.762362 0.000000 0.496936
O O8 0.870349 0.120717 0.139750
O O9 0.537369 0.500000 0.218371
O O10 0.482441 0.339061 0.278114
O O11 0.500000 0.903327 0.500000
O O12 0.490689 0.845920 0.285046
O O13 0.570221 0.000000 0.138896
O O14 0.880860 0.725496 0.424486
#
# Coordination Sequence:
#
# PCOD8085811 Si02
#       6
#     8   8   8   8   8   8
#     4   9  18  32  50  74 104 135 163 197 250 309
#     4   9  20  38  55  70  95 137 179 210 247 294
#     4   9  18  34  54  74 101 137 172 205 244 296
#     4   8  15  29  47  67  95 130 162 191 231 289
#     4  10  19  30  50  79 104 128 162 207 256 300
#     4  10  20  34  52  74 101 130 166 212 254 296
#
# _framework density 19.202767000000001
#
# number of rings (size 3 to 8) (size 9 to 14) (size 15 to 20)
#    0.000    2.833    0.000    2.000    0.000    4.000 
#    0.000    1.667    0.000    6.000    0.000    9.333 
#    0.000    0.000    0.000    0.000    0.000    0.000 
#
# Total GULP energy -297570.260657 kJ/mol
# GULP energy per Si atom -12398.760861 kJ/mol
# Density = 1.915906 g / cm^3
# Si number density = 19.202767 Si / 1000 Ang^3
#
#
#
# Elastic Constant Matrix: (Units=GPa)
#
#
# Indices 1 2 3 4 5 6 
#
# 1 121.3334 46.7965 17.9254 0.0000 -14.9957 0.0000
# 2 46.7965 150.2987 10.6972 0.0000 -8.3634 0.0000
# 3 17.9254 10.6972 24.4766 0.0000 -0.5133 0.0000
# 4 0.0000 0.0000 0.0000 24.8125 0.0000 -1.2271
# 5 -14.9957 -8.3634 -0.5133 0.0000 22.6080 0.0000
# 6 0.0000 0.0000 0.0000 -1.2271 0.0000 11.9818
#
#
#
# Elastic Compliance Matrix: (Units=1/GPa)
#
#
# Indices 1 2 3 4 5 6 
#
# 1 0.011014 -0.002601 -0.006800 0.000000 0.006189 0.000000
# 2 -0.002601 0.007622 -0.001404 0.000000 0.001063 0.000000
# 3 -0.006800 -0.001404 0.046366 0.000000 -0.003977 0.000000
# 4 0.000000 0.000000 0.000000 0.040507 0.000000 0.004148
# 5 0.006189 0.001063 -0.003977 0.000000 0.048640 0.000000
# 6 0.000000 0.000000 0.000000 0.004148 0.000000 0.083885
#
#
# Mechanical properties :
#
#
# Convention : Reuss Voigt Hill
#
# Bulk Modulus (GPa) = 23.04557 49.66075 36.35316
# Shear Modulus (GPa) = 18.24091 26.59309 22.41700
#
# Velocity S-wave (km/s) = 3.08541 3.72540 3.42041
# Velocity P-wave (km/s) = 4.97194 6.66500 5.87973
#
# Compressibility (1/GPa) = 0.04339229
#
# Stress axis : x y z
#
# Youngs Moduli (GPa) = 90.78964 131.19337 21.56775
#
# Poissons Ratio (x) = 0.34124 0.14666
# Poissons Ratio (y) = 0.23615 0.03028
# Poissons Ratio (z) = 0.61736 0.18421
#
# Static dielectric constant tensor:
#      x y z
#    x 3.249180 0.000000 -0.085730 
#    y 0.000000 3.810980 0.000000 
#    z -0.085730 0.000000 3.361000 
# 
# 
# High freq. dielectric constant tensor:
#      x y z
#    x 1.728380 0.000000 -0.008120 
#    y 0.000000 1.745640 0.000000 
#    z -0.008120 0.000000 1.740990 
# 
# From -- ./inp_files/111483.got.cif
#   From: 2010.06.25/outbox.cif.g09.slc.cpg/sg12_56_cif.got.tgz:111483.got - 2010.06.28 00:19:55.
