data_PCOD8085070
_publ_section_title
;
Structure prediction by ZEFSAII (Michael W. Deem and Ramdas Pophale) SiO2 
 PCOD8085070
Probable space group: C 2/M
;
_chemical_formula_sum "Si O2"
_cell_formula_units_Z 64
_cell_length_a 23.068693
_cell_length_b 9.047945
_cell_length_c 17.124604
_cell_angle_alpha 90.000000
_cell_angle_beta 85.576572
_cell_angle_gamma 90.000000
_cell_volume 3563.673559
_symmetry_space_group_name_H-M "C 2/M"
_symmetry_group_IT_number 12
_symmetry_cell_setting 'monoclinic'
loop_
_space_group_symop_operation_xyz
x,y,z
-x,y,-z
-x,-y,-z
x,-y,z
1/2+x,1/2+y,z
1/2-x,1/2+y,-z
1/2-x,1/2-y,-z
1/2+x,1/2-y,z
loop_
_atom_site_type_symbol
_atom_site_label
_atom_site_fract_x
_atom_site_fract_y
_atom_site_fract_z
Si Si1 0.953078 0.827679 0.255061
Si Si2 0.564823 0.172598 0.466971
Si Si3 0.134978 0.336932 0.829728
Si Si4 0.777618 0.333768 0.323053
Si Si5 0.260131 0.175682 0.081329
Si Si6 0.065568 0.331154 0.289808
Si Si7 0.694240 0.828742 0.225934
Si Si8 0.370024 0.325775 0.405793
O O1 0.918349 0.772501 0.181880
O O2 0.918792 0.781535 0.336986
O O3 0.016919 0.759412 0.249021
O O4 0.959886 0.000000 0.246415
O O5 0.500000 0.211438 0.500000
O O6 0.573049 0.225972 0.377433
O O7 0.610082 0.266686 0.512676
O O8 0.578872 0.000000 0.476883
O O9 0.108739 0.500000 0.845952
O O10 0.178686 0.338947 0.753227
O O11 0.173313 0.286990 0.900324
O O12 0.759822 0.500000 0.350212
O O13 0.721014 0.242657 0.301803
O O14 0.808605 0.250719 0.391725
O O15 0.214510 0.243925 0.146740
O O16 0.250244 0.000000 0.078939
O O17 0.250000 0.250000 0.000000
O O18 0.044609 0.500000 0.294896
O O19 0.125052 0.312278 0.236683
O O20 0.713365 0.000000 0.219707
O O21 0.360282 0.500000 0.409667
#
# Coordination Sequence:
#
# PCOD8085070 Si02
#       8
#     8   8   8   8   8   8   8   8
#     4  10  19  29  47  74 102 133 171 215 258 299
#     4  10  19  32  50  70  97 135 178 221 264 312
#     4   8  16  30  49  74 103 132 165 203 246 299
#     4   9  17  31  51  72  97 132 172 213 259 311
#     4  10  20  35  58  86 111 138 168 204 251 302
#     4  10  21  35  51  72 101 140 177 212 260 313
#     4  10  20  35  54  77 106 136 171 212 254 307
#     4  10  19  30  47  73 101 129 169 223 272 309
#
# _framework density 17.958997
#
# number of rings (size 3 to 8) (size 9 to 14) (size 15 to 20)
#    0.000    2.375    1.250    2.625    0.000    6.250 
#    0.000    0.625    0.000    0.750    0.000    5.250 
#    0.000    0.000    0.000    0.000    0.000    0.000 
#
# Total GULP energy -396810.471714 kJ/mol
# GULP energy per Si atom -12400.327241 kJ/mol
# Density = 1.791812 g / cm^3
# Si number density = 17.958997 Si / 1000 Ang^3
#
#
#
# Elastic Constant Matrix: (Units=GPa)
#
#
# Indices 1 2 3 4 5 6 
#
# 1 95.2000 60.7838 47.7805 0.0000 23.7659 0.0000
# 2 60.7838 106.3676 44.5954 0.0000 17.3159 0.0000
# 3 47.7805 44.5954 85.6174 0.0000 23.3580 0.0000
# 4 0.0000 0.0000 0.0000 27.4617 0.0000 9.1825
# 5 23.7659 17.3159 23.3580 0.0000 29.2082 0.0000
# 6 0.0000 0.0000 0.0000 9.1825 0.0000 31.5077
#
#
#
# Elastic Compliance Matrix: (Units=1/GPa)
#
#
# Indices 1 2 3 4 5 6 
#
# 1 0.020071 -0.008196 -0.004863 0.000000 -0.007583 0.000000
# 2 -0.008196 0.015545 -0.003617 0.000000 0.000346 0.000000
# 3 -0.004863 -0.003617 0.018691 0.000000 -0.008846 0.000000
# 4 0.000000 0.000000 0.000000 0.040346 0.000000 -0.011758
# 5 -0.007583 0.000346 -0.008846 0.000000 0.047276 0.000000
# 6 0.000000 0.000000 0.000000 -0.011758 0.000000 0.035165
#
#
# Mechanical properties :
#
#
# Convention : Reuss Voigt Hill
#
# Bulk Modulus (GPa) = 47.72260 65.94492 56.83376
# Shear Modulus (GPa) = 22.99545 26.57053 24.78299
#
# Velocity S-wave (km/s) = 3.58221 3.85061 3.71883
# Velocity P-wave (km/s) = 6.61365 7.52124 7.08200
#
# Compressibility (1/GPa) = 0.02095443
#
# Stress axis : x y z
#
# Youngs Moduli (GPa) = 49.82228 64.32736 53.50054
#
# Poissons Ratio (x) = 0.52725 0.26018
# Poissons Ratio (y) = 0.40836 0.19353
# Poissons Ratio (z) = 0.24229 0.23270
#
# Static dielectric constant tensor:
#      x y z
#    x 3.284240 0.000000 0.301850 
#    y 0.000000 3.415140 0.000000 
#    z 0.301850 0.000000 3.137770 
# 
# 
# High freq. dielectric constant tensor:
#      x y z
#    x 1.687820 0.000000 0.027260 
#    y 0.000000 1.705200 0.000000 
#    z 0.027260 0.000000 1.665610 
# 
# From -- ./inp_files/281418.got.cif
#   From: 2010.06.25/outbox.cif.g09.slc.cpg/sg12_141_cif.got.tgz:281418.got - 2010.06.28 00:19:55.
