data_PCOD8085741
_publ_section_title
;
Structure prediction by ZEFSAII (Michael W. Deem and Ramdas Pophale) SiO2 
 PCOD8085741
Probable space group: C 2/M
;
_chemical_formula_sum "Si O2"
_cell_formula_units_Z 64
_cell_length_a 27.161608
_cell_length_b 9.457459
_cell_length_c 13.094760
_cell_angle_alpha 90.000000
_cell_angle_beta 80.271072
_cell_angle_gamma 90.000000
_cell_volume 3315.402304
_symmetry_space_group_name_H-M "C 2/M"
_symmetry_group_IT_number 12
_symmetry_cell_setting 'monoclinic'
loop_
_space_group_symop_operation_xyz
x,y,z
-x,y,-z
-x,-y,-z
x,-y,z
1/2+x,1/2+y,z
1/2-x,1/2+y,-z
1/2-x,1/2-y,-z
1/2+x,1/2-y,z
loop_
_atom_site_type_symbol
_atom_site_label
_atom_site_fract_x
_atom_site_fract_y
_atom_site_fract_z
Si Si1 0.699941 0.665959 0.716445
Si Si2 0.456897 0.654968 0.096935
Si Si3 0.363571 0.168983 0.854840
Si Si4 0.851283 0.834607 0.054060
Si Si5 0.971209 0.342512 0.419831
Si Si6 0.686346 0.166795 0.336893
Si Si7 0.476188 0.155249 0.801762
Si Si8 0.139019 0.668587 0.567325
O O1 0.693195 0.500000 0.694843
O O2 0.685362 0.698381 0.838945
O O3 0.756547 0.717839 0.682573
O O4 0.666803 0.754769 0.650059
O O5 0.445284 0.500000 0.147403
O O6 0.406656 0.717466 0.066256
O O7 0.476934 0.755025 0.177343
O O8 0.500000 0.645033 0.000000
O O9 0.340772 0.225152 0.755809
O O10 0.421373 0.219766 0.838995
O O11 0.358265 0.000000 0.866690
O O12 0.335249 0.244255 0.959783
O O13 0.850725 0.000000 0.025172
O O14 0.956609 0.500000 0.464087
O O15 0.918238 0.275295 0.406026
O O16 0.000000 0.258260 0.500000
O O17 0.013937 0.353190 0.320746
O O18 0.660591 0.220111 0.450317
O O19 0.683350 0.000000 0.333172
O O20 0.478606 0.000000 0.852108
O O21 0.144761 0.500000 0.580753
#
# Coordination Sequence:
#
# PCOD8085741 Si02
#       8
#     8   8   8   8   8   8   8   8
#     4  10  21  37  56  76 104 138 172 214 261 308
#     4  10  19  32  49  68  97 135 168 199 243 300
#     4  10  20  34  53  76 104 137 173 213 255 304
#     4  10  21  36  52  74 104 139 175 210 255 307
#     4   9  17  30  50  77 107 136 164 199 248 303
#     4   9  19  36  56  78 103 135 171 211 264 312
#     4  10  19  30  49  77 103 129 167 211 248 289
#     4  10  19  34  58  82 105 133 171 215 255 304
#
# _framework density 19.303842
#
# number of rings (size 3 to 8) (size 9 to 14) (size 15 to 20)
#    0.000    2.250    1.250    1.875    0.000    4.750 
#    0.000    1.250    0.000    3.000    0.000    0.000 
#    0.000    0.000    0.000    0.000    0.000    0.000 
#
# Total GULP energy -396610.830428 kJ/mol
# GULP energy per Si atom -12394.088451 kJ/mol
# Density = 1.925991 g / cm^3
# Si number density = 19.303842 Si / 1000 Ang^3
#
#
#
# Elastic Constant Matrix: (Units=GPa)
#
#
# Indices 1 2 3 4 5 6 
#
# 1 87.2625 21.7056 37.2200 0.0000 -0.0671 0.0000
# 2 21.7056 41.3093 34.8814 0.0000 9.2360 0.0000
# 3 37.2200 34.8814 119.0675 0.0000 4.1671 0.0000
# 4 0.0000 0.0000 0.0000 45.3429 0.0000 -3.2443
# 5 -0.0671 9.2360 4.1671 0.0000 35.7302 0.0000
# 6 0.0000 0.0000 0.0000 -3.2443 0.0000 19.8982
#
#
#
# Elastic Compliance Matrix: (Units=1/GPa)
#
#
# Indices 1 2 3 4 5 6 
#
# 1 0.014013 -0.005316 -0.002884 0.000000 0.001737 0.000000
# 2 -0.005316 0.036164 -0.008640 0.000000 -0.008350 0.000000
# 3 -0.002884 -0.008640 0.011801 0.000000 0.000852 0.000000
# 4 0.000000 0.000000 0.000000 0.022314 0.000000 0.003638
# 5 0.001737 -0.008350 0.000852 0.000000 0.030050 0.000000
# 6 0.000000 0.000000 0.000000 0.003638 0.000000 0.050849
#
#
# Mechanical properties :
#
#
# Convention : Reuss Voigt Hill
#
# Bulk Modulus (GPa) = 35.33858 48.36148 41.85003
# Shear Modulus (GPa) = 24.00315 30.44975 27.22645
#
# Velocity S-wave (km/s) = 3.53007 3.97595 3.75962
# Velocity P-wave (km/s) = 5.91282 6.79593 6.36970
#
# Compressibility (1/GPa) = 0.02829769
#
# Stress axis : x y z
#
# Youngs Moduli (GPa) = 71.35989 27.65191 84.73531
#
# Poissons Ratio (x) = 0.14701 0.24436
# Poissons Ratio (y) = 0.37938 0.73213
# Poissons Ratio (z) = 0.20579 0.23892
#
# Static dielectric constant tensor:
#      x y z
#    x 3.712240 0.000000 -0.015210 
#    y 0.000000 3.359100 0.000000 
#    z -0.015210 0.000000 3.605650 
# 
# 
# High freq. dielectric constant tensor:
#      x y z
#    x 1.759150 0.000000 -0.002860 
#    y 0.000000 1.710620 0.000000 
#    z -0.002860 0.000000 1.761100 
# 
# From -- ./inp_files/174592.got.cif
#   From: 2010.06.25/outbox.cif.g09.slc.cpg/sg12_88_cif.got.tgz:174592.got - 2010.06.28 00:19:55.
