data_PCOD8085348
_publ_section_title
;
Structure prediction by ZEFSAII (Michael W. Deem and Ramdas Pophale) SiO2 
 PCOD8085348
Probable space group: C 2/M
;
_chemical_formula_sum "Si O2"
_cell_formula_units_Z 56
_cell_length_a 19.447933
_cell_length_b 9.243507
_cell_length_c 20.448466
_cell_angle_alpha 90.000000
_cell_angle_beta 118.636217
_cell_angle_gamma 90.000000
_cell_volume 3226.318711
_symmetry_space_group_name_H-M "C 2/M"
_symmetry_group_IT_number 12
_symmetry_cell_setting 'monoclinic'
loop_
_space_group_symop_operation_xyz
x,y,z
-x,y,-z
-x,-y,-z
x,-y,z
1/2+x,1/2+y,z
1/2-x,1/2+y,-z
1/2-x,1/2-y,-z
1/2+x,1/2-y,z
loop_
_atom_site_type_symbol
_atom_site_label
_atom_site_fract_x
_atom_site_fract_y
_atom_site_fract_z
Si Si1 0.010664 0.827981 0.367194
Si Si2 0.824285 0.827402 0.502467
Si Si3 0.542978 0.671653 0.923730
Si Si4 0.077980 0.171458 0.797867
Si Si5 0.618349 0.329174 0.088635
Si Si6 0.361721 0.329315 0.375140
Si Si7 0.768899 0.169305 0.206810
O O1 0.098184 0.775900 0.423192
O O2 0.986589 0.771665 0.283797
O O3 0.946989 0.768511 0.391166
O O4 0.006299 0.000000 0.367031
O O5 0.750000 0.750000 0.500000
O O6 0.835314 0.769122 0.433447
O O7 0.812686 0.000000 0.500353
O O8 0.543508 0.500000 0.920095
O O9 0.563618 0.741279 0.862733
O O10 0.456852 0.723864 0.904846
O O11 0.606394 0.719588 0.007476
O O12 0.164148 0.216465 0.813664
O O13 0.071491 0.000000 0.798882
O O14 0.629275 0.500000 0.098525
O O15 0.691972 0.254785 0.154169
O O16 0.369615 0.500000 0.384023
O O17 0.295873 0.286819 0.292082
O O18 0.751601 0.000000 0.194328
#
# Coordination Sequence:
#
# PCOD8085348 Si02
#       7
#     8   8   8   8   8   8   8
#     4   8  14  26  46  67  83 110 154 189 209 244
#     4  10  19  30  46  69  94 116 142 179 218 257
#     4   8  15  28  43  60  86 120 150 176 214 260
#     4   8  14  26  45  67  87 109 146 190 219 247
#     4   9  17  29  45  64  88 118 148 177 214 263
#     4   8  15  29  47  65  87 116 148 180 215 255
#     4   9  17  29  46  67  88 112 144 183 224 258
#
# _framework density 17.357243
#
# number of rings (size 3 to 8) (size 9 to 14) (size 15 to 20)
#    0.000    3.429    0.000    3.000    0.000    3.429 
#    0.000    3.571    0.000    6.000    0.000    0.000 
#    0.000    0.000    0.000    0.000    0.000    0.000 
#
# Total GULP energy -346969.341491 kJ/mol
# GULP energy per Si atom -12391.762196 kJ/mol
# Density = 1.731774 g / cm^3
# Si number density = 17.357243 Si / 1000 Ang^3
#
#
#
# Elastic Constant Matrix: (Units=GPa)
#
#
# Indices 1 2 3 4 5 6 
#
# 1 83.2668 17.2553 49.8049 0.0000 5.5013 0.0000
# 2 17.2553 17.8076 21.8691 0.0000 7.5758 0.0000
# 3 49.8049 21.8691 99.6673 0.0000 14.6543 0.0000
# 4 0.0000 0.0000 0.0000 20.7971 0.0000 7.3505
# 5 5.5013 7.5758 14.6543 0.0000 35.3108 0.0000
# 6 0.0000 0.0000 0.0000 7.3505 0.0000 21.8005
#
#
#
# Elastic Compliance Matrix: (Units=1/GPa)
#
#
# Indices 1 2 3 4 5 6 
#
# 1 0.018244 -0.009634 -0.007337 0.000000 0.002269 0.000000
# 2 -0.009634 0.085501 -0.012215 0.000000 -0.011774 0.000000
# 3 -0.007337 -0.012215 0.016855 0.000000 -0.003231 0.000000
# 4 0.000000 0.000000 0.000000 0.054589 0.000000 -0.018406
# 5 0.002269 -0.011774 -0.003231 0.000000 0.031833 0.000000
# 6 0.000000 0.000000 0.000000 -0.018406 0.000000 0.052077
#
#
# Mechanical properties :
#
#
# Convention : Reuss Voigt Hill
#
# Bulk Modulus (GPa) = 16.06983 42.06669 29.06826
# Shear Modulus (GPa) = 14.78351 23.03585 18.90968
#
# Velocity S-wave (km/s) = 2.92159 3.64697 3.30425
# Velocity P-wave (km/s) = 4.54525 6.48246 5.59829
#
# Compressibility (1/GPa) = 0.06222841
#
# Stress axis : x y z
#
# Youngs Moduli (GPa) = 54.81119 11.69575 59.32943
#
# Poissons Ratio (x) = 0.11268 0.43528
# Poissons Ratio (y) = 0.52805 0.72474
# Poissons Ratio (z) = 0.40214 0.14287
#
# Static dielectric constant tensor:
#      x y z
#    x 3.543090 0.000000 -0.352350 
#    y 0.000000 2.605520 0.000000 
#    z -0.352350 0.000000 3.740380 
# 
# 
# High freq. dielectric constant tensor:
#      x y z
#    x 1.672980 0.000000 -0.004510 
#    y 0.000000 1.604090 0.000000 
#    z -0.004510 0.000000 1.686690 
# 
# From -- ./inp_files/313769.got.cif
#   From: 2010.06.25/outbox.cif.g09.slc.cpg/sg12_157_cif.got.tgz:313769.got - 2010.06.28 00:19:55.
