data_PCOD8085719
_publ_section_title
;
Structure prediction by ZEFSAII (Michael W. Deem and Ramdas Pophale) SiO2 
 PCOD8085719
Probable space group: C 2/M
;
_chemical_formula_sum "Si O2"
_cell_formula_units_Z 64
_cell_length_a 23.192603
_cell_length_b 9.080768
_cell_length_c 21.443600
_cell_angle_alpha 90.000000
_cell_angle_beta 126.667788
_cell_angle_gamma 90.000000
_cell_volume 3622.467666
_symmetry_space_group_name_H-M "C 2/M"
_symmetry_group_IT_number 12
_symmetry_cell_setting 'monoclinic'
loop_
_space_group_symop_operation_xyz
x,y,z
-x,y,-z
-x,-y,-z
x,-y,z
1/2+x,1/2+y,z
1/2-x,1/2+y,-z
1/2-x,1/2-y,-z
1/2+x,1/2-y,z
loop_
_atom_site_type_symbol
_atom_site_label
_atom_site_fract_x
_atom_site_fract_y
_atom_site_fract_z
Si Si1 0.574261 0.665691 0.234761
Si Si2 0.995503 0.834390 0.689973
Si Si3 0.176169 0.672263 0.212399
Si Si4 0.079021 0.327242 0.032638
Si Si5 0.871972 0.669753 0.178005
Si Si6 0.179869 0.327159 0.724294
Si Si7 0.911432 0.170065 0.087455
Si Si8 0.038348 0.169171 0.585981
O O1 0.596614 0.500000 0.229817
O O2 0.574598 0.683748 0.310883
O O3 0.629927 0.780844 0.242519
O O4 0.494088 0.700689 0.158516
O O5 0.050348 0.707493 0.744219
O O6 0.981120 0.818507 0.606664
O O7 0.027709 0.000000 0.724243
O O8 0.191353 0.500000 0.226047
O O9 0.132848 0.715433 0.122538
O O10 0.250795 0.757466 0.262757
O O11 0.076566 0.500000 0.017824
O O12 0.107466 0.247633 0.989482
O O13 0.000000 0.268691 0.000000
O O14 0.869445 0.500000 0.157019
O O15 0.816579 0.705298 0.198647
O O16 0.858515 0.765330 0.106985
O O17 0.178127 0.500000 0.710141
O O18 0.110115 0.258194 0.647029
O O19 0.893483 0.000000 0.068488
O O20 0.000000 0.235476 0.500000
O O21 0.060403 0.000000 0.588533
#
# Coordination Sequence:
#
# PCOD8085719 Si02
#       8
#     8   8   8   8   8   8   8   8
#     4   9  17  29  46  70 100 132 166 206 249 294
#     4   8  15  28  47  75 105 131 163 202 245 292
#     4  11  22  34  51  72  98 135 172 211 256 304
#     4  10  20  34  49  70 100 131 169 217 263 304
#     4   9  17  30  49  70  95 129 166 207 253 297
#     4  10  21  36  53  75 104 136 169 207 250 302
#     4  10  19  30  49  74  98 128 167 214 260 301
#     4   9  17  32  57  85 110 135 164 201 245 297
#
# _framework density 17.667514000000001
#
# number of rings (size 3 to 8) (size 9 to 14) (size 15 to 20)
#    0.000    2.500    1.250    2.250    0.000    5.000 
#    0.000    0.625    0.000    0.750    0.000    0.000 
#    0.000    0.000    0.000    0.000    0.000    0.000 
#
# Total GULP energy -396638.458676 kJ/mol
# GULP energy per Si atom -12394.951834 kJ/mol
# Density = 1.762730 g / cm^3
# Si number density = 17.667514 Si / 1000 Ang^3
#
#
#
# Elastic Constant Matrix: (Units=GPa)
#
#
# Indices 1 2 3 4 5 6 
#
# 1 92.8488 42.7869 49.6409 0.0000 -13.5758 0.0000
# 2 42.7869 65.7568 37.2501 0.0000 -3.4139 0.0000
# 3 49.6409 37.2501 85.5002 0.0000 -17.5222 0.0000
# 4 0.0000 0.0000 0.0000 19.9607 0.0000 -4.1571
# 5 -13.5758 -3.4139 -17.5222 0.0000 26.4234 0.0000
# 6 0.0000 0.0000 0.0000 -4.1571 0.0000 27.4113
#
#
#
# Elastic Compliance Matrix: (Units=1/GPa)
#
#
# Indices 1 2 3 4 5 6 
#
# 1 0.018594 -0.008311 -0.006292 0.000000 0.004307 0.000000
# 2 -0.008311 0.024228 -0.006902 0.000000 -0.005716 0.000000
# 3 -0.006292 -0.006902 0.020265 0.000000 0.009314 0.000000
# 4 0.000000 0.000000 0.000000 0.051732 0.000000 0.007846
# 5 0.004307 -0.005716 0.009314 0.000000 0.045496 0.000000
# 6 0.000000 0.000000 0.000000 0.007846 0.000000 0.037671
#
#
# Mechanical properties :
#
#
# Convention : Reuss Voigt Hill
#
# Bulk Modulus (GPa) = 49.80743 55.94018 52.87380
# Shear Modulus (GPa) = 20.18671 22.38759 21.28715
#
# Velocity S-wave (km/s) = 3.38389 3.56358 3.47490
# Velocity P-wave (km/s) = 6.59699 6.97593 6.78911
#
# Compressibility (1/GPa) = 0.02007733
#
# Stress axis : x y z
#
# Youngs Moduli (GPa) = 53.78180 41.27410 49.34685
#
# Poissons Ratio (x) = 0.34302 0.31049
# Poissons Ratio (y) = 0.44696 0.34059
# Poissons Ratio (z) = 0.33839 0.28487
#
# Static dielectric constant tensor:
#      x y z
#    x 3.387030 0.000000 -0.375570 
#    y 0.000000 3.281530 0.000000 
#    z -0.375570 0.000000 3.064590 
# 
# 
# High freq. dielectric constant tensor:
#      x y z
#    x 1.680110 0.000000 -0.031780 
#    y 0.000000 1.689930 0.000000 
#    z -0.031780 0.000000 1.646250 
# 
# From -- ./inp_files/324292.got.cif
#   From: 2010.06.25/outbox.cif.g09.slc.cpg/sg12_163_cif.got.tgz:324292.got - 2010.06.28 00:19:55.
