data_PCOD8085958
_publ_section_title
;
Structure prediction by ZEFSAII (Michael W. Deem and Ramdas Pophale) SiO2 
 PCOD8085958
Probable space group: C 2/M
;
_chemical_formula_sum "Si O2"
_cell_formula_units_Z 44
_cell_length_a 41.289829
_cell_length_b 7.458276
_cell_length_c 13.864422
_cell_angle_alpha 90.000000
_cell_angle_beta 141.559906
_cell_angle_gamma 90.000000
_cell_volume 2654.369641
_symmetry_space_group_name_H-M "C 2/M"
_symmetry_group_IT_number 12
_symmetry_cell_setting 'monoclinic'
loop_
_space_group_symop_operation_xyz
x,y,z
-x,y,-z
-x,-y,-z
x,-y,z
1/2+x,1/2+y,z
1/2-x,1/2+y,-z
1/2-x,1/2-y,-z
1/2+x,1/2-y,z
loop_
_atom_site_type_symbol
_atom_site_label
_atom_site_fract_x
_atom_site_fract_y
_atom_site_fract_z
Si Si1 0.452608 0.000000 0.528226
Si Si2 0.953833 0.212377 0.028001
Si Si3 0.934501 0.500000 0.137518
Si Si4 0.126252 0.500000 0.818997
Si Si5 0.310190 0.294613 0.136790
Si Si6 0.433308 0.707831 0.773658
Si Si7 0.388302 0.293995 0.478362
O O1 0.433528 0.821187 0.536447
O O2 0.514737 0.000000 0.675402
O O3 0.429037 0.000000 0.365615
O O4 0.930845 0.321307 0.064278
O O5 0.013207 0.278208 0.149674
O O6 0.948181 0.000000 0.036529
O O7 0.922895 0.277218 0.858081
O O8 0.884893 0.500000 0.093121
O O9 0.160251 0.674983 0.872641
O O10 0.319316 0.500000 0.128499
O O11 0.333202 0.254458 0.297940
O O12 0.250000 0.250000 0.000000
O O13 0.442784 0.500000 0.810148
O O14 0.386118 0.752414 0.588614
O O15 0.405164 0.500000 0.504346
#
# Coordination Sequence:
#
# PCOD8085958 Si02
#       7
#     4   8   4   4   8   8   8
#     4  10  19  31  46  66 101 138 164 196 226 277
#     4   9  18  29  44  66  99 136 166 201 231 272
#     4  12  21  30  48  69 100 144 169 191 230 282
#     4  10  23  36  47  74 100 127 169 197 239 299
#     4  10  19  35  57  75  96 118 151 208 260 294
#     4   8  14  28  45  67  99 131 166 199 235 275
#     4   9  17  29  48  73  99 126 158 198 244 289
#
# _framework density 16.576439000000001
#
# number of rings (size 3 to 8) (size 9 to 14) (size 15 to 20)
#    0.000    2.545    2.727    1.364    0.000    2.909 
#    0.000    0.000    0.000    5.455    0.000    1.273 
#    0.000    0.000    0.000    0.000    0.000    0.000 
#
# Total GULP energy -272561.461527 kJ/mol
# GULP energy per Si atom -12389.157342 kJ/mol
# Density = 1.653871 g / cm^3
# Si number density = 16.576439 Si / 1000 Ang^3
#
#
#
# Elastic Constant Matrix: (Units=GPa)
#
#
# Indices 1 2 3 4 5 6 
#
# 1 104.1153 45.9344 63.7211 0.0000 -18.3862 0.0000
# 2 45.9344 90.0339 36.9318 0.0001 -7.7088 0.0001
# 3 63.7211 36.9318 104.1653 0.0000 -10.8260 0.0000
# 4 0.0000 0.0001 0.0000 16.4303 0.0000 -4.6954
# 5 -18.3862 -7.7088 -10.8260 0.0000 20.1171 0.0000
# 6 0.0000 0.0001 0.0000 -4.6954 0.0000 19.1023
#
#
#
# Elastic Compliance Matrix: (Units=1/GPa)
#
#
# Indices 1 2 3 4 5 6 
#
# 1 0.019198 -0.005280 -0.008748 0.000000 0.010815 0.000000
# 2 -0.005280 0.014584 -0.001972 0.000000 -0.000298 0.000000
# 3 -0.008748 -0.001972 0.015614 0.000000 -0.000348 0.000000
# 4 0.000000 0.000000 0.000000 0.065462 0.000000 0.016091
# 5 0.010815 -0.000298 -0.000348 0.000000 0.059292 0.000000
# 6 0.000000 0.000000 0.000000 0.016091 0.000000 0.056305
#
#
# Mechanical properties :
#
#
# Convention : Reuss Voigt Hill
#
# Bulk Modulus (GPa) = 57.48171 65.72101 61.60136
# Shear Modulus (GPa) = 18.63903 21.24508 19.94206
#
# Velocity S-wave (km/s) = 3.35689 3.58389 3.47224
# Velocity P-wave (km/s) = 7.05528 7.54049 7.30192
#
# Compressibility (1/GPa) = 0.01739684
#
# Stress axis : x y z
#
# Youngs Moduli (GPa) = 52.08810 68.56772 64.04336
#
# Poissons Ratio (x) = 0.36206 0.56025
# Poissons Ratio (y) = 0.27504 0.12627
# Poissons Ratio (z) = 0.45567 0.13519
#
# Static dielectric constant tensor:
#      x y z
#    x 2.710980 0.000000 -0.326420 
#    y 0.000000 3.227250 0.000000 
#    z -0.326420 0.000000 3.379960 
# 
# 
# High freq. dielectric constant tensor:
#      x y z
#    x 1.584220 0.000000 -0.032550 
#    y 0.000000 1.651190 0.000000 
#    z -0.032550 0.000000 1.640450 
# 
# From -- ./inp_files/186995.got.cif
#   From: 2010.06.25/outbox.cif.g09.slc.cpg/sg12_94_cif.got.tgz:186995.got - 2010.06.28 00:19:55.
