data_PCOD8085100
_publ_section_title
;
Structure prediction by ZEFSAII (Michael W. Deem and Ramdas Pophale) SiO2 
 PCOD8085100
Probable space group: C 2/M
;
_chemical_formula_sum "Si O2"
_cell_formula_units_Z 60
_cell_length_a 27.905424
_cell_length_b 20.376335
_cell_length_c 11.443554
_cell_angle_alpha 90.000000
_cell_angle_beta 30.231997
_cell_angle_gamma 90.000000
_cell_volume 3276.251810
_symmetry_space_group_name_H-M "C 2/M"
_symmetry_group_IT_number 12
_symmetry_cell_setting 'monoclinic'
loop_
_space_group_symop_operation_xyz
x,y,z
-x,y,-z
-x,-y,-z
x,-y,z
1/2+x,1/2+y,z
1/2-x,1/2+y,-z
1/2-x,1/2-y,-z
1/2+x,1/2-y,z
loop_
_atom_site_type_symbol
_atom_site_label
_atom_site_fract_x
_atom_site_fract_y
_atom_site_fract_z
Si Si1 0.782840 0.572306 0.722767
Si Si2 0.821298 0.810883 0.351870
Si Si3 0.594539 0.237592 0.633208
Si Si4 0.689662 0.927434 0.610102
Si Si5 0.012963 0.571567 0.608293
Si Si6 0.500000 0.864643 0.000000
Si Si7 0.191852 0.802670 0.875958
Si Si8 0.036847 0.713019 0.290578
O O1 0.742889 0.500000 0.838735
O O2 0.810490 0.576516 0.529079
O O3 0.876963 0.588117 0.598461
O O4 0.701359 0.626750 0.921960
O O5 0.750000 0.750000 0.500000
O O6 0.901851 0.798065 0.280967
O O7 0.766597 0.877455 0.501361
O O8 0.864233 0.813343 0.129686
O O9 0.543869 0.177038 0.802916
O O10 0.701212 0.220753 0.371743
O O11 0.535264 0.253526 0.641334
O O12 0.715990 0.000000 0.599617
O O13 0.583746 0.909408 0.877849
O O14 0.984886 0.500000 0.726439
O O15 0.000000 0.561848 0.500000
O O16 0.952972 0.636448 0.772759
O O17 0.138466 0.749274 0.067997
O O18 0.000000 0.716664 0.500000
#
# Coordination Sequence:
#
# PCOD8085100 Si02
#       8
#     8   8   8   8   8   4   8   8
#     4   9  16  32  53  76 108 144 178 218 269 322
#     4   9  17  34  52  75 108 147 178 207 262 329
#     4  11  21  34  54  79 109 146 181 217 265 324
#     4  10  19  29  49  82 117 141 168 218 273 331
#     4   9  17  32  51  76 108 137 174 217 270 331
#     4  12  17  30  54  82 115 142 174 212 269 332
#     4  10  19  35  54  78 112 138 185 222 263 323
#     4  11  23  36  55  81 107 146 183 229 272 308
#
# _framework density 18.313611000000002
#
# number of rings (size 3 to 8) (size 9 to 14) (size 15 to 20)
#    0.000    2.000    5.333    1.000    1.867    0.533 
#    0.000    0.667    0.000    1.200    0.000    4.200 
#    0.000    0.000    0.000    0.000    0.000    0.000 
#
# Total GULP energy -371649.193156 kJ/mol
# GULP energy per Si atom -12388.306439 kJ/mol
# Density = 1.827193 g / cm^3
# Si number density = 18.313611 Si / 1000 Ang^3
#
#
#
# Elastic Constant Matrix: (Units=GPa)
#
#
# Indices 1 2 3 4 5 6 
#
# 1 83.7210 38.2425 12.8601 0.0000 -2.9088 0.0000
# 2 38.2425 168.0336 54.1839 0.0000 -11.7225 0.0000
# 3 12.8601 54.1839 73.5570 0.0000 0.4975 0.0000
# 4 0.0000 0.0000 0.0000 11.1486 0.0000 -0.6946
# 5 -2.9088 -11.7225 0.4975 0.0000 9.6485 0.0000
# 6 0.0000 0.0000 0.0000 -0.6946 0.0000 20.8894
#
#
#
# Elastic Compliance Matrix: (Units=1/GPa)
#
#
# Indices 1 2 3 4 5 6 
#
# 1 0.013333 -0.002952 -0.000159 0.000000 0.000441 0.000000
# 2 -0.002952 0.009506 -0.006560 0.000000 0.010997 0.000000
# 3 -0.000159 -0.006560 0.018516 0.000000 -0.008973 0.000000
# 4 0.000000 0.000000 0.000000 0.089884 0.000000 0.002989
# 5 0.000441 0.010997 -0.008973 0.000000 0.117600 0.000000
# 6 0.000000 0.000000 0.000000 0.002989 0.000000 0.047971
#
#
# Mechanical properties :
#
#
# Convention : Reuss Voigt Hill
#
# Bulk Modulus (GPa) = 45.43253 59.54271 52.48762
# Shear Modulus (GPa) = 15.45646 23.00565 19.23105
#
# Velocity S-wave (km/s) = 2.90830 3.54814 3.24403
# Velocity P-wave (km/s) = 6.01162 7.02632 6.53868
#
# Compressibility (1/GPa) = 0.02201066
#
# Stress axis : x y z
#
# Youngs Moduli (GPa) = 75.00323 105.19942 54.00741
#
# Poissons Ratio (x) = 0.31058 0.00860
# Poissons Ratio (y) = 0.22143 0.35431
# Poissons Ratio (z) = 0.01194 0.69015
#
# Static dielectric constant tensor:
#      x y z
#    x 3.676210 0.000000 -0.069880 
#    y 0.000000 3.989300 0.000000 
#    z -0.069880 0.000000 3.010690 
# 
# 
# High freq. dielectric constant tensor:
#      x y z
#    x 1.706300 0.000000 -0.000060 
#    y 0.000000 1.712510 0.000000 
#    z -0.000060 0.000000 1.663160 
# 
# From -- ./inp_files/190215.got.cif
#   From: 2010.06.25/outbox.cif.g09.slc.cpg/sg12_96_cif.got.tgz:190215.got - 2010.06.28 00:19:55.
