data_PCOD8085534
_publ_section_title
;
Structure prediction by ZEFSAII (Michael W. Deem and Ramdas Pophale) SiO2 
 PCOD8085534
Probable space group: C 2/M
;
_chemical_formula_sum "Si O2"
_cell_formula_units_Z 56
_cell_length_a 28.141652
_cell_length_b 10.381762
_cell_length_c 15.207432
_cell_angle_alpha 90.000000
_cell_angle_beta 136.547674
_cell_angle_gamma 90.000000
_cell_volume 3055.678295
_symmetry_space_group_name_H-M "C 2/M"
_symmetry_group_IT_number 12
_symmetry_cell_setting 'monoclinic'
loop_
_space_group_symop_operation_xyz
x,y,z
-x,y,-z
-x,-y,-z
x,-y,z
1/2+x,1/2+y,z
1/2-x,1/2+y,-z
1/2-x,1/2-y,-z
1/2+x,1/2-y,z
loop_
_atom_site_type_symbol
_atom_site_label
_atom_site_fract_x
_atom_site_fract_y
_atom_site_fract_z
Si Si1 0.173721 0.361310 0.924273
Si Si2 0.308963 0.347188 0.608399
Si Si3 0.306696 0.646033 0.806892
Si Si4 0.911122 0.851908 0.096460
Si Si5 0.292773 0.271610 0.197920
Si Si6 0.435576 0.349119 0.661172
Si Si7 0.435541 0.648671 0.466393
O O1 0.136408 0.500000 0.886485
O O2 0.124580 0.241516 0.880994
O O3 0.194611 0.349700 0.849778
O O4 0.242327 0.366853 0.076802
O O5 0.291471 0.500000 0.569292
O O6 0.250000 0.250000 0.500000
O O7 0.323645 0.318030 0.729972
O O8 0.375636 0.298507 0.644270
O O9 0.281870 0.500000 0.781428
O O10 0.243985 0.730236 0.760830
O O11 0.377126 0.669711 0.955717
O O12 0.991191 0.814089 0.196491
O O13 0.902040 0.000000 0.116703
O O14 0.364683 0.338506 0.317937
O O15 0.425790 0.500000 0.639401
O O16 0.430032 0.286500 0.555984
O O17 0.500000 0.712777 0.500000
O O18 0.453426 0.500000 0.504062
#
# Coordination Sequence:
#
# PCOD8085534 Si02
#       7
#     8   8   8   8   8   8   8
#     4  10  20  32  50  76 104 133 166 206 250 299
#     4  10  20  35  54  76 103 133 169 209 249 294
#     4   9  18  32  52  76  99 128 165 207 249 294
#     4   9  18  34  54  76 102 131 166 205 251 301
#     4  10  19  31  49  70 101 136 166 201 250 301
#     4   9  18  32  52  76 101 131 167 209 250 294
#     4  10  19  30  47  72  99 129 168 208 245 291
#
# _framework density 18.326536000000001
#
# number of rings (size 3 to 8) (size 9 to 14) (size 15 to 20)
#    0.000    2.429    0.000    2.571    0.000    5.714 
#    0.000    6.429    0.000    9.429    0.000    5.000 
#    0.000    0.000    0.000    0.000    0.000    0.000 
#
# Total GULP energy -347033.218737 kJ/mol
# GULP energy per Si atom -12394.043526 kJ/mol
# Density = 1.828482 g / cm^3
# Si number density = 18.326536 Si / 1000 Ang^3
#
#
#
# Elastic Constant Matrix: (Units=GPa)
#
#
# Indices 1 2 3 4 5 6 
#
# 1 160.6178 40.4061 66.9943 0.0000 -1.5428 0.0000
# 2 40.4061 70.7686 27.9937 0.0000 3.3226 0.0000
# 3 66.9943 27.9937 92.2772 0.0000 7.1584 0.0000
# 4 0.0000 0.0000 0.0000 8.9803 0.0000 5.4020
# 5 -1.5428 3.3226 7.1584 0.0000 38.1318 0.0000
# 6 0.0000 0.0000 0.0000 5.4020 0.0000 17.5399
#
#
#
# Elastic Compliance Matrix: (Units=1/GPa)
#
#
# Indices 1 2 3 4 5 6 
#
# 1 0.009601 -0.003130 -0.006162 0.000000 0.001818 0.000000
# 2 -0.003130 0.017087 -0.002827 0.000000 -0.001085 0.000000
# 3 -0.006162 -0.002827 0.016407 0.000000 -0.003083 0.000000
# 4 0.000000 0.000000 0.000000 0.136677 0.000000 -0.042095
# 5 0.001818 -0.001085 -0.003083 0.000000 0.026972 0.000000
# 6 0.000000 0.000000 0.000000 -0.042095 0.000000 0.069978
#
#
# Mechanical properties :
#
#
# Convention : Reuss Voigt Hill
#
# Bulk Modulus (GPa) = 53.02953 66.05019 59.53986
# Shear Modulus (GPa) = 16.27366 25.48168 20.87767
#
# Velocity S-wave (km/s) = 2.98314 3.73289 3.37887
# Velocity P-wave (km/s) = 6.39251 7.39583 6.91240
#
# Compressibility (1/GPa) = 0.01885742
#
# Stress axis : x y z
#
# Youngs Moduli (GPa) = 104.15669 58.52488 60.94796
#
# Poissons Ratio (x) = 0.18316 0.37556
# Poissons Ratio (y) = 0.32597 0.17231
# Poissons Ratio (z) = 0.64181 0.16546
#
# Static dielectric constant tensor:
#      x y z
#    x 3.647380 0.000000 -0.113200 
#    y 0.000000 3.047080 0.000000 
#    z -0.113200 0.000000 3.418830 
# 
# 
# High freq. dielectric constant tensor:
#      x y z
#    x 1.714750 0.000000 -0.005080 
#    y 0.000000 1.675110 0.000000 
#    z -0.005080 0.000000 1.715740 
# 
# From -- ./inp_files/245682.got.cif
#   From: 2010.06.25/outbox.cif.g09.slc.cpg/sg12_123_cif.got.tgz:245682.got - 2010.06.28 00:19:55.
