data_PCOD8085720
_publ_section_title
;
Structure prediction by ZEFSAII (Michael W. Deem and Ramdas Pophale) SiO2 
 PCOD8085720
Probable space group: C 2/M
;
_chemical_formula_sum "Si O2"
_cell_formula_units_Z 64
_cell_length_a 20.346045
_cell_length_b 8.990749
_cell_length_c 33.494362
_cell_angle_alpha 90.000000
_cell_angle_beta 146.381518
_cell_angle_gamma 90.000000
_cell_volume 3392.273713
_symmetry_space_group_name_H-M "C 2/M"
_symmetry_group_IT_number 12
_symmetry_cell_setting 'monoclinic'
loop_
_space_group_symop_operation_xyz
x,y,z
-x,y,-z
-x,-y,-z
x,-y,z
1/2+x,1/2+y,z
1/2-x,1/2+y,-z
1/2-x,1/2-y,-z
1/2+x,1/2-y,z
loop_
_atom_site_type_symbol
_atom_site_label
_atom_site_fract_x
_atom_site_fract_y
_atom_site_fract_z
Si Si1 0.465111 0.323574 0.788447
Si Si2 0.052340 0.823349 0.308411
Si Si3 0.133640 0.323315 0.060824
Si Si4 0.013683 0.323424 0.551677
Si Si5 0.276633 0.676672 0.055469
Si Si6 0.305380 0.676569 0.218756
Si Si7 0.266942 0.823152 0.284014
Si Si8 0.773188 0.676086 0.470228
O O1 0.462944 0.500000 0.784733
O O2 0.447442 0.254882 0.735658
O O3 0.591069 0.267936 0.868015
O O4 0.359055 0.267533 0.762861
O O5 0.171289 0.765032 0.389271
O O6 0.936700 0.768318 0.273612
O O7 0.050369 0.000000 0.305171
O O8 0.133354 0.500000 0.060127
O O9 0.187620 0.267279 0.045684
O O10 0.214788 0.267603 0.138615
O O11 0.000000 0.261241 0.000000
O O12 0.019314 0.500000 0.551699
O O13 0.130528 0.264744 0.633894
O O14 0.000000 0.257459 0.500000
O O15 0.899778 0.268743 0.518547
O O16 0.268888 0.500000 0.047525
O O17 0.250000 0.750000 0.000000
O O18 0.298074 0.500000 0.219911
O O19 0.275407 0.752038 0.245105
O O20 0.274502 0.000000 0.283725
O O21 0.768725 0.500000 0.472379
O O22 0.750000 0.750000 0.500000
#
# Coordination Sequence:
#
# PCOD8085720 Si02
#       8
#     8   8   8   8   8   8   8   8
#     4   9  17  32  52  73  97 129 168 203 237 285
#     4   9  16  30  52  73  92 126 172 207 234 281
#     4   9  18  33  53  75  98 130 168 202 237 286
#     4   9  17  31  50  73  98 129 170 208 241 287
#     4  10  20  35  55  77 102 129 163 204 245 291
#     4  10  19  33  53  74  99 130 168 206 241 291
#     4  10  20  32  50  75 103 131 161 204 253 292
#     4  10  19  30  49  74  99 126 161 204 247 290
#
# _framework density 18.866402999999998
#
# number of rings (size 3 to 8) (size 9 to 14) (size 15 to 20)
#    0.000    2.500    1.250    1.500    1.750    3.000 
#    0.000    0.625    0.000    6.000    0.000    0.000 
#    0.000    0.000    0.000    0.000    0.000    0.000 
#
# Total GULP energy -396710.165720 kJ/mol
# GULP energy per Si atom -12397.192679 kJ/mol
# Density = 1.882346 g / cm^3
# Si number density = 18.866403 Si / 1000 Ang^3
#
#
#
# Elastic Constant Matrix: (Units=GPa)
#
#
# Indices 1 2 3 4 5 6 
#
# 1 197.9085 24.7482 102.0061 0.0001 -2.8969 -0.0002
# 2 24.7482 13.4381 21.6189 0.0000 -2.8318 -0.0002
# 3 102.0061 21.6189 168.0158 0.0000 -0.0060 -0.0001
# 4 0.0001 0.0000 0.0000 14.3057 0.0000 -9.3238
# 5 -2.8969 -2.8318 -0.0060 0.0000 46.9364 0.0000
# 6 -0.0002 -0.0002 -0.0001 -9.3238 0.0000 25.8800
#
#
#
# Elastic Compliance Matrix: (Units=1/GPa)
#
#
# Indices 1 2 3 4 5 6 
#
# 1 0.008110 -0.008855 -0.003785 0.000000 -0.000034 0.000000
# 2 -0.008855 0.105037 -0.008139 0.000000 0.005790 0.000001
# 3 -0.003785 -0.008139 0.009297 0.000000 -0.000723 0.000000
# 4 0.000000 0.000000 0.000000 0.091352 0.000000 0.032912
# 5 -0.000034 0.005790 -0.000723 0.000000 0.021653 0.000000
# 6 0.000000 0.000001 0.000000 0.032912 0.000000 0.050497
#
#
# Mechanical properties :
#
#
# Convention : Reuss Voigt Hill
#
# Bulk Modulus (GPa) = 12.36292 75.12319 43.74305
# Shear Modulus (GPa) = 14.10573 32.82370 23.46472
#
# Velocity S-wave (km/s) = 2.73731 4.17561 3.53048
# Velocity P-wave (km/s) = 4.06910 7.94686 6.31309
#
# Compressibility (1/GPa) = 0.08088705
#
# Stress axis : x y z
#
# Youngs Moduli (GPa) = 123.30030 9.52043 107.56463
#
# Poissons Ratio (x) = 0.08430 0.40708
# Poissons Ratio (y) = 1.09183 0.87547
# Poissons Ratio (z) = 0.46663 0.07749
#
# Static dielectric constant tensor:
#      x y z
#    x 3.626170 -0.000010 0.065600 
#    y -0.000010 2.762340 0.000000 
#    z 0.065600 0.000000 3.713700 
# 
# 
# High freq. dielectric constant tensor:
#      x y z
#    x 1.753200 0.000000 0.001520 
#    y 0.000000 1.667840 0.000000 
#    z 0.001520 0.000000 1.752300 
# 
# From -- ./inp_files/378371.got.cif
#   From: 2010.06.25/outbox.cif.g09.slc.cpg/sg12_190_cif.got.tgz:378371.got - 2010.06.28 00:19:55.
