data_PCOD8085585
_publ_section_title
;
Structure prediction by ZEFSAII (Michael W. Deem and Ramdas Pophale) SiO2 
 PCOD8085585
Probable space group: C 2/M
;
_chemical_formula_sum "Si O2"
_cell_formula_units_Z 64
_cell_length_a 31.144021
_cell_length_b 9.008473
_cell_length_c 14.137998
_cell_angle_alpha 90.000000
_cell_angle_beta 91.532388
_cell_angle_gamma 90.000000
_cell_volume 3965.139173
_symmetry_space_group_name_H-M "C 2/M"
_symmetry_group_IT_number 12
_symmetry_cell_setting 'monoclinic'
loop_
_space_group_symop_operation_xyz
x,y,z
-x,y,-z
-x,-y,-z
x,-y,z
1/2+x,1/2+y,z
1/2-x,1/2+y,-z
1/2-x,1/2-y,-z
1/2+x,1/2-y,z
loop_
_atom_site_type_symbol
_atom_site_label
_atom_site_fract_x
_atom_site_fract_y
_atom_site_fract_z
Si Si1 0.664623 0.326096 0.784592
Si Si2 0.247342 0.825007 0.899389
Si Si3 0.796436 0.171936 0.613575
Si Si4 0.331814 0.825309 0.788891
Si Si5 0.792802 0.828965 0.400613
Si Si6 0.003932 0.667162 0.112270
Si Si7 0.918728 0.826371 0.117133
Si Si8 0.589373 0.326579 0.103642
O O1 0.663065 0.500000 0.803573
O O2 0.705341 0.261300 0.843918
O O3 0.670130 0.290000 0.673394
O O4 0.620101 0.259718 0.821698
O O5 0.288478 0.780367 0.840330
O O6 0.244762 0.000000 0.913466
O O7 0.250000 0.750000 0.000000
O O8 0.828694 0.262986 0.682129
O O9 0.811654 0.198536 0.506236
O O10 0.747809 0.226467 0.622681
O O11 0.798418 0.000000 0.641581
O O12 0.371005 0.751256 0.844597
O O13 0.339263 0.000000 0.785609
O O14 0.777681 0.000000 0.387134
O O15 0.008055 0.500000 0.151466
O O16 0.961577 0.742517 0.153496
O O17 0.045735 0.759937 0.145116
O O18 0.000000 0.669032 0.000000
O O19 0.926531 0.000000 0.134332
O O20 0.907463 0.793768 0.007589
O O21 0.590323 0.500000 0.125833
#
# Coordination Sequence:
#
# PCOD8085585 Si02
#       8
#     8   8   8   8   8   8   8   8
#     4   9  16  30  48  66  91 125 159 189 230 280
#     4  10  20  32  45  62  91 129 163 192 225 270
#     4  10  19  30  48  70  91 119 158 203 241 278
#     4  11  21  33  48  66  94 129 160 193 238 285
#     4   9  17  32  50  67  91 122 157 198 243 284
#     4   9  17  30  47  67  94 124 156 193 235 279
#     4   9  17  29  48  70  94 125 158 194 232 273
#     4  10  19  31  48  70  96 123 160 200 231 273
#
# _framework density 16.140668999999999
#
# number of rings (size 3 to 8) (size 9 to 14) (size 15 to 20)
#    0.000    2.375    1.250    2.250    0.000    4.500 
#    0.000    1.250    0.000    0.000    0.000    0.875 
#    0.000    7.000    0.000    0.000    0.000    0.000 
#
# Total GULP energy -396787.040683 kJ/mol
# GULP energy per Si atom -12399.595021 kJ/mol
# Density = 1.610393 g / cm^3
# Si number density = 16.140669 Si / 1000 Ang^3
#
#
#
# Elastic Constant Matrix: (Units=GPa)
#
#
# Indices 1 2 3 4 5 6 
#
# 1 131.0368 55.0034 51.3096 0.0000 -19.0179 0.0000
# 2 55.0034 76.4236 42.2216 0.0000 1.5919 0.0000
# 3 51.3096 42.2216 86.5353 0.0000 -14.1777 0.0000
# 4 0.0000 0.0000 0.0000 21.7940 0.0000 4.2460
# 5 -19.0179 1.5919 -14.1777 0.0000 11.4016 0.0000
# 6 0.0000 0.0000 0.0000 4.2460 0.0000 28.2940
#
#
#
# Elastic Compliance Matrix: (Units=1/GPa)
#
#
# Indices 1 2 3 4 5 6 
#
# 1 0.018210 -0.015191 0.002434 0.000000 0.035523 0.000000
# 2 -0.015191 0.033572 -0.015437 0.000000 -0.049223 0.000000
# 3 0.002434 -0.015437 0.023438 0.000000 0.035361 0.000000
# 4 0.000000 0.000000 0.000000 0.047266 0.000000 -0.007093
# 5 0.035523 -0.049223 0.035361 0.000000 0.197803 0.000000
# 6 0.000000 0.000000 0.000000 -0.007093 0.000000 0.036408
#
#
# Mechanical properties :
#
#
# Convention : Reuss Voigt Hill
#
# Bulk Modulus (GPa) = 53.10020 65.67388 59.38704
# Shear Modulus (GPa) = 11.92283 21.99534 16.95909
#
# Velocity S-wave (km/s) = 2.72082 3.69552 3.24497
# Velocity P-wave (km/s) = 6.54525 7.68023 7.13534
#
# Compressibility (1/GPa) = 0.01883232
#
# Stress axis : x y z
#
# Youngs Moduli (GPa) = 54.91342 29.78636 42.66579
#
# Poissons Ratio (x) = 0.45249 -0.10387
# Poissons Ratio (y) = 0.83421 0.65865
# Poissons Ratio (z) = -0.13368 0.45982
#
# Static dielectric constant tensor:
#      x y z
#    x 3.126330 0.000000 -0.089660 
#    y 0.000000 3.078200 0.000000 
#    z -0.089660 0.000000 3.039190 
# 
# 
# High freq. dielectric constant tensor:
#      x y z
#    x 1.611150 0.000000 -0.002970 
#    y 0.000000 1.620190 0.000000 
#    z -0.002970 0.000000 1.601760 
# 
# From -- ./inp_files/248391.got.cif
#   From: 2010.06.25/outbox.cif.g09.slc.cpg/sg12_125_cif.got.tgz:248391.got - 2010.06.28 00:19:55.
