data_PCOD8085956
_publ_section_title
;
Structure prediction by ZEFSAII (Michael W. Deem and Ramdas Pophale) SiO2 
 PCOD8085956
Probable space group: C 2/M
;
_chemical_formula_sum "Si O2"
_cell_formula_units_Z 40
_cell_length_a 5.142055
_cell_length_b 16.765924
_cell_length_c 25.526829
_cell_angle_alpha 90.000000
_cell_angle_beta 72.837100
_cell_angle_gamma 90.000000
_cell_volume 2102.703177
_symmetry_space_group_name_H-M "C 2/M"
_symmetry_group_IT_number 12
_symmetry_cell_setting 'monoclinic'
loop_
_space_group_symop_operation_xyz
x,y,z
-x,y,-z
-x,-y,-z
x,-y,z
1/2+x,1/2+y,z
1/2-x,1/2+y,-z
1/2-x,1/2-y,-z
1/2+x,1/2-y,z
loop_
_atom_site_type_symbol
_atom_site_label
_atom_site_fract_x
_atom_site_fract_y
_atom_site_fract_z
Si Si1 0.265273 0.802994 0.674256
Si Si2 0.976018 0.405077 0.844458
Si Si3 0.428534 0.405351 0.220662
Si Si4 0.202965 0.595190 0.032097
Si Si5 0.650853 0.800827 0.443860
O O1 0.542173 0.766605 0.681103
O O2 0.159010 0.871673 0.718325
O O3 0.321527 0.844918 0.614037
O O4 0.973170 0.500000 0.846574
O O5 0.273783 0.373284 0.812049
O O6 0.769745 0.373261 0.812858
O O7 0.887542 0.370784 0.906138
O O8 0.420946 0.500000 0.225408
O O9 0.201168 0.500000 0.033283
O O10 0.500000 0.627934 0.000000
O O11 0.000000 0.627967 0.000000
O O12 0.500000 0.850929 0.500000
O O13 0.450244 0.724924 0.445309
#
# Coordination Sequence:
#
# PCOD8085956 Si02
#       5
#     8   8   8   8   8
#     4  10  19  31  48  70  94 119 154 195 226 262
#     4   9  17  28  42  62  90 123 152 180 224 278
#     4  10  19  31  46  65  94 127 153 181 225 278
#     4   9  15  23  37  58  85 114 143 180 225 267
#     4   8  14  25  42  64  88 114 145 184 228 266
#
# _framework density 19.023130999999999
#
# number of rings (size 3 to 8) (size 9 to 14) (size 15 to 20)
#    0.000    2.800    0.000    2.400    0.000    4.800 
#    0.000    0.000    0.000    0.600    0.000    0.000 
#    0.000   76.800    0.000    0.000    0.000    3.200 
#
# Total GULP energy -247847.444401 kJ/mol
# GULP energy per Si atom -12392.372220 kJ/mol
# Density = 1.897983 g / cm^3
# Si number density = 19.023131 Si / 1000 Ang^3
#
#
#
# Elastic Constant Matrix: (Units=GPa)
#
#
# Indices 1 2 3 4 5 6 
#
# 1 148.6136 9.7284 70.3180 0.0000 -1.5889 0.0000
# 2 9.7284 9.5704 24.6461 0.0000 -0.1841 0.0000
# 3 70.3180 24.6461 221.6410 0.0000 -6.7840 0.0000
# 4 0.0000 0.0000 0.0000 22.5861 0.0000 -1.7395
# 5 -1.5889 -0.1841 -6.7840 0.0000 34.8092 0.0000
# 6 0.0000 0.0000 0.0000 -1.7395 0.0000 5.8230
#
#
#
# Elastic Compliance Matrix: (Units=1/GPa)
#
#
# Indices 1 2 3 4 5 6 
#
# 1 0.007951 -0.002215 -0.002279 0.000000 -0.000093 0.000000
# 2 -0.002215 0.147235 -0.015743 0.000000 -0.002391 0.000000
# 3 -0.002279 -0.015743 0.007022 0.000000 0.001181 0.000000
# 4 0.000000 0.000000 0.000000 0.045318 0.000000 0.013538
# 5 -0.000093 -0.002391 0.001181 0.000000 0.028941 0.000000
# 6 0.000000 0.000000 0.000000 0.013538 0.000000 0.175776
#
#
# Mechanical properties :
#
#
# Convention : Reuss Voigt Hill
#
# Bulk Modulus (GPa) = 8.21459 65.46778 36.84118
# Shear Modulus (GPa) = 10.13591 30.98582 20.56087
#
# Velocity S-wave (km/s) = 2.31079 4.04028 3.29117
# Velocity P-wave (km/s) = 3.38338 7.50031 5.81816
#
# Compressibility (1/GPa) = 0.12173465
#
# Stress axis : x y z
#
# Youngs Moduli (GPa) = 125.76600 6.79184 142.41718
#
# Poissons Ratio (x) = 0.01504 0.32460
# Poissons Ratio (y) = 0.27855 2.24205
# Poissons Ratio (z) = 0.28664 0.10692
#
# Static dielectric constant tensor:
#      x y z
#    x 3.805620 0.000000 -0.023300 
#    y 0.000000 2.584840 0.000000 
#    z -0.023300 0.000000 4.034650 
# 
# 
# High freq. dielectric constant tensor:
#      x y z
#    x 1.765680 0.000000 -0.001060 
#    y 0.000000 1.640920 0.000000 
#    z -0.001060 0.000000 1.772250 
# 
# From -- ./inp_files/252793.got.cif
#   From: 2010.06.25/outbox.cif.g09.slc.cpg/sg12_127_cif.got.tgz:252793.got - 2010.06.28 00:19:55.
