data_PCOD8085463
_publ_section_title
;
Structure prediction by ZEFSAII (Michael W. Deem and Ramdas Pophale) SiO2 
 PCOD8085463
Probable space group: C 2/M
;
_chemical_formula_sum "Si O2"
_cell_formula_units_Z 48
_cell_length_a 24.920971
_cell_length_b 9.232147
_cell_length_c 12.356324
_cell_angle_alpha 90.000000
_cell_angle_beta 94.020912
_cell_angle_gamma 90.000000
_cell_volume 2835.872068
_symmetry_space_group_name_H-M "C 2/M"
_symmetry_group_IT_number 12
_symmetry_cell_setting 'monoclinic'
loop_
_space_group_symop_operation_xyz
x,y,z
-x,y,-z
-x,-y,-z
x,-y,z
1/2+x,1/2+y,z
1/2-x,1/2+y,-z
1/2-x,1/2-y,-z
1/2+x,1/2-y,z
loop_
_atom_site_type_symbol
_atom_site_label
_atom_site_fract_x
_atom_site_fract_y
_atom_site_fract_z
Si Si1 0.112936 0.169258 0.112170
Si Si2 0.490900 0.836488 0.871398
Si Si3 0.196980 0.664883 0.255991
Si Si4 0.679102 0.668358 0.693403
Si Si5 0.805494 0.666863 0.504734
Si Si6 0.905886 0.832245 0.138456
O O1 0.168415 0.227739 0.168819
O O2 0.063435 0.250011 0.163922
O O3 0.107293 0.000000 0.134949
O O4 0.114088 0.203298 0.984972
O O5 0.541504 0.759409 0.821657
O O6 0.485670 0.000000 0.826657
O O7 0.500000 0.833630 0.000000
O O8 0.190666 0.500000 0.213782
O O9 0.259731 0.708473 0.267556
O O10 0.169480 0.680656 0.371276
O O11 0.674141 0.500000 0.663744
O O12 0.659083 0.758211 0.584731
O O13 0.641853 0.712742 0.788287
O O14 0.795655 0.500000 0.473355
O O15 0.750000 0.750000 0.500000
O O16 0.921494 0.000000 0.151457
#
# Coordination Sequence:
#
# PCOD8085463 Si02
#       6
#     8   8   8   8   8   8
#     4  10  19  30  47  70  95 125 158 191 229 275
#     4   9  17  30  48  68  90 120 158 195 230 272
#     4   9  18  31  46  67  96 126 154 189 232 273
#     4   9  18  32  49  69  96 127 155 189 233 277
#     4   9  17  30  48  68  91 121 158 196 231 271
#     4   9  18  32  48  69  97 125 154 190 232 276
#
# _framework density 16.926010000000002
#
# number of rings (size 3 to 8) (size 9 to 14) (size 15 to 20)
#    0.000    2.833    0.000    2.500    0.000    7.333 
#    0.000    0.000    0.000    1.000    0.000    7.000 
#    0.000    0.000    0.000    0.000    0.000    0.000 
#
# Total GULP energy -297529.604840 kJ/mol
# GULP energy per Si atom -12397.066868 kJ/mol
# Density = 1.688749 g / cm^3
# Si number density = 16.926010 Si / 1000 Ang^3
#
#
#
# Elastic Constant Matrix: (Units=GPa)
#
#
# Indices 1 2 3 4 5 6 
#
# 1 86.0028 44.0169 44.4143 0.0000 -23.7408 0.0000
# 2 44.0169 91.4497 43.6617 0.0000 -16.4120 0.0000
# 3 44.4143 43.6617 71.0704 0.0000 -22.8837 0.0000
# 4 0.0000 0.0000 0.0000 28.9384 0.0000 2.1219
# 5 -23.7408 -16.4120 -22.8837 0.0000 13.5036 0.0000
# 6 0.0000 0.0000 0.0000 2.1219 0.0000 29.6299
#
#
#
# Elastic Compliance Matrix: (Units=1/GPa)
#
#
# Indices 1 2 3 4 5 6 
#
# 1 0.024375 -0.005015 -0.000696 0.000000 0.035581 0.000000
# 2 -0.005015 0.016724 -0.007559 0.000000 -0.001300 0.000000
# 3 -0.000696 -0.007559 0.034769 0.000000 0.048510 0.000000
# 4 0.000000 0.000000 0.000000 0.034739 0.000000 -0.002488
# 5 0.035581 -0.001300 0.048510 0.000000 0.217236 0.000000
# 6 0.000000 0.000000 0.000000 -0.002488 0.000000 0.033928
#
#
# Mechanical properties :
#
#
# Convention : Reuss Voigt Hill
#
# Bulk Modulus (GPa) = 20.27197 56.96764 38.61980
# Shear Modulus (GPa) = 12.35317 22.17639 17.26478
#
# Velocity S-wave (km/s) = 2.70447 3.62359 3.19723
# Velocity P-wave (km/s) = 4.66423 7.15801 6.04120
#
# Compressibility (1/GPa) = 0.04932920
#
# Stress axis : x y z
#
# Youngs Moduli (GPa) = 41.02499 59.79254 28.76121
#
# Poissons Ratio (x) = 0.29985 0.02001
# Poissons Ratio (y) = 0.20573 0.21742
# Poissons Ratio (z) = 0.02854 0.45200
#
# Static dielectric constant tensor:
#      x y z
#    x 3.051380 0.000000 -0.183170 
#    y 0.000000 3.329900 0.000000 
#    z -0.183170 0.000000 3.391660 
# 
# 
# High freq. dielectric constant tensor:
#      x y z
#    x 1.632260 0.000000 -0.008280 
#    y 0.000000 1.663380 0.000000 
#    z -0.008280 0.000000 1.634230 
# 
# From -- ./inp_files/172161.got.cif
#   From: 2010.06.25/outbox.cif.g09.slc.cpg/sg12_87_cif.got.tgz:172161.got - 2010.06.28 00:19:55.
