data_PCOD8085194
_publ_section_title
;
Structure prediction by ZEFSAII (Michael W. Deem and Ramdas Pophale) SiO2 
 PCOD8085194
Probable space group: C 2/M
;
_chemical_formula_sum "Si O2"
_cell_formula_units_Z 64
_cell_length_a 18.031747
_cell_length_b 9.259127
_cell_length_c 23.208911
_cell_angle_alpha 90.000000
_cell_angle_beta 62.936716
_cell_angle_gamma 90.000000
_cell_volume 3450.632816
_symmetry_space_group_name_H-M "C 2/M"
_symmetry_group_IT_number 12
_symmetry_cell_setting 'monoclinic'
loop_
_space_group_symop_operation_xyz
x,y,z
-x,y,-z
-x,-y,-z
x,-y,z
1/2+x,1/2+y,z
1/2-x,1/2+y,-z
1/2-x,1/2-y,-z
1/2+x,1/2-y,z
loop_
_atom_site_type_symbol
_atom_site_label
_atom_site_fract_x
_atom_site_fract_y
_atom_site_fract_z
Si Si1 0.482921 0.832154 0.135437
Si Si2 0.175747 0.331265 0.886886
Si Si3 0.550180 0.661566 0.619444
Si Si4 0.315583 0.166534 0.772221
Si Si5 0.857822 0.162655 0.651358
Si Si6 0.580142 0.336703 0.011803
Si Si7 0.505684 0.835420 0.739553
Si Si8 0.911978 0.171696 0.513959
O O1 0.395604 0.805720 0.135080
O O2 0.556658 0.740677 0.079909
O O3 0.473852 0.776227 0.204030
O O4 0.509220 0.000000 0.123910
O O5 0.190943 0.500000 0.893062
O O6 0.259322 0.257653 0.835229
O O7 0.152294 0.255232 0.955401
O O8 0.576489 0.500000 0.626823
O O9 0.455178 0.666162 0.631728
O O10 0.562646 0.755081 0.672400
O O11 0.607958 0.720408 0.545288
O O12 0.306966 0.229438 0.710498
O O13 0.408630 0.186515 0.761846
O O14 0.287432 0.000000 0.781607
O O15 0.845941 0.212528 0.588098
O O16 0.823114 0.000000 0.672749
O O17 0.611236 0.500000 0.012788
O O18 0.500000 0.338025 0.000000
O O19 0.532623 0.000000 0.725424
O O20 0.000000 0.243197 0.500000
O O21 0.921783 0.000000 0.509432
#
# Coordination Sequence:
#
# PCOD8085194 Si02
#       8
#     8   8   8   8   8   8   8   8
#     4   9  18  33  51  69  89 116 151 184 214 257
#     4  10  19  32  51  70  88 115 151 185 216 257
#     4   8  13  22  38  60  85 114 148 183 218 258
#     4  10  19  30  44  65  95 123 146 179 224 267
#     4   8  13  23  39  58  83 116 151 182 215 259
#     4   9  17  30  49  72  94 113 139 181 228 264
#     4   9  18  31  45  64  93 124 148 177 221 266
#     4   7  10  18  34  56  81 110 145 183 217 252
#
# _framework density 18.547324
#
# number of rings (size 3 to 8) (size 9 to 14) (size 15 to 20)
#    0.000    3.250    0.000    2.625    0.000    3.000 
#    0.000    1.250    0.000    3.750    0.000    0.875 
#    0.000    0.000    0.000    0.000    0.000    0.000 
#
# Total GULP energy -396506.760249 kJ/mol
# GULP energy per Si atom -12390.836258 kJ/mol
# Density = 1.850511 g / cm^3
# Si number density = 18.547324 Si / 1000 Ang^3
#
#
#
# Elastic Constant Matrix: (Units=GPa)
#
#
# Indices 1 2 3 4 5 6 
#
# 1 8.9047 9.1395 9.8142 0.0000 9.1106 0.0000
# 2 9.1395 75.6402 21.8406 0.0000 9.6900 0.0000
# 3 9.8142 21.8406 61.0396 0.0000 31.7036 0.0000
# 4 0.0000 0.0000 0.0000 35.1703 0.0000 1.1879
# 5 9.1106 9.6900 31.7036 0.0000 24.2462 0.0000
# 6 0.0000 0.0000 0.0000 1.1879 0.0000 12.8715
#
#
#
# Elastic Compliance Matrix: (Units=1/GPa)
#
#
# Indices 1 2 3 4 5 6 
#
# 1 0.215800 -0.020728 0.032829 0.000000 -0.115730 -0.000001
# 2 -0.020728 0.016812 -0.010093 0.000000 0.014267 0.000000
# 3 0.032829 -0.010093 0.059303 0.000000 -0.085845 0.000000
# 4 0.000000 0.000000 0.000000 0.028522 0.000000 -0.002632
# 5 -0.115730 0.014267 -0.085845 0.000000 0.191276 0.000001
# 6 -0.000001 0.000000 0.000000 -0.002632 0.000001 0.077934
#
#
# Mechanical properties :
#
#
# Convention : Reuss Voigt Hill
#
# Bulk Modulus (GPa) = 3.37917 25.24145 14.31031
# Shear Modulus (GPa) = 7.30702 21.44360 14.37531
#
# Velocity S-wave (km/s) = 1.98701 3.40392 2.78701
# Velocity P-wave (km/s) = 2.66274 5.39330 4.25310
#
# Compressibility (1/GPa) = 0.29593032
#
# Stress axis : x y z
#
# Youngs Moduli (GPa) = 4.63393 59.48301 16.86255
#
# Poissons Ratio (x) = 1.23296 -0.55358
# Poissons Ratio (y) = 0.09605 0.17019
# Poissons Ratio (z) = -0.15213 0.60034
#
# Static dielectric constant tensor:
#      x y z
#    x 2.827850 0.000000 0.181640 
#    y 0.000000 3.395970 0.000000 
#    z 0.181640 0.000000 3.887380 
# 
# 
# High freq. dielectric constant tensor:
#      x y z
#    x 1.653800 0.000000 0.011290 
#    y 0.000000 1.707440 0.000000 
#    z 0.011290 0.000000 1.742760 
# 
# From -- ./inp_files/323760.got.cif
#   From: 2010.06.25/outbox.cif.g09.slc.cpg/sg12_162_cif.got.tgz:323760.got - 2010.06.28 00:19:55.
