data_PCOD8085681
_publ_section_title
;
Structure prediction by ZEFSAII (Michael W. Deem and Ramdas Pophale) SiO2 
 PCOD8085681
Probable space group: C 2/M
;
_chemical_formula_sum "Si O2"
_cell_formula_units_Z 40
_cell_length_a 24.631314
_cell_length_b 8.772352
_cell_length_c 12.180415
_cell_angle_alpha 90.000000
_cell_angle_beta 118.301569
_cell_angle_gamma 90.000000
_cell_volume 2317.274605
_symmetry_space_group_name_H-M "C 2/M"
_symmetry_group_IT_number 12
_symmetry_cell_setting 'monoclinic'
loop_
_space_group_symop_operation_xyz
x,y,z
-x,y,-z
-x,-y,-z
x,-y,z
1/2+x,1/2+y,z
1/2-x,1/2+y,-z
1/2-x,1/2-y,-z
1/2+x,1/2-y,z
loop_
_atom_site_type_symbol
_atom_site_label
_atom_site_fract_x
_atom_site_fract_y
_atom_site_fract_z
Si Si1 0.156605 0.822097 0.919662
Si Si2 0.548827 0.180238 0.700727
Si Si3 0.581940 0.820066 0.491403
Si Si4 0.216428 0.319519 0.571237
Si Si5 0.255694 0.178024 0.831832
O O1 0.086736 0.767779 0.831062
O O2 0.197551 0.780588 0.852574
O O3 0.158746 0.000000 0.948361
O O4 0.181758 0.731217 0.048793
O O5 0.476282 0.224951 0.641427
O O6 0.572467 0.241648 0.605598
O O7 0.558998 0.000000 0.723830
O O8 0.645848 0.756797 0.503352
O O9 0.584549 0.000000 0.503718
O O10 0.218213 0.500000 0.564518
O O11 0.250000 0.250000 0.500000
O O12 0.250680 0.268899 0.714164
O O13 0.259527 0.000000 0.809767
#
# Coordination Sequence:
#
# PCOD8085681 Si02
#       5
#     8   8   8   8   8
#     4  10  19  30  48  76 106 132 160 206 259 301
#     4   9  15  29  51  74  99 131 165 203 248 299
#     4   8  16  29  49  73  99 131 169 203 243 297
#     4  11  21  35  53  74 102 136 171 209 246 291
#     4  10  20  33  49  72 101 135 172 205 246 300
#
# _framework density 17.261658000000001
#
# number of rings (size 3 to 8) (size 9 to 14) (size 15 to 20)
#    0.000    2.400    2.000    3.000    0.000    1.600 
#    0.000    4.000    0.000    1.200    0.000    8.400 
#    0.000    0.000    0.000    0.000    0.000    0.000 
#
# Total GULP energy -247964.388431 kJ/mol
# GULP energy per Si atom -12398.219422 kJ/mol
# Density = 1.722237 g / cm^3
# Si number density = 17.261658 Si / 1000 Ang^3
#
#
#
# Elastic Constant Matrix: (Units=GPa)
#
#
# Indices 1 2 3 4 5 6 
#
# 1 101.8215 27.8310 61.9007 0.0000 11.1069 0.0000
# 2 27.8310 52.5530 31.6153 0.0000 1.0570 0.0000
# 3 61.9007 31.6153 116.6143 0.0000 20.3241 0.0000
# 4 0.0000 0.0000 0.0000 32.3554 0.0000 1.4935
# 5 11.1069 1.0570 20.3241 0.0000 30.7797 0.0000
# 6 0.0000 0.0000 0.0000 1.4935 0.0000 21.4988
#
#
#
# Elastic Compliance Matrix: (Units=1/GPa)
#
#
# Indices 1 2 3 4 5 6 
#
# 1 0.015126 -0.003882 -0.006835 0.000000 -0.000812 0.000000
# 2 -0.003882 0.024116 -0.005172 0.000000 0.003988 0.000000
# 3 -0.006835 -0.005172 0.014854 0.000000 -0.007164 0.000000
# 4 0.000000 0.000000 0.000000 0.031006 0.000000 -0.002154
# 5 -0.000812 0.003988 -0.007164 0.000000 0.037376 0.000000
# 6 0.000000 0.000000 0.000000 -0.002154 0.000000 0.046664
#
#
# Mechanical properties :
#
#
# Convention : Reuss Voigt Hill
#
# Bulk Modulus (GPa) = 44.80934 57.07587 50.94260
# Shear Modulus (GPa) = 23.99689 26.90292 25.44991
#
# Velocity S-wave (km/s) = 3.73256 3.95211 3.84391
# Velocity P-wave (km/s) = 6.67767 7.34592 7.01975
#
# Compressibility (1/GPa) = 0.02231678
#
# Stress axis : x y z
#
# Youngs Moduli (GPa) = 66.11075 41.46671 67.31990
#
# Poissons Ratio (x) = 0.16098 0.46015
# Poissons Ratio (y) = 0.25665 0.34820
# Poissons Ratio (z) = 0.45188 0.21448
#
# Static dielectric constant tensor:
#      x y z
#    x 3.276550 0.000000 0.299180 
#    y 0.000000 3.038040 0.000000 
#    z 0.299180 0.000000 3.212290 
# 
# 
# High freq. dielectric constant tensor:
#      x y z
#    x 1.637270 0.000000 0.028340 
#    y 0.000000 1.657840 0.000000 
#    z 0.028340 0.000000 1.666190 
# 
# From -- ./inp_files/171380.got.cif
#   From: 2010.06.25/outbox.cif.g09.slc.cpg/sg12_86_cif.got.tgz:171380.got - 2010.06.28 00:19:55.
