data_PCOD8085822
_publ_section_title
;
Structure prediction by ZEFSAII (Michael W. Deem and Ramdas Pophale) SiO2 
 PCOD8085822
Probable space group: C 2/M
;
_chemical_formula_sum "Si O2"
_cell_formula_units_Z 40
_cell_length_a 20.474487
_cell_length_b 9.095113
_cell_length_c 18.055150
_cell_angle_alpha 90.000000
_cell_angle_beta 137.818742
_cell_angle_gamma 90.000000
_cell_volume 2257.637268
_symmetry_space_group_name_H-M "C 2/M"
_symmetry_group_IT_number 12
_symmetry_cell_setting 'monoclinic'
loop_
_space_group_symop_operation_xyz
x,y,z
-x,y,-z
-x,-y,-z
x,-y,z
1/2+x,1/2+y,z
1/2-x,1/2+y,-z
1/2-x,1/2-y,-z
1/2+x,1/2-y,z
loop_
_atom_site_type_symbol
_atom_site_label
_atom_site_fract_x
_atom_site_fract_y
_atom_site_fract_z
Si Si1 0.970750 0.832768 0.740957
Si Si2 0.799696 0.827689 0.711491
Si Si3 0.154388 0.671635 0.947633
Si Si4 0.889653 0.328627 0.920492
Si Si5 0.183452 0.169945 0.502800
O O1 0.890913 0.789021 0.735498
O O2 0.926775 0.815750 0.620746
O O3 0.062351 0.726479 0.823429
O O4 0.004829 0.000000 0.783061
O O5 0.818733 0.764717 0.808812
O O6 0.701942 0.749379 0.597169
O O7 0.779834 0.000000 0.699143
O O8 0.165420 0.500000 0.943279
O O9 0.250000 0.750000 0.000000
O O10 0.139527 0.709827 0.020833
O O11 0.877172 0.500000 0.891296
O O12 0.000000 0.277609 0.000000
O O13 0.250000 0.250000 0.500000
O O14 0.214066 0.000000 0.534503
#
# Coordination Sequence:
#
# PCOD8085822 Si02
#       5
#     8   8   8   8   8
#     4   9  18  32  50  75 106 139 176 215 260 310
#     4  10  19  30  50  80 109 139 173 218 267 313
#     4  11  23  37  55  77 106 143 178 218 264 316
#     4  10  20  35  54  78 106 139 178 219 267 316
#     4   9  17  29  47  74 107 140 173 216 264 314
#
# _framework density 17.717638000000001
#
# number of rings (size 3 to 8) (size 9 to 14) (size 15 to 20)
#    0.000    2.200    2.000    3.000    0.000    6.000 
#    0.000    0.000    0.000    1.200    0.000    8.400 
#    0.000    0.000    0.000    0.000    0.000    0.000 
#
# Total GULP energy -247977.210327 kJ/mol
# GULP energy per Si atom -12398.860516 kJ/mol
# Density = 1.767731 g / cm^3
# Si number density = 17.717638 Si / 1000 Ang^3
#
#
#
# Elastic Constant Matrix: (Units=GPa)
#
#
# Indices 1 2 3 4 5 6 
#
# 1 72.6583 47.6859 45.7865 0.0000 2.6404 0.0000
# 2 47.6859 112.5511 81.9511 0.0000 -2.1342 0.0000
# 3 45.7865 81.9511 149.2171 0.0000 -9.6933 0.0000
# 4 0.0000 0.0000 0.0000 39.6081 0.0000 -0.9663
# 5 2.6404 -2.1342 -9.6933 0.0000 16.7803 0.0000
# 6 0.0000 0.0000 0.0000 -0.9663 0.0000 24.2521
#
#
#
# Elastic Compliance Matrix: (Units=1/GPa)
#
#
# Indices 1 2 3 4 5 6 
#
# 1 0.020083 -0.006432 -0.003001 0.000000 -0.005712 0.000000
# 2 -0.006432 0.017005 -0.007438 0.000000 -0.001122 0.000000
# 3 -0.003001 -0.007438 0.012132 0.000000 0.006534 0.000000
# 4 0.000000 0.000000 0.000000 0.025272 0.000000 0.001007
# 5 -0.005712 -0.001122 0.006534 0.000000 0.064124 0.000000
# 6 0.000000 0.000000 0.000000 0.001007 0.000000 0.041274
#
#
# Mechanical properties :
#
#
# Convention : Reuss Voigt Hill
#
# Bulk Modulus (GPa) = 64.61088 76.14149 70.37619
# Shear Modulus (GPa) = 22.85276 26.72829 24.79052
#
# Velocity S-wave (km/s) = 3.59532 3.88824 3.74465
# Velocity P-wave (km/s) = 7.33357 7.95149 7.64877
#
# Compressibility (1/GPa) = 0.01547727
#
# Stress axis : x y z
#
# Youngs Moduli (GPa) = 49.79323 58.80683 82.42578
#
# Poissons Ratio (x) = 0.37825 0.24735
# Poissons Ratio (y) = 0.32028 0.61311
# Poissons Ratio (z) = 0.14942 0.43743
#
# Static dielectric constant tensor:
#      x y z
#    x 2.873200 0.000000 -0.246250 
#    y 0.000000 3.434640 0.000000 
#    z -0.246250 0.000000 2.344720 
# 
# 
# High freq. dielectric constant tensor:
#      x y z
#    x 1.631100 0.000000 -0.011290 
#    y 0.000000 1.698280 0.000000 
#    z -0.011290 0.000000 1.703290 
# 
# From -- ./inp_files/162745.got.cif
#   From: 2010.06.25/outbox.cif.g09.slc.cpg/sg12_82_cif.got.tgz:162745.got - 2010.06.28 00:19:55.
