data_PCOD8085209
_publ_section_title
;
Structure prediction by ZEFSAII (Michael W. Deem and Ramdas Pophale) SiO2 
 PCOD8085209
Probable space group: C 2/M
;
_chemical_formula_sum "Si O2"
_cell_formula_units_Z 40
_cell_length_a 12.014299
_cell_length_b 33.603977
_cell_length_c 9.471531
_cell_angle_alpha 90.000000
_cell_angle_beta 37.967896
_cell_angle_gamma 90.000000
_cell_volume 2352.554170
_symmetry_space_group_name_H-M "C 2/M"
_symmetry_group_IT_number 12
_symmetry_cell_setting 'monoclinic'
loop_
_space_group_symop_operation_xyz
x,y,z
-x,y,-z
-x,-y,-z
x,-y,z
1/2+x,1/2+y,z
1/2-x,1/2+y,-z
1/2-x,1/2-y,-z
1/2+x,1/2-y,z
loop_
_atom_site_type_symbol
_atom_site_label
_atom_site_fract_x
_atom_site_fract_y
_atom_site_fract_z
Si Si1 0.294148 0.711082 0.543379
Si Si2 0.795555 0.000000 0.872214
Si Si3 0.294148 0.288918 0.868324
Si Si4 0.500000 0.938617 0.168185
Si Si5 0.500000 0.149884 0.832990
Si Si6 0.204445 0.000000 0.463324
O O1 0.250000 0.750000 0.500000
O O2 0.500000 0.698079 0.317264
O O3 0.247838 0.720706 0.752162
O O4 0.176116 0.674104 0.605582
O O5 0.808635 0.000000 0.691364
O O6 1.000000 0.000000 0.732002
O O7 0.682472 0.038750 0.036780
O O8 0.250000 0.250000 0.000000
O O9 0.176115 0.325896 0.042187
O O10 0.500000 0.894238 0.234419
O O11 0.317527 0.961250 0.401725
O O12 0.500000 0.937537 0.000000
O O13 0.500000 0.145272 0.000000
#
# Coordination Sequence:
#
# PCOD8085209 Si02
#       6
#     8   4   8   8   8   4
#     4  10  19  30  45  63  83 113 150 184 222 261
#     4   8  13  21  34  51  73 102 135 169 207 253
#     4  10  19  30  45  63  83 113 150 184 222 261
#     4   8  14  23  34  51  75 104 136 172 213 251
#     4   9  17  28  40  57  83 110 144 187 219 256
#     4   8  13  21  34  51  73 102 135 169 207 253
#
# _framework density 17.002797000000001
#
# number of rings (size 3 to 8) (size 9 to 14) (size 15 to 20)
#    0.000    3.000    2.000    1.200    0.000    1.600 
#    0.000    8.000    0.000    0.000    0.000    0.000 
#    0.000    0.000    0.000   14.400    0.000   47.200 
#
# Total GULP energy -247870.479193 kJ/mol
# GULP energy per Si atom -12393.523960 kJ/mol
# Density = 1.696410 g / cm^3
# Si number density = 17.002797 Si / 1000 Ang^3
#
#
#
# Elastic Constant Matrix: (Units=GPa)
#
#
# Indices 1 2 3 4 5 6 
#
# 1 41.1268 43.4760 40.8564 0.0000 -25.4727 0.0000
# 2 43.4760 185.2613 70.9702 0.0000 -31.9539 0.0000
# 3 40.8564 70.9702 101.1515 0.0000 -44.2886 0.0000
# 4 0.0000 0.0000 0.0000 21.5087 0.0000 -4.8584
# 5 -25.4727 -31.9539 -44.2886 0.0000 32.9619 0.0000
# 6 0.0000 0.0000 0.0000 -4.8584 0.0000 17.3284
#
#
#
# Elastic Compliance Matrix: (Units=1/GPa)
#
#
# Indices 1 2 3 4 5 6 
#
# 1 0.052989 -0.005603 -0.004665 0.000000 0.029250 0.000000
# 2 -0.005603 0.007977 -0.004479 0.000000 -0.002614 0.000000
# 3 -0.004665 -0.004479 0.027771 0.000000 0.029367 0.000000
# 4 0.000000 0.000000 0.000000 0.049636 0.000000 0.013917
# 5 0.029250 -0.002614 0.029367 0.000000 0.089867 0.000000
# 6 0.000000 0.000000 0.000000 0.013917 0.000000 0.061611
#
#
# Mechanical properties :
#
#
# Convention : Reuss Voigt Hill
#
# Bulk Modulus (GPa) = 16.87927 70.90499 43.89213
# Shear Modulus (GPa) = 14.74529 25.84228 20.29378
#
# Velocity S-wave (km/s) = 2.94807 3.90280 3.45854
# Velocity P-wave (km/s) = 4.64080 7.88046 6.46679
#
# Compressibility (1/GPa) = 0.05924427
#
# Stress axis : x y z
#
# Youngs Moduli (GPa) = 18.87195 125.35322 36.00905
#
# Poissons Ratio (x) = 0.70237 0.16797
# Poissons Ratio (y) = 0.10574 0.16127
# Poissons Ratio (z) = 0.08803 0.56140
#
# Static dielectric constant tensor:
#      x y z
#    x 2.868440 0.000000 -0.399450 
#    y 0.000000 3.515940 0.000000 
#    z -0.399450 0.000000 3.212140 
# 
# 
# High freq. dielectric constant tensor:
#      x y z
#    x 1.609500 0.000000 -0.042540 
#    y 0.000000 1.659020 0.000000 
#    z -0.042540 0.000000 1.646100 
# 
# From -- ./inp_files/149995.got.cif
#   From: 2010.06.25/outbox.cif.g09.slc.cpg/sg12_75_cif.got.tgz:149995.got - 2010.06.28 00:19:55.
