data_PCOD8085619
_publ_section_title
;
Structure prediction by ZEFSAII (Michael W. Deem and Ramdas Pophale) SiO2 
 PCOD8085619
Probable space group: C 2/M
;
_chemical_formula_sum "Si O2"
_cell_formula_units_Z 64
_cell_length_a 22.590425
_cell_length_b 9.229037
_cell_length_c 22.586473
_cell_angle_alpha 90.000000
_cell_angle_beta 48.671048
_cell_angle_gamma 90.000000
_cell_volume 3536.136092
_symmetry_space_group_name_H-M "C 2/M"
_symmetry_group_IT_number 12
_symmetry_cell_setting 'monoclinic'
loop_
_space_group_symop_operation_xyz
x,y,z
-x,y,-z
-x,-y,-z
x,-y,z
1/2+x,1/2+y,z
1/2-x,1/2+y,-z
1/2-x,1/2-y,-z
1/2+x,1/2-y,z
loop_
_atom_site_type_symbol
_atom_site_label
_atom_site_fract_x
_atom_site_fract_y
_atom_site_fract_z
Si Si1 0.887552 0.671992 0.292400
Si Si2 0.734675 0.672496 0.327958
Si Si3 0.072772 0.828077 0.491374
Si Si4 0.240248 0.327857 0.821531
Si Si5 0.047019 0.672097 0.133220
Si Si6 0.875912 0.332223 0.798276
Si Si7 0.576542 0.827445 0.983500
Si Si8 0.043381 0.332461 0.630745
O O1 0.887915 0.500000 0.287092
O O2 0.805462 0.735346 0.321773
O O3 0.959672 0.733678 0.205234
O O4 0.899898 0.716044 0.352658
O O5 0.736418 0.500000 0.326917
O O6 0.652396 0.730199 0.408209
O O7 0.744904 0.730430 0.254500
O O8 0.000000 0.772588 0.500000
O O9 0.066997 0.765172 0.560356
O O10 0.072572 0.000000 0.496746
O O11 0.245764 0.500000 0.820690
O O12 0.305209 0.264994 0.822235
O O13 0.154709 0.271983 0.898892
O O14 0.041526 0.500000 0.135384
O O15 0.107299 0.717793 0.145294
O O16 0.076219 0.733490 0.050936
O O17 0.851428 0.500000 0.811776
O O18 0.952894 0.304315 0.707671
O O19 0.574399 0.000000 0.985417
O O20 0.500000 0.766468 0.000000
O O21 0.056724 0.500000 0.605896
#
# Coordination Sequence:
#
# PCOD8085619 Si02
#       8
#     8   8   8   8   8   8   8   8
#     4   8  14  27  47  68  91 120 152 186 227 275
#     4   9  17  29  45  66  93 123 152 185 230 278
#     4  10  20  32  46  66  94 125 152 183 229 280
#     4  10  19  30  48  73  96 120 154 193 227 264
#     4   8  14  26  44  66  93 123 152 184 227 275
#     4   9  18  32  48  66  93 127 154 181 226 279
#     4   9  16  26  44  72  99 119 149 196 235 260
#     4   9  18  32  50  70  89 115 155 195 227 266
#
# _framework density 18.098851
#
# number of rings (size 3 to 8) (size 9 to 14) (size 15 to 20)
#    0.000    3.000    0.000    3.000    0.000    5.750 
#    0.000    0.625    0.000    1.125    0.000    3.500 
#    0.000    0.000    0.000    0.000    0.000    0.000 
#
# Total GULP energy -396709.523184 kJ/mol
# GULP energy per Si atom -12397.172600 kJ/mol
# Density = 1.805766 g / cm^3
# Si number density = 18.098851 Si / 1000 Ang^3
#
#
#
# Elastic Constant Matrix: (Units=GPa)
#
#
# Indices 1 2 3 4 5 6 
#
# 1 169.5504 23.1331 90.4165 -0.0002 -3.5326 0.0003
# 2 23.1331 13.3305 22.4156 -0.0005 -0.4130 0.0011
# 3 90.4165 22.4156 149.4894 0.0002 9.9263 0.0002
# 4 -0.0002 -0.0005 0.0002 17.9626 -0.0002 2.4617
# 5 -3.5326 -0.4130 9.9263 -0.0002 32.3985 -0.0001
# 6 0.0003 0.0011 0.0002 2.4617 -0.0001 19.3961
#
#
#
# Elastic Compliance Matrix: (Units=1/GPa)
#
#
# Indices 1 2 3 4 5 6 
#
# 1 0.009637 -0.008804 -0.004666 0.000000 0.002368 0.000000
# 2 -0.008804 0.109510 -0.011356 0.000004 0.003915 -0.000006
# 3 -0.004666 -0.011356 0.011491 -0.000001 -0.004174 0.000001
# 4 0.000000 0.000004 -0.000001 0.056657 0.000000 -0.007191
# 5 0.002368 0.003915 -0.004174 0.000000 0.032453 0.000000
# 6 0.000000 -0.000006 0.000001 -0.007191 0.000000 0.052469
#
#
# Mechanical properties :
#
#
# Convention : Reuss Voigt Hill
#
# Bulk Modulus (GPa) = 12.34765 67.14452 39.74609
# Shear Modulus (GPa) = 14.33228 27.04512 20.68870
#
# Velocity S-wave (km/s) = 2.81711 3.86981 3.38464
# Velocity P-wave (km/s) = 4.17356 7.55954 6.10595
#
# Compressibility (1/GPa) = 0.08098704
#
# Stress axis : x y z
#
# Youngs Moduli (GPa) = 103.77178 9.13159 87.02243
#
# Poissons Ratio (x) = 0.08040 0.40601
# Poissons Ratio (y) = 0.91361 0.98820
# Poissons Ratio (z) = 0.48416 0.10370
#
# Static dielectric constant tensor:
#      x y z
#    x 3.600510 0.000000 -0.005630 
#    y 0.000000 2.733110 0.000000 
#    z -0.005630 0.000000 3.553540 
# 
# 
# High freq. dielectric constant tensor:
#      x y z
#    x 1.716460 0.000000 0.003960 
#    y 0.000000 1.637180 0.000000 
#    z 0.003960 0.000000 1.709610 
# 
# From -- ./inp_files/320982.got.cif
#   From: 2010.06.25/outbox.cif.g09.slc.cpg/sg12_161_cif.got.tgz:320982.got - 2010.06.28 00:19:55.
