data_PCOD8085837
_publ_section_title
;
Structure prediction by ZEFSAII (Michael W. Deem and Ramdas Pophale) SiO2 
 PCOD8085837
Probable space group: C 2/M
;
_chemical_formula_sum "Si O2"
_cell_formula_units_Z 64
_cell_length_a 20.466904
_cell_length_b 8.875256
_cell_length_c 23.820848
_cell_angle_alpha 90.000000
_cell_angle_beta 53.565071
_cell_angle_gamma 90.000000
_cell_volume 3481.236428
_symmetry_space_group_name_H-M "C 2/M"
_symmetry_group_IT_number 12
_symmetry_cell_setting 'monoclinic'
loop_
_space_group_symop_operation_xyz
x,y,z
-x,y,-z
-x,-y,-z
x,-y,z
1/2+x,1/2+y,z
1/2-x,1/2+y,-z
1/2-x,1/2-y,-z
1/2+x,1/2-y,z
loop_
_atom_site_type_symbol
_atom_site_label
_atom_site_fract_x
_atom_site_fract_y
_atom_site_fract_z
Si Si1 0.027432 0.177848 0.637557
Si Si2 0.074580 0.177521 0.735319
Si Si3 0.565006 0.175477 0.130675
Si Si4 0.198633 0.672203 0.156354
Si Si5 0.653830 0.322739 0.290738
Si Si6 0.817502 0.826186 0.002878
Si Si7 0.684344 0.678635 0.492574
Si Si8 0.261725 0.176977 0.647787
O O1 0.047212 0.244411 0.688989
O O2 0.095258 0.230772 0.558639
O O3 0.939647 0.232686 0.661532
O O4 0.028670 0.000000 0.642685
O O5 0.167640 0.221847 0.697323
O O6 0.022384 0.255455 0.810584
O O7 0.060798 0.000000 0.745997
O O8 0.627917 0.214053 0.148384
O O9 0.596641 0.247522 0.055664
O O10 0.555518 0.000000 0.125596
O O11 0.187523 0.500000 0.182543
O O12 0.194092 0.786070 0.210418
O O13 0.287989 0.692690 0.082484
O O14 0.661678 0.500000 0.298924
O O15 0.699120 0.227229 0.314298
O O16 0.823423 0.000000 0.983281
O O17 0.750000 0.750000 0.000000
O O18 0.694191 0.500000 0.489830
O O19 0.750000 0.750000 0.500000
O O20 0.693698 0.736134 0.424885
O O21 0.273118 0.000000 0.632489
#
# Coordination Sequence:
#
# PCOD8085837 Si02
#       8
#     8   8   8   8   8   8   8   8
#     4   9  19  36  58  83 109 143 185 226 275 333
#     4  10  19  36  58  79 108 148 186 224 277 334
#     4  10  19  30  50  83 115 142 183 235 278 324
#     4   9  18  32  50  77 112 147 181 223 274 325
#     4  11  22  37  58  82 110 147 187 228 276 331
#     4   9  17  29  47  75 112 149 185 227 278 330
#     4  11  21  38  61  85 113 145 186 231 279 332
#     4  11  24  41  58  81 114 148 185 229 280 337
#
# _framework density 18.384273
#
# number of rings (size 3 to 8) (size 9 to 14) (size 15 to 20)
#    0.000    2.000    2.500    2.625    0.000    4.000 
#    0.000    5.000    0.000    0.750    0.000    5.250 
#    0.000    0.000    0.000    0.000    0.000    0.000 
#
# Total GULP energy -396790.283255 kJ/mol
# GULP energy per Si atom -12399.696352 kJ/mol
# Density = 1.834243 g / cm^3
# Si number density = 18.384273 Si / 1000 Ang^3
#
#
#
# Elastic Constant Matrix: (Units=GPa)
#
#
# Indices 1 2 3 4 5 6 
#
# 1 76.8225 27.5171 40.7527 -0.0001 -9.9009 -0.0002
# 2 27.5171 67.2460 50.2840 -0.0004 -9.7247 -0.0008
# 3 40.7527 50.2840 149.5293 0.0000 -23.6528 -0.0002
# 4 -0.0001 -0.0004 0.0000 36.2062 0.0000 1.2507
# 5 -9.9009 -9.7247 -23.6528 0.0000 22.9400 -0.0002
# 6 -0.0002 -0.0008 -0.0002 1.2507 -0.0002 25.6056
#
#
#
# Elastic Compliance Matrix: (Units=1/GPa)
#
#
# Indices 1 2 3 4 5 6 
#
# 1 0.016269 -0.004376 -0.002563 0.000000 0.002524 0.000000
# 2 -0.004376 0.021108 -0.005722 0.000000 0.001159 0.000001
# 3 -0.002563 -0.005722 0.010457 0.000000 0.007250 0.000000
# 4 0.000000 0.000000 0.000000 0.027666 0.000000 -0.001351
# 5 0.002524 0.001159 0.007250 0.000000 0.052648 0.000001
# 6 0.000000 0.000001 0.000000 -0.001351 0.000001 0.039120
#
#
# Mechanical properties :
#
#
# Convention : Reuss Voigt Hill
#
# Bulk Modulus (GPa) = 44.42047 58.96726 51.69387
# Shear Modulus (GPa) = 24.98801 28.61997 26.80399
#
# Velocity S-wave (km/s) = 3.69074 3.94986 3.82250
# Velocity P-wave (km/s) = 6.50974 7.27643 6.90374
#
# Compressibility (1/GPa) = 0.02251214
#
# Stress axis : x y z
#
# Youngs Moduli (GPa) = 61.46492 47.37582 95.62598
#
# Poissons Ratio (x) = 0.20730 0.24512
# Poissons Ratio (y) = 0.26895 0.54719
# Poissons Ratio (z) = 0.15756 0.27110
#
# Static dielectric constant tensor:
#      x y z
#    x 3.177050 0.000000 -0.147000 
#    y 0.000000 3.361360 0.000000 
#    z -0.147000 0.000000 3.921770 
# 
# 
# High freq. dielectric constant tensor:
#      x y z
#    x 1.678760 0.000000 -0.011260 
#    y 0.000000 1.712340 0.000000 
#    z -0.011260 0.000000 1.731410 
# 
# From -- ./inp_files/346002.got.cif
#   From: 2010.06.25/outbox.cif.g09.slc.cpg/sg12_174_cif.got.tgz:346002.got - 2010.06.28 00:19:55.
