data_PCOD8085263
_publ_section_title
;
Structure prediction by ZEFSAII (Michael W. Deem and Ramdas Pophale) SiO2 
 PCOD8085263
Probable space group: C 2/M
;
_chemical_formula_sum "Si O2"
_cell_formula_units_Z 56
_cell_length_a 19.260696
_cell_length_b 9.202938
_cell_length_c 26.266800
_cell_angle_alpha 90.000000
_cell_angle_beta 136.681587
_cell_angle_gamma 90.000000
_cell_volume 3194.205120
_symmetry_space_group_name_H-M "C 2/M"
_symmetry_group_IT_number 12
_symmetry_cell_setting 'monoclinic'
loop_
_space_group_symop_operation_xyz
x,y,z
-x,y,-z
-x,-y,-z
x,-y,z
1/2+x,1/2+y,z
1/2-x,1/2+y,-z
1/2-x,1/2-y,-z
1/2+x,1/2-y,z
loop_
_atom_site_type_symbol
_atom_site_label
_atom_site_fract_x
_atom_site_fract_y
_atom_site_fract_z
Si Si1 0.275260 0.163361 0.861443
Si Si2 0.133278 0.671356 0.714631
Si Si3 0.599110 0.831525 0.421619
Si Si4 0.437393 0.839558 0.858549
Si Si5 0.768535 0.829771 0.433297
Si Si6 0.419850 0.663226 0.002773
Si Si7 0.742565 0.828462 0.303828
O O1 0.180465 0.254972 0.790006
O O2 0.360230 0.157054 0.864018
O O3 0.321239 0.242666 0.935599
O O4 0.240918 0.000000 0.857828
O O5 0.155986 0.500000 0.728076
O O6 0.178096 0.738179 0.686998
O O7 0.015089 0.707715 0.653106
O O8 0.668128 0.784142 0.410646
O O9 0.633069 0.746278 0.490300
O O10 0.612100 0.000000 0.440923
O O11 0.373014 0.791444 0.774635
O O12 0.484298 0.000000 0.875794
O O13 0.528687 0.729160 0.918879
O O14 0.755132 0.777543 0.368373
O O15 0.787518 0.000000 0.445781
O O16 0.384936 0.500000 0.996488
O O17 0.500000 0.664957 0.000000
O O18 0.763254 0.000000 0.306786
#
# Coordination Sequence:
#
# PCOD8085263 Si02
#       7
#     8   8   8   8   8   8   8
#     4   9  16  26  40  59  86 119 153 186 221 264
#     4  10  19  30  45  67  96 123 148 185 232 276
#     4   9  19  34  50  69  92 119 151 188 230 272
#     4   8  14  24  37  56  84 115 146 181 221 263
#     4   9  18  34  53  69  88 118 156 191 223 268
#     4   9  15  22  35  57  85 117 150 181 219 266
#     4   9  18  31  47  68  93 121 153 189 227 268
#
# _framework density 17.531748
#
# number of rings (size 3 to 8) (size 9 to 14) (size 15 to 20)
#    0.000    3.000    0.000    2.143    0.000    7.429 
#    0.000    2.857    0.000    0.000    0.000    1.000 
#    0.000    0.000    0.000    0.000    0.000    0.000 
#
# Total GULP energy -347132.612763 kJ/mol
# GULP energy per Si atom -12397.593313 kJ/mol
# Density = 1.749185 g / cm^3
# Si number density = 17.531748 Si / 1000 Ang^3
#
#
#
# Elastic Constant Matrix: (Units=GPa)
#
#
# Indices 1 2 3 4 5 6 
#
# 1 26.4265 25.0593 32.8601 0.0000 7.4874 0.0000
# 2 25.0593 99.5451 69.4250 0.0000 5.1114 0.0000
# 3 32.8601 69.4250 139.8716 0.0000 8.8965 0.0000
# 4 0.0000 0.0000 0.0000 37.2671 0.0000 -0.5727
# 5 7.4874 5.1114 8.8965 0.0000 4.5310 0.0000
# 6 0.0000 0.0000 0.0000 -0.5727 0.0000 13.2641
#
#
#
# Elastic Compliance Matrix: (Units=1/GPa)
#
#
# Indices 1 2 3 4 5 6 
#
# 1 0.095943 -0.011523 -0.008642 0.000000 -0.128574 0.000000
# 2 -0.011523 0.016777 -0.006431 0.000000 0.012742 0.000000
# 3 -0.008642 -0.006431 0.012572 0.000000 -0.003149 0.000000
# 4 0.000000 0.000000 0.000000 0.026851 0.000000 0.001159
# 5 -0.128574 0.012742 -0.003149 0.000000 0.424973 0.000000
# 6 0.000000 0.000000 0.000000 0.001159 0.000000 0.075442
#
#
# Mechanical properties :
#
#
# Convention : Reuss Voigt Hill
#
# Bulk Modulus (GPa) = 13.86973 57.83688 35.85330
# Shear Modulus (GPa) = 6.85136 20.24569 13.54852
#
# Velocity S-wave (km/s) = 1.97900 3.40192 2.78294
# Velocity P-wave (km/s) = 3.62634 6.96363 5.55169
#
# Compressibility (1/GPa) = 0.07209948
#
# Stress axis : x y z
#
# Youngs Moduli (GPa) = 10.42289 59.60517 79.54253
#
# Poissons Ratio (x) = 0.68683 0.68744
# Poissons Ratio (y) = 0.12010 0.51151
# Poissons Ratio (z) = 0.09008 0.38330
#
# Static dielectric constant tensor:
#      x y z
#    x 2.807890 0.000000 -0.140020 
#    y 0.000000 3.376940 0.000000 
#    z -0.140020 0.000000 3.528360 
# 
# 
# High freq. dielectric constant tensor:
#      x y z
#    x 1.616750 0.000000 -0.009660 
#    y 0.000000 1.684250 0.000000 
#    z -0.009660 0.000000 1.693000 
# 
# From -- ./inp_files/280159.got.cif
#   From: 2010.06.25/outbox.cif.g09.slc.cpg/sg12_141_cif.got.tgz:280159.got - 2010.06.28 00:19:55.
