data_PCOD8085038
_publ_section_title
;
Structure prediction by ZEFSAII (Michael W. Deem and Ramdas Pophale) SiO2 
 PCOD8085038
Probable space group: C 2/M
;
_chemical_formula_sum "Si O2"
_cell_formula_units_Z 56
_cell_length_a 22.086650
_cell_length_b 22.093060
_cell_length_c 9.048978
_cell_angle_alpha 90.000000
_cell_angle_beta 44.689812
_cell_angle_gamma 90.000000
_cell_volume 3105.319542
_symmetry_space_group_name_H-M "C 2/M"
_symmetry_group_IT_number 12
_symmetry_cell_setting 'monoclinic'
loop_
_space_group_symop_operation_xyz
x,y,z
-x,y,-z
-x,-y,-z
x,-y,z
1/2+x,1/2+y,z
1/2-x,1/2+y,-z
1/2-x,1/2-y,-z
1/2+x,1/2-y,z
loop_
_atom_site_type_symbol
_atom_site_label
_atom_site_fract_x
_atom_site_fract_y
_atom_site_fract_z
Si Si1 0.581595 0.069145 0.960914
Si Si2 0.970314 0.664178 0.718150
Si Si3 0.887798 0.275468 0.345365
Si Si4 0.356347 0.717331 0.931387
Si Si5 0.737687 0.133152 0.575793
Si Si6 0.797832 0.797387 0.728508
Si Si7 0.092048 0.838193 0.873262
O O1 0.667292 0.079610 0.709108
O O2 0.580495 0.000000 0.015455
O O3 0.500000 0.084353 0.000000
O O4 0.582033 0.110036 0.109819
O O5 0.914508 0.724350 0.796478
O O6 0.000000 0.644490 0.500000
O O7 0.045404 0.675966 0.707472
O O8 0.802199 0.309579 0.440346
O O9 0.875426 0.227129 0.495879
O O10 0.916187 0.232714 0.160500
O O11 0.338046 0.680480 0.812570
O O12 0.265140 0.740187 0.148147
O O13 0.396466 0.667339 0.970342
O O14 0.753532 0.147252 0.721113
O O15 0.829768 0.121916 0.334245
O O16 0.000000 0.870606 0.000000
#
# Coordination Sequence:
#
# PCOD8085038 Si02
#       7
#     8   8   8   8   8   8   8
#     4  11  24  41  60  77  98 140 197 241 274 314
#     4  12  22  33  52  76 114 148 175 219 271 319
#     4  11  18  30  47  75 107 150 173 205 256 324
#     4  11  19  29  44  77 111 144 174 209 250 331
#     4  11  20  36  52  75 106 144 186 223 269 316
#     4  10  19  29  46  72 108 146 178 202 260 324
#     4  11  20  30  51  76 114 145 178 210 256 328
#
# _framework density 18.033570000000001
#
# number of rings (size 3 to 8) (size 9 to 14) (size 15 to 20)
#    0.000    1.000    8.571    0.857    0.000    0.286 
#    0.000    0.000    0.000    0.429    0.000    0.000 
#    0.000    1.143    0.000    0.000    0.000    0.000 
#
# Total GULP energy -346875.031028 kJ/mol
# GULP energy per Si atom -12388.393965 kJ/mol
# Density = 1.799252 g / cm^3
# Si number density = 18.033570 Si / 1000 Ang^3
#
#
#
# Elastic Constant Matrix: (Units=GPa)
#
#
# Indices 1 2 3 4 5 6 
#
# 1 111.3062 17.6354 45.4722 0.0000 4.2337 0.0000
# 2 17.6354 35.9652 23.4521 0.0000 -1.6225 0.0000
# 3 45.4722 23.4521 84.9249 0.0000 -3.5066 0.0000
# 4 0.0000 0.0000 0.0000 12.8580 0.0000 -2.6088
# 5 4.2337 -1.6225 -3.5066 0.0000 35.5721 0.0000
# 6 0.0000 0.0000 0.0000 -2.6088 0.0000 11.0270
#
#
#
# Elastic Compliance Matrix: (Units=1/GPa)
#
#
# Indices 1 2 3 4 5 6 
#
# 1 0.011766 -0.002072 -0.005813 0.000000 -0.002068 0.000000
# 2 -0.002072 0.034290 -0.008319 0.000000 0.000991 0.000000
# 3 -0.005813 -0.008319 0.017268 0.000000 0.002015 0.000000
# 4 0.000000 0.000000 0.000000 0.081694 0.000000 0.019328
# 5 -0.002068 0.000991 0.002015 0.000000 0.028602 0.000000
# 6 0.000000 0.000000 0.000000 0.019328 0.000000 0.095259
#
#
# Mechanical properties :
#
#
# Convention : Reuss Voigt Hill
#
# Bulk Modulus (GPa) = 32.34582 45.03511 38.69046
# Shear Modulus (GPa) = 16.04659 21.60052 18.82355
#
# Velocity S-wave (km/s) = 2.98622 3.46467 3.23430
# Velocity P-wave (km/s) = 5.46492 6.40565 5.95390
#
# Compressibility (1/GPa) = 0.03091590
#
# Stress axis : x y z
#
# Youngs Moduli (GPa) = 84.99019 29.16314 57.91001
#
# Poissons Ratio (x) = 0.06043 0.33664
# Poissons Ratio (y) = 0.17611 0.48174
# Poissons Ratio (z) = 0.49407 0.24260
#
# Static dielectric constant tensor:
#      x y z
#    x 3.637840 0.000000 0.012730 
#    y 0.000000 2.744160 0.000000 
#    z 0.012730 0.000000 3.491070 
# 
# 
# High freq. dielectric constant tensor:
#      x y z
#    x 1.715350 0.000000 -0.000940 
#    y 0.000000 1.616110 0.000000 
#    z -0.000940 0.000000 1.711960 
# 
# From -- ./inp_files/78430.got.cif
#   From: 2010.06.25/outbox.cif.g09.slc.cpg/sg12_40_cif.got.tgz:78430.got - 2010.06.28 00:19:55.
