data_PCOD8085270
_publ_section_title
;
Structure prediction by ZEFSAII (Michael W. Deem and Ramdas Pophale) SiO2 
 PCOD8085270
Probable space group: C 2/M
;
_chemical_formula_sum "Si O2"
_cell_formula_units_Z 48
_cell_length_a 27.445617
_cell_length_b 8.889261
_cell_length_c 11.846106
_cell_angle_alpha 90.000000
_cell_angle_beta 109.232905
_cell_angle_gamma 90.000000
_cell_volume 2728.804651
_symmetry_space_group_name_H-M "C 2/M"
_symmetry_group_IT_number 12
_symmetry_cell_setting 'monoclinic'
loop_
_space_group_symop_operation_xyz
x,y,z
-x,y,-z
-x,-y,-z
x,-y,z
1/2+x,1/2+y,z
1/2-x,1/2+y,-z
1/2-x,1/2-y,-z
1/2+x,1/2-y,z
loop_
_atom_site_type_symbol
_atom_site_label
_atom_site_fract_x
_atom_site_fract_y
_atom_site_fract_z
Si Si1 0.304425 0.824187 0.520025
Si Si2 0.570077 0.177640 0.753605
Si Si3 0.375001 0.326364 0.394958
Si Si4 0.967145 0.172503 0.633708
Si Si5 0.103744 0.672415 0.252010
Si Si6 0.947020 0.325699 0.010012
O O1 0.250000 0.750000 0.500000
O O2 0.329284 0.756991 0.425907
O O3 0.339745 0.788316 0.656855
O O4 0.296956 0.000000 0.495984
O O5 0.617792 0.254169 0.723499
O O6 0.516808 0.223884 0.652311
O O7 0.569217 0.243203 0.881383
O O8 0.577843 0.000000 0.754187
O O9 0.359626 0.500000 0.372243
O O10 0.428767 0.303176 0.500639
O O11 0.938925 0.219780 0.726979
O O12 0.985108 0.000000 0.656211
O O13 0.089513 0.500000 0.271913
O O14 0.100277 0.698104 0.114316
O O15 0.958291 0.500000 0.041396
O O16 0.000000 0.253888 0.000000
#
# Coordination Sequence:
#
# PCOD8085270 Si02
#       6
#     8   8   8   8   8   8
#     4  10  20  35  58  81 100 125 162 208 258 306
#     4  11  20  30  48  71 100 138 173 205 243 294
#     4  10  21  35  49  70 102 133 166 209 254 297
#     4  10  19  30  45  68 101 137 168 205 248 290
#     4   9  17  32  52  74  99 132 171 205 243 296
#     4   9  16  29  49  72 101 136 172 207 239 282
#
# _framework density 17.590121
#
# number of rings (size 3 to 8) (size 9 to 14) (size 15 to 20)
#    0.000    2.167    1.667    2.500    0.000    4.667 
#    0.000    2.500    0.000    1.000    0.000    0.000 
#    0.000    0.000    0.000    0.000    0.000    0.000 
#
# Total GULP energy -297546.042936 kJ/mol
# GULP energy per Si atom -12397.751789 kJ/mol
# Density = 1.755009 g / cm^3
# Si number density = 17.590121 Si / 1000 Ang^3
#
#
#
# Elastic Constant Matrix: (Units=GPa)
#
#
# Indices 1 2 3 4 5 6 
#
# 1 109.3021 47.0678 64.6593 0.0000 -13.7677 0.0000
# 2 47.0678 75.5466 38.0884 0.0000 -13.3635 0.0000
# 3 64.6593 38.0884 107.7471 0.0000 -27.8717 0.0000
# 4 0.0000 0.0000 0.0000 18.7350 0.0000 -6.1777
# 5 -13.7677 -13.3635 -27.8717 0.0000 21.6318 0.0000
# 6 0.0000 0.0000 0.0000 -6.1777 0.0000 29.9097
#
#
#
# Elastic Compliance Matrix: (Units=1/GPa)
#
#
# Indices 1 2 3 4 5 6 
#
# 1 0.016739 -0.006816 -0.008953 0.000000 -0.005093 0.000000
# 2 -0.006816 0.019108 -0.001099 0.000000 0.006050 0.000000
# 3 -0.008953 -0.001099 0.020088 0.000000 0.019505 0.000000
# 4 0.000000 0.000000 0.000000 0.057277 0.000000 0.011830
# 5 -0.005093 0.006050 0.019505 0.000000 0.071856 0.000000
# 6 0.000000 0.000000 0.000000 0.011830 0.000000 0.035877
#
#
# Mechanical properties :
#
#
# Convention : Reuss Voigt Hill
#
# Bulk Modulus (GPa) = 45.04923 65.80296 55.42610
# Shear Modulus (GPa) = 19.07811 23.57398 21.32605
#
# Velocity S-wave (km/s) = 3.29689 3.66482 3.48571
# Velocity P-wave (km/s) = 6.33709 7.44299 6.91220
#
# Compressibility (1/GPa) = 0.02219794
#
# Stress axis : x y z
#
# Youngs Moduli (GPa) = 59.74159 52.33481 49.78123
#
# Poissons Ratio (x) = 0.35670 0.44569
# Poissons Ratio (y) = 0.40718 0.05473
# Poissons Ratio (z) = 0.53487 0.05754
#
# Static dielectric constant tensor:
#      x y z
#    x 3.058360 0.000000 -0.124250 
#    y 0.000000 3.229010 0.000000 
#    z -0.124250 0.000000 3.442090 
# 
# 
# High freq. dielectric constant tensor:
#      x y z
#    x 1.648730 0.000000 -0.013580 
#    y 0.000000 1.675110 0.000000 
#    z -0.013580 0.000000 1.679720 
# 
# From -- ./inp_files/172079.got.cif
#   From: 2010.06.25/outbox.cif.g09.slc.cpg/sg12_87_cif.got.tgz:172079.got - 2010.06.28 00:19:55.
