data_PCOD8085990
_publ_section_title
;
Structure prediction by ZEFSAII (Michael W. Deem and Ramdas Pophale) SiO2 
 PCOD8085990
Probable space group: C 2/M
;
_chemical_formula_sum "Si O2"
_cell_formula_units_Z 60
_cell_length_a 5.053720
_cell_length_b 23.326288
_cell_length_c 28.587051
_cell_angle_alpha 90.000000
_cell_angle_beta 99.393138
_cell_angle_gamma 90.000000
_cell_volume 3324.785488
_symmetry_space_group_name_H-M "C 2/M"
_symmetry_group_IT_number 12
_symmetry_cell_setting 'monoclinic'
loop_
_space_group_symop_operation_xyz
x,y,z
-x,y,-z
-x,-y,-z
x,-y,z
1/2+x,1/2+y,z
1/2-x,1/2+y,-z
1/2-x,1/2-y,-z
1/2+x,1/2-y,z
loop_
_atom_site_type_symbol
_atom_site_label
_atom_site_fract_x
_atom_site_fract_y
_atom_site_fract_z
Si Si1 0.223621 0.713738 0.176697
Si Si2 0.972240 0.786873 0.548420
Si Si3 0.220477 0.932930 0.228753
Si Si4 0.119365 0.369524 0.091051
Si Si5 0.649265 0.433671 0.118167
Si Si6 0.251909 0.867908 0.738371
Si Si7 0.500000 0.209236 0.000000
Si Si8 0.349350 0.710187 0.348434
O O1 0.522236 0.732465 0.170829
O O2 0.115267 0.668087 0.137245
O O3 0.226921 0.687338 0.228141
O O4 0.163752 0.730908 0.546895
O O5 0.079337 0.817658 0.598579
O O6 0.000000 0.822987 0.500000
O O7 0.197388 0.916926 0.173502
O O8 0.461961 0.898136 0.258993
O O9 0.949296 0.915055 0.246854
O O10 0.269216 0.000000 0.237233
O O11 0.407028 0.397125 0.089747
O O12 0.907587 0.420297 0.094015
O O13 0.035584 0.330875 0.045472
O O14 0.577328 0.500000 0.111563
O O15 0.153689 0.844351 0.685759
O O16 0.250000 0.250000 0.000000
O O17 0.563324 0.758436 0.339945
#
# Coordination Sequence:
#
# PCOD8085990 Si02
#       8
#     8   8   8   8   8   8   4   8
#     4  12  22  34  52  78 107 138 174 206 240 305
#     4   8  14  25  42  63  92 136 181 213 248 299
#     4  11  22  38  57  78 104 138 178 220 265 310
#     4  12  23  42  62  86 109 144 178 214 257 312
#     4  11  22  41  64  87 109 137 175 223 270 311
#     4  12  21  35  52  79 107 139 176 212 270 311
#     4  12  26  46  65  86 115 148 176 214 254 306
#     4  10  19  31  46  71 110 145 172 212 261 309
#
# _framework density 18.046275999999999
#
# number of rings (size 3 to 8) (size 9 to 14) (size 15 to 20)
#    0.000    1.067    2.667    5.600    0.000    2.133 
#    0.000    2.000    0.000    0.000    0.000    0.000 
#    0.000    3.200    0.000    0.000    0.000    0.000 
#
# Total GULP energy -372028.727112 kJ/mol
# GULP energy per Si atom -12400.957570 kJ/mol
# Density = 1.800520 g / cm^3
# Si number density = 18.046276 Si / 1000 Ang^3
#
#
#
# Elastic Constant Matrix: (Units=GPa)
#
#
# Indices 1 2 3 4 5 6 
#
# 1 85.5447 20.5461 22.1340 0.0000 5.7634 0.0000
# 2 20.5461 65.2970 40.3767 0.0000 6.4309 0.0000
# 3 22.1340 40.3767 114.7397 0.0000 6.3555 0.0000
# 4 0.0000 0.0000 0.0000 18.3235 0.0000 0.2069
# 5 5.7634 6.4309 6.3555 0.0000 24.5626 0.0000
# 6 0.0000 0.0000 0.0000 0.2069 0.0000 34.9857
#
#
#
# Elastic Compliance Matrix: (Units=1/GPa)
#
#
# Indices 1 2 3 4 5 6 
#
# 1 0.012890 -0.003064 -0.001304 0.000000 -0.001885 0.000000
# 2 -0.003064 0.020585 -0.006487 0.000000 -0.002992 0.000000
# 3 -0.001304 -0.006487 0.011301 0.000000 -0.000920 0.000000
# 4 0.000000 0.000000 0.000000 0.054578 0.000000 -0.000323
# 5 -0.001885 -0.002992 -0.000920 0.000000 0.042176 0.000000
# 6 0.000000 0.000000 0.000000 -0.000323 0.000000 0.028585
#
#
# Mechanical properties :
#
#
# Convention : Reuss Voigt Hill
#
# Bulk Modulus (GPa) = 43.35464 47.96612 45.66038
# Shear Modulus (GPa) = 25.06104 27.74266 26.40185
#
# Velocity S-wave (km/s) = 3.73058 3.92510 3.82908
# Velocity P-wave (km/s) = 6.52937 6.86871 6.70118
#
# Compressibility (1/GPa) = 0.02306558
#
# Stress axis : x y z
#
# Youngs Moduli (GPa) = 77.57899 48.57996 88.49091
#
# Poissons Ratio (x) = 0.14885 0.11539
# Poissons Ratio (y) = 0.23770 0.57403
# Poissons Ratio (z) = 0.10116 0.31513
#
# Static dielectric constant tensor:
#      x y z
#    x 3.508390 0.000000 0.024690 
#    y 0.000000 3.146460 0.000000 
#    z 0.024690 0.000000 3.556520 
# 
# 
# High freq. dielectric constant tensor:
#      x y z
#    x 1.724870 0.000000 0.002100 
#    y 0.000000 1.667830 0.000000 
#    z 0.002100 0.000000 1.697680 
# 
# From -- ./inp_files/355073.got.cif
#   From: 2010.06.25/outbox.cif.g09.slc.cpg/sg12_178_cif.got.tgz:355073.got - 2010.06.28 00:19:55.
