data_PCOD8085243
_publ_section_title
;
Structure prediction by ZEFSAII (Michael W. Deem and Ramdas Pophale) SiO2 
 PCOD8085243
Probable space group: C 2/M
;
_chemical_formula_sum "Si O2"
_cell_formula_units_Z 56
_cell_length_a 27.041302
_cell_length_b 8.931311
_cell_length_c 15.987598
_cell_angle_alpha 90.000000
_cell_angle_beta 64.569886
_cell_angle_gamma 90.000000
_cell_volume 3487.117242
_symmetry_space_group_name_H-M "C 2/M"
_symmetry_group_IT_number 12
_symmetry_cell_setting 'monoclinic'
loop_
_space_group_symop_operation_xyz
x,y,z
-x,y,-z
-x,-y,-z
x,-y,z
1/2+x,1/2+y,z
1/2-x,1/2+y,-z
1/2-x,1/2-y,-z
1/2+x,1/2-y,z
loop_
_atom_site_type_symbol
_atom_site_label
_atom_site_fract_x
_atom_site_fract_y
_atom_site_fract_z
Si Si1 0.099000 0.323756 0.306989
Si Si2 0.993047 0.823660 0.308352
Si Si3 0.983025 0.672153 0.145349
Si Si4 0.938997 0.835151 0.510375
Si Si5 0.191617 0.173690 0.952940
Si Si6 0.196187 0.825775 0.142543
Si Si7 0.912473 0.672578 0.038001
O O1 0.095858 0.500000 0.301477
O O2 0.050255 0.255353 0.287579
O O3 0.095570 0.278543 0.407556
O O4 0.156341 0.266677 0.230706
O O5 0.971863 0.775421 0.233172
O O6 0.945213 0.779188 0.409717
O O7 0.004017 0.000000 0.303523
O O8 0.984795 0.500000 0.172399
O O9 0.933839 0.699078 0.116294
O O10 0.040379 0.717576 0.061606
O O11 0.000000 0.846660 0.500000
O O12 0.911352 0.000000 0.534508
O O13 0.242531 0.270509 0.883679
O O14 0.138973 0.220706 0.938133
O O15 0.204650 0.000000 0.928586
O O16 0.179958 0.207098 0.058596
O O17 0.191766 0.000000 0.167700
O O18 0.895599 0.500000 0.036985
#
# Coordination Sequence:
#
# PCOD8085243 Si02
#       7
#     8   8   8   8   8   8   8
#     4  11  20  29  45  68  93 120 152 188 223 266
#     4  10  19  30  45  66  93 123 153 186 226 269
#     4   9  18  31  47  67  91 121 157 189 220 265
#     4   8  16  30  44  61  89 121 150 182 223 270
#     4  10  20  32  47  68  91 118 154 191 223 262
#     4  10  20  33  48  66  91 122 152 184 226 270
#     4   9  18  32  47  65  92 124 153 186 228 266
#
# _framework density 16.059108999999999
#
# number of rings (size 3 to 8) (size 9 to 14) (size 15 to 20)
#    0.000    2.429    0.000    5.143    0.000    8.286 
#    0.000    1.429    0.000    0.000    0.000    1.000 
#    0.000    0.000    0.000    0.000    0.000    0.000 
#
# Total GULP energy -347198.366646 kJ/mol
# GULP energy per Si atom -12399.941666 kJ/mol
# Density = 1.602256 g / cm^3
# Si number density = 16.059109 Si / 1000 Ang^3
#
#
#
# Elastic Constant Matrix: (Units=GPa)
#
#
# Indices 1 2 3 4 5 6 
#
# 1 70.5385 33.7363 36.1979 0.0000 -0.4470 0.0000
# 2 33.7363 89.0742 52.9157 0.0000 -1.6325 0.0000
# 3 36.1979 52.9157 111.5871 0.0000 4.1542 0.0000
# 4 0.0000 0.0000 0.0000 27.4130 0.0000 0.1564
# 5 -0.4470 -1.6325 4.1542 0.0000 19.3780 0.0000
# 6 0.0000 0.0000 0.0000 0.1564 0.0000 26.9859
#
#
#
# Elastic Compliance Matrix: (Units=1/GPa)
#
#
# Indices 1 2 3 4 5 6 
#
# 1 0.018360 -0.004708 -0.003754 0.000000 0.000832 0.000000
# 2 -0.004708 0.017004 -0.006638 0.000000 0.002747 0.000000
# 3 -0.003754 -0.006638 0.013459 0.000000 -0.003531 0.000000
# 4 0.000000 0.000000 0.000000 0.036480 0.000000 -0.000211
# 5 0.000832 0.002747 -0.003531 0.000000 0.052612 0.000000
# 6 0.000000 0.000000 0.000000 -0.000211 0.000000 0.037058
#
#
# Mechanical properties :
#
#
# Convention : Reuss Voigt Hill
#
# Bulk Modulus (GPa) = 53.70195 57.43329 55.56762
# Shear Modulus (GPa) = 23.65388 24.64536 24.14962
#
# Velocity S-wave (km/s) = 3.84204 3.92173 3.88209
# Velocity P-wave (km/s) = 7.29345 7.50653 7.40076
#
# Compressibility (1/GPa) = 0.01862130
#
# Stress axis : x y z
#
# Youngs Moduli (GPa) = 54.46532 58.81052 74.30088
#
# Poissons Ratio (x) = 0.27690 0.27893
# Poissons Ratio (y) = 0.25645 0.49323
# Poissons Ratio (z) = 0.20447 0.39040
#
# Static dielectric constant tensor:
#      x y z
#    x 2.756110 0.000000 0.071850 
#    y 0.000000 3.068170 0.000000 
#    z 0.071850 0.000000 3.280260 
# 
# 
# High freq. dielectric constant tensor:
#      x y z
#    x 1.583860 0.000000 0.001090 
#    y 0.000000 1.626440 0.000000 
#    z 0.001090 0.000000 1.615770 
# 
# From -- ./inp_files/248131.got.cif
#   From: 2010.06.25/outbox.cif.g09.slc.cpg/sg12_125_cif.got.tgz:248131.got - 2010.06.28 00:19:55.
