data_PCOD8085139
_publ_section_title
;
Structure prediction by ZEFSAII (Michael W. Deem and Ramdas Pophale) SiO2 
 PCOD8085139
Probable space group: C 2/M
;
_chemical_formula_sum "Si O2"
_cell_formula_units_Z 64
_cell_length_a 28.109619
_cell_length_b 13.134298
_cell_length_c 17.033669
_cell_angle_alpha 90.000000
_cell_angle_beta 145.134685
_cell_angle_gamma 90.000000
_cell_volume 3595.006549
_symmetry_space_group_name_H-M "C 2/M"
_symmetry_group_IT_number 12
_symmetry_cell_setting 'monoclinic'
loop_
_space_group_symop_operation_xyz
x,y,z
-x,y,-z
-x,-y,-z
x,-y,z
1/2+x,1/2+y,z
1/2-x,1/2+y,-z
1/2-x,1/2-y,-z
1/2+x,1/2-y,z
loop_
_atom_site_type_symbol
_atom_site_label
_atom_site_fract_x
_atom_site_fract_y
_atom_site_fract_z
Si Si1 0.257621 0.880573 0.240555
Si Si2 0.024015 0.115965 0.122878
Si Si3 0.359198 0.880404 0.649761
Si Si4 0.053495 0.379072 0.499844
Si Si5 0.382230 0.749896 0.997971
Si Si6 0.594259 0.880926 0.116165
Si Si7 0.984130 0.379529 0.239491
Si Si8 0.294117 0.379878 0.653444
O O1 0.352046 0.839660 0.364581
O O2 0.201033 0.817804 0.101833
O O3 0.219520 0.856070 0.273881
O O4 0.252930 0.000000 0.213909
O O5 0.117158 0.165037 0.256250
O O6 0.022794 0.000000 0.151132
O O7 0.000000 0.121015 0.000000
O O8 0.960419 0.176337 0.090566
O O9 0.354378 0.854571 0.735547
O O10 0.445996 0.845918 0.728868
O O11 0.280112 0.830625 0.498516
O O12 0.354567 0.000000 0.629126
O O13 0.054877 0.500000 0.501239
O O14 0.000000 0.335963 0.500000
O O15 0.012104 0.341019 0.363080
O O16 0.364522 0.823739 0.900438
O O17 0.400962 0.818783 0.100382
O O18 0.594488 0.000000 0.097223
O O19 0.500000 0.842014 0.000000
O O20 0.966092 0.500000 0.214227
O O21 0.298048 0.500000 0.647274
#
# Coordination Sequence:
#
# PCOD8085139 Si02
#       8
#     8   8   8   8   8   8   8   8
#     4  10  19  32  51  74  99 125 159 206 250 293
#     4  10  19  30  43  62  95 137 173 203 230 270
#     4   9  16  28  44  62  90 127 165 207 244 266
#     4   9  18  36  60  79  95 119 153 202 265 314
#     4  12  21  30  45  72 100 140 171 192 238 293
#     4  10  19  30  43  62  95 137 173 203 230 270
#     4  10  19  32  51  74  99 125 159 206 250 293
#     4   9  16  28  44  62  90 127 165 207 244 266
#
# _framework density 17.802471000000001
#
# number of rings (size 3 to 8) (size 9 to 14) (size 15 to 20)
#    0.000    2.125    3.750    1.125    0.000    0.000 
#    2.250    1.875    0.000    0.000    0.000    0.000 
#    0.000    4.000    0.000    0.000    0.000    0.000 
#
# Total GULP energy -396737.966363 kJ/mol
# GULP energy per Si atom -12398.061449 kJ/mol
# Density = 1.776195 g / cm^3
# Si number density = 17.802471 Si / 1000 Ang^3
#
#
#
# Elastic Constant Matrix: (Units=GPa)
#
#
# Indices 1 2 3 4 5 6 
#
# 1 63.1992 18.2001 35.0674 0.0000 0.1945 0.0000
# 2 18.2001 48.1427 34.9404 0.0000 2.2249 0.0000
# 3 35.0674 34.9404 139.1731 0.0000 1.9299 0.0000
# 4 0.0000 0.0000 0.0000 20.6553 0.0000 2.0789
# 5 0.1945 2.2249 1.9299 0.0000 16.0811 0.0000
# 6 0.0000 0.0000 0.0000 2.0789 0.0000 7.2394
#
#
#
# Elastic Compliance Matrix: (Units=1/GPa)
#
#
# Indices 1 2 3 4 5 6 
#
# 1 0.019198 -0.004619 -0.003689 0.000000 0.000850 0.000000
# 2 -0.004619 0.026633 -0.005481 0.000000 -0.002971 0.000000
# 3 -0.003689 -0.005481 0.009496 0.000000 -0.000337 0.000000
# 4 0.000000 0.000000 0.000000 0.049855 0.000000 -0.014316
# 5 0.000850 -0.002971 -0.000337 0.000000 0.062626 0.000000
# 6 0.000000 0.000000 0.000000 -0.014316 0.000000 0.142244
#
#
# Mechanical properties :
#
#
# Convention : Reuss Voigt Hill
#
# Bulk Modulus (GPa) = 36.04012 47.43675 41.73843
# Shear Modulus (GPa) = 14.41418 19.61563 17.01490
#
# Velocity S-wave (km/s) = 2.84856 3.32301 3.09489
# Velocity P-wave (km/s) = 5.57741 6.43640 6.02224
#
# Compressibility (1/GPa) = 0.02774686
#
# Stress axis : x y z
#
# Youngs Moduli (GPa) = 52.08949 37.54678 105.31078
#
# Poissons Ratio (x) = 0.17344 0.38852
# Poissons Ratio (y) = 0.24062 0.57725
# Poissons Ratio (z) = 0.19217 0.20581
#
# Static dielectric constant tensor:
#      x y z
#    x 2.971990 0.000000 0.058830 
#    y 0.000000 3.272120 0.000000 
#    z 0.058830 0.000000 3.637820 
# 
# 
# High freq. dielectric constant tensor:
#      x y z
#    x 1.632700 0.000000 -0.000530 
#    y 0.000000 1.680570 0.000000 
#    z -0.000530 0.000000 1.702880 
# 
# From -- ./inp_files/296705.got.cif
#   From: 2010.06.25/outbox.cif.g09.slc.cpg/sg12_149_cif.got.tgz:296705.got - 2010.06.28 00:19:55.
