data_PCOD8085950
_publ_section_title
;
Structure prediction by ZEFSAII (Michael W. Deem and Ramdas Pophale) SiO2 
 PCOD8085950
Probable space group: C 2/M
;
_chemical_formula_sum "Si O2"
_cell_formula_units_Z 64
_cell_length_a 25.673818
_cell_length_b 9.088635
_cell_length_c 21.351086
_cell_angle_alpha 90.000000
_cell_angle_beta 53.583517
_cell_angle_gamma 90.000000
_cell_volume 4009.179772
_symmetry_space_group_name_H-M "C 2/M"
_symmetry_group_IT_number 12
_symmetry_cell_setting 'monoclinic'
loop_
_space_group_symop_operation_xyz
x,y,z
-x,y,-z
-x,-y,-z
x,-y,z
1/2+x,1/2+y,z
1/2-x,1/2+y,-z
1/2-x,1/2-y,-z
1/2+x,1/2-y,z
loop_
_atom_site_type_symbol
_atom_site_label
_atom_site_fract_x
_atom_site_fract_y
_atom_site_fract_z
Si Si1 0.491022 0.173715 0.324588
Si Si2 0.846775 0.328442 0.413867
Si Si3 0.244393 0.671022 0.405986
Si Si4 0.196941 0.329411 0.997776
Si Si5 0.447336 0.829934 0.590939
Si Si6 0.110276 0.327311 0.164575
Si Si7 0.186637 0.826371 0.330011
Si Si8 0.717826 0.671382 0.169776
O O1 0.419365 0.237588 0.364934
O O2 0.522608 0.233093 0.366173
O O3 0.537097 0.222230 0.233528
O O4 0.483562 0.000000 0.336163
O O5 0.844709 0.500000 0.396839
O O6 0.814951 0.302547 0.504293
O O7 0.810057 0.237081 0.387134
O O8 0.255040 0.500000 0.384783
O O9 0.229986 0.752991 0.352021
O O10 0.207879 0.500000 0.000910
O O11 0.212023 0.291171 0.913879
O O12 0.250000 0.250000 0.000000
O O13 0.127306 0.286235 0.079085
O O14 0.500000 0.809940 0.500000
O O15 0.385720 0.734637 0.616202
O O16 0.426053 0.000000 0.612717
O O17 0.116134 0.500000 0.172293
O O18 0.159697 0.255122 0.177703
O O19 0.221235 0.783412 0.239779
O O20 0.184413 0.000000 0.342552
O O21 0.701717 0.500000 0.174811
#
# Coordination Sequence:
#
# PCOD8085950 Si02
#       8
#     8   8   8   8   8   8   8   8
#     4   9  16  27  45  68  91 116 147 182 223 270
#     4   9  18  34  52  68  88 114 147 189 234 273
#     4  10  20  34  51  68  87 115 153 194 231 268
#     4   8  14  24  39  59  85 117 149 181 217 259
#     4  10  19  31  46  64  91 125 155 183 220 269
#     4   9  15  25  43  65  88 117 152 184 216 264
#     4  11  21  31  45  66  93 124 154 187 226 267
#     4   9  17  28  40  60  92 123 149 181 223 263
#
# _framework density 15.963365
#
# number of rings (size 3 to 8) (size 9 to 14) (size 15 to 20)
#    0.000    2.625    1.250    1.500    0.000    3.250 
#    0.000    1.250    0.000    0.000    0.000    0.875 
#    0.000    7.000    0.000    0.000    0.000    0.000 
#
# Total GULP energy -396499.493733 kJ/mol
# GULP energy per Si atom -12390.609179 kJ/mol
# Density = 1.592703 g / cm^3
# Si number density = 15.963365 Si / 1000 Ang^3
#
#
#
# Elastic Constant Matrix: (Units=GPa)
#
#
# Indices 1 2 3 4 5 6 
#
# 1 82.2110 30.0015 54.5296 0.0000 4.3359 -0.0001
# 2 30.0015 44.9761 34.8227 -0.0030 7.6918 -0.0010
# 3 54.5296 34.8227 126.6065 0.0009 1.7126 -0.0001
# 4 0.0000 -0.0030 0.0009 10.7357 0.0000 1.7825
# 5 4.3359 7.6918 1.7126 0.0000 17.9308 0.0001
# 6 -0.0001 -0.0010 -0.0001 1.7825 0.0001 22.8815
#
#
#
# Elastic Compliance Matrix: (Units=1/GPa)
#
#
# Indices 1 2 3 4 5 6 
#
# 1 0.019103 -0.007969 -0.006027 -0.000002 -0.000625 0.000000
# 2 -0.007969 0.034106 -0.005784 0.000010 -0.012151 0.000001
# 3 -0.006027 -0.005784 0.012048 -0.000003 0.002788 0.000000
# 4 -0.000002 0.000010 -0.000003 0.094367 -0.000004 -0.007351
# 5 -0.000625 -0.012151 0.002788 -0.000004 0.060867 0.000000
# 6 0.000000 0.000001 0.000000 -0.007351 0.000000 0.044276
#
#
# Mechanical properties :
#
#
# Convention : Reuss Voigt Hill
#
# Bulk Modulus (GPa) = 38.91699 54.72235 46.81967
# Shear Modulus (GPa) = 15.97986 19.27227 17.62606
#
# Velocity S-wave (km/s) = 3.16734 3.47836 3.32649
# Velocity P-wave (km/s) = 6.14882 7.10538 6.64433
#
# Compressibility (1/GPa) = 0.02569571
#
# Stress axis : x y z
#
# Youngs Moduli (GPa) = 52.34839 29.32009 83.00378
#
# Poissons Ratio (x) = 0.23365 0.50029
# Poissons Ratio (y) = 0.41717 0.48011
# Poissons Ratio (z) = 0.31552 0.16959
#
# Static dielectric constant tensor:
#      x y z
#    x 2.805000 0.000000 -0.076470 
#    y 0.000000 2.943880 0.000000 
#    z -0.076470 0.000000 3.656040 
# 
# 
# High freq. dielectric constant tensor:
#      x y z
#    x 1.575320 0.000000 -0.003250 
#    y 0.000000 1.606680 0.000000 
#    z -0.003250 0.000000 1.629200 
# 
# From -- ./inp_files/323649.got.cif
#   From: 2010.06.25/outbox.cif.g09.slc.cpg/sg12_162_cif.got.tgz:323649.got - 2010.06.28 00:19:55.
