data_PCOD8085672
_publ_section_title
;
Structure prediction by ZEFSAII (Michael W. Deem and Ramdas Pophale) SiO2 
 PCOD8085672
Probable space group: C 2/M
;
_chemical_formula_sum "Si O2"
_cell_formula_units_Z 48
_cell_length_a 16.362049
_cell_length_b 13.390451
_cell_length_c 12.612030
_cell_angle_alpha 90.000000
_cell_angle_beta 93.471308
_cell_angle_gamma 90.000000
_cell_volume 2758.165568
_symmetry_space_group_name_H-M "C 2/M"
_symmetry_group_IT_number 12
_symmetry_cell_setting 'monoclinic'
loop_
_space_group_symop_operation_xyz
x,y,z
-x,y,-z
-x,-y,-z
x,-y,z
1/2+x,1/2+y,z
1/2-x,1/2+y,-z
1/2-x,1/2-y,-z
1/2+x,1/2-y,z
loop_
_atom_site_type_symbol
_atom_site_label
_atom_site_fract_x
_atom_site_fract_y
_atom_site_fract_z
Si Si1 0.071504 0.118034 0.360697
Si Si2 0.035281 0.388963 0.886120
Si Si3 0.110133 0.739938 0.179756
Si Si4 0.224574 0.116750 0.784276
Si Si5 0.892805 0.882263 0.405547
Si Si6 0.341726 0.731748 0.040852
O O1 0.114226 0.173133 0.266360
O O2 0.118951 0.149481 0.472744
O O3 0.978391 0.157268 0.364370
O O4 0.077274 0.000000 0.340535
O O5 0.050948 0.500000 0.839390
O O6 0.120919 0.329007 0.896989
O O7 0.969572 0.329357 0.809053
O O8 0.000000 0.400800 0.000000
O O9 0.190133 0.672180 0.195298
O O10 0.106260 0.791326 0.061983
O O11 0.183330 0.154419 0.671285
O O12 0.160784 0.140790 0.875207
O O13 0.242619 0.000000 0.785021
O O14 0.900043 0.000000 0.400897
O O15 0.250000 0.750000 0.000000
#
# Coordination Sequence:
#
# PCOD8085672 Si02
#       6
#     8   8   8   8   8   8
#     4   9  17  31  50  71  96 124 159 201 240 282
#     4   9  17  31  49  68  95 127 157 193 234 279
#     4  10  19  30  48  75  98 124 162 196 238 292
#     4  10  19  32  48  68  97 128 162 203 239 279
#     4   8  16  31  50  69  90 124 163 196 238 288
#     4   9  19  31  45  70  97 124 161 192 227 284
#
# _framework density 17.402871000000001
#
# number of rings (size 3 to 8) (size 9 to 14) (size 15 to 20)
#    0.000    2.833    0.000    2.500    0.000    5.333 
#    0.000    2.500    0.000    6.000    0.000   22.167 
#    0.000    0.000    0.000    0.000    0.000    0.000 
#
# Total GULP energy -297403.912349 kJ/mol
# GULP energy per Si atom -12391.829681 kJ/mol
# Density = 1.736326 g / cm^3
# Si number density = 17.402871 Si / 1000 Ang^3
#
#
#
# Elastic Constant Matrix: (Units=GPa)
#
#
# Indices 1 2 3 4 5 6 
#
# 1 80.1328 40.8883 41.4238 0.0000 15.0109 0.0000
# 2 40.8883 76.2638 53.5903 0.0000 -1.4187 0.0000
# 3 41.4238 53.5903 113.9184 0.0000 4.5090 0.0000
# 4 0.0000 0.0000 0.0000 26.1989 0.0000 0.0744
# 5 15.0109 -1.4187 4.5090 0.0000 28.5043 0.0000
# 6 0.0000 0.0000 0.0000 0.0744 0.0000 26.0654
#
#
#
# Elastic Compliance Matrix: (Units=1/GPa)
#
#
# Indices 1 2 3 4 5 6 
#
# 1 0.020730 -0.009450 -0.002658 0.000000 -0.010967 0.000000
# 2 -0.009450 0.024067 -0.008181 0.000000 0.007469 0.000000
# 3 -0.002658 -0.008181 0.013639 0.000000 -0.001165 0.000000
# 4 0.000000 0.000000 0.000000 0.038170 0.000000 -0.000109
# 5 -0.010967 0.007469 -0.001165 0.000000 0.041414 0.000000
# 6 0.000000 0.000000 0.000000 -0.000109 0.000000 0.038365
#
#
# Mechanical properties :
#
#
# Convention : Reuss Voigt Hill
#
# Bulk Modulus (GPa) = 55.99962 60.23554 58.11758
# Shear Modulus (GPa) = 22.43001 25.11455 23.77228
#
# Velocity S-wave (km/s) = 3.59398 3.80297 3.69995
# Velocity P-wave (km/s) = 7.03352 7.34650 7.19171
#
# Compressibility (1/GPa) = 0.01785726
#
# Stress axis : x y z
#
# Youngs Moduli (GPa) = 48.23981 41.55127 73.31696
#
# Poissons Ratio (x) = 0.39267 0.19489
# Poissons Ratio (y) = 0.45588 0.59980
# Poissons Ratio (z) = 0.12823 0.33993
#
# Static dielectric constant tensor:
#      x y z
#    x 3.250620 0.000000 0.238570 
#    y 0.000000 3.132650 0.000000 
#    z 0.238570 0.000000 3.738030 
# 
# 
# High freq. dielectric constant tensor:
#      x y z
#    x 1.664860 0.000000 0.019560 
#    y 0.000000 1.648410 0.000000 
#    z 0.019560 0.000000 1.671940 
# 
# From -- ./inp_files/143107.got.cif
#   From: 2010.06.25/outbox.cif.g09.slc.cpg/sg12_72_cif.got.tgz:143107.got - 2010.06.28 00:19:55.
