data_PCOD8085567
_publ_section_title
;
Structure prediction by ZEFSAII (Michael W. Deem and Ramdas Pophale) SiO2 
 PCOD8085567
Probable space group: C 2/M
;
_chemical_formula_sum "Si O2"
_cell_formula_units_Z 64
_cell_length_a 24.842591
_cell_length_b 8.970302
_cell_length_c 33.702761
_cell_angle_alpha 90.000000
_cell_angle_beta 149.790161
_cell_angle_gamma 90.000000
_cell_volume 3779.051013
_symmetry_space_group_name_H-M "C 2/M"
_symmetry_group_IT_number 12
_symmetry_cell_setting 'monoclinic'
loop_
_space_group_symop_operation_xyz
x,y,z
-x,y,-z
-x,-y,-z
x,-y,z
1/2+x,1/2+y,z
1/2-x,1/2+y,-z
1/2-x,1/2-y,-z
1/2+x,1/2-y,z
loop_
_atom_site_type_symbol
_atom_site_label
_atom_site_fract_x
_atom_site_fract_y
_atom_site_fract_z
Si Si1 0.189855 0.827673 0.426201
Si Si2 0.760113 0.175626 0.310783
Si Si3 0.513449 0.673722 0.582838
Si Si4 0.305905 0.176517 0.421094
Si Si5 0.620100 0.675270 0.157448
Si Si6 0.064459 0.331769 0.000416
Si Si7 0.960981 0.827796 0.310048
Si Si8 0.245004 0.825740 0.157435
O O1 0.250000 0.750000 0.500000
O O2 0.234158 0.769910 0.412501
O O3 0.063181 0.796859 0.347501
O O4 0.215402 0.000000 0.447623
O O5 0.871942 0.217157 0.361555
O O6 0.753909 0.245618 0.350180
O O7 0.664388 0.245811 0.224656
O O8 0.743275 0.000000 0.302589
O O9 0.487143 0.500000 0.559769
O O10 0.427248 0.769751 0.504122
O O11 0.509889 0.718993 0.626612
O O12 0.304582 0.000000 0.414419
O O13 0.612661 0.500000 0.159737
O O14 0.501252 0.738304 0.074002
O O15 0.697806 0.715723 0.170378
O O16 0.081146 0.500000 0.995700
O O17 0.179416 0.256135 0.080827
O O18 0.000000 0.329005 0.000000
O O19 0.866818 0.727156 0.232832
O O20 0.924640 0.000000 0.286073
O O21 0.237758 0.000000 0.144596
#
# Coordination Sequence:
#
# PCOD8085567 Si02
#       8
#     8   8   8   8   8   8   8   8
#     4  10  21  36  54  73  96 128 169 213 258 302
#     4  11  22  35  51  72 100 136 174 206 245 303
#     4  10  20  34  52  72  98 133 171 207 249 302
#     4  11  23  36  51  73  99 130 170 215 258 298
#     4  10  19  31  48  72 104 135 165 205 251 295
#     4   9  17  29  47  70 100 137 171 200 239 297
#     4  10  19  33  52  73  99 133 169 208 252 300
#     4  10  19  30  47  74 105 133 165 206 252 297
#
# _framework density 16.935468
#
# number of rings (size 3 to 8) (size 9 to 14) (size 15 to 20)
#    0.000    1.875    2.500    2.250    0.000    6.500 
#    0.000    0.000    0.000    0.000    0.000    0.875 
#    0.000    0.000    0.000    0.000    0.000    0.000 
#
# Total GULP energy -396931.336617 kJ/mol
# GULP energy per Si atom -12404.104269 kJ/mol
# Density = 1.689692 g / cm^3
# Si number density = 16.935468 Si / 1000 Ang^3
#
#
#
# Elastic Constant Matrix: (Units=GPa)
#
#
# Indices 1 2 3 4 5 6 
#
# 1 64.5472 31.6769 37.5558 -0.0001 -13.2178 -0.0004
# 2 31.6769 80.2558 57.1706 0.0005 -6.6400 -0.0019
# 3 37.5558 57.1706 132.2020 0.0019 -12.3425 0.0006
# 4 -0.0001 0.0005 0.0019 36.9314 0.0006 -2.0862
# 5 -13.2178 -6.6400 -12.3425 0.0006 17.3118 0.0002
# 6 -0.0004 -0.0019 0.0006 -2.0862 0.0002 19.9545
#
#
#
# Elastic Compliance Matrix: (Units=1/GPa)
#
#
# Indices 1 2 3 4 5 6 
#
# 1 0.022641 -0.005985 -0.002618 0.000000 0.013124 0.000000
# 2 -0.005985 0.019624 -0.006974 0.000000 -0.002015 0.000002
# 3 -0.002618 -0.006974 0.011664 -0.000001 0.003642 -0.000001
# 4 0.000000 0.000000 -0.000001 0.027238 -0.000001 0.002848
# 5 0.013124 -0.002015 0.003642 -0.000001 0.069608 -0.000001
# 6 0.000000 0.000002 -0.000001 0.002848 -0.000001 0.050412
#
#
# Mechanical properties :
#
#
# Convention : Reuss Voigt Hill
#
# Bulk Modulus (GPa) = 43.91122 58.86797 51.38960
# Shear Modulus (GPa) = 20.83915 24.87966 22.85941
#
# Velocity S-wave (km/s) = 3.51166 3.83702 3.67794
# Velocity P-wave (km/s) = 6.51361 7.38011 6.96036
#
# Compressibility (1/GPa) = 0.02277322
#
# Stress axis : x y z
#
# Youngs Moduli (GPa) = 44.16818 50.95816 85.73456
#
# Poissons Ratio (x) = 0.30501 0.22446
# Poissons Ratio (y) = 0.26437 0.59793
# Poissons Ratio (z) = 0.11564 0.35539
#
# Static dielectric constant tensor:
#      x y z
#    x 3.034910 0.000000 0.026540 
#    y 0.000000 3.225160 0.000000 
#    z 0.026540 0.000000 3.213230 
# 
# 
# High freq. dielectric constant tensor:
#      x y z
#    x 1.616730 0.000000 0.001510 
#    y 0.000000 1.664100 0.000000 
#    z 0.001510 0.000000 1.658270 
# 
# From -- ./inp_files/382571.got.cif
#   From: 2010.06.25/outbox.cif.g09.slc.cpg/sg12_192_cif.got.tgz:382571.got - 2010.06.28 00:19:55.
