data_PCOD8085885
_publ_section_title
;
Structure prediction by ZEFSAII (Michael W. Deem and Ramdas Pophale) SiO2 
 PCOD8085885
Probable space group: C 2/M
;
_chemical_formula_sum "Si O2"
_cell_formula_units_Z 44
_cell_length_a 14.517534
_cell_length_b 18.339876
_cell_length_c 17.799940
_cell_angle_alpha 90.000000
_cell_angle_beta 29.727055
_cell_angle_gamma 90.000000
_cell_volume 2350.036194
_symmetry_space_group_name_H-M "C 2/M"
_symmetry_group_IT_number 12
_symmetry_cell_setting 'monoclinic'
loop_
_space_group_symop_operation_xyz
x,y,z
-x,y,-z
-x,-y,-z
x,-y,z
1/2+x,1/2+y,z
1/2-x,1/2+y,-z
1/2-x,1/2-y,-z
1/2+x,1/2-y,z
loop_
_atom_site_type_symbol
_atom_site_label
_atom_site_fract_x
_atom_site_fract_y
_atom_site_fract_z
Si Si1 0.500000 0.827729 0.000000
Si Si2 0.820307 0.417554 0.577546
Si Si3 0.957086 0.175540 0.839312
Si Si4 0.270339 0.224751 0.865212
Si Si5 0.400239 0.082945 0.931221
Si Si6 0.457265 0.080919 0.723128
O O1 0.313319 0.778504 0.137997
O O2 0.488024 0.875819 0.083430
O O3 0.757732 0.500000 0.643485
O O4 0.658878 0.359563 0.706924
O O5 0.864601 0.414190 0.456995
O O6 0.000000 0.395926 0.500000
O O7 0.948778 0.236363 0.778529
O O8 0.899907 0.217433 0.955325
O O9 0.809045 0.112005 0.927704
O O10 0.318361 0.145790 0.796429
O O11 0.508300 0.092524 0.774862
O O12 0.387130 0.000000 0.965269
O O13 0.364171 0.000000 0.779065
#
# Coordination Sequence:
#
# PCOD8085885 Si02
#       6
#     4   8   8   8   8   8
#     4  10  19  30  53  82 108 132 174 230 263 312
#     4  10  21  35  53  80 110 143 183 220 263 320
#     4   9  18  34  54  77 106 141 176 222 269 316
#     4   9  19  33  53  79 105 137 180 221 268 316
#     4   9  17  33  56  79 104 139 180 220 268 315
#     4   9  19  36  53  75 106 140 177 220 267 317
#
# _framework density 18.723115
#
# number of rings (size 3 to 8) (size 9 to 14) (size 15 to 20)
#    0.000    2.727    0.000    1.909    2.545    1.455 
#    0.000    0.455    0.000    3.273    0.000   16.545 
#    0.000    0.000    0.000    0.000    0.000    0.000 
#
# Total GULP energy -272605.287027 kJ/mol
# GULP energy per Si atom -12391.149410 kJ/mol
# Density = 1.868050 g / cm^3
# Si number density = 18.723115 Si / 1000 Ang^3
#
#
#
# Elastic Constant Matrix: (Units=GPa)
#
#
# Indices 1 2 3 4 5 6 
#
# 1 91.2561 49.5971 39.8346 -0.0008 -4.7402 -0.0069
# 2 49.5971 128.3639 34.1467 -0.0221 -8.9390 -0.0132
# 3 39.8346 34.1467 62.6183 -0.0407 -6.1592 -0.0255
# 4 -0.0008 -0.0221 -0.0407 30.0010 0.0013 -8.6156
# 5 -4.7402 -8.9390 -6.1592 0.0013 24.5436 0.0156
# 6 -0.0069 -0.0132 -0.0255 -8.6156 0.0156 26.6932
#
#
#
# Elastic Compliance Matrix: (Units=1/GPa)
#
#
# Indices 1 2 3 4 5 6 
#
# 1 0.017001 -0.004340 -0.008491 -0.000017 -0.000428 -0.000011
# 2 -0.004340 0.010329 -0.002650 0.000004 0.002259 0.000001
# 3 -0.008491 -0.002650 0.023131 0.000037 0.003200 0.000029
# 4 -0.000017 0.000004 0.000037 0.036738 -0.000002 0.011858
# 5 -0.000428 0.002259 0.003200 -0.000002 0.042287 -0.000021
# 6 -0.000011 0.000001 0.000029 0.011858 -0.000021 0.041290
#
#
# Mechanical properties :
#
#
# Convention : Reuss Voigt Hill
#
# Bulk Modulus (GPa) = 51.28065 58.82167 55.05116
# Shear Modulus (GPa) = 24.01119 26.82489 25.41804
#
# Velocity S-wave (km/s) = 3.58500 3.78923 3.68853
# Velocity P-wave (km/s) = 6.67718 7.11542 6.89978
#
# Compressibility (1/GPa) = 0.01950053
#
# Stress axis : x y z
#
# Youngs Moduli (GPa) = 58.82020 96.81106 43.23254
#
# Poissons Ratio (x) = 0.42016 0.36707
# Poissons Ratio (y) = 0.25528 0.11455
# Poissons Ratio (z) = 0.49942 0.25652
#
# Static dielectric constant tensor:
#      x y z
#    x 3.423220 0.000000 0.227830 
#    y 0.000000 3.778830 0.000050 
#    z 0.227830 0.000050 3.070650 
# 
# 
# High freq. dielectric constant tensor:
#      x y z
#    x 1.719420 0.000000 0.019880 
#    y 0.000000 1.753760 0.000010 
#    z 0.019880 0.000010 1.680070 
# 
# From -- ./inp_files/271321.got.cif
#   From: 2010.06.25/outbox.cif.g09.slc.cpg/sg12_136_cif.got.tgz:271321.got - 2010.06.28 00:19:55.
