data_PCOD8085646
_publ_section_title
;
Structure prediction by ZEFSAII (Michael W. Deem and Ramdas Pophale) SiO2 
 PCOD8085646
Probable space group: C 2/M
;
_chemical_formula_sum "Si O2"
_cell_formula_units_Z 56
_cell_length_a 25.409285
_cell_length_b 9.360376
_cell_length_c 14.312112
_cell_angle_alpha 90.000000
_cell_angle_beta 116.929658
_cell_angle_gamma 90.000000
_cell_volume 3034.880585
_symmetry_space_group_name_H-M "C 2/M"
_symmetry_group_IT_number 12
_symmetry_cell_setting 'monoclinic'
loop_
_space_group_symop_operation_xyz
x,y,z
-x,y,-z
-x,-y,-z
x,-y,z
1/2+x,1/2+y,z
1/2-x,1/2+y,-z
1/2-x,1/2-y,-z
1/2+x,1/2-y,z
loop_
_atom_site_type_symbol
_atom_site_label
_atom_site_fract_x
_atom_site_fract_y
_atom_site_fract_z
Si Si1 0.738324 0.666700 0.778432
Si Si2 0.595247 0.165545 0.222752
Si Si3 0.277720 0.836132 0.605817
Si Si4 0.375922 0.659262 0.197524
Si Si5 0.290855 0.341042 0.968302
Si Si6 0.565550 0.657824 0.024132
Si Si7 0.034062 0.333126 0.821709
O O1 0.749872 0.500000 0.809696
O O2 0.741540 0.699311 0.671338
O O3 0.674498 0.712817 0.770115
O O4 0.791086 0.759438 0.868819
O O5 0.652895 0.201250 0.330220
O O6 0.599406 0.264129 0.135178
O O7 0.536367 0.197189 0.236621
O O8 0.595647 0.000000 0.190702
O O9 0.250000 0.750000 0.500000
O O10 0.269616 0.000000 0.573655
O O11 0.395815 0.500000 0.242890
O O12 0.433720 0.761742 0.243266
O O13 0.353426 0.656321 0.071228
O O14 0.265235 0.500000 0.934436
O O15 0.250000 0.250000 0.000000
O O16 0.595716 0.500000 0.028036
O O17 0.500000 0.622971 0.000000
O O18 0.564198 0.765185 0.936591
O O19 0.047844 0.500000 0.832112
#
# Coordination Sequence:
#
# PCOD8085646 Si02
#       7
#     8   8   8   8   8   8   8
#     4   9  19  35  53  74 102 135 172 217 264 310
#     4   9  19  35  52  74 103 135 172 215 261 309
#     4  10  22  40  60  80 101 129 171 224 276 317
#     4   9  18  31  47  73 108 140 172 210 250 300
#     4   9  17  29  46  71 104 140 176 211 249 300
#     4   9  17  29  46  71 104 140 175 209 248 299
#     4  10  19  30  48  74 107 143 175 206 248 307
#
# _framework density 18.452126
#
# number of rings (size 3 to 8) (size 9 to 14) (size 15 to 20)
#    0.000    2.714    0.000    2.143    2.000    6.286 
#    0.000    0.000    0.000    0.857    0.000    6.000 
#    0.000    0.000    0.000    0.000    0.000    0.000 
#
# Total GULP energy -346891.390998 kJ/mol
# GULP energy per Si atom -12388.978250 kJ/mol
# Density = 1.841013 g / cm^3
# Si number density = 18.452126 Si / 1000 Ang^3
#
#
#
# Elastic Constant Matrix: (Units=GPa)
#
#
# Indices 1 2 3 4 5 6 
#
# 1 126.9027 54.3572 45.2285 0.0000 -3.2323 0.0000
# 2 54.3572 102.5750 49.4343 0.0000 -0.9548 0.0000
# 3 45.2285 49.4343 99.5320 0.0000 -2.1935 0.0000
# 4 0.0000 0.0000 0.0000 31.7549 0.0000 -1.3397
# 5 -3.2323 -0.9548 -2.1935 0.0000 14.7406 0.0000
# 6 0.0000 0.0000 0.0000 -1.3397 0.0000 25.5854
#
#
#
# Elastic Compliance Matrix: (Units=1/GPa)
#
#
# Indices 1 2 3 4 5 6 
#
# 1 0.010758 -0.004400 -0.002666 0.000000 0.001677 0.000000
# 2 -0.004400 0.014617 -0.005278 0.000000 -0.000803 0.000000
# 3 -0.002666 -0.005278 0.013905 0.000000 0.001143 0.000000
# 4 0.000000 0.000000 0.000000 0.031561 0.000000 0.001653
# 5 0.001677 -0.000803 0.001143 0.000000 0.068325 0.000000
# 6 0.000000 0.000000 0.000000 0.001653 0.000000 0.039171
#
#
# Mechanical properties :
#
#
# Convention : Reuss Voigt Hill
#
# Bulk Modulus (GPa) = 68.53422 69.67218 69.10320
# Shear Modulus (GPa) = 24.05122 26.41551 25.23337
#
# Velocity S-wave (km/s) = 3.61423 3.78771 3.70199
# Velocity P-wave (km/s) = 7.39183 7.54780 7.47023
#
# Compressibility (1/GPa) = 0.01459125
#
# Stress axis : x y z
#
# Youngs Moduli (GPa) = 92.95593 68.41365 71.91661
#
# Poissons Ratio (x) = 0.30105 0.19173
# Poissons Ratio (y) = 0.40904 0.37957
# Poissons Ratio (z) = 0.24782 0.36108
#
# Static dielectric constant tensor:
#      x y z
#    x 3.715150 0.000000 0.011200 
#    y 0.000000 4.046080 0.000000 
#    z 0.011200 0.000000 3.138490 
# 
# 
# High freq. dielectric constant tensor:
#      x y z
#    x 1.735250 0.000000 -0.002120 
#    y 0.000000 1.726750 0.000000 
#    z -0.002120 0.000000 1.655330 
# 
# From -- ./inp_files/244326.got.cif
#   From: 2010.06.25/outbox.cif.g09.slc.cpg/sg12_123_cif.got.tgz:244326.got - 2010.06.28 00:19:55.
