data_PCOD8085559
_publ_section_title
;
Structure prediction by ZEFSAII (Michael W. Deem and Ramdas Pophale) SiO2 
 PCOD8085559
Probable space group: C 2/M
;
_chemical_formula_sum "Si O2"
_cell_formula_units_Z 56
_cell_length_a 28.977313
_cell_length_b 20.345609
_cell_length_c 5.229807
_cell_angle_alpha 90.000000
_cell_angle_beta 69.164340
_cell_angle_gamma 90.000000
_cell_volume 2881.657275
_symmetry_space_group_name_H-M "C 2/M"
_symmetry_group_IT_number 12
_symmetry_cell_setting 'monoclinic'
loop_
_space_group_symop_operation_xyz
x,y,z
-x,y,-z
-x,-y,-z
x,-y,z
1/2+x,1/2+y,z
1/2-x,1/2+y,-z
1/2-x,1/2-y,-z
1/2+x,1/2-y,z
loop_
_atom_site_type_symbol
_atom_site_label
_atom_site_fract_x
_atom_site_fract_y
_atom_site_fract_z
Si Si1 0.700855 0.578607 0.860505
Si Si2 0.131108 0.578126 0.001100
Si Si3 0.148934 0.924734 0.465781
Si Si4 0.967602 0.803089 0.818376
Si Si5 0.467046 0.157682 0.816949
Si Si6 0.441924 0.428263 0.663031
Si Si7 0.687846 0.078114 0.389365
O O1 0.700185 0.500000 0.865994
O O2 0.667427 0.607628 0.693592
O O3 0.756473 0.605501 0.721155
O O4 0.677605 0.607069 0.167377
O O5 0.127567 0.500000 0.007344
O O6 0.075931 0.604981 0.109294
O O7 0.159399 0.604394 0.195649
O O8 0.160154 0.604459 0.695751
O O9 0.089723 0.917145 0.535245
O O10 0.165029 0.000000 0.449280
O O11 0.942758 0.731052 0.885563
O O12 0.930224 0.865838 0.871385
O O13 0.000000 0.803927 0.500000
O O14 0.000000 0.816781 0.000000
O O15 0.500000 0.150319 0.500000
O O16 0.500000 0.143157 0.000000
O O17 0.500000 0.431858 0.500000
O O18 0.425243 0.500000 0.814911
O O19 0.688601 0.000000 0.387413
#
# Coordination Sequence:
#
# PCOD8085559 Si02
#       7
#     8   8   8   8   8   8   8
#     4   9  16  28  44  64  93 124 154 193 236 276
#     4  10  19  30  47  73  98 123 159 198 241 284
#     4   9  17  27  42  66  93 123 156 186 229 285
#     4   9  19  34  50  68  92 127 166 195 226 275
#     4  10  20  34  50  69  97 130 162 194 229 281
#     4   9  18  32  50  74 103 129 155 194 239 281
#     4   9  17  29  46  69  96 123 156 201 243 279
#
# _framework density 19.433261999999999
#
# number of rings (size 3 to 8) (size 9 to 14) (size 15 to 20)
#    0.000    2.714    0.000    1.714    0.000    6.571 
#    0.000    4.286    0.000    0.000    0.000    6.000 
#    0.000    0.000    0.000    0.000    0.000    0.000 
#
# Total GULP energy -346884.283045 kJ/mol
# GULP energy per Si atom -12388.724394 kJ/mol
# Density = 1.938903 g / cm^3
# Si number density = 19.433262 Si / 1000 Ang^3
#
#
#
# Elastic Constant Matrix: (Units=GPa)
#
#
# Indices 1 2 3 4 5 6 
#
# 1 137.4071 26.7445 52.4256 0.0000 12.7514 0.0000
# 2 26.7445 36.7116 9.5720 0.0000 3.7357 0.0000
# 3 52.4256 9.5720 106.1641 0.0000 22.4665 0.0000
# 4 0.0000 0.0000 0.0000 8.4308 0.0000 7.8286
# 5 12.7514 3.7357 22.4665 0.0000 39.6332 0.0000
# 6 0.0000 0.0000 0.0000 7.8286 0.0000 4.8077
#
#
#
# Elastic Compliance Matrix: (Units=1/GPa)
#
#
# Indices 1 2 3 4 5 6 
#
# 1 0.010206 -0.006260 -0.004438 0.000000 -0.000178 0.000000
# 2 -0.006260 0.031800 0.000491 0.000000 -0.001262 0.000000
# 3 -0.004438 0.000491 0.012811 0.000000 -0.005881 0.000000
# 4 0.000000 0.000000 0.000000 -0.231649 0.000000 0.377205
# 5 -0.000178 -0.001262 -0.005881 0.000000 0.028741 0.000000
# 6 0.000000 0.000000 0.000000 0.377205 0.000000 -0.406221
#
#
# Mechanical properties :
#
#
# Convention : Reuss Voigt Hill
#
# Bulk Modulus (GPa) = 29.06652 50.86298 39.96475
# Shear Modulus (GPa) = -9.57064 23.34371 6.88653
#
# Velocity S-wave (km/s) = -2.22161 3.46963 1.88451
# Velocity P-wave (km/s) = 2.89980 6.50239 5.03438
#
# Compressibility (1/GPa) = 0.03440384
#
# Stress axis : x y z
#
# Youngs Moduli (GPa) = 97.98491 31.44658 78.05822
#
# Poissons Ratio (x) = 0.19685 0.34640
# Poissons Ratio (y) = 0.61336 -0.03833
# Poissons Ratio (z) = 0.43482 -0.01544
#
# Static dielectric constant tensor:
#      x y z
#    x 3.637630 0.000000 0.221290 
#    y 0.000000 3.694660 0.000000 
#    z 0.221290 0.000000 3.671850 
# 
# 
# High freq. dielectric constant tensor:
#      x y z
#    x 1.762370 0.000000 0.016860 
#    y 0.000000 1.703380 0.000000 
#    z 0.016860 0.000000 1.760720 
# 
# From -- ./inp_files/25610.got.cif
#   From: 2010.06.25/outbox.cif.g09.slc.cpg/sg12_13_cif.got.tgz:25610.got - 2010.06.28 00:19:55.
