data_PCOD8085747
_publ_section_title
;
Structure prediction by ZEFSAII (Michael W. Deem and Ramdas Pophale) SiO2 
 PCOD8085747
Probable space group: C 2/M
;
_chemical_formula_sum "Si O2"
_cell_formula_units_Z 64
_cell_length_a 33.154977
_cell_length_b 9.079391
_cell_length_c 12.056484
_cell_angle_alpha 90.000000
_cell_angle_beta 85.495971
_cell_angle_gamma 90.000000
_cell_volume 3618.119169
_symmetry_space_group_name_H-M "C 2/M"
_symmetry_group_IT_number 12
_symmetry_cell_setting 'monoclinic'
loop_
_space_group_symop_operation_xyz
x,y,z
-x,y,-z
-x,-y,-z
x,-y,z
1/2+x,1/2+y,z
1/2-x,1/2+y,-z
1/2-x,1/2-y,-z
1/2+x,1/2-y,z
loop_
_atom_site_type_symbol
_atom_site_label
_atom_site_fract_x
_atom_site_fract_y
_atom_site_fract_z
Si Si1 0.281662 0.171881 0.847900
Si Si2 0.560629 0.330304 0.684268
Si Si3 0.425235 0.328086 0.570773
Si Si4 0.520981 0.174186 0.264008
Si Si5 0.079553 0.831792 0.095238
Si Si6 0.701641 0.172441 0.903150
Si Si7 0.121111 0.169631 0.864071
Si Si8 0.853581 0.832606 0.738397
O O1 0.239209 0.251083 0.833362
O O2 0.314542 0.228198 0.752069
O O3 0.275114 0.000000 0.833001
O O4 0.297561 0.212364 0.967026
O O5 0.546396 0.500000 0.692737
O O6 0.573210 0.284872 0.557651
O O7 0.524995 0.226915 0.735117
O O8 0.599770 0.303791 0.751372
O O9 0.434010 0.500000 0.590408
O O10 0.459578 0.239113 0.628347
O O11 0.380687 0.287561 0.626325
O O12 0.544240 0.227948 0.149042
O O13 0.522828 0.000000 0.269362
O O14 0.120119 0.810097 0.157015
O O15 0.064213 0.000000 0.106070
O O16 0.089596 0.785003 0.967528
O O17 0.660621 0.230279 0.857804
O O18 0.704933 0.000000 0.882140
O O19 0.134112 0.000000 0.878195
O O20 0.838321 0.000000 0.732061
#
# Coordination Sequence:
#
# PCOD8085747 Si02
#       8
#     8   8   8   8   8   8   8   8
#     4  10  19  30  49  77 106 135 169 205 247 299
#     4  10  21  37  56  75  99 136 177 212 255 309
#     4   9  19  36  56  77 101 133 172 215 260 306
#     4  11  22  34  52  77 104 132 170 220 264 300
#     4   9  18  33  52  74 103 137 170 206 256 310
#     4  10  20  32  49  75 108 140 166 202 252 303
#     4  10  20  35  55  76 102 137 174 211 250 307
#     4   9  16  29  51  76 103 131 163 208 258 302
#
# _framework density 17.688748
#
# number of rings (size 3 to 8) (size 9 to 14) (size 15 to 20)
#    0.000    2.250    1.250    3.000    0.000    6.500 
#    0.000    2.500    0.000    0.750    0.000    0.000 
#    0.000    0.000    0.000    0.000    0.000    0.000 
#
# Total GULP energy -396900.619835 kJ/mol
# GULP energy per Si atom -12403.144370 kJ/mol
# Density = 1.764849 g / cm^3
# Si number density = 17.688748 Si / 1000 Ang^3
#
#
#
# Elastic Constant Matrix: (Units=GPa)
#
#
# Indices 1 2 3 4 5 6 
#
# 1 109.4671 59.6784 34.4556 0.0000 -9.9691 0.0000
# 2 59.6784 87.5589 22.7368 0.0000 -4.3232 0.0000
# 3 34.4556 22.7368 51.0737 0.0000 1.2246 0.0000
# 4 0.0000 0.0000 0.0000 13.6857 0.0000 -3.4773
# 5 -9.9691 -4.3232 1.2246 0.0000 19.3364 0.0000
# 6 0.0000 0.0000 0.0000 -3.4773 0.0000 35.2628
#
#
#
# Elastic Compliance Matrix: (Units=1/GPa)
#
#
# Indices 1 2 3 4 5 6 
#
# 1 0.017404 -0.009504 -0.007686 0.000000 0.007335 0.000000
# 2 -0.009504 0.018312 -0.001724 0.000000 -0.000697 0.000000
# 3 -0.007686 -0.001724 0.025675 0.000000 -0.005974 0.000000
# 4 0.000000 0.000000 0.000000 0.074947 0.000000 0.007391
# 5 0.007335 -0.000697 -0.005974 0.000000 0.055720 0.000000
# 6 0.000000 0.000000 0.000000 0.007391 0.000000 0.029087
#
#
# Mechanical properties :
#
#
# Convention : Reuss Voigt Hill
#
# Bulk Modulus (GPa) = 42.43824 53.53793 47.98809
# Shear Modulus (GPa) = 18.73881 22.40557 20.57219
#
# Velocity S-wave (km/s) = 3.25832 3.56287 3.41399
# Velocity P-wave (km/s) = 6.18055 6.87443 6.53671
#
# Compressibility (1/GPa) = 0.02356365
#
# Stress axis : x y z
#
# Youngs Moduli (GPa) = 57.45940 54.60961 38.94809
#
# Poissons Ratio (x) = 0.51901 0.29935
# Poissons Ratio (y) = 0.54609 0.06713
# Poissons Ratio (z) = 0.44162 0.09413
#
# Static dielectric constant tensor:
#      x y z
#    x 3.182940 0.000000 -0.166690 
#    y 0.000000 3.200130 0.000000 
#    z -0.166690 0.000000 3.211970 
# 
# 
# High freq. dielectric constant tensor:
#      x y z
#    x 1.680740 0.000000 -0.016810 
#    y 0.000000 1.680790 0.000000 
#    z -0.016810 0.000000 1.663820 
# 
# From -- ./inp_files/187444.got.cif
#   From: 2010.06.25/outbox.cif.g09.slc.cpg/sg12_94_cif.got.tgz:187444.got - 2010.06.28 00:19:55.
