data_PCOD8085412
_publ_section_title
;
Structure prediction by ZEFSAII (Michael W. Deem and Ramdas Pophale) SiO2 
 PCOD8085412
Probable space group: C 2/M
;
_chemical_formula_sum "Si O2"
_cell_formula_units_Z 64
_cell_length_a 31.567786
_cell_length_b 17.049542
_cell_length_c 6.695268
_cell_angle_alpha 90.000000
_cell_angle_beta 89.048489
_cell_angle_gamma 90.000000
_cell_volume 3603.005427
_symmetry_space_group_name_H-M "C 2/M"
_symmetry_group_IT_number 12
_symmetry_cell_setting 'monoclinic'
loop_
_space_group_symop_operation_xyz
x,y,z
-x,y,-z
-x,-y,-z
x,-y,z
1/2+x,1/2+y,z
1/2-x,1/2+y,-z
1/2-x,1/2-y,-z
1/2+x,1/2-y,z
loop_
_atom_site_type_symbol
_atom_site_label
_atom_site_fract_x
_atom_site_fract_y
_atom_site_fract_z
Si Si1 0.961769 0.086685 0.622182
Si Si2 0.665484 0.911027 0.868359
Si Si3 0.452504 0.694800 0.983406
Si Si4 0.763779 0.408259 0.821760
Si Si5 0.178821 0.179425 0.794716
Si Si6 0.371679 0.216331 0.890288
Si Si7 0.903529 0.911816 0.278528
Si Si8 0.320833 0.186505 0.513880
O O1 0.952131 0.125811 0.828302
O O2 0.917751 0.084531 0.506372
O O3 0.000000 0.129796 0.500000
O O4 0.978359 0.000000 0.673344
O O5 0.663290 0.877564 0.645434
O O6 0.651427 0.000000 0.855657
O O7 0.711390 0.900379 0.970319
O O8 0.631224 0.869649 0.013283
O O9 0.420782 0.761575 0.908695
O O10 0.500000 0.730307 0.000000
O O11 0.435221 0.652238 0.181381
O O12 0.761915 0.500000 0.755104
O O13 0.717738 0.372854 0.867523
O O14 0.784099 0.354490 0.646204
O O15 0.144290 0.118167 0.719294
O O16 0.193550 0.237432 0.613790
O O17 0.160302 0.226652 0.985732
O O18 0.358819 0.213667 0.658031
O O19 0.906160 0.000000 0.183557
#
# Coordination Sequence:
#
# PCOD8085412 Si02
#       8
#     8   8   8   8   8   8   8   8
#     4  10  19  30  46  71  98 131 175 214 242 277
#     4   9  19  36  56  77 100 125 162 207 250 299
#     4  11  20  33  52  73  99 132 169 208 249 294
#     4  10  20  33  51  76 102 133 173 209 243 289
#     4  10  20  33  49  72 106 139 168 205 249 292
#     4   9  21  35  51  77 102 130 165 203 250 299
#     4  10  20  33  48  69 101 140 175 208 247 287
#     4  10  19  34  54  75 100 131 168 207 248 295
#
# _framework density 17.762948000000002
#
# number of rings (size 3 to 8) (size 9 to 14) (size 15 to 20)
#    0.000    2.125    1.250    2.250    0.000    6.500 
#    0.000    0.000    0.000    6.375    0.000    0.875 
#    0.000    0.000    0.000    0.000    0.000    0.000 
#
# Total GULP energy -396614.220243 kJ/mol
# GULP energy per Si atom -12394.194383 kJ/mol
# Density = 1.772252 g / cm^3
# Si number density = 17.762948 Si / 1000 Ang^3
#
#
#
# Elastic Constant Matrix: (Units=GPa)
#
#
# Indices 1 2 3 4 5 6 
#
# 1 107.9952 49.6706 28.2466 0.0000 10.4824 0.0000
# 2 49.6706 80.8952 23.0794 0.0000 14.7391 0.0000
# 3 28.2466 23.0794 84.9333 0.0000 13.0999 0.0000
# 4 0.0000 0.0000 0.0000 43.9754 0.0000 -26.8487
# 5 10.4824 14.7391 13.0999 0.0000 19.0623 0.0000
# 6 0.0000 0.0000 0.0000 -26.8487 0.0000 69.9922
#
#
#
# Elastic Compliance Matrix: (Units=1/GPa)
#
#
# Indices 1 2 3 4 5 6 
#
# 1 0.013339 -0.007528 -0.002413 0.000000 0.000144 0.000000
# 2 -0.007528 0.019110 -0.001173 0.000000 -0.009830 0.000000
# 3 -0.002413 -0.001173 0.014039 0.000000 -0.007414 0.000000
# 4 0.000000 0.000000 0.000000 0.029694 0.000000 0.011391
# 5 0.000144 -0.009830 -0.007414 0.000000 0.065076 0.000000
# 6 0.000000 0.000000 0.000000 0.011391 0.000000 0.018657
#
#
# Mechanical properties :
#
#
# Convention : Reuss Voigt Hill
#
# Bulk Modulus (GPa) = 41.22072 52.86853 47.04463
# Shear Modulus (GPa) = 26.28405 38.12780 32.20592
#
# Velocity S-wave (km/s) = 3.85088 4.63804 4.26267
# Velocity P-wave (km/s) = 6.55963 7.64917 7.12526
#
# Compressibility (1/GPa) = 0.02425964
#
# Stress axis : x y z
#
# Youngs Moduli (GPa) = 74.96637 52.32912 71.23226
#
# Poissons Ratio (x) = 0.39395 0.17187
# Poissons Ratio (y) = 0.56437 0.08355
# Poissons Ratio (z) = 0.18088 0.06138
#
# Static dielectric constant tensor:
#      x y z
#    x 1.887970 0.000000 0.354780 
#    y 0.000000 3.395360 0.000000 
#    z 0.354780 0.000000 3.229510 
# 
# 
# High freq. dielectric constant tensor:
#      x y z
#    x 1.673880 0.000000 0.009230 
#    y 0.000000 1.681720 0.000000 
#    z 0.009230 0.000000 1.692050 
# 
# From -- ./inp_files/32049.got.cif
#   From: 2010.06.25/outbox.cif.g09.slc.cpg/sg12_17_cif.got.tgz:32049.got - 2010.06.28 00:19:55.
