data_PCOD8085282
_publ_section_title
;
Structure prediction by ZEFSAII (Michael W. Deem and Ramdas Pophale) SiO2 
 PCOD8085282
Probable space group: C 2/M
;
_chemical_formula_sum "Si O2"
_cell_formula_units_Z 64
_cell_length_a 19.155805
_cell_length_b 9.149208
_cell_length_c 23.548419
_cell_angle_alpha 90.000000
_cell_angle_beta 60.312029
_cell_angle_gamma 90.000000
_cell_volume 3585.363883
_symmetry_space_group_name_H-M "C 2/M"
_symmetry_group_IT_number 12
_symmetry_cell_setting 'monoclinic'
loop_
_space_group_symop_operation_xyz
x,y,z
-x,y,-z
-x,-y,-z
x,-y,z
1/2+x,1/2+y,z
1/2-x,1/2+y,-z
1/2-x,1/2-y,-z
1/2+x,1/2-y,z
loop_
_atom_site_type_symbol
_atom_site_label
_atom_site_fract_x
_atom_site_fract_y
_atom_site_fract_z
Si Si1 0.703334 0.173191 0.148457
Si Si2 0.435969 0.669724 0.221525
Si Si3 0.757737 0.831952 0.321661
Si Si4 0.198561 0.169870 0.567394
Si Si5 0.648600 0.672331 0.283335
Si Si6 0.303205 0.170824 0.024953
Si Si7 0.432239 0.166652 0.887548
Si Si8 0.470784 0.328141 0.330869
O O1 0.687152 0.238095 0.216580
O O2 0.785704 0.248626 0.091837
O O3 0.631087 0.217188 0.135316
O O4 0.716235 0.000000 0.147260
O O5 0.454618 0.500000 0.209888
O O6 0.341047 0.700532 0.255104
O O7 0.484724 0.744780 0.150718
O O8 0.469033 0.736438 0.267730
O O9 0.765933 0.797565 0.384769
O O10 0.689974 0.724359 0.324635
O O11 0.732309 0.000000 0.322389
O O12 0.250000 0.250000 0.500000
O O13 0.106119 0.229257 0.602282
O O14 0.202248 0.000000 0.551609
O O15 0.660807 0.500000 0.268654
O O16 0.554164 0.711775 0.327638
O O17 0.280198 0.000000 0.038182
O O18 0.250000 0.250000 0.000000
O O19 0.395156 0.188962 0.965800
O O20 0.454492 0.000000 0.868026
O O21 0.457683 0.500000 0.329039
#
# Coordination Sequence:
#
# PCOD8085282 Si02
#       8
#     8   8   8   8   8   8   8   8
#     4  10  19  30  45  69 101 135 168 209 261 308
#     4   9  16  30  51  70  94 132 171 207 250 303
#     4   9  20  36  52  74 106 138 165 203 254 301
#     4   9  18  36  59  79 104 135 169 206 244 292
#     4  11  20  32  53  77 102 134 171 211 253 302
#     4   9  17  28  41  64  98 133 169 212 261 308
#     4   9  17  27  43  70 100 126 162 215 261 294
#     4   8  16  31  51  76 101 130 168 207 246 292
#
# _framework density 17.850349999999999
#
# number of rings (size 3 to 8) (size 9 to 14) (size 15 to 20)
#    0.000    2.750    1.250    3.375    0.000    3.500 
#    0.000    3.750    0.000    4.500    0.000    5.250 
#    0.000    0.000    0.000    0.000    0.000    0.000 
#
# Total GULP energy -396609.864857 kJ/mol
# GULP energy per Si atom -12394.058277 kJ/mol
# Density = 1.780972 g / cm^3
# Si number density = 17.850350 Si / 1000 Ang^3
#
#
#
# Elastic Constant Matrix: (Units=GPa)
#
#
# Indices 1 2 3 4 5 6 
#
# 1 83.2294 43.0127 47.2534 0.0001 -12.0783 0.0003
# 2 43.0127 76.4776 54.7405 0.0000 -9.5109 0.0003
# 3 47.2534 54.7405 129.1670 0.0001 -24.6581 0.0001
# 4 0.0001 0.0000 0.0001 34.7707 0.0000 -1.5669
# 5 -12.0783 -9.5109 -24.6581 0.0000 21.1378 0.0001
# 6 0.0003 0.0003 0.0001 -1.5669 0.0001 25.9551
#
#
#
# Elastic Compliance Matrix: (Units=1/GPa)
#
#
# Indices 1 2 3 4 5 6 
#
# 1 0.018085 -0.007870 -0.002552 0.000000 0.003815 0.000000
# 2 -0.007870 0.022213 -0.007057 0.000000 -0.002734 0.000000
# 3 -0.002552 -0.007057 0.013871 0.000000 0.011547 0.000000
# 4 0.000000 0.000000 0.000000 0.028838 0.000000 0.001741
# 5 0.003815 -0.002734 0.011547 0.000000 0.061729 0.000000
# 6 0.000000 0.000000 0.000000 0.001741 0.000000 0.038633
#
#
# Mechanical properties :
#
#
# Convention : Reuss Voigt Hill
#
# Bulk Modulus (GPa) = 52.05512 64.32080 58.18796
# Shear Modulus (GPa) = 22.24893 25.96388 24.10640
#
# Velocity S-wave (km/s) = 3.53429 3.81797 3.67886
# Velocity P-wave (km/s) = 6.77349 7.45301 7.12136
#
# Compressibility (1/GPa) = 0.01921041
#
# Stress axis : x y z
#
# Youngs Moduli (GPa) = 55.29445 45.01904 72.09498
#
# Poissons Ratio (x) = 0.35430 0.18402
# Poissons Ratio (y) = 0.43516 0.50875
# Poissons Ratio (z) = 0.14114 0.31768
#
# Static dielectric constant tensor:
#      x y z
#    x 3.129740 0.000000 -0.283640 
#    y 0.000000 3.229480 0.000000 
#    z -0.283640 0.000000 3.559010 
# 
# 
# High freq. dielectric constant tensor:
#      x y z
#    x 1.661920 0.000000 -0.018910 
#    y 0.000000 1.683690 0.000000 
#    z -0.018910 0.000000 1.688470 
# 
# From -- ./inp_files/345548.got.cif
#   From: 2010.06.25/outbox.cif.g09.slc.cpg/sg12_173_cif.got.tgz:345548.got - 2010.06.28 00:19:55.
