data_PCOD8085798
_publ_section_title
;
Structure prediction by ZEFSAII (Michael W. Deem and Ramdas Pophale) SiO2 
 PCOD8085798
Probable space group: C 2/M
;
_chemical_formula_sum "Si O2"
_cell_formula_units_Z 40
_cell_length_a 20.544287
_cell_length_b 9.216485
_cell_length_c 16.697651
_cell_angle_alpha 90.000000
_cell_angle_beta 135.492513
_cell_angle_gamma 90.000000
_cell_volume 2216.314134
_symmetry_space_group_name_H-M "C 2/M"
_symmetry_group_IT_number 12
_symmetry_cell_setting 'monoclinic'
loop_
_space_group_symop_operation_xyz
x,y,z
-x,y,-z
-x,-y,-z
x,-y,z
1/2+x,1/2+y,z
1/2-x,1/2+y,-z
1/2-x,1/2-y,-z
1/2+x,1/2-y,z
loop_
_atom_site_type_symbol
_atom_site_label
_atom_site_fract_x
_atom_site_fract_y
_atom_site_fract_z
Si Si1 0.409792 0.667618 0.795293
Si Si2 0.440601 0.827074 0.373831
Si Si3 0.268916 0.668104 0.805889
Si Si4 0.081994 0.336266 0.969654
Si Si5 0.985829 0.336586 0.729384
O O1 0.436737 0.500000 0.810797
O O2 0.312788 0.689654 0.756042
O O3 0.405771 0.739093 0.702428
O O4 0.489715 0.748729 0.918065
O O5 0.500000 0.764937 0.500000
O O6 0.335372 0.770509 0.289228
O O7 0.485946 0.768961 0.331256
O O8 0.440902 0.000000 0.374314
O O9 0.271653 0.500000 0.833691
O O10 0.324388 0.757559 0.921253
O O11 0.079810 0.500000 0.002027
O O12 0.076942 0.337546 0.867518
O O13 0.946908 0.500000 0.684698
#
# Coordination Sequence:
#
# PCOD8085798 Si02
#       5
#     8   8   8   8   8
#     4   9  17  30  48  74 105 130 156 195 243 291
#     4   9  18  35  55  71  93 128 170 210 241 279
#     4  10  19  30  50  78 100 126 165 201 239 288
#     4   9  18  30  49  76 104 130 157 194 244 295
#     4   8  17  32  50  73  99 128 163 197 240 292
#
# _framework density 18.047984
#
# number of rings (size 3 to 8) (size 9 to 14) (size 15 to 20)
#    1.200    1.800    0.000    1.200    0.000    4.800 
#    0.000    2.000    0.000    2.400    0.000    0.000 
#    0.000    0.000    0.000    0.000    0.000    0.000 
#
# Total GULP energy -247786.349195 kJ/mol
# GULP energy per Si atom -12389.317460 kJ/mol
# Density = 1.800691 g / cm^3
# Si number density = 18.047984 Si / 1000 Ang^3
#
#
#
# Elastic Constant Matrix: (Units=GPa)
#
#
# Indices 1 2 3 4 5 6 
#
# 1 71.4754 29.9513 33.3469 0.0000 -24.8194 0.0000
# 2 29.9513 76.9260 19.1242 0.0000 -8.3908 0.0000
# 3 33.3469 19.1242 47.2093 0.0000 -13.8644 0.0000
# 4 0.0000 0.0000 0.0000 16.4856 0.0000 -4.0537
# 5 -24.8194 -8.3908 -13.8644 0.0000 24.7276 0.0000
# 6 0.0000 0.0000 0.0000 -4.0537 0.0000 17.0676
#
#
#
# Elastic Compliance Matrix: (Units=1/GPa)
#
#
# Indices 1 2 3 4 5 6 
#
# 1 0.029441 -0.006172 -0.012250 0.000000 0.020588 0.000000
# 2 -0.006172 0.015827 -0.002746 0.000000 -0.002364 0.000000
# 3 -0.012250 -0.002746 0.032398 0.000000 0.004938 0.000000
# 4 0.000000 0.000000 0.000000 0.064421 0.000000 0.015301
# 5 0.020588 -0.002364 0.004938 0.000000 0.063071 0.000000
# 6 0.000000 0.000000 0.000000 0.015301 0.000000 0.062225
#
#
# Mechanical properties :
#
#
# Convention : Reuss Voigt Hill
#
# Bulk Modulus (GPa) = 28.30412 40.05063 34.17737
# Shear Modulus (GPa) = 15.55228 19.20206 17.37717
#
# Velocity S-wave (km/s) = 2.93869 3.26536 3.10632
# Velocity P-wave (km/s) = 5.21836 6.03789 5.64302
#
# Compressibility (1/GPa) = 0.03533055
#
# Stress axis : x y z
#
# Youngs Moduli (GPa) = 33.96588 63.18132 30.86646
#
# Poissons Ratio (x) = 0.38996 0.37811
# Poissons Ratio (y) = 0.20964 0.08476
# Poissons Ratio (z) = 0.41607 0.17351
#
# Static dielectric constant tensor:
#      x y z
#    x 3.238110 0.000000 -0.121240 
#    y 0.000000 3.171190 0.000000 
#    z -0.121240 0.000000 3.149450 
# 
# 
# High freq. dielectric constant tensor:
#      x y z
#    x 1.689790 0.000000 -0.016590 
#    y 0.000000 1.681450 0.000000 
#    z -0.016590 0.000000 1.673040 
# 
# From -- ./inp_files/230601.got.cif
#   From: 2010.06.25/outbox.cif.g09.slc.cpg/sg12_116_cif.got.tgz:230601.got - 2010.06.28 00:19:55.
