data_PCOD8085258
_publ_section_title
;
Structure prediction by ZEFSAII (Michael W. Deem and Ramdas Pophale) SiO2 
 PCOD8085258
Probable space group: C 2/M
;
_chemical_formula_sum "Si O2"
_cell_formula_units_Z 56
_cell_length_a 19.429781
_cell_length_b 9.172352
_cell_length_c 20.455512
_cell_angle_alpha 90.000000
_cell_angle_beta 117.750307
_cell_angle_gamma 90.000000
_cell_volume 3226.227231
_symmetry_space_group_name_H-M "C 2/M"
_symmetry_group_IT_number 12
_symmetry_cell_setting 'monoclinic'
loop_
_space_group_symop_operation_xyz
x,y,z
-x,y,-z
-x,-y,-z
x,-y,z
1/2+x,1/2+y,z
1/2-x,1/2+y,-z
1/2-x,1/2-y,-z
1/2+x,1/2-y,z
loop_
_atom_site_type_symbol
_atom_site_label
_atom_site_fract_x
_atom_site_fract_y
_atom_site_fract_z
Si Si1 0.864362 0.339016 0.069657
Si Si2 0.573151 0.826686 0.768116
Si Si3 0.756130 0.330248 0.652094
Si Si4 0.314829 0.169815 0.487097
Si Si5 0.724123 0.670481 0.787299
Si Si6 0.090609 0.668644 0.351590
Si Si7 0.300309 0.662465 0.932346
O O1 0.886589 0.500000 0.054016
O O2 0.923552 0.288673 0.152935
O O3 0.779544 0.342752 0.063824
O O4 0.866728 0.230577 0.008855
O O5 0.640988 0.745946 0.759034
O O6 0.492019 0.761782 0.704826
O O7 0.583972 0.000000 0.762140
O O8 0.746381 0.500000 0.630843
O O9 0.684934 0.244511 0.584464
O O10 0.753119 0.299875 0.727179
O O11 0.838216 0.268173 0.660455
O O12 0.250000 0.250000 0.500000
O O13 0.394732 0.191665 0.563852
O O14 0.295083 0.000000 0.471195
O O15 0.716295 0.500000 0.799792
O O16 0.789574 0.739161 0.863308
O O17 0.084497 0.500000 0.331049
O O18 0.326566 0.500000 0.923594
#
# Coordination Sequence:
#
# PCOD8085258 Si02
#       7
#     8   8   8   8   8   8   8
#     4   8  14  24  40  63  87 112 144 184 225 261
#     4   9  17  30  48  68  91 118 149 186 225 267
#     4   9  18  32  49  68  91 120 153 188 224 264
#     4   9  16  28  48  70  91 117 151 190 225 262
#     4  10  19  30  45  67  95 121 147 185 229 269
#     4   8  15  30  50  69  88 114 151 189 222 260
#     4   9  16  26  42  63  87 117 151 185 219 261
#
# _framework density 17.357737
#
# number of rings (size 3 to 8) (size 9 to 14) (size 15 to 20)
#    0.000    3.143    0.000    3.000    0.000    4.571 
#    0.000    4.286    0.000    5.143    0.000    6.000 
#    0.000    0.000    0.000    0.000    0.000    0.000 
#
# Total GULP energy -346969.637209 kJ/mol
# GULP energy per Si atom -12391.772757 kJ/mol
# Density = 1.731823 g / cm^3
# Si number density = 17.357737 Si / 1000 Ang^3
#
#
#
# Elastic Constant Matrix: (Units=GPa)
#
#
# Indices 1 2 3 4 5 6 
#
# 1 29.0785 18.2049 17.3469 0.0000 -6.8647 0.0000
# 2 18.2049 82.0368 47.4157 0.0000 -9.0215 0.0000
# 3 17.3469 47.4157 91.5966 0.0000 -10.5230 0.0000
# 4 0.0000 0.0000 0.0000 32.7824 0.0000 -3.8380
# 5 -6.8647 -9.0215 -10.5230 0.0000 19.9058 0.0000
# 6 0.0000 0.0000 0.0000 -3.8380 0.0000 14.7300
#
#
#
# Elastic Compliance Matrix: (Units=1/GPa)
#
#
# Indices 1 2 3 4 5 6 
#
# 1 0.042895 -0.006262 -0.003735 0.000000 0.009980 0.000000
# 2 -0.006262 0.018517 -0.008180 0.000000 0.001908 0.000000
# 3 -0.003735 -0.008180 0.016274 0.000000 0.003607 0.000000
# 4 0.000000 0.000000 0.000000 0.031464 0.000000 0.008198
# 5 0.009980 0.001908 0.003607 0.000000 0.056450 0.000000
# 6 0.000000 0.000000 0.000000 0.008198 0.000000 0.070025
#
#
# Mechanical properties :
#
#
# Convention : Reuss Voigt Hill
#
# Bulk Modulus (GPa) = 24.19569 40.96075 32.57822
# Shear Modulus (GPa) = 17.49737 21.46660 19.48198
#
# Velocity S-wave (km/s) = 3.17842 3.52051 3.35383
# Velocity P-wave (km/s) = 5.23827 6.33834 5.81438
#
# Compressibility (1/GPa) = 0.04132967
#
# Stress axis : x y z
#
# Youngs Moduli (GPa) = 23.31300 54.00353 61.44800
#
# Poissons Ratio (x) = 0.33819 0.22952
# Poissons Ratio (y) = 0.14600 0.50267
# Poissons Ratio (z) = 0.08708 0.44177
#
# Static dielectric constant tensor:
#      x y z
#    x 2.852050 0.000000 0.100000 
#    y 0.000000 3.349630 0.000000 
#    z 0.100000 0.000000 3.819380 
# 
# 
# High freq. dielectric constant tensor:
#      x y z
#    x 1.609660 0.000000 0.001290 
#    y 0.000000 1.665220 0.000000 
#    z 0.001290 0.000000 1.691240 
# 
# From -- ./inp_files/319324.got.cif
#   From: 2010.06.25/outbox.cif.g09.slc.cpg/sg12_160_cif.got.tgz:319324.got - 2010.06.28 00:19:55.
