data_PCOD8085147
_publ_section_title
;
Structure prediction by ZEFSAII (Michael W. Deem and Ramdas Pophale) SiO2 
 PCOD8085147
Probable space group: C 2/M
;
_chemical_formula_sum "Si O2"
_cell_formula_units_Z 56
_cell_length_a 28.380670
_cell_length_b 9.222960
_cell_length_c 13.683232
_cell_angle_alpha 90.000000
_cell_angle_beta 103.287558
_cell_angle_gamma 90.000000
_cell_volume 3485.753037
_symmetry_space_group_name_H-M "C 2/M"
_symmetry_group_IT_number 12
_symmetry_cell_setting 'monoclinic'
loop_
_space_group_symop_operation_xyz
x,y,z
-x,y,-z
-x,-y,-z
x,-y,z
1/2+x,1/2+y,z
1/2-x,1/2+y,-z
1/2-x,1/2-y,-z
1/2+x,1/2-y,z
loop_
_atom_site_type_symbol
_atom_site_label
_atom_site_fract_x
_atom_site_fract_y
_atom_site_fract_z
Si Si1 0.359617 0.666459 0.126055
Si Si2 0.298311 0.664141 0.914645
Si Si3 0.237989 0.826773 0.393837
Si Si4 0.054052 0.670293 0.913660
Si Si5 0.945187 0.330124 0.863881
Si Si6 0.779806 0.831557 0.234527
Si Si7 0.359367 0.338557 0.753198
O O1 0.372534 0.500000 0.111940
O O2 0.409340 0.755298 0.144708
O O3 0.334541 0.686865 0.220043
O O4 0.321857 0.720685 0.025919
O O5 0.277521 0.500000 0.914166
O O6 0.256052 0.775508 0.867063
O O7 0.339725 0.667329 0.853202
O O8 0.250000 0.750000 0.500000
O O9 0.274324 0.763946 0.329367
O O10 0.182781 0.784590 0.340272
O O11 0.244846 0.000000 0.402553
O O12 0.062077 0.500000 0.911271
O O13 0.999412 0.711335 0.856103
O O14 0.063334 0.724242 0.029012
O O15 0.937207 0.500000 0.855462
O O16 0.907292 0.259374 0.770315
O O17 0.768299 0.000000 0.251302
O O18 0.375013 0.500000 0.731116
#
# Coordination Sequence:
#
# PCOD8085147 Si02
#       7
#     8   8   8   8   8   8   8
#     4  10  19  30  43  64  94 128 164 196 228 272
#     4   9  17  29  42  62  94 127 161 196 226 267
#     4  10  21  37  54  73  96 119 151 194 238 286
#     4   9  18  29  42  63  93 128 165 201 231 265
#     4   9  17  29  43  64  93 125 163 200 232 271
#     4  10  20  31  46  68  93 123 158 193 233 281
#     4   9  17  29  47  69  94 122 154 193 233 275
#
# _framework density 16.065396
#
# number of rings (size 3 to 8) (size 9 to 14) (size 15 to 20)
#    0.000    2.571    1.429    3.000    0.000    5.143 
#    0.000    1.429    0.000    0.000    0.000    1.000 
#    0.000    8.000    0.000    0.000    0.000    0.000 
#
# Total GULP energy -347114.229829 kJ/mol
# GULP energy per Si atom -12396.936780 kJ/mol
# Density = 1.602883 g / cm^3
# Si number density = 16.065396 Si / 1000 Ang^3
#
#
#
# Elastic Constant Matrix: (Units=GPa)
#
#
# Indices 1 2 3 4 5 6 
#
# 1 108.2491 55.8331 47.5292 0.0000 4.6744 0.0000
# 2 55.8331 72.9568 39.4802 0.0000 4.4542 0.0000
# 3 47.5292 39.4802 82.6589 0.0000 6.1487 0.0000
# 4 0.0000 0.0000 0.0000 23.5421 0.0000 2.2492
# 5 4.6744 4.4542 6.1487 0.0000 14.0825 0.0000
# 6 0.0000 0.0000 0.0000 2.2492 0.0000 31.6154
#
#
#
# Elastic Compliance Matrix: (Units=1/GPa)
#
#
# Indices 1 2 3 4 5 6 
#
# 1 0.016495 -0.010094 -0.004644 0.000000 -0.000254 0.000000
# 2 -0.010094 0.024720 -0.005861 0.000000 -0.001909 0.000000
# 3 -0.004644 -0.005861 0.017896 0.000000 -0.004419 0.000000
# 4 0.000000 0.000000 0.000000 0.042768 0.000000 -0.003043
# 5 -0.000254 -0.001909 -0.004419 0.000000 0.073628 0.000000
# 6 0.000000 0.000000 0.000000 -0.003043 0.000000 0.031847
#
#
# Mechanical properties :
#
#
# Convention : Reuss Voigt Hill
#
# Bulk Modulus (GPa) = 55.82729 61.06108 58.44418
# Shear Modulus (GPa) = 19.64468 21.91616 20.78042
#
# Velocity S-wave (km/s) = 3.50064 3.69749 3.60041
# Velocity P-wave (km/s) = 7.15296 7.50460 7.33088
#
# Compressibility (1/GPa) = 0.01791239
#
# Stress axis : x y z
#
# Youngs Moduli (GPa) = 60.62587 40.45323 55.87790
#
# Poissons Ratio (x) = 0.40835 0.25950
# Poissons Ratio (y) = 0.61199 0.32748
# Poissons Ratio (z) = 0.28155 0.23708
#
# Static dielectric constant tensor:
#      x y z
#    x 3.000380 0.000000 0.037570 
#    y 0.000000 3.042820 0.000000 
#    z 0.037570 0.000000 2.771900 
# 
# 
# High freq. dielectric constant tensor:
#      x y z
#    x 1.611450 0.000000 0.003870 
#    y 0.000000 1.622840 0.000000 
#    z 0.003870 0.000000 1.576730 
# 
# From -- ./inp_files/247932.got.cif
#   From: 2010.06.25/outbox.cif.g09.slc.cpg/sg12_124_cif.got.tgz:247932.got - 2010.06.28 00:19:55.
