data_PCOD8085684
_publ_section_title
;
Structure prediction by ZEFSAII (Michael W. Deem and Ramdas Pophale) SiO2 
 PCOD8085684
Probable space group: C 2/M
;
_chemical_formula_sum "Si O2"
_cell_formula_units_Z 64
_cell_length_a 28.712589
_cell_length_b 8.816796
_cell_length_c 14.366371
_cell_angle_alpha 90.000000
_cell_angle_beta 86.601472
_cell_angle_gamma 90.000000
_cell_volume 3630.494477
_symmetry_space_group_name_H-M "C 2/M"
_symmetry_group_IT_number 12
_symmetry_cell_setting 'monoclinic'
loop_
_space_group_symop_operation_xyz
x,y,z
-x,y,-z
-x,-y,-z
x,-y,z
1/2+x,1/2+y,z
1/2-x,1/2+y,-z
1/2-x,1/2-y,-z
1/2+x,1/2-y,z
loop_
_atom_site_type_symbol
_atom_site_label
_atom_site_fract_x
_atom_site_fract_y
_atom_site_fract_z
Si Si1 0.552206 0.320755 0.517526
Si Si2 0.899272 0.320205 0.944825
Si Si3 0.975657 0.327519 0.804405
Si Si4 0.639099 0.821289 0.856432
Si Si5 0.430279 0.818420 0.287914
Si Si6 0.334283 0.323677 0.804647
Si Si7 0.601198 0.173864 0.343423
Si Si8 0.738532 0.823374 0.903187
O O1 0.500000 0.260274 0.500000
O O2 0.551897 0.500000 0.526166
O O3 0.571318 0.250542 0.610079
O O4 0.589072 0.270313 0.435588
O O5 0.894661 0.500000 0.926483
O O6 0.949291 0.260327 0.898889
O O7 0.857589 0.240118 0.895143
O O8 0.894813 0.277770 0.053427
O O9 0.987590 0.500000 0.825021
O O10 0.941534 0.308861 0.721556
O O11 0.024689 0.249643 0.772647
O O12 0.615259 0.762417 0.764098
O O13 0.690808 0.752479 0.865718
O O14 0.643525 0.000000 0.849318
O O15 0.433102 0.000000 0.295834
O O16 0.346514 0.500000 0.793266
O O17 0.351968 0.238254 0.710052
O O18 0.279012 0.295378 0.822516
O O19 0.609688 0.000000 0.370746
O O20 0.731581 0.000000 0.924541
O O21 0.750000 0.750000 0.000000
#
# Coordination Sequence:
#
# PCOD8085684 Si02
#       8
#     8   8   8   8   8   8   8   8
#     4  11  22  35  53  78 106 136 167 207 257 308
#     4   9  16  29  47  70 102 138 174 210 246 297
#     4   8  15  26  45  73  99 129 167 205 244 289
#     4   9  18  31  50  74 103 138 178 219 255 295
#     4  10  19  33  51  73 103 139 176 214 254 302
#     4  10  19  30  48  76 106 135 168 212 263 308
#     4  10  19  33  54  78 102 130 169 215 254 302
#     4  10  19  32  51  76 104 137 176 217 258 301
#
# _framework density 17.628453
#
# number of rings (size 3 to 8) (size 9 to 14) (size 15 to 20)
#    0.000    2.375    2.500    1.875    0.000    1.500 
#    0.000    3.750    0.000    0.750    0.000    2.625 
#    0.000    0.000    0.000    0.000    0.000    0.000 
#
# Total GULP energy -396631.379574 kJ/mol
# GULP energy per Si atom -12394.730612 kJ/mol
# Density = 1.758833 g / cm^3
# Si number density = 17.628453 Si / 1000 Ang^3
#
#
#
# Elastic Constant Matrix: (Units=GPa)
#
#
# Indices 1 2 3 4 5 6 
#
# 1 103.9469 27.7705 60.1304 0.0000 -3.2221 0.0000
# 2 27.7705 40.7237 24.6804 0.0000 -0.2103 0.0000
# 3 60.1304 24.6804 112.9660 0.0000 0.2390 0.0000
# 4 0.0000 0.0000 0.0000 21.4189 0.0000 -3.4012
# 5 -3.2221 -0.2103 0.2390 0.0000 22.2214 0.0000
# 6 0.0000 0.0000 0.0000 -3.4012 0.0000 18.2270
#
#
#
# Elastic Compliance Matrix: (Units=1/GPa)
#
#
# Indices 1 2 3 4 5 6 
#
# 1 0.015289 -0.006316 -0.006763 0.000000 0.002230 0.000000
# 2 -0.006316 0.030915 -0.003391 0.000000 -0.000587 0.000000
# 3 -0.006763 -0.003391 0.013195 0.000000 -0.001155 0.000000
# 4 0.000000 0.000000 0.000000 0.048113 0.000000 0.008978
# 5 0.002230 -0.000587 -0.001155 0.000000 0.045332 0.000000
# 6 0.000000 0.000000 0.000000 0.008978 0.000000 0.056539
#
#
# Mechanical properties :
#
#
# Convention : Reuss Voigt Hill
#
# Bulk Modulus (GPa) = 37.79373 53.64436 45.71904
# Shear Modulus (GPa) = 19.90901 22.04381 20.97641
#
# Velocity S-wave (km/s) = 3.36425 3.54003 3.45326
# Velocity P-wave (km/s) = 6.04785 6.87064 6.47233
#
# Compressibility (1/GPa) = 0.02645942
#
# Stress axis : x y z
#
# Youngs Moduli (GPa) = 65.40677 32.34703 75.78397
#
# Poissons Ratio (x) = 0.20429 0.51253
# Poissons Ratio (y) = 0.41309 0.25699
# Poissons Ratio (z) = 0.44235 0.10969
#
# Static dielectric constant tensor:
#      x y z
#    x 3.561530 0.000000 -0.108530 
#    y 0.000000 3.079650 0.000000 
#    z -0.108530 0.000000 3.239940 
# 
# 
# High freq. dielectric constant tensor:
#      x y z
#    x 1.678850 0.000000 -0.018200 
#    y 0.000000 1.657350 0.000000 
#    z -0.018200 0.000000 1.670290 
# 
# From -- ./inp_files/244100.got.cif
#   From: 2010.06.25/outbox.cif.g09.slc.cpg/sg12_123_cif.got.tgz:244100.got - 2010.06.28 00:19:55.
