data_PCOD8085576
_publ_section_title
;
Structure prediction by ZEFSAII (Michael W. Deem and Ramdas Pophale) SiO2 
 PCOD8085576
Probable space group: C 2/M
;
_chemical_formula_sum "Si O2"
_cell_formula_units_Z 56
_cell_length_a 26.423743
_cell_length_b 9.315076
_cell_length_c 13.671792
_cell_angle_alpha 90.000000
_cell_angle_beta 60.032344
_cell_angle_gamma 90.000000
_cell_volume 2915.266528
_symmetry_space_group_name_H-M "C 2/M"
_symmetry_group_IT_number 12
_symmetry_cell_setting 'monoclinic'
loop_
_space_group_symop_operation_xyz
x,y,z
-x,y,-z
-x,-y,-z
x,-y,z
1/2+x,1/2+y,z
1/2-x,1/2+y,-z
1/2-x,1/2-y,-z
1/2+x,1/2-y,z
loop_
_atom_site_type_symbol
_atom_site_label
_atom_site_fract_x
_atom_site_fract_y
_atom_site_fract_z
Si Si1 0.027009 0.665151 0.705865
Si Si2 0.221355 0.669427 0.117056
Si Si3 0.277221 0.666242 0.264490
Si Si4 0.691746 0.659611 0.466750
Si Si5 0.576910 0.337079 0.475981
Si Si6 0.384593 0.665753 0.275168
Si Si7 0.411657 0.835786 0.723230
O O1 0.046775 0.500000 0.684820
O O2 0.049322 0.744414 0.588388
O O3 0.056061 0.739494 0.774338
O O4 0.956008 0.677743 0.773265
O O5 0.229852 0.500000 0.095427
O O6 0.254764 0.725457 0.182309
O O7 0.153183 0.712621 0.184110
O O8 0.250000 0.750000 0.000000
O O9 0.261853 0.500000 0.287039
O O10 0.245010 0.737629 0.388049
O O11 0.347374 0.692296 0.211156
O O12 0.716765 0.500000 0.459213
O O13 0.646818 0.661957 0.419351
O O14 0.658092 0.712603 0.595561
O O15 0.552296 0.500000 0.502704
O O16 0.561898 0.264688 0.387136
O O17 0.403227 0.500000 0.267942
O O18 0.410121 0.000000 0.686211
#
# Coordination Sequence:
#
# PCOD8085576 Si02
#       7
#     8   8   8   8   8   8   8
#     4  10  20  32  49  74 106 144 178 208 249 307
#     4  10  22  39  58  80 103 130 171 223 273 316
#     4  10  19  33  54  74 100 137 172 213 266 312
#     4   9  17  28  44  72 107 138 172 208 246 302
#     4  10  19  30  47  75 109 143 177 212 253 306
#     4   9  19  33  48  74 108 139 174 212 250 304
#     4  10  20  35  53  74 103 137 175 217 262 311
#
# _framework density 19.209222
#
# number of rings (size 3 to 8) (size 9 to 14) (size 15 to 20)
#    0.000    2.286    1.429    2.571    0.000    6.857 
#    0.000    0.000    0.000    0.857    0.000    6.000 
#    0.000    0.000    0.000    0.000    0.000    0.000 
#
# Total GULP energy -347020.076131 kJ/mol
# GULP energy per Si atom -12393.574148 kJ/mol
# Density = 1.916550 g / cm^3
# Si number density = 19.209222 Si / 1000 Ang^3
#
#
#
# Elastic Constant Matrix: (Units=GPa)
#
#
# Indices 1 2 3 4 5 6 
#
# 1 157.2769 50.8266 30.0435 0.0000 -2.0098 0.0000
# 2 50.8266 76.8959 23.4516 0.0000 -1.5672 0.0000
# 3 30.0435 23.4516 40.0469 0.0000 0.5343 0.0000
# 4 0.0000 0.0000 0.0000 22.0104 0.0000 0.2208
# 5 -2.0098 -1.5672 0.5343 0.0000 11.8670 0.0000
# 6 0.0000 0.0000 0.0000 0.2208 0.0000 29.6434
#
#
#
# Elastic Compliance Matrix: (Units=1/GPa)
#
#
# Indices 1 2 3 4 5 6 
#
# 1 0.008541 -0.004463 -0.003808 0.000000 0.001029 0.000000
# 2 -0.004463 0.018240 -0.007359 0.000000 0.001984 0.000000
# 3 -0.003808 -0.007359 0.032178 0.000000 -0.003066 0.000000
# 4 0.000000 0.000000 0.000000 0.045436 0.000000 -0.000338
# 5 0.001029 0.001984 -0.003066 0.000000 0.084842 0.000000
# 6 0.000000 0.000000 0.000000 -0.000338 0.000000 0.033737
#
#
# Mechanical properties :
#
#
# Convention : Reuss Voigt Hill
#
# Bulk Modulus (GPa) = 36.10351 53.65145 44.87748
# Shear Modulus (GPa) = 18.97777 24.03069 21.50423
#
# Velocity S-wave (km/s) = 3.14658 3.54078 3.34948
# Velocity P-wave (km/s) = 5.66012 6.68632 6.19451
#
# Compressibility (1/GPa) = 0.02769814
#
# Stress axis : x y z
#
# Youngs Moduli (GPa) = 117.08128 54.82585 31.07740
#
# Poissons Ratio (x) = 0.24470 0.11833
# Poissons Ratio (y) = 0.52257 0.22871
# Poissons Ratio (z) = 0.44580 0.40348
#
# Static dielectric constant tensor:
#      x y z
#    x 4.210010 0.000000 0.057390 
#    y 0.000000 3.516530 0.000000 
#    z 0.057390 0.000000 2.902950 
# 
# 
# High freq. dielectric constant tensor:
#      x y z
#    x 1.777670 0.000000 0.001870 
#    y 0.000000 1.747340 0.000000 
#    z 0.001870 0.000000 1.676580 
# 
# From -- ./inp_files/243695.got.cif
#   From: 2010.06.25/outbox.cif.g09.slc.cpg/sg12_122_cif.got.tgz:243695.got - 2010.06.28 00:19:55.
