data_PCOD8085453
_publ_section_title
;
Structure prediction by ZEFSAII (Michael W. Deem and Ramdas Pophale) SiO2 
 PCOD8085453
Probable space group: C 2/M
;
_chemical_formula_sum "Si O2"
_cell_formula_units_Z 56
_cell_length_a 17.749279
_cell_length_b 9.319328
_cell_length_c 18.107910
_cell_angle_alpha 90.000000
_cell_angle_beta 80.476620
_cell_angle_gamma 90.000000
_cell_volume 2953.973810
_symmetry_space_group_name_H-M "C 2/M"
_symmetry_group_IT_number 12
_symmetry_cell_setting 'monoclinic'
loop_
_space_group_symop_operation_xyz
x,y,z
-x,y,-z
-x,-y,-z
x,-y,z
1/2+x,1/2+y,z
1/2-x,1/2+y,-z
1/2-x,1/2-y,-z
1/2+x,1/2-y,z
loop_
_atom_site_type_symbol
_atom_site_label
_atom_site_fract_x
_atom_site_fract_y
_atom_site_fract_z
Si Si1 0.583422 0.333444 0.512545
Si Si2 0.816489 0.164609 0.912098
Si Si3 0.174134 0.158628 0.247098
Si Si4 0.163589 0.164846 0.933049
Si Si5 0.140594 0.835704 0.661518
Si Si6 0.317763 0.166390 0.616413
Si Si7 0.144319 0.338247 0.800363
O O1 0.500000 0.285771 0.500000
O O2 0.599548 0.500000 0.493339
O O3 0.589373 0.300861 0.598575
O O4 0.646237 0.241632 0.460058
O O5 0.864040 0.188689 0.827610
O O6 0.750720 0.283447 0.924682
O O7 0.783110 0.000000 0.916206
O O8 0.869376 0.182169 0.977314
O O9 0.146717 0.270878 0.313171
O O10 0.264551 0.169642 0.218768
O O11 0.151935 0.000000 0.279555
O O12 0.117326 0.257740 0.879919
O O13 0.161686 0.000000 0.907262
O O14 0.228097 0.801227 0.627322
O O15 0.109829 0.738918 0.733676
O O16 0.132356 0.000000 0.687658
O O17 0.337569 0.000000 0.610445
O O18 0.113340 0.500000 0.807511
#
# Coordination Sequence:
#
# PCOD8085453 Si02
#       7
#     8   8   8   8   8   8   8
#     4  10  21  36  52  69  91 119 149 183 226 275
#     4   8  14  22  32  50  78 114 151 184 221 263
#     4   8  14  25  39  56  82 115 150 185 219 260
#     4   9  14  20  32  51  79 114 149 184 222 263
#     4   9  18  32  49  69  91 117 152 189 225 267
#     4  10  19  30  47  70  93 118 150 188 227 266
#     4   9  16  25  38  58  84 115 150 185 223 265
#
# _framework density 18.957512999999999
#
# number of rings (size 3 to 8) (size 9 to 14) (size 15 to 20)
#    0.000    3.000    0.000    2.571    0.000    5.429 
#    0.000    0.000    0.000    0.000    0.000    0.000 
#    0.000    1.143    0.000   13.143    0.000   14.571 
#
# Total GULP energy -346971.919849 kJ/mol
# GULP energy per Si atom -12391.854280 kJ/mol
# Density = 1.891436 g / cm^3
# Si number density = 18.957513 Si / 1000 Ang^3
#
#
#
# Elastic Constant Matrix: (Units=GPa)
#
#
# Indices 1 2 3 4 5 6 
#
# 1 28.4645 24.7888 33.8815 0.0000 17.2244 0.0000
# 2 24.7888 101.3258 58.2046 0.0000 19.4632 0.0000
# 3 33.8815 58.2046 126.0320 0.0000 40.3094 0.0000
# 4 0.0000 0.0000 0.0000 37.1251 0.0000 2.2762
# 5 17.2244 19.4632 40.3094 0.0000 17.1249 0.0000
# 6 0.0000 0.0000 0.0000 2.2762 0.0000 8.4080
#
#
#
# Elastic Compliance Matrix: (Units=1/GPa)
#
#
# Indices 1 2 3 4 5 6 
#
# 1 0.112578 -0.011917 0.028818 0.000000 -0.167521 0.000000
# 2 -0.011917 0.014725 -0.008406 0.000000 0.015038 0.000000
# 3 0.028818 -0.008406 0.041610 0.000000 -0.117376 0.000000
# 4 0.000000 0.000000 0.000000 0.027391 0.000000 -0.007415
# 5 -0.167521 0.015038 -0.117376 0.000000 0.486082 0.000000
# 6 0.000000 0.000000 0.000000 -0.007415 0.000000 0.120942
#
#
# Mechanical properties :
#
#
# Convention : Reuss Voigt Hill
#
# Bulk Modulus (GPa) = 5.37918 54.39691 29.88804
# Shear Modulus (GPa) = 5.89410 21.79475 13.84442
#
# Velocity S-wave (km/s) = 1.76518 3.39435 2.70531
# Velocity P-wave (km/s) = 2.64540 6.64218 5.05552
#
# Compressibility (1/GPa) = 0.18590198
#
# Stress axis : x y z
#
# Youngs Moduli (GPa) = 8.88276 67.91244 24.03254
#
# Poissons Ratio (x) = 0.80932 -0.69257
# Poissons Ratio (y) = 0.10586 0.20202
# Poissons Ratio (z) = -0.25598 0.57089
#
# Static dielectric constant tensor:
#      x y z
#    x 2.776840 0.000000 0.342010 
#    y 0.000000 3.558250 0.000000 
#    z 0.342010 0.000000 3.980380 
# 
# 
# High freq. dielectric constant tensor:
#      x y z
#    x 1.651520 0.000000 0.027730 
#    y 0.000000 1.742570 0.000000 
#    z 0.027730 0.000000 1.761630 
# 
# From -- ./inp_files/287030.got.cif
#   From: 2010.06.25/outbox.cif.g09.slc.cpg/sg12_144_cif.got.tgz:287030.got - 2010.06.28 00:19:55.
