data_PCOD8085354
_publ_section_title
;
Structure prediction by ZEFSAII (Michael W. Deem and Ramdas Pophale) SiO2 
 PCOD8085354
Probable space group: C 2/M
;
_chemical_formula_sum "Si O2"
_cell_formula_units_Z 48
_cell_length_a 17.936079
_cell_length_b 9.513484
_cell_length_c 17.643865
_cell_angle_alpha 90.000000
_cell_angle_beta 62.869713
_cell_angle_gamma 90.000000
_cell_volume 2679.397260
_symmetry_space_group_name_H-M "C 2/M"
_symmetry_group_IT_number 12
_symmetry_cell_setting 'monoclinic'
loop_
_space_group_symop_operation_xyz
x,y,z
-x,y,-z
-x,-y,-z
x,-y,z
1/2+x,1/2+y,z
1/2-x,1/2+y,-z
1/2-x,1/2-y,-z
1/2+x,1/2-y,z
loop_
_atom_site_type_symbol
_atom_site_label
_atom_site_fract_x
_atom_site_fract_y
_atom_site_fract_z
Si Si1 0.744870 0.838427 0.831121
Si Si2 0.078798 0.666801 0.505996
Si Si3 0.410949 0.664387 0.847639
Si Si4 0.007908 0.341802 0.310785
Si Si5 0.820782 0.657482 0.674612
Si Si6 0.587033 0.161001 0.001877
O O1 0.820842 0.806010 0.852713
O O2 0.753727 0.754648 0.748230
O O3 0.742353 0.000000 0.809043
O O4 0.659694 0.790919 0.910877
O O5 0.071824 0.500000 0.501885
O O6 0.162954 0.711931 0.420257
O O7 0.000000 0.737736 0.500000
O O8 0.071509 0.706154 0.599050
O O9 0.430322 0.500000 0.846486
O O10 0.483909 0.734737 0.762912
O O11 0.410960 0.734766 0.929053
O O12 0.993848 0.500000 0.285616
O O13 0.090635 0.338687 0.323655
O O14 0.784066 0.500000 0.691620
O O15 0.601834 0.000000 0.021997
O O16 0.500000 0.177275 0.000000
#
# Coordination Sequence:
#
# PCOD8085354 Si02
#       6
#     8   8   8   8   8   8
#     4   9  18  31  46  67  93 118 146 182 224 267
#     4   7  10  18  34  58  87 117 148 179 208 245
#     4  10  19  30  46  69  95 118 143 181 227 270
#     4   8  13  23  40  61  88 121 152 179 209 252
#     4   8  13  22  39  63  89 118 150 180 213 255
#     4  10  21  36  51  65  84 115 154 189 221 264
#
# _framework density 17.914476000000001
#
# number of rings (size 3 to 8) (size 9 to 14) (size 15 to 20)
#    0.000    3.333    0.000    3.000    0.000    1.667 
#    0.000    0.833    0.000    5.000    0.000    1.167 
#    0.000    0.000    0.000    0.000    0.000    0.000 
#
# Total GULP energy -297331.123684 kJ/mol
# GULP energy per Si atom -12388.796820 kJ/mol
# Density = 1.787370 g / cm^3
# Si number density = 17.914476 Si / 1000 Ang^3
#
#
#
# Elastic Constant Matrix: (Units=GPa)
#
#
# Indices 1 2 3 4 5 6 
#
# 1 24.2655 25.2744 41.9785 0.0000 -4.8749 0.0000
# 2 25.2744 89.2680 90.5106 0.0000 -7.8877 0.0000
# 3 41.9785 90.5106 206.6170 0.0000 -22.6824 0.0000
# 4 0.0000 0.0000 0.0000 31.5107 0.0000 -0.2558
# 5 -4.8749 -7.8877 -22.6824 0.0000 0.1811 0.0000
# 6 0.0000 0.0000 0.0000 -0.2558 0.0000 10.5543
#
#
#
# Elastic Compliance Matrix: (Units=1/GPa)
#
#
# Indices 1 2 3 4 5 6 
#
# 1 0.067078 -0.008671 -0.011524 0.000000 -0.015434 0.000000
# 2 -0.008671 0.020562 -0.005133 0.000000 0.019243 0.000000
# 3 -0.011524 -0.005133 0.003857 0.000000 -0.050769 0.000000
# 4 0.000000 0.000000 0.000000 0.031742 0.000000 0.000769
# 5 -0.015434 0.019243 -0.050769 0.000000 -0.414238 0.000000
# 6 0.000000 0.000000 0.000000 0.000769 0.000000 0.094767
#
#
# Mechanical properties :
#
#
# Convention : Reuss Voigt Hill
#
# Bulk Modulus (GPa) = 24.48570 70.63084 47.55827
# Shear Modulus (GPa) = -37.88956 19.27502 -9.30727
#
# Velocity S-wave (km/s) = -4.60393 3.28372 -2.28181
# Velocity P-wave (km/s) = 3.81625 7.34094 4.43428
#
# Compressibility (1/GPa) = 0.04084016
#
# Stress axis : x y z
#
# Youngs Moduli (GPa) = 14.90800 48.63266 259.29796
#
# Poissons Ratio (x) = 0.42168 2.98823
# Poissons Ratio (y) = 0.12926 1.33106
# Poissons Ratio (z) = 0.17180 0.24965
#
# Static dielectric constant tensor:
#      x y z
#    x 2.787150 0.000000 -0.252720 
#    y 0.000000 3.209620 0.000000 
#    z -0.252720 0.000000 3.965400 
# 
# 
# High freq. dielectric constant tensor:
#      x y z
#    x 1.626560 0.000000 -0.011020 
#    y 0.000000 1.674170 0.000000 
#    z -0.011020 0.000000 1.720910 
# 
# From -- ./inp_files/249357.got.cif
#   From: 2010.06.25/outbox.cif.g09.slc.cpg/sg12_125_cif.got.tgz:249357.got - 2010.06.28 00:19:55.
