data_PCOD8085521
_publ_section_title
;
Structure prediction by ZEFSAII (Michael W. Deem and Ramdas Pophale) SiO2 
 PCOD8085521
Probable space group: C 2/M
;
_chemical_formula_sum "Si O2"
_cell_formula_units_Z 56
_cell_length_a 19.393144
_cell_length_b 9.031448
_cell_length_c 24.128159
_cell_angle_alpha 90.000000
_cell_angle_beta 131.867396
_cell_angle_gamma 90.000000
_cell_volume 3147.068268
_symmetry_space_group_name_H-M "C 2/M"
_symmetry_group_IT_number 12
_symmetry_cell_setting 'monoclinic'
loop_
_space_group_symop_operation_xyz
x,y,z
-x,y,-z
-x,-y,-z
x,-y,z
1/2+x,1/2+y,z
1/2-x,1/2+y,-z
1/2-x,1/2-y,-z
1/2+x,1/2-y,z
loop_
_atom_site_type_symbol
_atom_site_label
_atom_site_fract_x
_atom_site_fract_y
_atom_site_fract_z
Si Si1 0.952178 0.330609 0.804105
Si Si2 0.568376 0.176461 0.083017
Si Si3 0.272049 0.675402 0.202982
Si Si4 0.458636 0.324990 0.248529
Si Si5 0.112825 0.329620 0.397696
Si Si6 0.787047 0.670247 0.439981
Si Si7 0.236052 0.169699 0.678307
O O1 0.984312 0.500000 0.815857
O O2 0.965869 0.273651 0.874419
O O3 0.846144 0.313633 0.728952
O O4 0.016163 0.232686 0.798721
O O5 0.672853 0.236731 0.128175
O O6 0.568192 0.000000 0.080108
O O7 0.500000 0.244555 0.000000
O O8 0.263904 0.500000 0.202937
O O9 0.353349 0.725172 0.205276
O O10 0.292104 0.731913 0.276292
O O11 0.469255 0.500000 0.255556
O O12 0.522368 0.258931 0.331087
O O13 0.100655 0.500000 0.373636
O O14 0.126977 0.312321 0.471519
O O15 0.202016 0.268791 0.414324
O O16 0.755153 0.500000 0.419171
O O17 0.816901 0.730329 0.395643
O O18 0.205090 0.000000 0.654048
#
# Coordination Sequence:
#
# PCOD8085521 Si02
#       7
#     8   8   8   8   8   8   8
#     4   9  17  29  49  75  98 124 163 205 242 286
#     4   8  14  29  54  78  98 126 166 204 235 282
#     4   8  17  31  47  71 100 131 166 202 242 287
#     4  11  20  31  48  71 101 132 165 204 244 292
#     4  10  20  32  46  67  98 131 163 204 248 292
#     4  10  19  30  47  72  96 122 164 211 251 289
#     4   9  16  30  50  68  93 129 167 207 243 284
#
# _framework density 17.794339999999998
#
# number of rings (size 3 to 8) (size 9 to 14) (size 15 to 20)
#    0.000    2.714    1.429    3.000    0.000    1.714 
#    0.000    2.857    0.000    6.429    0.000    0.000 
#    0.000    0.000    0.000    0.000    0.000    0.000 
#
# Total GULP energy -347092.327138 kJ/mol
# GULP energy per Si atom -12396.154541 kJ/mol
# Density = 1.775384 g / cm^3
# Si number density = 17.794340 Si / 1000 Ang^3
#
#
#
# Elastic Constant Matrix: (Units=GPa)
#
#
# Indices 1 2 3 4 5 6 
#
# 1 111.3244 43.6579 57.5782 0.0000 -1.9923 0.0000
# 2 43.6579 63.7974 38.8337 0.0000 -2.7990 0.0000
# 3 57.5782 38.8337 130.5920 0.0000 -9.1340 0.0000
# 4 0.0000 0.0000 0.0000 17.4133 0.0000 -4.5940
# 5 -1.9923 -2.7990 -9.1340 0.0000 21.0353 0.0000
# 6 0.0000 0.0000 0.0000 -4.5940 0.0000 22.1156
#
#
#
# Elastic Compliance Matrix: (Units=1/GPa)
#
#
# Indices 1 2 3 4 5 6 
#
# 1 0.013841 -0.007032 -0.004110 0.000000 -0.001409 0.000000
# 2 -0.007032 0.022711 -0.003598 0.000000 0.000794 0.000000
# 3 -0.004110 -0.003598 0.010807 0.000000 0.003825 0.000000
# 4 0.000000 0.000000 0.000000 0.060757 0.000000 0.012621
# 5 -0.001409 0.000794 0.003825 0.000000 0.049172 0.000000
# 6 0.000000 0.000000 0.000000 0.012621 0.000000 0.047839
#
#
# Mechanical properties :
#
#
# Convention : Reuss Voigt Hill
#
# Bulk Modulus (GPa) = 55.92799 65.09482 60.51140
# Shear Modulus (GPa) = 20.78431 23.15577 21.97004
#
# Velocity S-wave (km/s) = 3.42135 3.61127 3.51759
# Velocity P-wave (km/s) = 6.86338 7.35184 7.11180
#
# Compressibility (1/GPa) = 0.01788014
#
# Stress axis : x y z
#
# Youngs Moduli (GPa) = 72.24966 44.03079 92.53308
#
# Poissons Ratio (x) = 0.30961 0.38032
# Poissons Ratio (y) = 0.50803 0.33292
# Poissons Ratio (z) = 0.29695 0.15842
#
# Static dielectric constant tensor:
#      x y z
#    x 3.211520 0.000000 -0.082870 
#    y 0.000000 3.043500 0.000000 
#    z -0.082870 0.000000 3.580420 
# 
# 
# High freq. dielectric constant tensor:
#      x y z
#    x 1.669700 0.000000 -0.015550 
#    y 0.000000 1.664390 0.000000 
#    z -0.015550 0.000000 1.686450 
# 
# From -- ./inp_files/342023.got.cif
#   From: 2010.06.25/outbox.cif.g09.slc.cpg/sg12_172_cif.got.tgz:342023.got - 2010.06.28 00:19:55.
