data_PCOD8085077
_publ_section_title
;
Structure prediction by ZEFSAII (Michael W. Deem and Ramdas Pophale) SiO2 
 PCOD8085077
Probable space group: C 2/M
;
_chemical_formula_sum "Si O2"
_cell_formula_units_Z 56
_cell_length_a 25.354384
_cell_length_b 9.036583
_cell_length_c 22.178934
_cell_angle_alpha 90.000000
_cell_angle_beta 139.396971
_cell_angle_gamma 90.000000
_cell_volume 3307.159176
_symmetry_space_group_name_H-M "C 2/M"
_symmetry_group_IT_number 12
_symmetry_cell_setting 'monoclinic'
loop_
_space_group_symop_operation_xyz
x,y,z
-x,y,-z
-x,-y,-z
x,-y,z
1/2+x,1/2+y,z
1/2-x,1/2+y,-z
1/2-x,1/2-y,-z
1/2+x,1/2-y,z
loop_
_atom_site_type_symbol
_atom_site_label
_atom_site_fract_x
_atom_site_fract_y
_atom_site_fract_z
Si Si1 0.622665 0.827129 0.897157
Si Si2 0.655737 0.326365 0.708199
Si Si3 0.178023 0.175614 0.594218
Si Si4 0.285184 0.326150 0.589736
Si Si5 0.987303 0.824529 0.610927
Si Si6 0.530641 0.672611 0.269160
Si Si7 0.731192 0.671805 0.895522
O O1 0.534866 0.753704 0.830299
O O2 0.664816 0.764364 0.873990
O O3 0.611186 0.000000 0.878752
O O4 0.678090 0.789795 0.003695
O O5 0.642840 0.500000 0.689828
O O6 0.686141 0.266750 0.670129
O O7 0.568650 0.257557 0.651483
O O8 0.722777 0.288779 0.817424
O O9 0.245819 0.259701 0.615301
O O10 0.089540 0.225101 0.494850
O O11 0.191059 0.000000 0.598343
O O12 0.267942 0.500000 0.569606
O O13 0.250000 0.250000 0.500000
O O14 0.380340 0.292639 0.678235
O O15 0.977221 0.763316 0.669895
O O16 0.992358 0.000000 0.618067
O O17 0.511327 0.500000 0.250790
O O18 0.710765 0.500000 0.889394
#
# Coordination Sequence:
#
# PCOD8085077 Si02
#       7
#     8   8   8   8   8   8   8
#     4  10  19  29  47  76 103 128 164 209 252 292
#     4   9  16  28  51  75  99 132 166 200 237 293
#     4  10  19  32  51  76 100 129 170 204 240 292
#     4  11  22  36  53  73  98 132 169 208 248 291
#     4   9  15  27  48  74  99 128 162 197 236 291
#     4  10  19  33  52  70  97 133 167 201 247 298
#     4   9  17  31  49  72 103 135 165 199 246 300
#
# _framework density 16.932962
#
# number of rings (size 3 to 8) (size 9 to 14) (size 15 to 20)
#    0.000    2.286    2.857    1.286    0.000    3.429 
#    0.000    0.714    0.000    1.714    0.000    6.000 
#    0.000    0.000    0.000    0.000    0.000    0.000 
#
# Total GULP energy -347151.368684 kJ/mol
# GULP energy per Si atom -12398.263167 kJ/mol
# Density = 1.689442 g / cm^3
# Si number density = 16.932962 Si / 1000 Ang^3
#
#
#
# Elastic Constant Matrix: (Units=GPa)
#
#
# Indices 1 2 3 4 5 6 
#
# 1 136.2667 39.6336 76.0753 0.0000 -3.7975 0.0000
# 2 39.6336 50.3866 48.5816 0.0000 7.5862 0.0000
# 3 76.0753 48.5816 144.3673 0.0000 0.3386 0.0000
# 4 0.0000 0.0000 0.0000 24.3625 0.0000 4.0739
# 5 -3.7975 7.5862 0.3386 0.0000 23.3811 0.0000
# 6 0.0000 0.0000 0.0000 4.0739 0.0000 24.4068
#
#
#
# Elastic Compliance Matrix: (Units=1/GPa)
#
#
# Indices 1 2 3 4 5 6 
#
# 1 0.011350 -0.005488 -0.004143 0.000000 0.003684 0.000000
# 2 -0.005488 0.034249 -0.008605 0.000000 -0.011879 0.000000
# 3 -0.004143 -0.008605 0.012001 0.000000 0.001945 0.000000
# 4 0.000000 0.000000 0.000000 0.042225 0.000000 -0.007048
# 5 0.003684 -0.011879 0.001945 0.000000 0.047194 0.000000
# 6 0.000000 0.000000 0.000000 -0.007048 0.000000 0.042149
#
#
# Mechanical properties :
#
#
# Convention : Reuss Voigt Hill
#
# Bulk Modulus (GPa) = 47.33141 73.28905 60.31023
# Shear Modulus (GPa) = 21.48829 25.54541 23.51685
#
# Velocity S-wave (km/s) = 3.56620 3.88831 3.73073
# Velocity P-wave (km/s) = 6.70596 7.97085 7.36561
#
# Compressibility (1/GPa) = 0.02112762
#
# Stress axis : x y z
#
# Youngs Moduli (GPa) = 88.10223 29.19772 83.32502
#
# Poissons Ratio (x) = 0.16025 0.34521
# Poissons Ratio (y) = 0.48353 0.71704
# Poissons Ratio (z) = 0.36500 0.25126
#
# Static dielectric constant tensor:
#      x y z
#    x 3.187880 0.000000 -0.018300 
#    y 0.000000 2.950610 0.000000 
#    z -0.018300 0.000000 3.360920 
# 
# 
# High freq. dielectric constant tensor:
#      x y z
#    x 1.634990 0.000000 0.001030 
#    y 0.000000 1.627040 0.000000 
#    z 0.001030 0.000000 1.660640 
# 
# From -- ./inp_files/287918.got.cif
#   From: 2010.06.25/outbox.cif.g09.slc.cpg/sg12_144_cif.got.tgz:287918.got - 2010.06.28 00:19:55.
