data_PCOD8085758
_publ_section_title
;
Structure prediction by ZEFSAII (Michael W. Deem and Ramdas Pophale) SiO2 
 PCOD8085758
Probable space group: C 2/M
;
_chemical_formula_sum "Si O2"
_cell_formula_units_Z 64
_cell_length_a 28.642496
_cell_length_b 9.115791
_cell_length_c 14.294758
_cell_angle_alpha 90.000000
_cell_angle_beta 94.024875
_cell_angle_gamma 90.000000
_cell_volume 3723.141928
_symmetry_space_group_name_H-M "C 2/M"
_symmetry_group_IT_number 12
_symmetry_cell_setting 'monoclinic'
loop_
_space_group_symop_operation_xyz
x,y,z
-x,y,-z
-x,-y,-z
x,-y,z
1/2+x,1/2+y,z
1/2-x,1/2+y,-z
1/2-x,1/2-y,-z
1/2+x,1/2-y,z
loop_
_atom_site_type_symbol
_atom_site_label
_atom_site_fract_x
_atom_site_fract_y
_atom_site_fract_z
Si Si1 0.077733 0.828870 0.701507
Si Si2 0.219506 0.831320 0.706375
Si Si3 0.702324 0.828836 0.020624
Si Si4 0.991990 0.673383 0.605967
Si Si5 0.648608 0.666430 0.544752
Si Si6 0.387787 0.826291 0.633779
Si Si7 0.349673 0.170299 0.171641
Si Si8 0.679002 0.171269 0.219881
O O1 0.108814 0.797320 0.614943
O O2 0.103241 0.757855 0.795005
O O3 0.027744 0.753793 0.679776
O O4 0.070759 0.000000 0.719759
O O5 0.199026 0.804171 0.599690
O O6 0.194932 0.726610 0.777390
O O7 0.274301 0.795076 0.713760
O O8 0.209365 0.000000 0.734952
O O9 0.683099 0.761796 0.116118
O O10 0.714652 0.000000 0.033018
O O11 0.750000 0.750000 0.000000
O O12 0.661535 0.803484 0.939054
O O13 0.998460 0.500000 0.617717
O O14 0.940956 0.728267 0.631565
O O15 0.000000 0.722340 0.500000
O O16 0.643870 0.500000 0.508953
O O17 0.643454 0.772231 0.456694
O O18 0.364931 0.764705 0.727117
O O19 0.385660 0.000000 0.630263
O O20 0.357468 0.000000 0.195633
O O21 0.671002 0.000000 0.207268
#
# Coordination Sequence:
#
# PCOD8085758 Si02
#       8
#     8   8   8   8   8   8   8   8
#     4  10  20  33  52  75 100 133 167 203 253 305
#     4   9  17  31  49  69  99 138 170 200 242 295
#     4  10  19  32  53  77 101 131 167 208 249 294
#     4  10  19  32  51  76 103 129 165 215 257 289
#     4   9  18  30  45  69  99 131 166 204 243 291
#     4  10  20  33  50  71  98 137 171 202 252 299
#     4  10  19  30  49  78 104 126 161 210 255 291
#     4   9  18  33  51  71 100 136 172 204 243 302
#
# _framework density 17.189782999999998
#
# number of rings (size 3 to 8) (size 9 to 14) (size 15 to 20)
#    0.000    2.375    2.500    1.500    0.000    3.750 
#    0.000    1.250    0.000    0.750    0.000    5.250 
#    0.000    0.000    0.000    0.000    0.000    0.000 
#
# Total GULP energy -396741.364218 kJ/mol
# GULP energy per Si atom -12398.167632 kJ/mol
# Density = 1.715066 g / cm^3
# Si number density = 17.189783 Si / 1000 Ang^3
#
#
#
# Elastic Constant Matrix: (Units=GPa)
#
#
# Indices 1 2 3 4 5 6 
#
# 1 119.1740 38.2476 77.0689 0.0000 -0.0738 0.0000
# 2 38.2476 47.1036 36.4228 0.0000 5.8536 0.0000
# 3 77.0689 36.4228 116.3455 0.0000 0.1142 0.0000
# 4 0.0000 0.0000 0.0000 19.2940 0.0000 5.3626
# 5 -0.0738 5.8536 0.1142 0.0000 24.5955 0.0000
# 6 0.0000 0.0000 0.0000 5.3626 0.0000 23.1439
#
#
#
# Elastic Compliance Matrix: (Units=1/GPa)
#
#
# Indices 1 2 3 4 5 6 
#
# 1 0.016056 -0.006622 -0.008564 0.000000 0.001664 0.000000
# 2 -0.006622 0.031864 -0.005582 0.000000 -0.007577 0.000000
# 3 -0.008564 -0.005582 0.016014 0.000000 0.001228 0.000000
# 4 0.000000 0.000000 0.000000 0.055397 0.000000 -0.012836
# 5 0.001664 -0.007577 0.001228 0.000000 0.042461 0.000000
# 6 0.000000 0.000000 0.000000 -0.012836 0.000000 0.046182
#
#
# Mechanical properties :
#
#
# Convention : Reuss Voigt Hill
#
# Bulk Modulus (GPa) = 44.64433 65.12243 54.88338
# Shear Modulus (GPa) = 19.45712 22.13223 20.79468
#
# Velocity S-wave (km/s) = 3.36802 3.59210 3.48186
# Velocity P-wave (km/s) = 6.41503 7.42771 6.93986
#
# Compressibility (1/GPa) = 0.02239926
#
# Stress axis : x y z
#
# Youngs Moduli (GPa) = 62.28342 31.38332 62.44411
#
# Poissons Ratio (x) = 0.20781 0.53478
# Poissons Ratio (y) = 0.41241 0.34854
# Poissons Ratio (z) = 0.53341 0.17517
#
# Static dielectric constant tensor:
#      x y z
#    x 3.300800 0.000000 0.045460 
#    y 0.000000 3.089610 0.000000 
#    z 0.045460 0.000000 3.331260 
# 
# 
# High freq. dielectric constant tensor:
#      x y z
#    x 1.657850 0.000000 0.015380 
#    y 0.000000 1.652370 0.000000 
#    z 0.015380 0.000000 1.649870 
# 
# From -- ./inp_files/243990.got.cif
#   From: 2010.06.25/outbox.cif.g09.slc.cpg/sg12_122_cif.got.tgz:243990.got - 2010.06.28 00:19:55.
