data_PCOD8085464
_publ_section_title
;
Structure prediction by ZEFSAII (Michael W. Deem and Ramdas Pophale) SiO2 
 PCOD8085464
Probable space group: C 2/M
;
_chemical_formula_sum "Si O2"
_cell_formula_units_Z 56
_cell_length_a 27.864406
_cell_length_b 9.195710
_cell_length_c 14.039191
_cell_angle_alpha 90.000000
_cell_angle_beta 61.460875
_cell_angle_gamma 90.000000
_cell_volume 3160.199444
_symmetry_space_group_name_H-M "C 2/M"
_symmetry_group_IT_number 12
_symmetry_cell_setting 'monoclinic'
loop_
_space_group_symop_operation_xyz
x,y,z
-x,y,-z
-x,-y,-z
x,-y,z
1/2+x,1/2+y,z
1/2-x,1/2+y,-z
1/2-x,1/2-y,-z
1/2+x,1/2-y,z
loop_
_atom_site_type_symbol
_atom_site_label
_atom_site_fract_x
_atom_site_fract_y
_atom_site_fract_z
Si Si1 0.280890 0.166643 0.597892
Si Si2 0.550686 0.171582 0.077298
Si Si3 0.619125 0.167836 0.371493
Si Si4 0.570076 0.171428 0.847388
Si Si5 0.570641 0.671738 0.241182
Si Si6 0.322191 0.171239 0.354354
Si Si7 0.035989 0.158300 0.558813
O O1 0.318266 0.188127 0.655712
O O2 0.314501 0.215699 0.471804
O O3 0.226630 0.261562 0.662365
O O4 0.263082 0.000000 0.602838
O O5 0.488113 0.230248 0.134640
O O6 0.584558 0.256810 0.126381
O O7 0.553467 0.000000 0.095250
O O8 0.578855 0.211414 0.950073
O O9 0.609412 0.259401 0.285301
O O10 0.582339 0.222284 0.495609
O O11 0.604603 0.000000 0.366422
O O12 0.619929 0.236021 0.737456
O O13 0.567873 0.000000 0.839109
O O14 0.581588 0.500000 0.229900
O O15 0.506557 0.709539 0.319822
O O16 0.320773 0.000000 0.339480
O O17 0.000000 0.138059 0.500000
O O18 0.062147 0.000000 0.559074
#
# Coordination Sequence:
#
# PCOD8085464 Si02
#       7
#     8   8   8   8   8   8   8
#     4   9  19  32  47  73 101 124 160 202 237 280
#     4   9  17  31  52  75  98 126 162 199 238 285
#     4  10  19  30  47  70  95 126 163 203 239 280
#     4   8  16  31  52  76  98 124 160 202 242 282
#     4  10  20  32  45  67 100 132 160 195 239 289
#     4   9  17  32  52  71  97 129 159 194 240 290
#     4   8  16  29  41  59  93 128 156 189 230 280
#
# _framework density 17.720400999999999
#
# number of rings (size 3 to 8) (size 9 to 14) (size 15 to 20)
#    0.000    3.000    0.000    2.571    2.000    4.286 
#    0.000    2.857    0.000    0.857    0.000    0.000 
#    0.000    0.000    0.000    0.000    0.000    0.000 
#
# Total GULP energy -347043.265873 kJ/mol
# GULP energy per Si atom -12394.402353 kJ/mol
# Density = 1.768007 g / cm^3
# Si number density = 17.720401 Si / 1000 Ang^3
#
#
#
# Elastic Constant Matrix: (Units=GPa)
#
#
# Indices 1 2 3 4 5 6 
#
# 1 72.2005 32.7582 29.7482 0.0000 4.9661 0.0000
# 2 32.7582 61.3210 19.9673 0.0000 7.6122 0.0000
# 3 29.7482 19.9673 70.4520 0.0000 0.2106 0.0000
# 4 0.0000 0.0000 0.0000 12.5868 0.0000 -0.7672
# 5 4.9661 7.6122 0.2106 0.0000 28.7093 0.0000
# 6 0.0000 0.0000 0.0000 -0.7672 0.0000 25.8688
#
#
#
# Elastic Compliance Matrix: (Units=1/GPa)
#
#
# Indices 1 2 3 4 5 6 
#
# 1 0.020443 -0.008776 -0.006141 0.000000 -0.001164 0.000000
# 2 -0.008776 0.022399 -0.002629 0.000000 -0.004402 0.000000
# 3 -0.006141 -0.002629 0.017527 0.000000 0.001631 0.000000
# 4 0.000000 0.000000 0.000000 0.079592 0.000000 0.002360
# 5 -0.001164 -0.004402 0.001631 0.000000 0.036188 0.000000
# 6 0.000000 0.000000 0.000000 0.002360 0.000000 0.038727
#
#
# Mechanical properties :
#
#
# Convention : Reuss Voigt Hill
#
# Bulk Modulus (GPa) = 39.56423 40.99121 40.27772
# Shear Modulus (GPa) = 19.35030 21.53296 20.44163
#
# Velocity S-wave (km/s) = 3.30809 3.48968 3.40010
# Velocity P-wave (km/s) = 6.08003 6.27850 6.18006
#
# Compressibility (1/GPa) = 0.02527536
#
# Stress axis : x y z
#
# Youngs Moduli (GPa) = 48.91750 44.64572 57.05369
#
# Poissons Ratio (x) = 0.39183 0.35036
# Poissons Ratio (y) = 0.42932 0.15000
# Poissons Ratio (z) = 0.30040 0.11738
#
# Static dielectric constant tensor:
#      x y z
#    x 3.167590 0.000000 -0.082530 
#    y 0.000000 3.145940 0.000000 
#    z -0.082530 0.000000 3.414460 
# 
# 
# High freq. dielectric constant tensor:
#      x y z
#    x 1.670230 0.000000 0.011370 
#    y 0.000000 1.674280 0.000000 
#    z 0.011370 0.000000 1.665760 
# 
# From -- ./inp_files/243696.got.cif
#   From: 2010.06.25/outbox.cif.g09.slc.cpg/sg12_122_cif.got.tgz:243696.got - 2010.06.28 00:19:55.
