data_PCOD8085861
_publ_section_title
;
Structure prediction by ZEFSAII (Michael W. Deem and Ramdas Pophale) SiO2 
 PCOD8085861
Probable space group: C 2/M
;
_chemical_formula_sum "Si O2"
_cell_formula_units_Z 64
_cell_length_a 19.881547
_cell_length_b 8.983569
_cell_length_c 23.358106
_cell_angle_alpha 90.000000
_cell_angle_beta 121.651246
_cell_angle_gamma 90.000000
_cell_volume 3551.386013
_symmetry_space_group_name_H-M "C 2/M"
_symmetry_group_IT_number 12
_symmetry_cell_setting 'monoclinic'
loop_
_space_group_symop_operation_xyz
x,y,z
-x,y,-z
-x,-y,-z
x,-y,z
1/2+x,1/2+y,z
1/2-x,1/2+y,-z
1/2-x,1/2-y,-z
1/2+x,1/2-y,z
loop_
_atom_site_type_symbol
_atom_site_label
_atom_site_fract_x
_atom_site_fract_y
_atom_site_fract_z
Si Si1 0.085777 0.674462 0.060359
Si Si2 0.332249 0.667264 0.804658
Si Si3 0.907913 0.826300 0.323540
Si Si4 0.824218 0.667330 0.190382
Si Si5 0.244797 0.825268 0.670205
Si Si6 0.762265 0.324550 0.944753
Si Si7 0.470949 0.170557 0.547864
Si Si8 0.285484 0.171548 0.461348
O O1 0.089457 0.500000 0.074601
O O2 0.099753 0.756440 0.126973
O O3 0.151902 0.718738 0.042828
O O4 0.000000 0.724679 0.000000
O O5 0.358600 0.500000 0.800526
O O6 0.252825 0.666241 0.805316
O O7 0.317041 0.759869 0.739925
O O8 0.894583 0.743413 0.257366
O O9 0.838745 0.787589 0.337597
O O10 0.990717 0.770039 0.385473
O O11 0.912005 0.000000 0.312575
O O12 0.848967 0.500000 0.184008
O O13 0.807731 0.763564 0.126605
O O14 0.247529 0.750068 0.609787
O O15 0.257947 0.000000 0.669343
O O16 0.753007 0.500000 0.946650
O O17 0.750000 0.250000 0.000000
O O18 0.500000 0.232144 0.500000
O O19 0.378333 0.189703 0.508851
O O20 0.498221 0.000000 0.568485
O O21 0.250000 0.250000 0.500000
O O22 0.259905 0.000000 0.447732
#
# Coordination Sequence:
#
# PCOD8085861 Si02
#       8
#     8   8   8   8   8   8   8   8
#     4   9  18  33  53  77 105 137 172 212 257 305
#     4   9  17  29  49  77 105 134 171 215 260 305
#     4  10  19  30  51  81 109 134 169 220 266 304
#     4   9  17  30  49  74 105 138 173 212 258 309
#     4  10  19  32  52  78 106 137 174 215 261 311
#     4  10  19  32  52  77 106 138 174 212 255 308
#     4  10  20  35  55  79 106 137 174 214 260 311
#     4  11  23  38  56  77 106 141 176 215 260 314
#
# _framework density 18.021134
#
# number of rings (size 3 to 8) (size 9 to 14) (size 15 to 20)
#    0.000    2.250    1.250    2.250    0.000    6.000 
#    0.000    0.000    2.750    0.000    0.000    0.000 
#    0.000    0.000    0.000    0.000    0.000    0.000 
#
# Total GULP energy -396856.182380 kJ/mol
# GULP energy per Si atom -12401.755699 kJ/mol
# Density = 1.798012 g / cm^3
# Si number density = 18.021134 Si / 1000 Ang^3
#
#
#
# Elastic Constant Matrix: (Units=GPa)
#
#
# Indices 1 2 3 4 5 6 
#
# 1 46.8659 38.8207 45.6475 0.0000 -5.2969 0.0000
# 2 38.8207 118.4633 84.4794 0.0000 -4.9878 0.0000
# 3 45.6475 84.4794 174.6782 0.0000 -1.3076 0.0000
# 4 0.0000 0.0000 0.0000 42.9670 0.0000 -0.8828
# 5 -5.2969 -4.9878 -1.3076 0.0000 26.5098 0.0000
# 6 0.0000 0.0000 0.0000 -0.8828 0.0000 22.0949
#
#
#
# Elastic Compliance Matrix: (Units=1/GPa)
#
#
# Indices 1 2 3 4 5 6 
#
# 1 0.032562 -0.006746 -0.005209 0.000000 0.004980 0.000000
# 2 -0.006746 0.014403 -0.005195 0.000000 0.001106 0.000000
# 3 -0.005209 -0.005195 0.009587 0.000000 -0.001545 0.000000
# 4 0.000000 0.000000 0.000000 0.023293 0.000000 0.000931
# 5 0.004980 0.001106 -0.001545 0.000000 0.038849 0.000000
# 6 0.000000 0.000000 0.000000 0.000931 0.000000 0.045296
#
#
# Mechanical properties :
#
#
# Convention : Reuss Voigt Hill
#
# Bulk Modulus (GPa) = 44.93954 75.32251 60.13103
# Shear Modulus (GPa) = 24.30631 29.71833 27.01232
#
# Velocity S-wave (km/s) = 3.67654 4.06529 3.87579
# Velocity P-wave (km/s) = 6.55850 7.99519 7.31221
#
# Compressibility (1/GPa) = 0.02225212
#
# Stress axis : x y z
#
# Youngs Moduli (GPa) = 30.71026 69.42954 104.30993
#
# Poissons Ratio (x) = 0.46838 0.54339
# Poissons Ratio (y) = 0.20718 0.54184
# Poissons Ratio (z) = 0.15998 0.36065
#
# Static dielectric constant tensor:
#      x y z
#    x 2.924620 0.000000 0.071160 
#    y 0.000000 3.486710 0.000000 
#    z 0.071160 0.000000 3.506940 
# 
# 
# High freq. dielectric constant tensor:
#      x y z
#    x 1.651410 0.000000 0.004440 
#    y 0.000000 1.711560 0.000000 
#    z 0.004440 0.000000 1.713410 
# 
# From -- ./inp_files/320188.got.cif
#   From: 2010.06.25/outbox.cif.g09.slc.cpg/sg12_161_cif.got.tgz:320188.got - 2010.06.28 00:19:55.
