data_PCOD8085481
_publ_section_title
;
Structure prediction by ZEFSAII (Michael W. Deem and Ramdas Pophale) SiO2 
 PCOD8085481
Probable space group: C 2/M
;
_chemical_formula_sum "Si O2"
_cell_formula_units_Z 48
_cell_length_a 14.413644
_cell_length_b 9.216327
_cell_length_c 20.796391
_cell_angle_alpha 90.000000
_cell_angle_beta 110.652136
_cell_angle_gamma 90.000000
_cell_volume 2585.082261
_symmetry_space_group_name_H-M "C 2/M"
_symmetry_group_IT_number 12
_symmetry_cell_setting 'monoclinic'
loop_
_space_group_symop_operation_xyz
x,y,z
-x,y,-z
-x,-y,-z
x,-y,z
1/2+x,1/2+y,z
1/2-x,1/2+y,-z
1/2-x,1/2-y,-z
1/2+x,1/2-y,z
loop_
_atom_site_type_symbol
_atom_site_label
_atom_site_fract_x
_atom_site_fract_y
_atom_site_fract_z
Si Si1 0.682032 0.172128 0.630409
Si Si2 0.347704 0.671663 0.999383
Si Si3 0.610161 0.659619 0.499049
Si Si4 0.500924 0.330715 0.647990
Si Si5 0.383519 0.671052 0.741194
Si Si6 0.946345 0.827942 0.893491
O O1 0.677667 0.228027 0.555338
O O2 0.591846 0.230401 0.650770
O O3 0.780464 0.233178 0.688784
O O4 0.678422 0.000000 0.626966
O O5 0.331804 0.500000 0.000843
O O6 0.370583 0.718880 0.931372
O O7 0.250000 0.750000 0.000000
O O8 0.441468 0.724241 0.064913
O O9 0.500000 0.659849 0.500000
O O10 0.658196 0.500000 0.517745
O O11 0.596427 0.701562 0.420486
O O12 0.530736 0.500000 0.647471
O O13 0.472195 0.291198 0.713806
O O14 0.372175 0.500000 0.745312
O O15 0.409222 0.740410 0.816926
O O16 0.948617 0.000000 0.890486
#
# Coordination Sequence:
#
# PCOD8085481 Si02
#       6
#     8   8   8   8   8   8
#     4  10  19  30  47  71  94 119 157 203 243 276
#     4   9  17  31  54  78  97 124 160 192 227 273
#     4   8  15  29  47  65  89 122 158 196 238 284
#     4   9  18  33  50  66  89 126 164 194 234 288
#     4   9  18  32  49  69  96 129 160 190 231 285
#     4   8  16  32  50  70  99 131 159 186 224 284
#
# _framework density 18.568073999999999
#
# number of rings (size 3 to 8) (size 9 to 14) (size 15 to 20)
#    0.000    3.167    0.000    2.500    0.000    5.000 
#    0.000    3.333    0.000    4.000    0.000    0.000 
#    0.000    0.000    0.000    0.000    0.000    0.000 
#
# Total GULP energy -297436.574561 kJ/mol
# GULP energy per Si atom -12393.190607 kJ/mol
# Density = 1.852581 g / cm^3
# Si number density = 18.568074 Si / 1000 Ang^3
#
#
#
# Elastic Constant Matrix: (Units=GPa)
#
#
# Indices 1 2 3 4 5 6 
#
# 1 61.0422 20.8921 26.7928 0.0000 2.7449 0.0000
# 2 20.8921 43.5140 22.1304 0.0000 3.0109 0.0000
# 3 26.7928 22.1304 133.2731 0.0000 -4.7877 0.0000
# 4 0.0000 0.0000 0.0000 17.5269 0.0000 -0.9034
# 5 2.7449 3.0109 -4.7877 0.0000 24.3799 0.0000
# 6 0.0000 0.0000 0.0000 -0.9034 0.0000 24.3795
#
#
#
# Elastic Compliance Matrix: (Units=1/GPa)
#
#
# Indices 1 2 3 4 5 6 
#
# 1 0.020543 -0.008303 -0.002817 0.000000 -0.001841 0.000000
# 2 -0.008303 0.028840 -0.003237 0.000000 -0.003262 0.000000
# 3 -0.002817 -0.003237 0.008694 0.000000 0.002424 0.000000
# 4 0.000000 0.000000 0.000000 0.057164 0.000000 0.002118
# 5 -0.001841 -0.003262 0.002424 0.000000 0.042104 0.000000
# 6 0.000000 0.000000 0.000000 0.002118 0.000000 0.041097
#
#
# Mechanical properties :
#
#
# Convention : Reuss Voigt Hill
#
# Bulk Modulus (GPa) = 34.05692 41.93999 37.99846
# Shear Modulus (GPa) = 21.10203 24.45818 22.78011
#
# Velocity S-wave (km/s) = 3.37481 3.63329 3.50643
# Velocity P-wave (km/s) = 5.79373 6.34328 6.07472
#
# Compressibility (1/GPa) = 0.02936261
#
# Stress axis : x y z
#
# Youngs Moduli (GPa) = 48.67771 34.67456 115.01712
#
# Poissons Ratio (x) = 0.28791 0.32404
# Poissons Ratio (y) = 0.40418 0.37230
# Poissons Ratio (z) = 0.13714 0.11224
#
# Static dielectric constant tensor:
#      x y z
#    x 3.250700 0.000000 -0.024180 
#    y 0.000000 3.021410 0.000000 
#    z -0.024180 0.000000 4.108920 
# 
# 
# High freq. dielectric constant tensor:
#      x y z
#    x 1.715580 0.000000 -0.005320 
#    y 0.000000 1.680020 0.000000 
#    z -0.005320 0.000000 1.729560 
# 
# From -- ./inp_files/308581.got.cif
#   From: 2010.06.25/outbox.cif.g09.slc.cpg/sg12_155_cif.got.tgz:308581.got - 2010.06.28 00:19:55.
