data_PCOD8085294
_publ_section_title
;
Structure prediction by ZEFSAII (Michael W. Deem and Ramdas Pophale) SiO2 
 PCOD8085294
Probable space group: C 2/M
;
_chemical_formula_sum "Si O2"
_cell_formula_units_Z 64
_cell_length_a 37.134834
_cell_length_b 13.543696
_cell_length_c 7.833692
_cell_angle_alpha 90.000000
_cell_angle_beta 95.485569
_cell_angle_gamma 90.000000
_cell_volume 3921.856263
_symmetry_space_group_name_H-M "C 2/M"
_symmetry_group_IT_number 12
_symmetry_cell_setting 'monoclinic'
loop_
_space_group_symop_operation_xyz
x,y,z
-x,y,-z
-x,-y,-z
x,-y,z
1/2+x,1/2+y,z
1/2-x,1/2+y,-z
1/2-x,1/2-y,-z
1/2+x,1/2-y,z
loop_
_atom_site_type_symbol
_atom_site_label
_atom_site_fract_x
_atom_site_fract_y
_atom_site_fract_z
Si Si1 0.959342 0.382491 0.487072
Si Si2 0.591808 0.882495 0.841481
Si Si3 0.332709 0.205448 0.119231
Si Si4 0.789322 0.116133 0.126093
Si Si5 0.913176 0.386084 0.775978
Si Si6 0.739946 0.883314 0.787607
Si Si7 0.257947 0.884032 0.581307
Si Si8 0.167188 0.613029 0.238830
O O1 0.959323 0.500000 0.498462
O O2 0.939454 0.350225 0.303551
O O3 0.939458 0.336732 0.646037
O O4 0.000000 0.340311 0.500000
O O5 0.628427 0.829280 0.793620
O O6 0.598636 0.000000 0.845303
O O7 0.581431 0.844579 0.028260
O O8 0.327084 0.323872 0.142200
O O9 0.300975 0.149206 0.202138
O O10 0.329513 0.184318 0.918798
O O11 0.765871 0.158959 0.274373
O O12 0.797626 0.000000 0.137091
O O13 0.766941 0.149144 0.948970
O O14 0.923431 0.500000 0.788633
O O15 0.871965 0.370442 0.691700
O O16 0.754030 0.840998 0.609405
O O17 0.739161 0.000000 0.774539
O O18 0.300696 0.860789 0.617608
O O19 0.251190 0.000000 0.587144
O O20 0.170439 0.500000 0.174298
#
# Coordination Sequence:
#
# PCOD8085294 Si02
#       8
#     8   8   8   8   8   8   8   8
#     4   9  17  28  43  64  91 122 147 164 195 250
#     4   9  18  30  44  65  90 112 144 182 210 249
#     4  11  19  30  47  65  83 115 151 186 225 262
#     4  10  21  36  44  57  87 115 148 193 231 266
#     4   8  15  26  39  58  87 118 144 172 206 239
#     4  10  19  30  46  64  83 111 145 183 227 265
#     4   9  18  30  44  62  85 114 145 183 228 265
#     4   9  16  28  44  63  90 114 141 185 223 254
#
# _framework density 16.318804
#
# number of rings (size 3 to 8) (size 9 to 14) (size 15 to 20)
#    0.000    2.625    1.250    2.250    1.750    1.000 
#    0.000    2.500    0.000    0.000    0.000    0.000 
#    0.000    0.500    0.000    5.500    0.000    2.500 
#
# Total GULP energy -396558.576288 kJ/mol
# GULP energy per Si atom -12392.455509 kJ/mol
# Density = 1.628166 g / cm^3
# Si number density = 16.318804 Si / 1000 Ang^3
#
#
#
# Elastic Constant Matrix: (Units=GPa)
#
#
# Indices 1 2 3 4 5 6 
#
# 1 102.8454 32.4904 54.5900 0.0000 -3.8643 0.0000
# 2 32.4904 25.8629 21.4602 0.0000 2.4558 0.0000
# 3 54.5900 21.4602 109.3079 0.0000 -4.3818 0.0000
# 4 0.0000 0.0000 0.0000 10.4886 0.0000 -2.1837
# 5 -3.8643 2.4558 -4.3818 0.0000 24.4763 0.0000
# 6 0.0000 0.0000 0.0000 -2.1837 0.0000 14.2670
#
#
#
# Elastic Compliance Matrix: (Units=1/GPa)
#
#
# Indices 1 2 3 4 5 6 
#
# 1 0.019000 -0.019722 -0.005457 0.000000 0.004002 0.000000
# 2 -0.019722 0.067646 -0.003856 0.000000 -0.010591 0.000000
# 3 -0.005457 -0.003856 0.012703 0.000000 0.001799 0.000000
# 4 0.000000 0.000000 0.000000 0.098480 0.000000 0.015073
# 5 0.004002 -0.010591 0.001799 0.000000 0.042872 0.000000
# 6 0.000000 0.000000 0.000000 0.015073 0.000000 0.072399
#
#
# Mechanical properties :
#
#
# Convention : Reuss Voigt Hill
#
# Bulk Modulus (GPa) = 24.22453 50.56637 37.39545
# Shear Modulus (GPa) = 12.98936 18.47808 15.73372
#
# Velocity S-wave (km/s) = 2.82436 3.36864 3.10844
# Velocity P-wave (km/s) = 5.05102 6.79589 5.98736
#
# Compressibility (1/GPa) = 0.04128047
#
# Stress axis : x y z
#
# Youngs Moduli (GPa) = 52.63024 14.78281 78.72221
#
# Poissons Ratio (x) = 0.29154 0.42957
# Poissons Ratio (y) = 1.03795 0.30357
# Poissons Ratio (z) = 0.28719 0.05700
#
# Static dielectric constant tensor:
#      x y z
#    x 3.101720 0.000000 -0.115770 
#    y 0.000000 2.733480 0.000000 
#    z -0.115770 0.000000 3.494390 
# 
# 
# High freq. dielectric constant tensor:
#      x y z
#    x 1.605460 0.000000 -0.007380 
#    y 0.000000 1.579960 0.000000 
#    z -0.007380 0.000000 1.643910 
# 
# From -- ./inp_files/111198.got.cif
#   From: 2010.06.25/outbox.cif.g09.slc.cpg/sg12_56_cif.got.tgz:111198.got - 2010.06.28 00:19:55.
