data_PCOD8085870
_publ_section_title
;
Structure prediction by ZEFSAII (Michael W. Deem and Ramdas Pophale) SiO2 
 PCOD8085870
Probable space group: C 2/M
;
_chemical_formula_sum "Si O2"
_cell_formula_units_Z 60
_cell_length_a 26.481132
_cell_length_b 12.530641
_cell_length_c 30.374115
_cell_angle_alpha 90.000000
_cell_angle_beta 18.981728
_cell_angle_gamma 90.000000
_cell_volume 3278.332088
_symmetry_space_group_name_H-M "C 2/M"
_symmetry_group_IT_number 12
_symmetry_cell_setting 'monoclinic'
loop_
_space_group_symop_operation_xyz
x,y,z
-x,y,-z
-x,-y,-z
x,-y,z
1/2+x,1/2+y,z
1/2-x,1/2+y,-z
1/2-x,1/2-y,-z
1/2+x,1/2-y,z
loop_
_atom_site_type_symbol
_atom_site_label
_atom_site_fract_x
_atom_site_fract_y
_atom_site_fract_z
Si Si1 0.500000 0.712321 0.000000
Si Si2 0.248961 0.382014 0.776433
Si Si3 0.075668 0.375598 0.144883
Si Si4 0.755587 0.745853 0.066962
Si Si5 0.057949 0.882163 0.298905
Si Si6 0.773494 0.874929 0.583901
Si Si7 0.833692 0.242040 0.622537
Si Si8 0.466416 0.622817 0.120617
O O1 0.643991 0.791376 0.884337
O O2 0.500802 0.634283 0.957977
O O3 0.169700 0.500000 0.839812
O O4 0.393952 0.386541 0.689479
O O5 0.291816 0.351519 0.691381
O O6 0.081015 0.500000 0.149346
O O7 0.139380 0.319789 0.135865
O O8 0.900846 0.334663 0.281413
O O9 0.181493 0.349792 0.015266
O O10 0.657403 0.700593 0.188724
O O11 0.904217 0.812217 0.959709
O O12 0.875544 0.851837 0.455268
O O13 0.076948 0.000000 0.261785
O O14 0.844766 0.809260 0.565552
O O15 0.773793 0.000000 0.595440
O O16 0.705724 0.335004 0.727119
O O17 0.000000 0.291866 0.500000
O O18 0.476162 0.500000 0.126822
#
# Coordination Sequence:
#
# PCOD8085870 Si02
#       8
#     4   8   8   8   8   8   8   8
#     4  10  20  36  50  78 112 148 178 230 282 334
#     4  10  19  30  51  83 115 146 180 220 271 335
#     4  10  22  39  61  85 111 148 193 239 291 344
#     4  11  21  39  61  85 113 148 192 244 290 337
#     4  10  20  34  56  86 122 152 182 229 286 342
#     4  10  20  36  57  87 122 153 185 228 283 344
#     4  11  21  35  56  82 116 155 192 226 277 339
#     4  11  23  38  57  80 109 151 198 242 284 331
#
# _framework density 18.30199
#
# number of rings (size 3 to 8) (size 9 to 14) (size 15 to 20)
#    0.000    1.600    4.000    1.600    0.000    1.333 
#    0.000    0.000    0.000    1.600    0.000    0.000 
#    0.000    0.000    0.000    0.000    0.000    0.000 
#
# Total GULP energy -371891.577603 kJ/mol
# GULP energy per Si atom -12396.385920 kJ/mol
# Density = 1.826033 g / cm^3
# Si number density = 18.301990 Si / 1000 Ang^3
#
#
#
# Elastic Constant Matrix: (Units=GPa)
#
#
# Indices 1 2 3 4 5 6 
#
# 1 83.0623 35.5113 44.9461 -0.1220 -5.7903 -0.0265
# 2 35.5113 86.1180 45.4006 -0.2359 2.2210 -0.0555
# 3 44.9461 45.4006 117.6950 -0.4701 -6.3010 -0.0359
# 4 -0.1220 -0.2359 -0.4701 27.0173 0.1595 -3.1201
# 5 -5.7903 2.2210 -6.3010 0.1595 29.7745 0.0562
# 6 -0.0265 -0.0555 -0.0359 -3.1201 0.0562 20.1005
#
#
#
# Elastic Compliance Matrix: (Units=1/GPa)
#
#
# Indices 1 2 3 4 5 6 
#
# 1 0.016570 -0.004567 -0.004425 -0.000059 0.002627 -0.000015
# 2 -0.004567 0.015993 -0.004588 0.000063 -0.003053 0.000048
# 3 -0.004425 -0.004588 0.012066 0.000140 0.002034 0.000019
# 4 -0.000059 0.000063 0.000140 0.037693 -0.000200 0.005852
# 5 0.002627 -0.003053 0.002034 -0.000200 0.034756 -0.000129
# 6 -0.000015 0.000048 0.000019 0.005852 -0.000129 0.050659
#
#
# Mechanical properties :
#
#
# Convention : Reuss Voigt Hill
#
# Bulk Modulus (GPa) = 57.25262 59.84346 58.54804
# Shear Modulus (GPa) = 24.91020 26.11295 25.51157
#
# Velocity S-wave (km/s) = 3.69326 3.78137 3.73758
# Velocity P-wave (km/s) = 7.03825 7.19957 7.11937
#
# Compressibility (1/GPa) = 0.01746645
#
# Stress axis : x y z
#
# Youngs Moduli (GPa) = 60.35182 62.52650 82.87804
#
# Poissons Ratio (x) = 0.28559 0.36677
# Poissons Ratio (y) = 0.27565 0.38027
# Poissons Ratio (z) = 0.26708 0.28689
#
# Static dielectric constant tensor:
#      x y z
#    x 3.295870 0.000040 -0.108670 
#    y 0.000040 3.182350 0.000100 
#    z -0.108670 0.000100 3.582830 
# 
# 
# High freq. dielectric constant tensor:
#      x y z
#    x 1.704990 0.000000 -0.004780 
#    y 0.000000 1.695020 0.000030 
#    z -0.004780 0.000030 1.722200 
# 
# From -- ./inp_files/383926.got.cif
#   From: 2010.06.25/outbox.cif.g09.slc.cpg/sg12_192_cif.got.tgz:383926.got - 2010.06.28 00:19:55.
