data_PCOD8085641
_publ_section_title
;
Structure prediction by ZEFSAII (Michael W. Deem and Ramdas Pophale) SiO2 
 PCOD8085641
Probable space group: C 2/M
;
_chemical_formula_sum "Si O2"
_cell_formula_units_Z 56
_cell_length_a 19.196408
_cell_length_b 8.866681
_cell_length_c 31.222543
_cell_angle_alpha 90.000000
_cell_angle_beta 34.466984
_cell_angle_gamma 90.000000
_cell_volume 3007.551025
_symmetry_space_group_name_H-M "C 2/M"
_symmetry_group_IT_number 12
_symmetry_cell_setting 'monoclinic'
loop_
_space_group_symop_operation_xyz
x,y,z
-x,y,-z
-x,-y,-z
x,-y,z
1/2+x,1/2+y,z
1/2-x,1/2+y,-z
1/2-x,1/2-y,-z
1/2+x,1/2-y,z
loop_
_atom_site_type_symbol
_atom_site_label
_atom_site_fract_x
_atom_site_fract_y
_atom_site_fract_z
Si Si1 0.610634 0.826800 0.687180
Si Si2 0.142802 0.821905 0.581753
Si Si3 0.757647 0.327127 0.059192
Si Si4 0.174138 0.825249 0.741268
Si Si5 0.826288 0.328716 0.820398
Si Si6 0.554981 0.827020 0.105730
Si Si7 0.109435 0.324973 0.305131
O O1 0.657104 0.731934 0.623277
O O2 0.677243 0.766686 0.695772
O O3 0.465029 0.808282 0.767311
O O4 0.647303 0.000000 0.661166
O O5 0.250000 0.750000 0.500000
O O6 0.013164 0.772179 0.626917
O O7 0.153790 0.000000 0.574552
O O8 0.714463 0.500000 0.077231
O O9 0.763818 0.277100 0.105788
O O10 0.658770 0.220481 0.086731
O O11 0.891282 0.305469 0.969530
O O12 0.304134 0.795830 0.698219
O O13 0.066594 0.772461 0.827767
O O14 0.154028 0.000000 0.741129
O O15 0.781123 0.500000 0.848214
O O16 0.819532 0.276494 0.774372
O O17 0.520620 0.000000 0.132630
O O18 0.070624 0.500000 0.320126
#
# Coordination Sequence:
#
# PCOD8085641 Si02
#       7
#     8   8   8   8   8   8   8
#     4  10  20  35  57  84 114 146 182 225 271 323
#     4  11  22  39  64  90 115 145 181 220 265 320
#     4  10  19  30  48  74 103 138 188 238 279 325
#     4  11  21  35  56  82 111 146 187 229 275 330
#     4   9  17  32  53  75 104 142 182 228 278 326
#     4  10  20  32  47  72 107 145 181 231 287 329
#     4   9  21  39  57  81 114 147 181 225 276 328
#
# _framework density 18.619800999999999
#
# number of rings (size 3 to 8) (size 9 to 14) (size 15 to 20)
#    0.000    2.000    1.429    3.857    0.000    5.143 
#    0.000    1.429    0.000    8.571    0.000    0.000 
#    0.000    0.000    0.000    0.000    0.000    0.000 
#
# Total GULP energy -347256.003885 kJ/mol
# GULP energy per Si atom -12402.000139 kJ/mol
# Density = 1.857742 g / cm^3
# Si number density = 18.619801 Si / 1000 Ang^3
#
#
#
# Elastic Constant Matrix: (Units=GPa)
#
#
# Indices 1 2 3 4 5 6 
#
# 1 87.6219 42.0421 34.6900 0.0017 5.9604 0.0175
# 2 42.0421 107.8904 50.9087 0.0123 1.3618 0.0130
# 3 34.6900 50.9087 106.2615 0.0003 9.4809 0.0049
# 4 0.0017 0.0123 0.0003 34.4798 -0.0015 3.6701
# 5 5.9604 1.3618 9.4809 -0.0015 16.7349 0.0026
# 6 0.0175 0.0130 0.0049 3.6701 0.0026 27.6884
#
#
#
# Elastic Compliance Matrix: (Units=1/GPa)
#
#
# Indices 1 2 3 4 5 6 
#
# 1 0.014787 -0.004639 -0.002284 0.000002 -0.003595 -0.000007
# 2 -0.004639 0.013523 -0.005281 -0.000004 0.003543 -0.000002
# 3 -0.002284 -0.005281 0.013245 0.000001 -0.006260 0.000002
# 4 0.000002 -0.000004 0.000001 0.029418 0.000002 -0.003899
# 5 -0.003595 0.003543 -0.006260 0.000002 0.064294 -0.000005
# 6 -0.000007 -0.000002 0.000002 -0.003899 -0.000005 0.036633
#
#
# Mechanical properties :
#
#
# Convention : Reuss Voigt Hill
#
# Bulk Modulus (GPa) = 58.31593 61.89505 60.10549
# Shear Modulus (GPa) = 24.74952 27.38949 26.06951
#
# Velocity S-wave (km/s) = 3.64978 3.83951 3.74584
# Velocity P-wave (km/s) = 7.01060 7.27801 7.14556
#
# Compressibility (1/GPa) = 0.01714797
#
# Stress axis : x y z
#
# Youngs Moduli (GPa) = 67.62487 73.94628 75.50102
#
# Poissons Ratio (x) = 0.34304 0.17246
# Poissons Ratio (y) = 0.31372 0.39869
# Poissons Ratio (z) = 0.15447 0.39048
#
# Static dielectric constant tensor:
#      x y z
#    x 3.241590 0.000000 0.201200 
#    y 0.000000 3.485890 0.000010 
#    z 0.201200 0.000010 3.462150 
# 
# 
# High freq. dielectric constant tensor:
#      x y z
#    x 1.702200 0.000000 0.019800 
#    y 0.000000 1.733350 0.000000 
#    z 0.019800 0.000000 1.715850 
# 
# From -- ./inp_files/377643.got.cif
#   From: 2010.06.25/outbox.cif.g09.slc.cpg/sg12_189_cif.got.tgz:377643.got - 2010.06.28 00:19:55.
