data_PCOD8085170
_publ_section_title
;
Structure prediction by ZEFSAII (Michael W. Deem and Ramdas Pophale) SiO2 
 PCOD8085170
Probable space group: C 2/M
;
_chemical_formula_sum "Si O2"
_cell_formula_units_Z 48
_cell_length_a 23.655900
_cell_length_b 9.216392
_cell_length_c 13.822581
_cell_angle_alpha 90.000000
_cell_angle_beta 107.578364
_cell_angle_gamma 90.000000
_cell_volume 2872.905418
_symmetry_space_group_name_H-M "C 2/M"
_symmetry_group_IT_number 12
_symmetry_cell_setting 'monoclinic'
loop_
_space_group_symop_operation_xyz
x,y,z
-x,y,-z
-x,-y,-z
x,-y,z
1/2+x,1/2+y,z
1/2-x,1/2+y,-z
1/2-x,1/2-y,-z
1/2+x,1/2-y,z
loop_
_atom_site_type_symbol
_atom_site_label
_atom_site_fract_x
_atom_site_fract_y
_atom_site_fract_z
Si Si1 0.877266 0.328890 0.867917
Si Si2 0.434296 0.335075 0.062833
Si Si3 0.481491 0.673190 0.386838
Si Si4 0.755217 0.329206 0.900599
Si Si5 0.371158 0.670546 0.218533
Si Si6 0.946976 0.836013 0.760330
O O1 0.881858 0.500000 0.862449
O O2 0.812141 0.277893 0.869224
O O3 0.892146 0.261531 0.770030
O O4 0.926030 0.269892 0.967811
O O5 0.417215 0.500000 0.024383
O O6 0.391477 0.271815 0.124259
O O7 0.501607 0.330241 0.132946
O O8 0.500000 0.739786 0.500000
O O9 0.481738 0.500000 0.390987
O O10 0.415091 0.731820 0.325047
O O11 0.528463 0.724550 0.329435
O O12 0.757357 0.500000 0.923457
O O13 0.697980 0.289384 0.803725
O O14 0.750000 0.250000 0.000000
O O15 0.382066 0.500000 0.222227
O O16 0.924006 0.000000 0.735458
#
# Coordination Sequence:
#
# PCOD8085170 Si02
#       6
#     8   8   8   8   8   8
#     4  11  21  28  39  63  93 124 153 180 213 260
#     4   9  16  28  45  62  85 120 154 181 216 264
#     4   8  14  27  50  75  89 102 141 199 240 265
#     4  10  19  30  44  63  90 125 159 183 213 259
#     4   8  14  26  44  65  89 115 145 186 229 262
#     4   9  18  30  45  66  89 116 148 182 227 273
#
# _framework density 16.707823999999999
#
# number of rings (size 3 to 8) (size 9 to 14) (size 15 to 20)
#    0.000    2.833    1.667    3.000    0.000    3.333 
#    0.000    0.000    0.000    1.500    0.000    0.000 
#    0.000    0.000    0.000    0.000    0.000    0.167 
#
# Total GULP energy -297398.251550 kJ/mol
# GULP energy per Si atom -12391.593815 kJ/mol
# Density = 1.666980 g / cm^3
# Si number density = 16.707824 Si / 1000 Ang^3
#
#
#
# Elastic Constant Matrix: (Units=GPa)
#
#
# Indices 1 2 3 4 5 6 
#
# 1 118.4093 35.6316 59.1732 0.0000 -13.2155 0.0000
# 2 35.6316 38.9396 23.5140 0.0000 -5.1933 0.0000
# 3 59.1732 23.5140 104.9111 0.0000 -6.3804 0.0000
# 4 0.0000 0.0000 0.0000 9.0047 0.0000 -3.2412
# 5 -13.2155 -5.1933 -6.3804 0.0000 15.9521 0.0000
# 6 0.0000 0.0000 0.0000 -3.2412 0.0000 22.7706
#
#
#
# Elastic Compliance Matrix: (Units=1/GPa)
#
#
# Indices 1 2 3 4 5 6 
#
# 1 0.014964 -0.009156 -0.005960 0.000000 0.007032 0.000000
# 2 -0.009156 0.036127 -0.002746 0.000000 0.003078 0.000000
# 3 -0.005960 -0.002746 0.013482 0.000000 -0.000439 0.000000
# 4 0.000000 0.000000 0.000000 0.117050 0.000000 0.016661
# 5 0.007032 0.003078 -0.000439 0.000000 0.069340 0.000000
# 6 0.000000 0.000000 0.000000 0.016661 0.000000 0.046288
#
#
# Mechanical properties :
#
#
# Convention : Reuss Voigt Hill
#
# Bulk Modulus (GPa) = 34.66243 55.43305 45.04774
# Shear Modulus (GPa) = 14.59463 19.14157 16.86810
#
# Velocity S-wave (km/s) = 2.95874 3.38844 3.18086
# Velocity P-wave (km/s) = 5.69767 6.96840 6.36483
#
# Compressibility (1/GPa) = 0.02884968
#
# Stress axis : x y z
#
# Youngs Moduli (GPa) = 66.82805 27.67993 74.17042
#
# Poissons Ratio (x) = 0.25342 0.44208
# Poissons Ratio (y) = 0.61184 0.20368
# Poissons Ratio (z) = 0.39832 0.07601
#
# Static dielectric constant tensor:
#      x y z
#    x 3.400040 0.000000 0.016610 
#    y 0.000000 2.819980 0.000000 
#    z 0.016610 0.000000 3.188920 
# 
# 
# High freq. dielectric constant tensor:
#      x y z
#    x 1.650350 0.000000 -0.005010 
#    y 0.000000 1.607270 0.000000 
#    z -0.005010 0.000000 1.614080 
# 
# From -- ./inp_files/236849.got.cif
#   From: 2010.06.25/outbox.cif.g09.slc.cpg/sg12_119_cif.got.tgz:236849.got - 2010.06.28 00:19:55.
