data_PCOD8085106
_publ_section_title
;
Structure prediction by ZEFSAII (Michael W. Deem and Ramdas Pophale) SiO2 
 PCOD8085106
Probable space group: C 2/M
;
_chemical_formula_sum "Si O2"
_cell_formula_units_Z 64
_cell_length_a 19.597800
_cell_length_b 22.588849
_cell_length_c 11.072852
_cell_angle_alpha 90.000000
_cell_angle_beta 136.478187
_cell_angle_gamma 90.000000
_cell_volume 3375.571315
_symmetry_space_group_name_H-M "C 2/M"
_symmetry_group_IT_number 12
_symmetry_cell_setting 'monoclinic'
loop_
_space_group_symop_operation_xyz
x,y,z
-x,y,-z
-x,-y,-z
x,-y,z
1/2+x,1/2+y,z
1/2-x,1/2+y,-z
1/2-x,1/2-y,-z
1/2+x,1/2-y,z
loop_
_atom_site_type_symbol
_atom_site_label
_atom_site_fract_x
_atom_site_fract_y
_atom_site_fract_z
Si Si1 0.593884 0.862603 0.558460
Si Si2 0.792239 0.569400 0.497041
Si Si3 0.892618 0.359609 0.832718
Si Si4 0.216078 0.172784 0.056626
Si Si5 0.887654 0.874360 0.860894
Si Si6 0.233985 0.303693 0.133520
Si Si7 0.573831 0.267764 0.491963
Si Si8 0.364927 0.738383 0.679708
O O1 0.500000 0.894943 0.500000
O O2 0.634167 0.906879 0.510489
O O3 0.673227 0.841211 0.758007
O O4 0.554618 0.801993 0.448758
O O5 0.804162 0.500000 0.524579
O O6 0.821388 0.597414 0.663325
O O7 0.680035 0.584104 0.310841
O O8 0.841648 0.346925 0.896055
O O9 0.912308 0.299529 0.784168
O O10 0.000000 0.388774 0.000000
O O11 0.144058 0.128372 0.038289
O O12 0.183470 0.242004 0.025681
O O13 0.216763 0.159736 0.914216
O O14 0.872294 0.807189 0.798475
O O15 0.000000 0.897547 0.000000
O O16 0.315573 0.284306 0.333339
O O17 0.500000 0.294735 0.500000
O O18 0.568773 0.289719 0.345744
O O19 0.250000 0.750000 0.500000
#
# Coordination Sequence:
#
# PCOD8085106 Si02
#       8
#     8   8   8   8   8   8   8   8
#     4   9  18  34  55  78 106 150 189 240 290 333
#     4  11  24  43  61  80 111 151 208 259 287 338
#     4  12  24  36  60  85 115 160 193 238 300 349
#     4   9  19  31  50  84 123 148 181 221 284 355
#     4  11  22  37  61  90 117 154 189 241 293 352
#     4  10  19  32  48  83 123 151 181 227 277 357
#     4  10  19  29  52  80 118 157 183 222 283 350
#     4  12  18  36  56  84 124 154 186 225 289 357
#
# _framework density 18.959752999999999
#
# number of rings (size 3 to 8) (size 9 to 14) (size 15 to 20)
#    0.000    1.500    5.000    1.125    3.500    1.750 
#    0.000    0.000    0.000    0.750    0.000    0.875 
#    0.000    0.000    0.000    0.000    0.000    0.000 
#
# Total GULP energy -396539.100996 kJ/mol
# GULP energy per Si atom -12391.846906 kJ/mol
# Density = 1.891660 g / cm^3
# Si number density = 18.959753 Si / 1000 Ang^3
#
#
#
# Elastic Constant Matrix: (Units=GPa)
#
#
# Indices 1 2 3 4 5 6 
#
# 1 143.5107 24.5943 51.6016 0.0000 -7.7933 0.0000
# 2 24.5943 66.2588 20.9528 0.0000 -3.9866 0.0000
# 3 51.6016 20.9528 71.4088 0.0000 -0.4479 0.0000
# 4 0.0000 0.0000 0.0000 10.3491 0.0000 -0.4928
# 5 -7.7933 -3.9866 -0.4479 0.0000 39.5477 0.0000
# 6 0.0000 0.0000 0.0000 -0.4928 0.0000 12.5674
#
#
#
# Elastic Compliance Matrix: (Units=1/GPa)
#
#
# Indices 1 2 3 4 5 6 
#
# 1 0.009658 -0.001411 -0.006555 0.000000 0.001687 0.000000
# 2 -0.001411 0.016947 -0.003944 0.000000 0.001386 0.000000
# 3 -0.006555 -0.003944 0.019889 0.000000 -0.001464 0.000000
# 4 0.000000 0.000000 0.000000 0.096808 0.000000 0.003796
# 5 0.001687 0.001386 -0.001464 0.000000 0.025741 0.000000
# 6 0.000000 0.000000 0.000000 0.003796 0.000000 0.079720
#
#
# Mechanical properties :
#
#
# Convention : Reuss Voigt Hill
#
# Bulk Modulus (GPa) = 44.10361 52.83062 48.46711
# Shear Modulus (GPa) = 17.84819 24.76147 21.30483
#
# Velocity S-wave (km/s) = 3.07151 3.61779 3.35578
# Velocity P-wave (km/s) = 5.99092 6.73619 6.37445
#
# Compressibility (1/GPa) = 0.02267388
#
# Stress axis : x y z
#
# Youngs Moduli (GPa) = 103.53676 59.00863 50.27969
#
# Poissons Ratio (x) = 0.08325 0.32958
# Poissons Ratio (y) = 0.14606 0.19832
# Poissons Ratio (z) = 0.67867 0.23275
#
# Static dielectric constant tensor:
#      x y z
#    x 3.882690 0.000000 -0.041610 
#    y 0.000000 2.938350 0.000000 
#    z -0.041610 0.000000 3.563170 
# 
# 
# High freq. dielectric constant tensor:
#      x y z
#    x 1.755570 0.000000 -0.006710 
#    y 0.000000 1.665240 0.000000 
#    z -0.006710 0.000000 1.739390 
# 
# From -- ./inp_files/170179.got.cif
#   From: 2010.06.25/outbox.cif.g09.slc.cpg/sg12_86_cif.got.tgz:170179.got - 2010.06.28 00:19:55.
