data_PCOD8085989
_publ_section_title
;
Structure prediction by ZEFSAII (Michael W. Deem and Ramdas Pophale) SiO2 
 PCOD8085989
Probable space group: C 2/M
;
_chemical_formula_sum "Si O2"
_cell_formula_units_Z 64
_cell_length_a 22.640160
_cell_length_b 13.858648
_cell_length_c 12.210985
_cell_angle_alpha 90.000000
_cell_angle_beta 69.036034
_cell_angle_gamma 90.000000
_cell_volume 3577.729803
_symmetry_space_group_name_H-M "C 2/M"
_symmetry_group_IT_number 12
_symmetry_cell_setting 'monoclinic'
loop_
_space_group_symop_operation_xyz
x,y,z
-x,y,-z
-x,-y,-z
x,-y,z
1/2+x,1/2+y,z
1/2-x,1/2+y,-z
1/2-x,1/2-y,-z
1/2+x,1/2-y,z
loop_
_atom_site_type_symbol
_atom_site_label
_atom_site_fract_x
_atom_site_fract_y
_atom_site_fract_z
Si Si1 0.247146 0.113058 0.285301
Si Si2 0.690206 0.388424 0.859770
Si Si3 0.817881 0.231389 0.504354
Si Si4 0.631678 0.239759 0.750363
Si Si5 0.511470 0.890717 0.864769
Si Si6 0.673801 0.890534 0.335200
Si Si7 0.381639 0.113682 0.855672
Si Si8 0.252991 0.886067 0.036046
O O1 0.189101 0.144330 0.402782
O O2 0.312079 0.162975 0.276325
O O3 0.229630 0.144478 0.172193
O O4 0.257934 0.000000 0.286914
O O5 0.667978 0.500000 0.874926
O O6 0.635957 0.322429 0.840930
O O7 0.753142 0.375216 0.745544
O O8 0.704496 0.349795 0.973932
O O9 0.750000 0.250000 0.500000
O O10 0.865089 0.209095 0.372180
O O11 0.843691 0.325637 0.549645
O O12 0.566859 0.182819 0.800919
O O13 0.448938 0.845162 0.849693
O O14 0.526621 0.000000 0.812535
O O15 0.500000 0.894820 0.000000
O O16 0.628901 0.860897 0.264338
O O17 0.661403 0.000000 0.378866
O O18 0.382856 0.000000 0.873788
O O19 0.323453 0.156262 0.966645
O O20 0.256845 0.000000 0.019464
#
# Coordination Sequence:
#
# PCOD8085989 Si02
#       8
#     8   8   8   8   8   8   8   8
#     4  10  19  31  46  71 107 140 165 203 258 313
#     4   9  17  31  51  76 105 134 166 210 261 309
#     4  10  20  32  43  72 105 137 173 207 245 310
#     4  11  21  33  48  76 106 136 175 210 251 310
#     4  10  20  35  53  76 107 138 171 212 257 308
#     4   9  16  31  51  71 102 137 170 210 253 302
#     4   8  15  29  50  73  98 135 173 205 252 303
#     4   8  15  29  50  76 105 132 163 204 254 311
#
# _framework density 17.888439999999999
#
# number of rings (size 3 to 8) (size 9 to 14) (size 15 to 20)
#    0.000    2.625    2.500    2.625    0.000    5.500 
#    2.250    0.625    0.000    2.625    0.000    0.875 
#    0.000    2.000    0.000    0.000    0.000    0.000 
#
# Total GULP energy -396600.632686 kJ/mol
# GULP energy per Si atom -12393.769771 kJ/mol
# Density = 1.784772 g / cm^3
# Si number density = 17.888440 Si / 1000 Ang^3
#
#
#
# Elastic Constant Matrix: (Units=GPa)
#
#
# Indices 1 2 3 4 5 6 
#
# 1 71.5118 47.4360 42.4518 0.0000 15.8562 0.0000
# 2 47.4360 66.5533 41.6336 0.0000 5.0740 0.0000
# 3 42.4518 41.6336 109.0235 0.0000 14.4129 0.0000
# 4 0.0000 0.0000 0.0000 28.3216 0.0000 2.8079
# 5 15.8562 5.0740 14.4129 0.0000 21.1318 0.0000
# 6 0.0000 0.0000 0.0000 2.8079 0.0000 20.0131
#
#
#
# Elastic Compliance Matrix: (Units=1/GPa)
#
#
# Indices 1 2 3 4 5 6 
#
# 1 0.033346 -0.020710 -0.002666 0.000000 -0.018230 0.000000
# 2 -0.020710 0.032608 -0.005943 0.000000 0.011764 0.000000
# 3 -0.002666 -0.005943 0.013219 0.000000 -0.005589 0.000000
# 4 0.000000 0.000000 0.000000 0.035807 0.000000 -0.005024
# 5 -0.018230 0.011764 -0.005589 0.000000 0.061988 0.000000
# 6 0.000000 0.000000 0.000000 -0.005024 0.000000 0.050672
#
#
# Mechanical properties :
#
#
# Convention : Reuss Voigt Hill
#
# Bulk Modulus (GPa) = 48.69814 56.68124 52.68969
# Shear Modulus (GPa) = 17.05783 21.59780 19.32781
#
# Velocity S-wave (km/s) = 3.09134 3.47848 3.29061
# Velocity P-wave (km/s) = 6.32647 6.92010 6.62993
#
# Compressibility (1/GPa) = 0.02053466
#
# Stress axis : x y z
#
# Youngs Moduli (GPa) = 29.98892 30.66777 75.65075
#
# Poissons Ratio (x) = 0.63512 0.20165
# Poissons Ratio (y) = 0.62106 0.44961
# Poissons Ratio (z) = 0.07994 0.18226
#
# Static dielectric constant tensor:
#      x y z
#    x 3.146550 0.000000 0.199540 
#    y 0.000000 3.285310 0.000000 
#    z 0.199540 0.000000 3.700770 
# 
# 
# High freq. dielectric constant tensor:
#      x y z
#    x 1.655520 0.000000 0.032460 
#    y 0.000000 1.683510 0.000000 
#    z 0.032460 0.000000 1.690830 
# 
# From -- ./inp_files/167240.got.cif
#   From: 2010.06.25/outbox.cif.g09.slc.cpg/sg12_84_cif.got.tgz:167240.got - 2010.06.28 00:19:55.
