data_PCOD8085552
_publ_section_title
;
Structure prediction by ZEFSAII (Michael W. Deem and Ramdas Pophale) SiO2 
 PCOD8085552
Probable space group: C 2/M
;
_chemical_formula_sum "Si O2"
_cell_formula_units_Z 64
_cell_length_a 23.236388
_cell_length_b 8.604336
_cell_length_c 22.227928
_cell_angle_alpha 90.000000
_cell_angle_beta 125.345886
_cell_angle_gamma 90.000000
_cell_volume 3624.948754
_symmetry_space_group_name_H-M "C 2/M"
_symmetry_group_IT_number 12
_symmetry_cell_setting 'monoclinic'
loop_
_space_group_symop_operation_xyz
x,y,z
-x,y,-z
-x,-y,-z
x,-y,z
1/2+x,1/2+y,z
1/2-x,1/2+y,-z
1/2-x,1/2-y,-z
1/2+x,1/2-y,z
loop_
_atom_site_type_symbol
_atom_site_label
_atom_site_fract_x
_atom_site_fract_y
_atom_site_fract_z
Si Si1 0.066184 0.182383 0.378437
Si Si2 0.204868 0.317807 0.418625
Si Si3 0.708181 0.317858 0.644412
Si Si4 0.571937 0.181392 0.511473
Si Si5 0.275797 0.815437 0.220831
Si Si6 0.791128 0.821871 0.935677
Si Si7 0.658352 0.319089 0.914564
Si Si8 0.085942 0.819176 0.753589
O O1 0.124869 0.258047 0.371287
O O2 0.082028 0.222366 0.456871
O O3 0.989781 0.246815 0.312417
O O4 0.070246 0.000000 0.371678
O O5 0.205325 0.500000 0.426711
O O6 0.250000 0.250000 0.500000
O O7 0.238354 0.266342 0.375590
O O8 0.692025 0.500000 0.632407
O O9 0.635231 0.224198 0.594372
O O10 0.742842 0.270672 0.728653
O O11 0.500000 0.232181 0.500000
O O12 0.572438 0.000000 0.496156
O O13 0.217904 0.747927 0.136687
O O14 0.354528 0.774829 0.246068
O O15 0.271090 0.000000 0.227064
O O16 0.718571 0.793209 0.926629
O O17 0.800210 0.000000 0.926239
O O18 0.853540 0.771562 0.021141
O O19 0.683042 0.500000 0.927438
O O20 0.591414 0.296272 0.829900
O O21 0.094115 0.000000 0.741208
#
# Coordination Sequence:
#
# PCOD8085552 Si02
#       8
#     8   8   8   8   8   8   8   8
#     4  11  22  35  52  74  99 129 163 201 246 292
#     4  11  23  39  58  75  92 120 162 210 254 294
#     4  11  23  37  53  72  94 125 162 202 248 294
#     4  11  23  36  52  74  99 129 162 196 239 290
#     4  10  19  30  47  73 104 134 163 200 244 290
#     4   8  14  24  40  65  96 129 163 196 233 279
#     4   8  13  24  42  64  94 131 165 195 230 278
#     4   9  18  31  48  72 103 136 166 198 239 289
#
# _framework density 17.655422000000002
#
# number of rings (size 3 to 8) (size 9 to 14) (size 15 to 20)
#    0.000    2.125    1.250    2.625    0.000    6.000 
#    0.000    0.000    0.000    0.000    0.000    0.875 
#    0.000    7.000    0.000    0.000    0.000    0.000 
#
# Total GULP energy -396479.677941 kJ/mol
# GULP energy per Si atom -12389.989936 kJ/mol
# Density = 1.761524 g / cm^3
# Si number density = 17.655422 Si / 1000 Ang^3
#
#
#
# Elastic Constant Matrix: (Units=GPa)
#
#
# Indices 1 2 3 4 5 6 
#
# 1 76.9680 24.2077 32.3615 0.0000 -20.3619 0.0000
# 2 24.2077 35.3742 12.4962 0.0000 -6.7888 0.0000
# 3 32.3615 12.4962 120.8295 0.0000 -30.8804 0.0000
# 4 0.0000 0.0000 0.0000 21.6710 0.0000 -2.3148
# 5 -20.3619 -6.7888 -30.8804 0.0000 19.5932 0.0000
# 6 0.0000 0.0000 0.0000 -2.3148 0.0000 22.4313
#
#
#
# Elastic Compliance Matrix: (Units=1/GPa)
#
#
# Indices 1 2 3 4 5 6 
#
# 1 0.021326 -0.011088 0.000196 0.000000 0.018630 0.000000
# 2 -0.011088 0.036089 -0.000857 0.000000 -0.000369 0.000000
# 3 0.000196 -0.000857 0.013879 0.000000 0.021781 0.000000
# 4 0.000000 0.000000 0.000000 0.046659 0.000000 0.004815
# 5 0.018630 -0.000369 0.021781 0.000000 0.104600 0.000000
# 6 0.000000 0.000000 0.000000 0.004815 0.000000 0.045077
#
#
# Mechanical properties :
#
#
# Convention : Reuss Voigt Hill
#
# Bulk Modulus (GPa) = 20.92216 41.25584 31.08900
# Shear Modulus (GPa) = 16.28354 23.67953 19.98153
#
# Velocity S-wave (km/s) = 3.04023 3.66622 3.36780
# Velocity P-wave (km/s) = 4.91935 6.42958 5.72449
#
# Compressibility (1/GPa) = 0.04779622
#
# Stress axis : x y z
#
# Youngs Moduli (GPa) = 46.89159 27.70939 72.05267
#
# Poissons Ratio (x) = 0.30724 -0.01415
# Poissons Ratio (y) = 0.51993 0.06175
# Poissons Ratio (z) = -0.00921 0.02375
#
# Static dielectric constant tensor:
#      x y z
#    x 3.055560 0.000000 -0.108530 
#    y 0.000000 3.254490 0.000000 
#    z -0.108530 0.000000 3.878570 
# 
# 
# High freq. dielectric constant tensor:
#      x y z
#    x 1.633360 0.000000 -0.015340 
#    y 0.000000 1.685640 0.000000 
#    z -0.015340 0.000000 1.703630 
# 
# From -- ./inp_files/320057.got.cif
#   From: 2010.06.25/outbox.cif.g09.slc.cpg/sg12_161_cif.got.tgz:320057.got - 2010.06.28 00:19:55.
