data_PCOD8085096
_publ_section_title
;
Structure prediction by ZEFSAII (Michael W. Deem and Ramdas Pophale) SiO2 
 PCOD8085096
Probable space group: C 2/M
;
_chemical_formula_sum "Si O2"
_cell_formula_units_Z 64
_cell_length_a 20.047565
_cell_length_b 9.204118
_cell_length_c 21.353076
_cell_angle_alpha 90.000000
_cell_angle_beta 111.383711
_cell_angle_gamma 90.000000
_cell_volume 3668.836328
_symmetry_space_group_name_H-M "C 2/M"
_symmetry_group_IT_number 12
_symmetry_cell_setting 'monoclinic'
loop_
_space_group_symop_operation_xyz
x,y,z
-x,y,-z
-x,-y,-z
x,-y,z
1/2+x,1/2+y,z
1/2-x,1/2+y,-z
1/2-x,1/2-y,-z
1/2+x,1/2-y,z
loop_
_atom_site_type_symbol
_atom_site_label
_atom_site_fract_x
_atom_site_fract_y
_atom_site_fract_z
Si Si1 0.576678 0.332990 0.547336
Si Si2 0.628486 0.659899 0.800028
Si Si3 0.318341 0.671472 0.050500
Si Si4 0.968941 0.161714 0.796387
Si Si5 0.323467 0.669143 0.536820
Si Si6 0.529248 0.326864 0.944404
Si Si7 0.582088 0.167988 0.672555
Si Si8 0.923205 0.330111 0.666352
O O1 0.500000 0.270306 0.500000
O O2 0.568906 0.500000 0.565138
O O3 0.631326 0.310624 0.510207
O O4 0.604748 0.244015 0.616131
O O5 0.651845 0.500000 0.784163
O O6 0.678494 0.710739 0.874545
O O7 0.548504 0.650777 0.797752
O O8 0.633988 0.772236 0.744790
O O9 0.310810 0.500000 0.038209
O O10 0.389966 0.729988 0.040097
O O11 0.250000 0.750000 0.000000
O O12 0.923102 0.271647 0.737810
O O13 0.975094 0.221938 0.869874
O O14 0.934054 0.000000 0.782605
O O15 0.310910 0.500000 0.547974
O O16 0.250000 0.750000 0.500000
O O17 0.362947 0.743102 0.608553
O O18 0.530783 0.500000 0.945616
O O19 0.500000 0.263003 0.000000
O O20 0.499268 0.200427 0.659611
O O21 0.598041 0.000000 0.671009
O O22 0.904430 0.500000 0.660646
#
# Coordination Sequence:
#
# PCOD8085096 Si02
#       8
#     8   8   8   8   8   8   8   8
#     4  10  20  35  55  78 102 132 167 201 247 304
#     4   8  15  28  45  67  97 131 167 202 244 299
#     4   9  17  29  48  73  99 131 166 203 246 297
#     4   8  14  26  47  72  95 124 165 208 247 291
#     4  11  23  38  56  76 102 135 169 205 247 300
#     4   8  14  27  49  75  99 125 163 208 249 290
#     4  10  19  29  49  79 105 127 161 215 258 285
#     4  10  19  31  49  75 104 132 165 207 253 296
#
# _framework density 17.444223000000001
#
# number of rings (size 3 to 8) (size 9 to 14) (size 15 to 20)
#    0.000    2.750    1.250    2.625    0.000    2.750 
#    0.000    1.875    2.750    1.500    0.000    0.000 
#    0.000    0.000    0.000    0.000    0.000    0.000 
#
# Total GULP energy -396699.143175 kJ/mol
# GULP energy per Si atom -12396.848224 kJ/mol
# Density = 1.740452 g / cm^3
# Si number density = 17.444223 Si / 1000 Ang^3
#
#
#
# Elastic Constant Matrix: (Units=GPa)
#
#
# Indices 1 2 3 4 5 6 
#
# 1 54.6783 38.3739 50.0212 0.0000 3.4762 0.0000
# 2 38.3739 90.2181 77.4569 0.0000 3.5114 0.0000
# 3 50.0212 77.4569 169.1706 0.0000 -0.9050 0.0000
# 4 0.0000 0.0000 0.0000 30.3941 0.0000 5.8267
# 5 3.4762 3.5114 -0.9050 0.0000 26.2874 0.0000
# 6 0.0000 0.0000 0.0000 5.8267 0.0000 19.2195
#
#
#
# Elastic Compliance Matrix: (Units=1/GPa)
#
#
# Indices 1 2 3 4 5 6 
#
# 1 0.028369 -0.007810 -0.004828 0.000000 -0.002875 0.000000
# 2 -0.007810 0.020611 -0.007138 0.000000 -0.001966 0.000000
# 3 -0.004828 -0.007138 0.010618 0.000000 0.001958 0.000000
# 4 0.000000 0.000000 0.000000 0.034931 0.000000 -0.010590
# 5 -0.002875 -0.001966 0.001958 0.000000 0.038751 0.000000
# 6 0.000000 0.000000 0.000000 -0.010590 0.000000 0.055241
#
#
# Mechanical properties :
#
#
# Convention : Reuss Voigt Hill
#
# Bulk Modulus (GPa) = 49.88553 71.75234 60.81894
# Shear Modulus (GPa) = 21.29867 25.06119 23.17993
#
# Velocity S-wave (km/s) = 3.49801 3.79442 3.64923
# Velocity P-wave (km/s) = 6.70627 7.77294 7.25922
#
# Compressibility (1/GPa) = 0.02004589
#
# Stress axis : x y z
#
# Youngs Moduli (GPa) = 35.24933 48.51689 94.18292
#
# Poissons Ratio (x) = 0.37891 0.45471
# Poissons Ratio (y) = 0.27529 0.67232
# Poissons Ratio (z) = 0.17018 0.34633
#
# Static dielectric constant tensor:
#      x y z
#    x 2.978900 0.000000 -0.123190 
#    y 0.000000 3.196920 0.000000 
#    z -0.123190 0.000000 3.603130 
# 
# 
# High freq. dielectric constant tensor:
#      x y z
#    x 1.630760 0.000000 -0.005790 
#    y 0.000000 1.664250 0.000000 
#    z -0.005790 0.000000 1.690000 
# 
# From -- ./inp_files/320187.got.cif
#   From: 2010.06.25/outbox.cif.g09.slc.cpg/sg12_161_cif.got.tgz:320187.got - 2010.06.28 00:19:55.
