data_PCOD8085199
_publ_section_title
;
Structure prediction by ZEFSAII (Michael W. Deem and Ramdas Pophale) SiO2 
 PCOD8085199
Probable space group: C 2/M
;
_chemical_formula_sum "Si O2"
_cell_formula_units_Z 64
_cell_length_a 28.704752
_cell_length_b 9.306647
_cell_length_c 14.163149
_cell_angle_alpha 90.000000
_cell_angle_beta 71.535600
_cell_angle_gamma 90.000000
_cell_volume 3588.836255
_symmetry_space_group_name_H-M "C 2/M"
_symmetry_group_IT_number 12
_symmetry_cell_setting 'monoclinic'
loop_
_space_group_symop_operation_xyz
x,y,z
-x,y,-z
-x,-y,-z
x,-y,z
1/2+x,1/2+y,z
1/2-x,1/2+y,-z
1/2-x,1/2-y,-z
1/2+x,1/2-y,z
loop_
_atom_site_type_symbol
_atom_site_label
_atom_site_fract_x
_atom_site_fract_y
_atom_site_fract_z
Si Si1 0.480270 0.159512 0.291570
Si Si2 0.896861 0.332548 0.205804
Si Si3 0.314165 0.332018 0.374445
Si Si4 0.446091 0.163145 0.509886
Si Si5 0.131286 0.834226 0.323419
Si Si6 0.443452 0.330132 0.013026
Si Si7 0.928658 0.832638 0.810653
Si Si8 0.718039 0.334464 0.397022
O O1 0.450933 0.184737 0.214630
O O2 0.440605 0.178852 0.400662
O O3 0.525347 0.266993 0.274367
O O4 0.503116 0.000000 0.280592
O O5 0.882191 0.500000 0.202379
O O6 0.857750 0.254667 0.297477
O O7 0.903243 0.252789 0.102015
O O8 0.319205 0.500000 0.346607
O O9 0.314228 0.306510 0.487578
O O10 0.263505 0.273090 0.363596
O O11 0.500000 0.221569 0.500000
O O12 0.404777 0.254226 0.584413
O O13 0.439967 0.000000 0.548785
O O14 0.120541 0.794876 0.219540
O O15 0.186482 0.799408 0.322643
O O16 0.120099 0.000000 0.346769
O O17 0.435971 0.500000 0.031602
O O18 0.500000 0.288013 0.000000
O O19 0.427774 0.275945 0.918401
O O20 0.938384 0.000000 0.808121
O O21 0.736342 0.500000 0.384947
#
# Coordination Sequence:
#
# PCOD8085199 Si02
#       8
#     8   8   8   8   8   8   8   8
#     4  10  20  32  46  69 102 138 173 208 251 302
#     4  11  22  34  53  78 105 137 174 220 267 310
#     4  10  20  35  57  82 107 137 172 212 261 315
#     4  10  19  30  44  66 101 140 172 205 246 296
#     4  10  20  33  51  75 102 137 175 212 256 306
#     4  10  20  35  53  74 103 139 178 221 265 309
#     4  10  20  33  50  72 100 136 175 212 254 302
#     4   9  19  36  56  80 110 138 170 213 260 311
#
# _framework density 17.833079000000001
#
# number of rings (size 3 to 8) (size 9 to 14) (size 15 to 20)
#    0.000    2.000    2.500    1.500    0.000    3.000 
#    0.000    0.000    0.000    0.750    0.000    0.000 
#    0.000    0.000    0.000    0.000    0.000    0.000 
#
# Total GULP energy -396628.047819 kJ/mol
# GULP energy per Si atom -12394.626494 kJ/mol
# Density = 1.779249 g / cm^3
# Si number density = 17.833079 Si / 1000 Ang^3
#
#
#
# Elastic Constant Matrix: (Units=GPa)
#
#
# Indices 1 2 3 4 5 6 
#
# 1 71.5123 34.6740 42.1904 0.0000 20.4162 0.0000
# 2 34.6740 54.7374 36.3688 0.0000 3.8358 0.0000
# 3 42.1904 36.3688 78.3555 0.0000 14.0178 0.0000
# 4 0.0000 0.0000 0.0000 25.0834 0.0000 -3.1385
# 5 20.4162 3.8358 14.0178 0.0000 28.4490 0.0000
# 6 0.0000 0.0000 0.0000 -3.1385 0.0000 23.8282
#
#
#
# Elastic Compliance Matrix: (Units=1/GPa)
#
#
# Indices 1 2 3 4 5 6 
#
# 1 0.028376 -0.012395 -0.006779 0.000000 -0.015352 0.000000
# 2 -0.012395 0.032023 -0.009879 0.000000 0.009445 0.000000
# 3 -0.006779 -0.009879 0.021812 0.000000 -0.004550 0.000000
# 4 0.000000 0.000000 0.000000 0.040535 0.000000 0.005339
# 5 -0.015352 0.009445 -0.004550 0.000000 0.047137 0.000000
# 6 0.000000 0.000000 0.000000 0.005339 0.000000 0.042670
#
#
# Mechanical properties :
#
#
# Convention : Reuss Voigt Hill
#
# Bulk Modulus (GPa) = 41.48671 47.89686 44.69179
# Shear Modulus (GPa) = 17.94076 21.56358 19.75217
#
# Velocity S-wave (km/s) = 3.17525 3.48111 3.33169
# Velocity P-wave (km/s) = 6.06279 6.56310 6.31790
#
# Compressibility (1/GPa) = 0.02410411
#
# Stress axis : x y z
#
# Youngs Moduli (GPa) = 35.24081 31.22775 45.84589
#
# Poissons Ratio (x) = 0.38707 0.31081
# Poissons Ratio (y) = 0.43681 0.45292
# Poissons Ratio (z) = 0.23891 0.30850
#
# Static dielectric constant tensor:
#      x y z
#    x 3.338960 0.000000 0.382930 
#    y 0.000000 3.304550 0.000000 
#    z 0.382930 0.000000 3.387660 
# 
# 
# High freq. dielectric constant tensor:
#      x y z
#    x 1.676400 0.000000 0.021020 
#    y 0.000000 1.692880 0.000000 
#    z 0.021020 0.000000 1.678800 
# 
# From -- ./inp_files/243755.got.cif
#   From: 2010.06.25/outbox.cif.g09.slc.cpg/sg12_122_cif.got.tgz:243755.got - 2010.06.28 00:19:55.
