data_PCOD8085289
_publ_section_title
;
Structure prediction by ZEFSAII (Michael W. Deem and Ramdas Pophale) SiO2 
 PCOD8085289
Probable space group: C 2/M
;
_chemical_formula_sum "Si O2"
_cell_formula_units_Z 64
_cell_length_a 31.543667
_cell_length_b 8.935053
_cell_length_c 14.710123
_cell_angle_alpha 90.000000
_cell_angle_beta 117.828600
_cell_angle_gamma 90.000000
_cell_volume 3666.475984
_symmetry_space_group_name_H-M "C 2/M"
_symmetry_group_IT_number 12
_symmetry_cell_setting 'monoclinic'
loop_
_space_group_symop_operation_xyz
x,y,z
-x,y,-z
-x,-y,-z
x,-y,z
1/2+x,1/2+y,z
1/2-x,1/2+y,-z
1/2-x,1/2-y,-z
1/2+x,1/2-y,z
loop_
_atom_site_type_symbol
_atom_site_label
_atom_site_fract_x
_atom_site_fract_y
_atom_site_fract_z
Si Si1 0.367106 0.329617 0.150154
Si Si2 0.054924 0.676134 0.652729
Si Si3 0.214592 0.677551 0.620012
Si Si4 0.778522 0.173736 0.187292
Si Si5 0.053234 0.677183 0.447602
Si Si6 0.865144 0.177709 0.582442
Si Si7 0.677243 0.323953 0.276418
Si Si8 0.679576 0.675971 0.077983
O O1 0.383303 0.500000 0.178969
O O2 0.408543 0.231501 0.235166
O O3 0.315768 0.300509 0.143666
O O4 0.361178 0.288138 0.037519
O O5 0.055533 0.500000 0.652901
O O6 0.068906 0.730324 0.564830
O O7 0.001332 0.729295 0.624300
O O8 0.207389 0.500000 0.605645
O O9 0.201859 0.729979 0.708760
O O10 0.179831 0.759821 0.516645
O O11 0.268517 0.732217 0.651402
O O12 0.727377 0.232907 0.101875
O O13 0.774552 0.000000 0.210827
O O14 0.059501 0.500000 0.443533
O O15 0.085243 0.758056 0.404658
O O16 0.858557 0.233528 0.680653
O O17 0.865980 0.000000 0.574853
O O18 0.678789 0.500000 0.282732
O O19 0.660038 0.273971 0.158237
O O20 0.692849 0.500000 0.090338
#
# Coordination Sequence:
#
# PCOD8085289 Si02
#       8
#     8   8   8   8   8   8   8   8
#     4  10  20  31  48  73  99 125 158 197 239 280
#     4   9  19  35  54  72  95 124 156 190 230 285
#     4  10  19  32  48  67  96 135 165 190 230 283
#     4  10  19  30  45  72 103 127 157 200 237 273
#     4   9  19  36  53  72  96 125 155 187 233 290
#     4  11  20  30  48  74  97 121 157 202 240 276
#     4   8  17  32  48  66  93 128 165 198 231 270
#     4   9  18  34  50  66  94 133 166 194 230 279
#
# _framework density 17.455454
#
# number of rings (size 3 to 8) (size 9 to 14) (size 15 to 20)
#    0.000    2.500    0.000    4.125    0.000    4.500 
#    0.000    6.875    0.000    0.750    0.000    5.250 
#    0.000    0.000    0.000    0.000    0.000    0.000 
#
# Total GULP energy -396686.035488 kJ/mol
# GULP energy per Si atom -12396.438609 kJ/mol
# Density = 1.741572 g / cm^3
# Si number density = 17.455454 Si / 1000 Ang^3
#
#
#
# Elastic Constant Matrix: (Units=GPa)
#
#
# Indices 1 2 3 4 5 6 
#
# 1 104.2408 34.2078 57.2057 0.0000 -11.9397 0.0000
# 2 34.2078 44.4715 21.5683 0.0000 -1.7621 0.0000
# 3 57.2057 21.5683 103.7615 0.0000 -1.8867 0.0000
# 4 0.0000 0.0000 0.0000 25.2429 0.0000 3.5858
# 5 -11.9397 -1.7621 -1.8867 0.0000 20.5945 0.0000
# 6 0.0000 0.0000 0.0000 3.5858 0.0000 25.8604
#
#
#
# Elastic Compliance Matrix: (Units=1/GPa)
#
#
# Indices 1 2 3 4 5 6 
#
# 1 0.018103 -0.009796 -0.007781 0.000000 0.008944 0.000000
# 2 -0.009796 0.030366 -0.000969 0.000000 -0.003170 0.000000
# 3 -0.007781 -0.000969 0.014069 0.000000 -0.003305 0.000000
# 4 0.000000 0.000000 0.000000 0.040411 0.000000 -0.005603
# 5 0.008944 -0.003170 -0.003305 0.000000 0.053168 0.000000
# 6 0.000000 0.000000 0.000000 -0.005603 0.000000 0.039446
#
#
# Mechanical properties :
#
#
# Convention : Reuss Voigt Hill
#
# Bulk Modulus (GPa) = 39.30134 53.15971 46.23052
# Shear Modulus (GPa) = 20.73507 23.63903 22.18705
#
# Velocity S-wave (km/s) = 3.45031 3.68400 3.56907
# Velocity P-wave (km/s) = 6.19975 6.97255 6.59748
#
# Compressibility (1/GPa) = 0.02544443
#
# Stress axis : x y z
#
# Youngs Moduli (GPa) = 55.24014 32.93156 71.07938
#
# Poissons Ratio (x) = 0.32261 0.55310
# Poissons Ratio (y) = 0.54116 0.06885
# Poissons Ratio (z) = 0.42985 0.03190
#
# Static dielectric constant tensor:
#      x y z
#    x 3.376850 0.000000 -0.280260 
#    y 0.000000 3.161140 0.000000 
#    z -0.280260 0.000000 3.394610 
# 
# 
# High freq. dielectric constant tensor:
#      x y z
#    x 1.661150 0.000000 -0.011590 
#    y 0.000000 1.667040 0.000000 
#    z -0.011590 0.000000 1.671720 
# 
# From -- ./inp_files/249247.got.cif
#   From: 2010.06.25/outbox.cif.g09.slc.cpg/sg12_125_cif.got.tgz:249247.got - 2010.06.28 00:19:55.
