data_PCOD8085523
_publ_section_title
;
Structure prediction by ZEFSAII (Michael W. Deem and Ramdas Pophale) SiO2 
 PCOD8085523
Probable space group: C 2/M
;
_chemical_formula_sum "Si O2"
_cell_formula_units_Z 64
_cell_length_a 28.182157
_cell_length_b 9.072864
_cell_length_c 15.508954
_cell_angle_alpha 90.000000
_cell_angle_beta 90.087732
_cell_angle_gamma 90.000000
_cell_volume 3965.524429
_symmetry_space_group_name_H-M "C 2/M"
_symmetry_group_IT_number 12
_symmetry_cell_setting 'monoclinic'
loop_
_space_group_symop_operation_xyz
x,y,z
-x,y,-z
-x,-y,-z
x,-y,z
1/2+x,1/2+y,z
1/2-x,1/2+y,-z
1/2-x,1/2-y,-z
1/2+x,1/2-y,z
loop_
_atom_site_type_symbol
_atom_site_label
_atom_site_fract_x
_atom_site_fract_y
_atom_site_fract_z
Si Si1 0.613833 0.830335 0.167108
Si Si2 0.695991 0.828954 0.907884
Si Si3 0.047412 0.826162 0.683572
Si Si4 0.109128 0.174238 0.845498
Si Si5 0.696446 0.329015 0.087619
Si Si6 0.443603 0.662644 0.503389
Si Si7 0.051687 0.671997 0.329655
Si Si8 0.945308 0.329238 0.002059
O O1 0.660342 0.728149 0.159978
O O2 0.590037 0.789213 0.257401
O O3 0.576468 0.796330 0.091454
O O4 0.629881 0.000000 0.164801
O O5 0.661441 0.746208 0.841244
O O6 0.750082 0.803284 0.878288
O O7 0.682532 0.000000 0.911175
O O8 0.686715 0.764758 0.002416
O O9 0.082167 0.774914 0.759374
O O10 0.072242 0.782464 0.592121
O O11 0.997291 0.747843 0.696616
O O12 0.037453 0.000000 0.685561
O O13 0.114333 0.000000 0.850819
O O14 0.081158 0.230017 0.928601
O O15 0.687584 0.500000 0.066516
O O16 0.500000 0.655621 0.500000
O O17 0.422824 0.500000 0.523099
O O18 0.427127 0.772276 0.578867
O O19 0.041786 0.500000 0.336391
O O20 0.939836 0.500000 0.028236
O O21 0.000000 0.281646 0.000000
#
# Coordination Sequence:
#
# PCOD8085523 Si02
#       8
#     8   8   8   8   8   8   8   8
#     4  10  20  32  46  67  97 129 156 191 237 280
#     4  10  20  34  50  69  94 121 152 196 246 284
#     4   9  19  33  47  67  97 129 160 195 236 278
#     4  11  21  32  48  71  94 123 163 199 230 276
#     4  10  20  33  51  71  90 119 159 198 235 281
#     4   8  15  30  48  65  91 126 157 193 240 279
#     4  10  19  30  47  72  97 125 161 196 233 278
#     4  10  20  33  46  62  92 133 164 188 228 276
#
# _framework density 16.139101
#
# number of rings (size 3 to 8) (size 9 to 14) (size 15 to 20)
#    0.000    2.250    1.250    3.000    0.000    7.000 
#    0.000    0.000    0.000    0.000    0.000    0.875 
#    0.000    0.000    0.000    0.000    0.000    0.000 
#
# Total GULP energy -396799.747832 kJ/mol
# GULP energy per Si atom -12399.992120 kJ/mol
# Density = 1.610237 g / cm^3
# Si number density = 16.139101 Si / 1000 Ang^3
#
#
#
# Elastic Constant Matrix: (Units=GPa)
#
#
# Indices 1 2 3 4 5 6 
#
# 1 90.0329 43.0041 37.9521 0.0000 -5.4915 0.0000
# 2 43.0041 71.0541 37.7637 0.0000 -4.8907 0.0000
# 3 37.9521 37.7637 90.5784 0.0000 -11.4147 0.0000
# 4 0.0000 0.0000 0.0000 24.4036 0.0000 -1.4912
# 5 -5.4915 -4.8907 -11.4147 0.0000 14.2002 0.0000
# 6 0.0000 0.0000 0.0000 -1.4912 0.0000 26.6060
#
#
#
# Elastic Compliance Matrix: (Units=1/GPa)
#
#
# Indices 1 2 3 4 5 6 
#
# 1 0.016463 -0.008089 -0.003421 0.000000 0.000831 0.000000
# 2 -0.008089 0.022055 -0.005834 0.000000 -0.000222 0.000000
# 3 -0.003421 -0.005834 0.016119 0.000000 0.009625 0.000000
# 4 0.000000 0.000000 0.000000 0.041118 0.000000 0.002305
# 5 0.000831 -0.000222 0.009625 0.000000 0.078403 0.000000
# 6 0.000000 0.000000 0.000000 0.002305 0.000000 0.037715
#
#
# Mechanical properties :
#
#
# Convention : Reuss Voigt Hill
#
# Bulk Modulus (GPa) = 50.12633 54.34502 52.23568
# Shear Modulus (GPa) = 19.74648 21.90500 20.82574
#
# Velocity S-wave (km/s) = 3.50168 3.68810 3.59610
# Velocity P-wave (km/s) = 6.89024 7.20292 7.04831
#
# Compressibility (1/GPa) = 0.01994959
#
# Stress axis : x y z
#
# Youngs Moduli (GPa) = 60.74071 45.34207 62.03990
#
# Poissons Ratio (x) = 0.36676 0.21224
# Poissons Ratio (y) = 0.49132 0.36192
# Poissons Ratio (z) = 0.20780 0.26451
#
# Static dielectric constant tensor:
#      x y z
#    x 3.026240 0.000000 0.098290 
#    y 0.000000 3.117570 0.000000 
#    z 0.098290 0.000000 3.283000 
# 
# 
# High freq. dielectric constant tensor:
#      x y z
#    x 1.601530 0.000000 0.000730 
#    y 0.000000 1.629570 0.000000 
#    z 0.000730 0.000000 1.610110 
# 
# From -- ./inp_files/248360.got.cif
#   From: 2010.06.25/outbox.cif.g09.slc.cpg/sg12_125_cif.got.tgz:248360.got - 2010.06.28 00:19:55.
