data_PCOD8085239
_publ_section_title
;
Structure prediction by ZEFSAII (Michael W. Deem and Ramdas Pophale) SiO2 
 PCOD8085239
Probable space group: C 2/M
;
_chemical_formula_sum "Si O2"
_cell_formula_units_Z 64
_cell_length_a 27.937623
_cell_length_b 8.845765
_cell_length_c 14.515612
_cell_angle_alpha 90.000000
_cell_angle_beta 91.894663
_cell_angle_gamma 90.000000
_cell_volume 3585.276937
_symmetry_space_group_name_H-M "C 2/M"
_symmetry_group_IT_number 12
_symmetry_cell_setting 'monoclinic'
loop_
_space_group_symop_operation_xyz
x,y,z
-x,y,-z
-x,-y,-z
x,-y,z
1/2+x,1/2+y,z
1/2-x,1/2+y,-z
1/2-x,1/2-y,-z
1/2+x,1/2-y,z
loop_
_atom_site_type_symbol
_atom_site_label
_atom_site_fract_x
_atom_site_fract_y
_atom_site_fract_z
Si Si1 0.309863 0.173892 0.756083
Si Si2 0.914284 0.333581 0.172208
Si Si3 0.657350 0.170340 0.001261
Si Si4 0.893934 0.176096 0.839779
Si Si5 0.237135 0.180639 0.596387
Si Si6 0.996416 0.178050 0.896715
Si Si7 0.768227 0.175357 0.108030
Si Si8 0.172921 0.322531 0.726320
O O1 0.362221 0.250200 0.756562
O O2 0.277287 0.238127 0.671915
O O3 0.286857 0.201214 0.858530
O O4 0.317282 0.000000 0.737044
O O5 0.937769 0.500000 0.175249
O O6 0.873301 0.325663 0.093055
O O7 0.957237 0.216792 0.160827
O O8 0.884700 0.300605 0.264469
O O9 0.712460 0.221908 0.977713
O O10 0.659610 0.000000 0.042522
O O11 0.630503 0.286905 0.064862
O O12 0.948300 0.240602 0.844233
O O13 0.894084 0.000000 0.822615
O O14 0.250000 0.250000 0.500000
O O15 0.187274 0.256858 0.626862
O O16 0.232545 0.000000 0.591204
O O17 0.992255 0.000000 0.905318
O O18 0.000000 0.248811 0.000000
O O19 0.799025 0.219493 0.198947
O O20 0.777728 0.000000 0.085438
O O21 0.186566 0.500000 0.738120
#
# Coordination Sequence:
#
# PCOD8085239 Si02
#       8
#     8   8   8   8   8   8   8   8
#     4   9  20  36  50  69  98 129 160 198 242 292
#     4   9  18  30  47  70  95 129 169 210 252 291
#     4  10  19  30  45  66  92 126 168 210 250 291
#     4  11  22  33  47  67  92 129 171 210 253 294
#     4  10  20  35  57  83 107 133 161 193 241 295
#     4  10  20  33  47  67  95 128 171 220 260 293
#     4   9  17  30  47  66  92 127 166 203 244 291
#     4   9  17  30  48  75 105 130 162 201 243 294
#
# _framework density 17.850783
#
# number of rings (size 3 to 8) (size 9 to 14) (size 15 to 20)
#    0.000    2.375    1.250    3.375    0.000    7.250 
#    0.000    0.000    0.000    0.000    0.000    0.875 
#    0.000    7.000    0.000    0.000    0.000    0.000 
#
# Total GULP energy -396630.397796 kJ/mol
# GULP energy per Si atom -12394.699931 kJ/mol
# Density = 1.781015 g / cm^3
# Si number density = 17.850783 Si / 1000 Ang^3
#
#
#
# Elastic Constant Matrix: (Units=GPa)
#
#
# Indices 1 2 3 4 5 6 
#
# 1 127.0942 29.2296 26.8499 0.0000 -5.9538 0.0000
# 2 29.2296 44.2680 10.7399 0.0000 1.7439 0.0000
# 3 26.8499 10.7399 58.3293 0.0000 -8.8793 0.0000
# 4 0.0000 0.0000 0.0000 25.0332 0.0000 -2.7175
# 5 -5.9538 1.7439 -8.8793 0.0000 19.0086 0.0000
# 6 0.0000 0.0000 0.0000 -2.7175 0.0000 29.9937
#
#
#
# Elastic Compliance Matrix: (Units=1/GPa)
#
#
# Indices 1 2 3 4 5 6 
#
# 1 0.010005 -0.005920 -0.003182 0.000000 0.002190 0.000000
# 2 -0.005920 0.027516 -0.003238 0.000000 -0.005891 0.000000
# 3 -0.003182 -0.003238 0.020560 0.000000 0.008905 0.000000
# 4 0.000000 0.000000 0.000000 0.040344 0.000000 0.003655
# 5 0.002190 -0.005891 0.008905 0.000000 0.057994 0.000000
# 6 0.000000 0.000000 0.000000 0.003655 0.000000 0.033671
#
#
# Mechanical properties :
#
#
# Convention : Reuss Voigt Hill
#
# Bulk Modulus (GPa) = 29.93905 40.37003 35.15454
# Shear Modulus (GPa) = 22.13327 25.66524 23.89925
#
# Velocity S-wave (km/s) = 3.52505 3.79590 3.66298
# Velocity P-wave (km/s) = 5.77721 6.47118 6.13402
#
# Compressibility (1/GPa) = 0.03340120
#
# Stress axis : x y z
#
# Youngs Moduli (GPa) = 99.95485 36.34195 48.63722
#
# Poissons Ratio (x) = 0.21515 0.15475
# Poissons Ratio (y) = 0.59175 0.15749
# Poissons Ratio (z) = 0.31803 0.11768
#
# Static dielectric constant tensor:
#      x y z
#    x 3.553930 0.000000 -0.082220 
#    y 0.000000 3.292970 0.000000 
#    z -0.082220 0.000000 3.138790 
# 
# 
# High freq. dielectric constant tensor:
#      x y z
#    x 1.692920 0.000000 -0.005190 
#    y 0.000000 1.694840 0.000000 
#    z -0.005190 0.000000 1.651420 
# 
# From -- ./inp_files/248407.got.cif
#   From: 2010.06.25/outbox.cif.g09.slc.cpg/sg12_125_cif.got.tgz:248407.got - 2010.06.28 00:19:55.
