data_PCOD8085133
_publ_section_title
;
Structure prediction by ZEFSAII (Michael W. Deem and Ramdas Pophale) SiO2 
 PCOD8085133
Probable space group: C 2/M
;
_chemical_formula_sum "Si O2"
_cell_formula_units_Z 48
_cell_length_a 30.363926
_cell_length_b 9.047256
_cell_length_c 11.839785
_cell_angle_alpha 90.000000
_cell_angle_beta 60.128050
_cell_angle_gamma 90.000000
_cell_volume 2820.383621
_symmetry_space_group_name_H-M "C 2/M"
_symmetry_group_IT_number 12
_symmetry_cell_setting 'monoclinic'
loop_
_space_group_symop_operation_xyz
x,y,z
-x,y,-z
-x,-y,-z
x,-y,z
1/2+x,1/2+y,z
1/2-x,1/2+y,-z
1/2-x,1/2-y,-z
1/2+x,1/2-y,z
loop_
_atom_site_type_symbol
_atom_site_label
_atom_site_fract_x
_atom_site_fract_y
_atom_site_fract_z
Si Si1 0.696854 0.825413 0.099340
Si Si2 0.214466 0.832174 0.690053
Si Si3 0.639364 0.331513 0.986285
Si Si4 0.369548 0.324194 0.368103
Si Si5 0.943395 0.824085 0.082720
Si Si6 0.678458 0.174957 0.378138
O O1 0.678284 0.779169 0.247765
O O2 0.704643 0.000000 0.078598
O O3 0.750000 0.750000 0.000000
O O4 0.650814 0.771770 0.078490
O O5 0.188726 0.824356 0.845025
O O6 0.178809 0.758997 0.640395
O O7 0.269868 0.758858 0.631224
O O8 0.222067 0.000000 0.643950
O O9 0.629774 0.500000 0.038670
O O10 0.590709 0.268642 0.979254
O O11 0.368045 0.500000 0.381575
O O12 0.419593 0.275155 0.233803
O O13 0.368342 0.250195 0.493916
O O14 0.943587 0.000000 0.077296
O O15 0.000000 0.757685 0.000000
O O16 0.674492 0.000000 0.395397
#
# Coordination Sequence:
#
# PCOD8085133 Si02
#       6
#     8   8   8   8   8   8
#     4  11  21  32  47  67  96 133 168 197 229 276
#     4   8  14  27  43  62  92 125 151 184 231 275
#     4   9  16  30  50  71  97 125 159 198 236 280
#     4   9  17  28  46  70  93 118 156 196 230 281
#     4   8  15  30  54  78  97 120 151 197 253 293
#     4  10  19  30  43  61  95 132 156 186 232 279
#
# _framework density 17.01896
#
# number of rings (size 3 to 8) (size 9 to 14) (size 15 to 20)
#    0.000    2.833    1.667    3.000    0.000    1.333 
#    0.000    3.333    0.000    3.000    0.000    7.000 
#    0.000    0.000    0.000    0.000    0.000    0.000 
#
# Total GULP energy -297385.708880 kJ/mol
# GULP energy per Si atom -12391.071203 kJ/mol
# Density = 1.698022 g / cm^3
# Si number density = 17.018960 Si / 1000 Ang^3
#
#
#
# Elastic Constant Matrix: (Units=GPa)
#
#
# Indices 1 2 3 4 5 6 
#
# 1 88.2466 24.2763 65.8337 0.0000 -7.7584 0.0000
# 2 24.2763 38.0024 41.7029 0.0000 4.4889 0.0000
# 3 65.8337 41.7029 142.6296 0.0000 4.0216 0.0000
# 4 0.0000 0.0000 0.0000 27.4234 0.0000 5.4802
# 5 -7.7584 4.4889 4.0216 0.0000 19.2138 0.0000
# 6 0.0000 0.0000 0.0000 5.4802 0.0000 17.1717
#
#
#
# Elastic Compliance Matrix: (Units=1/GPa)
#
#
# Indices 1 2 3 4 5 6 
#
# 1 0.019515 -0.005178 -0.007796 0.000000 0.010721 0.000000
# 2 -0.005178 0.041002 -0.009325 0.000000 -0.009718 0.000000
# 3 -0.007796 -0.009325 0.013443 0.000000 -0.003783 0.000000
# 4 0.000000 0.000000 0.000000 0.038949 0.000000 -0.012430
# 5 0.010721 -0.009718 -0.003783 0.000000 0.059438 0.000000
# 6 0.000000 0.000000 0.000000 -0.012430 0.000000 0.062202
#
#
# Mechanical properties :
#
#
# Convention : Reuss Voigt Hill
#
# Bulk Modulus (GPa) = 34.05618 59.16715 46.61167
# Shear Modulus (GPa) = 17.30509 21.89949 19.60229
#
# Velocity S-wave (km/s) = 3.19221 3.59105 3.39749
# Velocity P-wave (km/s) = 5.80010 7.21354 6.54508
#
# Compressibility (1/GPa) = 0.02936324
#
# Stress axis : x y z
#
# Youngs Moduli (GPa) = 51.24355 24.38896 74.39068
#
# Poissons Ratio (x) = 0.12628 0.57994
# Poissons Ratio (y) = 0.26532 0.69366
# Poissons Ratio (z) = 0.39949 0.22742
#
# Static dielectric constant tensor:
#      x y z
#    x 3.258010 0.000000 0.018590 
#    y 0.000000 2.821210 0.000000 
#    z 0.018590 0.000000 3.285690 
# 
# 
# High freq. dielectric constant tensor:
#      x y z
#    x 1.631460 0.000000 0.009020 
#    y 0.000000 1.622610 0.000000 
#    z 0.009020 0.000000 1.658480 
# 
# From -- ./inp_files/179160.got.cif
#   From: 2010.06.25/outbox.cif.g09.slc.cpg/sg12_90_cif.got.tgz:179160.got - 2010.06.28 00:19:55.
