data_PCOD8085886
_publ_section_title
;
Structure prediction by ZEFSAII (Michael W. Deem and Ramdas Pophale) SiO2 
 PCOD8085886
Probable space group: C 2/M
;
_chemical_formula_sum "Si O2"
_cell_formula_units_Z 56
_cell_length_a 20.095279
_cell_length_b 13.601622
_cell_length_c 16.935808
_cell_angle_alpha 90.000000
_cell_angle_beta 42.672139
_cell_angle_gamma 90.000000
_cell_volume 3137.571660
_symmetry_space_group_name_H-M "C 2/M"
_symmetry_group_IT_number 12
_symmetry_cell_setting 'monoclinic'
loop_
_space_group_symop_operation_xyz
x,y,z
-x,y,-z
-x,-y,-z
x,-y,z
1/2+x,1/2+y,z
1/2-x,1/2+y,-z
1/2-x,1/2-y,-z
1/2+x,1/2-y,z
loop_
_atom_site_type_symbol
_atom_site_label
_atom_site_fract_x
_atom_site_fract_y
_atom_site_fract_z
Si Si1 0.372026 0.895463 0.721152
Si Si2 0.407707 0.890140 0.430619
Si Si3 0.713363 0.886559 0.769584
Si Si4 0.651323 0.202135 0.986118
Si Si5 0.450378 0.112841 0.217448
Si Si6 0.734577 0.388793 0.978330
Si Si7 0.615222 0.744804 0.416119
O O1 0.488055 0.901341 0.619230
O O2 0.336338 0.879264 0.841514
O O3 0.336826 0.809524 0.695289
O O4 0.330152 0.000000 0.725778
O O5 0.415800 0.851121 0.334065
O O6 0.358401 0.803595 0.525844
O O7 0.356956 0.000000 0.478335
O O8 0.671399 0.820645 0.877364
O O9 0.640279 0.871515 0.760989
O O10 0.821565 0.855029 0.643954
O O11 0.718346 0.000000 0.792079
O O12 0.656231 0.318465 0.002834
O O13 0.542389 0.172146 0.104752
O O14 0.738302 0.146037 0.957485
O O15 0.483899 0.000000 0.193727
O O16 0.692680 0.500000 0.016724
O O17 0.500000 0.721445 0.500000
#
# Coordination Sequence:
#
# PCOD8085886 Si02
#       7
#     8   8   8   8   8   8   8
#     4   9  15  29  50  77 105 126 158 212 264 309
#     4   9  17  31  54  79 102 128 167 218 266 308
#     4  11  23  36  51  75 104 140 184 218 253 311
#     4  11  20  34  56  79 109 140 170 213 265 310
#     4  10  20  35  55  77 102 136 180 225 260 300
#     4  10  19  30  53  82 109 134 166 211 261 312
#     4  10  20  33  52  77 104 133 170 210 269 317
#
# _framework density 17.848198
#
# number of rings (size 3 to 8) (size 9 to 14) (size 15 to 20)
#    0.000    2.000    2.857    2.143    0.000    3.714 
#    0.000    0.000    0.000    4.286    0.000    0.000 
#    0.000    0.000    0.000    0.000    0.000    0.000 
#
# Total GULP energy -347003.297690 kJ/mol
# GULP energy per Si atom -12392.974918 kJ/mol
# Density = 1.780757 g / cm^3
# Si number density = 17.848198 Si / 1000 Ang^3
#
#
#
# Elastic Constant Matrix: (Units=GPa)
#
#
# Indices 1 2 3 4 5 6 
#
# 1 65.3140 39.7639 29.8569 0.0000 8.7246 0.0000
# 2 39.7639 98.8884 30.7673 0.0000 -0.4305 0.0000
# 3 29.8569 30.7673 60.0288 0.0000 14.5886 0.0000
# 4 0.0000 0.0000 0.0000 22.0207 0.0000 -1.7242
# 5 8.7246 -0.4305 14.5886 0.0000 27.3369 0.0000
# 6 0.0000 0.0000 0.0000 -1.7242 0.0000 22.6024
#
#
#
# Elastic Compliance Matrix: (Units=1/GPa)
#
#
# Indices 1 2 3 4 5 6 
#
# 1 0.023452 -0.007269 -0.007000 0.000000 -0.003864 0.000000
# 2 -0.007269 0.014677 -0.005202 0.000000 0.005327 0.000000
# 3 -0.007000 -0.005202 0.025604 0.000000 -0.011512 0.000000
# 4 0.000000 0.000000 0.000000 0.045685 0.000000 0.003485
# 5 -0.003864 0.005327 -0.011512 0.000000 0.044041 0.000000
# 6 0.000000 0.000000 0.000000 0.003485 0.000000 0.044509
#
#
# Mechanical properties :
#
#
# Convention : Reuss Voigt Hill
#
# Bulk Modulus (GPa) = 40.33598 47.22305 43.77952
# Shear Modulus (GPa) = 20.39376 22.64820 21.52098
#
# Velocity S-wave (km/s) = 3.38394 3.56608 3.47620
# Velocity P-wave (km/s) = 6.15764 6.59329 6.37919
#
# Compressibility (1/GPa) = 0.02479176
#
# Stress axis : x y z
#
# Youngs Moduli (GPa) = 42.63998 68.13363 39.05650
#
# Poissons Ratio (x) = 0.49528 0.27339
# Poissons Ratio (y) = 0.30996 0.20316
# Poissons Ratio (z) = 0.29847 0.35441
#
# Static dielectric constant tensor:
#      x y z
#    x 3.105340 0.000000 0.228500 
#    y 0.000000 3.476590 0.000000 
#    z 0.228500 0.000000 3.272330 
# 
# 
# High freq. dielectric constant tensor:
#      x y z
#    x 1.668760 0.000000 0.025450 
#    y 0.000000 1.686800 0.000000 
#    z 0.025450 0.000000 1.687800 
# 
# From -- ./inp_files/225206.got.cif
#   From: 2010.06.25/outbox.cif.g09.slc.cpg/sg12_113_cif.got.tgz:225206.got - 2010.06.28 00:19:55.
