data_PCOD8085003
_publ_section_title
;
Structure prediction by ZEFSAII (Michael W. Deem and Ramdas Pophale) SiO2 
 PCOD8085003
Probable space group: C 2/M
;
_chemical_formula_sum "Si O2"
_cell_formula_units_Z 56
_cell_length_a 18.503923
_cell_length_b 9.480897
_cell_length_c 25.072921
_cell_angle_alpha 90.000000
_cell_angle_beta 45.552930
_cell_angle_gamma 90.000000
_cell_volume 3140.176966
_symmetry_space_group_name_H-M "C 2/M"
_symmetry_group_IT_number 12
_symmetry_cell_setting 'monoclinic'
loop_
_space_group_symop_operation_xyz
x,y,z
-x,y,-z
-x,-y,-z
x,-y,z
1/2+x,1/2+y,z
1/2-x,1/2+y,-z
1/2-x,1/2-y,-z
1/2+x,1/2-y,z
loop_
_atom_site_type_symbol
_atom_site_label
_atom_site_fract_x
_atom_site_fract_y
_atom_site_fract_z
Si Si1 0.338763 0.158103 0.067703
Si Si2 0.291734 0.158651 0.353439
Si Si3 0.662798 0.336682 0.516655
Si Si4 0.168139 0.835896 0.768076
Si Si5 0.017230 0.659051 0.905150
Si Si6 0.307844 0.162211 0.796650
Si Si7 0.967747 0.663739 0.346659
O O1 0.409859 0.163688 0.082129
O O2 0.241668 0.256289 0.127729
O O3 0.299335 0.000000 0.078483
O O4 0.404910 0.208103 0.982186
O O5 0.186606 0.172003 0.441144
O O6 0.286335 0.269998 0.308896
O O7 0.387778 0.192173 0.341166
O O8 0.301522 0.000000 0.325339
O O9 0.662748 0.500000 0.535402
O O10 0.750000 0.250000 0.500000
O O11 0.558354 0.260175 0.587919
O O12 0.060313 0.763352 0.837716
O O13 0.249573 0.806826 0.771938
O O14 0.147949 0.000000 0.769492
O O15 0.012792 0.500000 0.884356
O O16 0.422951 0.212371 0.730618
O O17 0.301755 0.000000 0.815510
O O18 0.967810 0.500000 0.364249
#
# Coordination Sequence:
#
# PCOD8085003 Si02
#       7
#     8   8   8   8   8   8   8
#     4   8  14  25  43  66  89 118 154 187 222 266
#     4   9  18  32  49  67  89 119 152 186 225 268
#     4   9  17  30  49  71  91 116 153 192 228 266
#     4  10  19  29  45  70  96 121 150 186 229 273
#     4   8  14  26  43  63  90 121 152 186 223 266
#     4   9  18  31  46  68  97 123 148 185 232 273
#     4   9  18  33  51  69  91 121 155 188 225 270
#
# _framework density 17.833390999999999
#
# number of rings (size 3 to 8) (size 9 to 14) (size 15 to 20)
#    0.000    3.143    0.000    2.571    0.000    4.571 
#    0.000    3.571    0.000    5.143    0.000    0.000 
#    0.000    0.000    0.000    0.000    0.000    0.000 
#
# Total GULP energy -347019.026563 kJ/mol
# GULP energy per Si atom -12393.536663 kJ/mol
# Density = 1.779280 g / cm^3
# Si number density = 17.833391 Si / 1000 Ang^3
#
#
#
# Elastic Constant Matrix: (Units=GPa)
#
#
# Indices 1 2 3 4 5 6 
#
# 1 16.3435 9.4079 7.6303 0.0000 -11.4837 0.0000
# 2 9.4079 74.5369 24.7620 0.0000 -7.6654 -0.0002
# 3 7.6303 24.7620 50.6245 0.0000 -23.2422 0.0000
# 4 0.0000 0.0000 0.0000 41.8941 0.0000 -2.0880
# 5 -11.4837 -7.6654 -23.2422 0.0000 26.6874 0.0000
# 6 0.0000 -0.0002 0.0000 -2.0880 0.0000 17.1501
#
#
#
# Elastic Compliance Matrix: (Units=1/GPa)
#
#
# Indices 1 2 3 4 5 6 
#
# 1 0.097103 -0.011861 0.014638 0.000000 0.051125 0.000000
# 2 -0.011861 0.017691 -0.011457 0.000000 -0.010000 0.000000
# 3 0.014638 -0.011457 0.040875 0.000000 0.038607 0.000000
# 4 0.000000 0.000000 0.000000 0.024015 0.000000 0.002924
# 5 0.051125 -0.010000 0.038607 0.000000 0.090221 0.000000
# 6 0.000000 0.000000 0.000000 0.002924 0.000000 0.058665
#
#
# Mechanical properties :
#
#
# Convention : Reuss Voigt Hill
#
# Bulk Modulus (GPa) = 7.23015 25.01171 16.12093
# Shear Modulus (GPa) = 12.75404 23.79331 18.27367
#
# Velocity S-wave (km/s) = 2.67718 3.65663 3.20455
# Velocity P-wave (km/s) = 3.69046 5.64656 4.76986
#
# Compressibility (1/GPa) = 0.13830964
#
# Stress axis : x y z
#
# Youngs Moduli (GPa) = 10.29836 56.52635 24.46456
#
# Poissons Ratio (x) = 0.67048 -0.35812
# Poissons Ratio (y) = 0.12215 0.28028
# Poissons Ratio (z) = -0.15075 0.64760
#
# Static dielectric constant tensor:
#      x y z
#    x 2.822430 0.000000 -0.215390 
#    y 0.000000 3.455630 0.000000 
#    z -0.215390 0.000000 3.855570 
# 
# 
# High freq. dielectric constant tensor:
#      x y z
#    x 1.630890 0.000000 -0.010840 
#    y 0.000000 1.693620 0.000000 
#    z -0.010840 0.000000 1.706450 
# 
# From -- ./inp_files/280310.got.cif
#   From: 2010.06.25/outbox.cif.g09.slc.cpg/sg12_141_cif.got.tgz:280310.got - 2010.06.28 00:19:55.
