data_PCOD8085121
_publ_section_title
;
Structure prediction by ZEFSAII (Michael W. Deem and Ramdas Pophale) SiO2 
 PCOD8085121
Probable space group: C 2/M
;
_chemical_formula_sum "Si O2"
_cell_formula_units_Z 64
_cell_length_a 28.199201
_cell_length_b 8.909525
_cell_length_c 22.651493
_cell_angle_alpha 90.000000
_cell_angle_beta 127.565596
_cell_angle_gamma 90.000000
_cell_volume 4511.000410
_symmetry_space_group_name_H-M "C 2/M"
_symmetry_group_IT_number 12
_symmetry_cell_setting 'monoclinic'
loop_
_space_group_symop_operation_xyz
x,y,z
-x,y,-z
-x,-y,-z
x,-y,z
1/2+x,1/2+y,z
1/2-x,1/2+y,-z
1/2-x,1/2-y,-z
1/2+x,1/2-y,z
loop_
_atom_site_type_symbol
_atom_site_label
_atom_site_fract_x
_atom_site_fract_y
_atom_site_fract_z
Si Si1 0.127851 0.834274 0.640057
Si Si2 0.399772 0.177692 0.200591
Si Si3 0.828852 0.829798 0.919053
Si Si4 0.909675 0.829591 0.083745
Si Si5 0.054849 0.667576 0.496446
Si Si6 0.019554 0.832879 0.648472
Si Si7 0.945797 0.322186 0.000986
Si Si8 0.796397 0.821699 0.196179
O O1 0.114609 0.729275 0.573869
O O2 0.070723 0.839865 0.638692
O O3 0.183116 0.774943 0.721827
O O4 0.141627 0.000000 0.625820
O O5 0.405833 0.228432 0.138209
O O6 0.458550 0.232336 0.280292
O O7 0.339212 0.247047 0.180491
O O8 0.395571 0.000000 0.201512
O O9 0.770159 0.733702 0.863824
O O10 0.820554 0.000000 0.889337
O O11 0.844916 0.830976 0.001400
O O12 0.884277 0.748199 0.927220
O O13 0.957111 0.752246 0.074334
O O14 0.929572 0.000000 0.114161
O O15 0.068695 0.500000 0.486105
O O16 0.000000 0.672170 0.500000
O O17 0.039666 0.762861 0.426404
O O18 0.004297 0.000000 0.659690
O O19 0.939174 0.500000 0.002230
O O20 0.000000 0.276110 0.000000
O O21 0.801109 0.000000 0.191660
#
# Coordination Sequence:
#
# PCOD8085121 Si02
#       8
#     8   8   8   8   8   8   8   8
#     4   8  15  25  36  51  70 100 134 167 206 242
#     4  11  20  29  42  58  81 110 142 176 209 244
#     4   9  19  31  45  63  83 107 138 170 204 244
#     4   9  19  32  45  62  83 107 138 169 204 245
#     4   9  15  22  34  52  71  94 129 171 206 239
#     4   9  16  26  38  51  72 101 134 170 206 243
#     4   9  17  31  50  68  84 103 129 163 205 248
#     4  10  19  30  43  57  81 112 143 175 208 245
#
# _framework density 14.187538999999999
#
# number of rings (size 3 to 8) (size 9 to 14) (size 15 to 20)
#    0.750    2.000    0.000    3.750    0.000    6.500 
#    0.000    0.000    0.000    0.000    0.000    0.000 
#    0.000    0.000    0.000    1.125    0.000   14.875 
#
# Total GULP energy -396517.505329 kJ/mol
# GULP energy per Si atom -12391.172042 kJ/mol
# Density = 1.415525 g / cm^3
# Si number density = 14.187539 Si / 1000 Ang^3
#
#
#
# Elastic Constant Matrix: (Units=GPa)
#
#
# Indices 1 2 3 4 5 6 
#
# 1 58.0577 38.6681 41.6966 0.0000 -0.9224 0.0000
# 2 38.6681 113.3872 48.6426 0.0000 1.0306 -0.0001
# 3 41.6966 48.6426 91.4863 0.0000 5.3508 0.0000
# 4 0.0000 0.0000 0.0000 27.4750 0.0000 0.4113
# 5 -0.9224 1.0306 5.3508 0.0000 -0.7830 0.0000
# 6 0.0000 -0.0001 0.0000 0.4113 0.0000 16.8471
#
#
#
# Elastic Compliance Matrix: (Units=1/GPa)
#
#
# Indices 1 2 3 4 5 6 
#
# 1 0.022735 -0.005541 -0.003875 0.000000 -0.060551 0.000000
# 2 -0.005541 0.012397 -0.003859 0.000000 -0.003531 0.000000
# 3 -0.003875 -0.003859 0.010559 0.000000 0.071638 0.000000
# 4 0.000000 0.000000 0.000000 0.036410 0.000000 -0.000889
# 5 -0.060551 -0.003531 0.071638 0.000000 -0.720897 0.000000
# 6 0.000000 0.000000 0.000000 -0.000889 0.000000 0.059379
#
#
# Mechanical properties :
#
#
# Convention : Reuss Voigt Hill
#
# Bulk Modulus (GPa) = 52.24380 57.88289 55.06334
# Shear Modulus (GPa) = -9.14934 17.63609 4.24337
#
# Velocity S-wave (km/s) = -2.54221 3.52954 1.73130
# Velocity P-wave (km/s) = 5.31851 7.58269 6.54919
#
# Compressibility (1/GPa) = 0.01914103
#
# Stress axis : x y z
#
# Youngs Moduli (GPa) = 43.98449 80.66682 94.70950
#
# Poissons Ratio (x) = 0.44696 0.36695
# Poissons Ratio (y) = 0.24371 0.36552
# Poissons Ratio (z) = 0.17042 0.31132
#
# Static dielectric constant tensor:
#      x y z
#    x 2.296880 0.000000 0.084560 
#    y 0.000000 2.961060 0.000000 
#    z 0.084560 0.000000 2.907620 
# 
# 
# High freq. dielectric constant tensor:
#      x y z
#    x 1.473610 0.000000 0.007200 
#    y 0.000000 1.563840 0.000000 
#    z 0.007200 0.000000 1.541940 
# 
# From -- ./inp_files/326600.got.cif
#   From: 2010.06.25/outbox.cif.g09.slc.cpg/sg12_164_cif.got.tgz:326600.got - 2010.06.28 00:19:55.
