data_PCOD8085693
_publ_section_title
;
Structure prediction by ZEFSAII (Michael W. Deem and Ramdas Pophale) SiO2 
 PCOD8085693
Probable space group: C 2/M
;
_chemical_formula_sum "Si O2"
_cell_formula_units_Z 56
_cell_length_a 19.942352
_cell_length_b 9.236347
_cell_length_c 28.834048
_cell_angle_alpha 90.000000
_cell_angle_beta 34.380497
_cell_angle_gamma 90.000000
_cell_volume 2999.088902
_symmetry_space_group_name_H-M "C 2/M"
_symmetry_group_IT_number 12
_symmetry_cell_setting 'monoclinic'
loop_
_space_group_symop_operation_xyz
x,y,z
-x,y,-z
-x,-y,-z
x,-y,z
1/2+x,1/2+y,z
1/2-x,1/2+y,-z
1/2-x,1/2-y,-z
1/2+x,1/2-y,z
loop_
_atom_site_type_symbol
_atom_site_label
_atom_site_fract_x
_atom_site_fract_y
_atom_site_fract_z
Si Si1 0.342670 0.334136 0.671131
Si Si2 0.275613 0.668864 0.344003
Si Si3 0.741762 0.666469 0.896005
Si Si4 0.052527 0.339787 0.521414
Si Si5 0.163279 0.333201 0.852548
Si Si6 0.043942 0.832612 0.187526
Si Si7 0.539787 0.334541 0.083142
O O1 0.353398 0.500000 0.649752
O O2 0.257704 0.255466 0.683097
O O3 0.475744 0.267660 0.597142
O O4 0.285976 0.317378 0.754222
O O5 0.258551 0.500000 0.341309
O O6 0.190130 0.710646 0.436455
O O7 0.410640 0.702534 0.280775
O O8 0.759228 0.500000 0.872170
O O9 0.671375 0.744984 0.895240
O O10 0.869967 0.736942 0.830288
O O11 0.665585 0.683709 0.986118
O O12 0.045852 0.500000 0.547392
O O13 0.000000 0.340539 0.500000
O O14 0.136639 0.500000 0.879316
O O15 0.055374 0.272467 0.884272
O O16 0.058644 0.789922 0.125510
O O17 0.076291 0.000000 0.177087
O O18 0.493166 0.500000 0.105960
#
# Coordination Sequence:
#
# PCOD8085693 Si02
#       7
#     8   8   8   8   8   8   8
#     4  10  19  30  48  77 107 136 173 218 263 307
#     4   9  17  31  52  77 105 139 175 210 257 316
#     4  11  24  38  54  79 109 141 180 223 268 319
#     4   8  15  27  46  74 105 136 170 209 257 313
#     4  11  23  37  55  79 108 143 182 222 266 316
#     4  10  20  36  58  80 108 143 176 216 266 318
#     4  10  21  38  59  81 105 138 179 223 270 318
#
# _framework density 18.672338
#
# number of rings (size 3 to 8) (size 9 to 14) (size 15 to 20)
#    0.000    2.143    1.429    3.000    0.000    8.286 
#    0.000    0.000    0.000    0.857    0.000    0.000 
#    0.000    0.000    0.000    0.000    0.000    0.000 
#
# Total GULP energy -347217.300288 kJ/mol
# GULP energy per Si atom -12400.617867 kJ/mol
# Density = 1.862984 g / cm^3
# Si number density = 18.672338 Si / 1000 Ang^3
#
#
#
# Elastic Constant Matrix: (Units=GPa)
#
#
# Indices 1 2 3 4 5 6 
#
# 1 42.4436 29.2053 6.7167 -0.0002 -8.4570 0.0013
# 2 29.2053 95.0539 27.9976 -0.0004 -9.1394 0.0023
# 3 6.7167 27.9976 73.5158 0.0001 -20.0236 0.0000
# 4 -0.0002 -0.0004 0.0001 31.0646 0.0000 -3.0209
# 5 -8.4570 -9.1394 -20.0236 0.0000 19.0774 0.0000
# 6 0.0013 0.0023 0.0000 -3.0209 0.0000 28.6318
#
#
#
# Elastic Compliance Matrix: (Units=1/GPa)
#
#
# Indices 1 2 3 4 5 6 
#
# 1 0.032643 -0.010043 0.004864 0.000000 0.014764 -0.000001
# 2 -0.010043 0.014963 -0.005659 0.000000 -0.003223 -0.000001
# 3 0.004864 -0.005659 0.021232 0.000000 0.021730 0.000000
# 4 0.000000 0.000000 0.000000 0.032525 0.000000 0.003432
# 5 0.014764 -0.003223 0.021730 0.000000 0.080226 0.000000
# 6 -0.000001 -0.000001 0.000000 0.003432 0.000000 0.035288
#
#
# Mechanical properties :
#
#
# Convention : Reuss Voigt Hill
#
# Bulk Modulus (GPa) = 21.20340 37.65028 29.42684
# Shear Modulus (GPa) = 19.66389 25.56103 22.61246
#
# Velocity S-wave (km/s) = 3.24868 3.70391 3.48374
# Velocity P-wave (km/s) = 5.04500 6.20479 5.65471
#
# Compressibility (1/GPa) = 0.04716224
#
# Stress axis : x y z
#
# Youngs Moduli (GPa) = 30.63438 66.83258 47.09912
#
# Poissons Ratio (x) = 0.67117 -0.22907
# Poissons Ratio (y) = 0.30765 0.26652
# Poissons Ratio (z) = -0.14899 0.37819
#
# Static dielectric constant tensor:
#      x y z
#    x 3.004890 0.000000 -0.145540 
#    y 0.000000 3.484970 0.000000 
#    z -0.145540 0.000000 3.882650 
# 
# 
# High freq. dielectric constant tensor:
#      x y z
#    x 1.684560 0.000000 -0.012400 
#    y 0.000000 1.728650 0.000000 
#    z -0.012400 0.000000 1.740720 
# 
# From -- ./inp_files/280365.got.cif
#   From: 2010.06.25/outbox.cif.g09.slc.cpg/sg12_141_cif.got.tgz:280365.got - 2010.06.28 00:19:55.
