data_PCOD8085006
_publ_section_title
;
Structure prediction by ZEFSAII (Michael W. Deem and Ramdas Pophale) SiO2 
 PCOD8085006
Probable space group: C 2/M
;
_chemical_formula_sum "Si O2"
_cell_formula_units_Z 64
_cell_length_a 20.720439
_cell_length_b 8.971587
_cell_length_c 20.137147
_cell_angle_alpha 90.000000
_cell_angle_beta 104.587863
_cell_angle_gamma 90.000000
_cell_volume 3622.721725
_symmetry_space_group_name_H-M "C 2/M"
_symmetry_group_IT_number 12
_symmetry_cell_setting 'monoclinic'
loop_
_space_group_symop_operation_xyz
x,y,z
-x,y,-z
-x,-y,-z
x,-y,z
1/2+x,1/2+y,z
1/2-x,1/2+y,-z
1/2-x,1/2-y,-z
1/2+x,1/2-y,z
loop_
_atom_site_type_symbol
_atom_site_label
_atom_site_fract_x
_atom_site_fract_y
_atom_site_fract_z
Si Si1 0.472080 0.323364 0.348530
Si Si2 0.913015 0.172541 0.940369
Si Si3 0.219947 0.173438 0.347831
Si Si4 0.119299 0.828323 0.209621
Si Si5 0.547576 0.172510 0.932296
Si Si6 0.013904 0.328165 0.781108
Si Si7 0.644353 0.323233 0.585211
Si Si8 0.883910 0.822807 0.569211
O O1 0.472561 0.500000 0.344561
O O2 0.453872 0.260831 0.271344
O O3 0.417188 0.266353 0.386403
O O4 0.543908 0.260803 0.390287
O O5 0.864579 0.202428 0.864444
O O6 0.985064 0.224117 0.933415
O O7 0.913485 0.000000 0.960209
O O8 0.893956 0.268008 0.002219
O O9 0.186188 0.204837 0.267910
O O10 0.288151 0.262671 0.365972
O O11 0.171599 0.233910 0.393517
O O12 0.235123 0.000000 0.362438
O O13 0.060507 0.726023 0.222096
O O14 0.096725 0.000000 0.214172
O O15 0.562638 0.194475 0.857942
O O16 0.531976 0.000000 0.943253
O O17 0.009286 0.500000 0.760122
O O18 0.647578 0.500000 0.585265
O O19 0.634405 0.260429 0.508211
O O20 0.887069 0.000000 0.569548
#
# Coordination Sequence:
#
# PCOD8085006 Si02
#       8
#     8   8   8   8   8   8   8   8
#     4  10  19  34  53  71  96 130 165 202 243 290
#     4   9  15  23  39  63  90 121 159 197 229 273
#     4  10  19  33  52  72  99 133 162 196 244 292
#     4   9  17  30  47  68  95 129 166 198 236 287
#     4   9  16  25  37  59  94 127 152 186 240 290
#     4  10  19  29  45  70  97 126 161 202 242 285
#     4  10  21  34  51  75  99 125 163 206 244 288
#     4   9  17  33  55  74  93 126 166 200 242 294
#
# _framework density 17.666274999999999
#
# number of rings (size 3 to 8) (size 9 to 14) (size 15 to 20)
#    0.000    2.500    1.250    2.625    0.000    4.500 
#    0.000    0.625    0.000    1.500    0.000    0.875 
#    0.000    0.000    0.000    0.000    0.000    0.000 
#
# Total GULP energy -396598.491180 kJ/mol
# GULP energy per Si atom -12393.702849 kJ/mol
# Density = 1.762607 g / cm^3
# Si number density = 17.666275 Si / 1000 Ang^3
#
#
#
# Elastic Constant Matrix: (Units=GPa)
#
#
# Indices 1 2 3 4 5 6 
#
# 1 73.4394 20.2577 37.4589 0.0000 5.5344 0.0000
# 2 20.2577 30.6732 31.9227 0.0000 0.4153 0.0000
# 3 37.4589 31.9227 149.0704 0.0000 11.8911 0.0000
# 4 0.0000 0.0000 0.0000 21.9261 0.0000 3.7245
# 5 5.5344 0.4153 11.8911 0.0000 8.9077 0.0000
# 6 0.0000 0.0000 0.0000 3.7245 0.0000 19.1912
#
#
#
# Elastic Compliance Matrix: (Units=1/GPa)
#
#
# Indices 1 2 3 4 5 6 
#
# 1 0.017844 -0.009908 -0.001695 0.000000 -0.008362 0.000000
# 2 -0.009908 0.048481 -0.009181 0.000000 0.016151 0.000000
# 3 -0.001695 -0.009181 0.010053 0.000000 -0.011938 0.000000
# 4 0.000000 0.000000 0.000000 0.047163 0.000000 -0.009153
# 5 -0.008362 0.016151 -0.011938 0.000000 0.132641 0.000000
# 6 0.000000 0.000000 0.000000 -0.009153 0.000000 0.053884
#
#
# Mechanical properties :
#
#
# Convention : Reuss Voigt Hill
#
# Bulk Modulus (GPa) = 28.72664 48.05130 38.38897
# Shear Modulus (GPa) = 13.76515 20.90791 17.33653
#
# Velocity S-wave (km/s) = 2.79440 3.44393 3.13602
# Velocity P-wave (km/s) = 5.16794 6.56298 5.90679
#
# Compressibility (1/GPa) = 0.03481090
#
# Stress axis : x y z
#
# Youngs Moduli (GPa) = 56.03973 20.62655 99.47708
#
# Poissons Ratio (x) = 0.20436 0.16865
# Poissons Ratio (y) = 0.55522 0.91328
# Poissons Ratio (z) = 0.09501 0.18937
#
# Static dielectric constant tensor:
#      x y z
#    x 2.862320 0.000000 0.050510 
#    y 0.000000 3.130960 0.000000 
#    z 0.050510 0.000000 4.116450 
# 
# 
# High freq. dielectric constant tensor:
#      x y z
#    x 1.624730 0.000000 0.003890 
#    y 0.000000 1.672190 0.000000 
#    z 0.003890 0.000000 1.712930 
# 
# From -- ./inp_files/319213.got.cif
#   From: 2010.06.25/outbox.cif.g09.slc.cpg/sg12_160_cif.got.tgz:319213.got - 2010.06.28 00:19:55.
