data_PCOD8085125
_publ_section_title
;
Structure prediction by ZEFSAII (Michael W. Deem and Ramdas Pophale) SiO2 
 PCOD8085125
Probable space group: C 2/M
;
_chemical_formula_sum "Si O2"
_cell_formula_units_Z 64
_cell_length_a 24.657545
_cell_length_b 8.874030
_cell_length_c 17.034996
_cell_angle_alpha 90.000000
_cell_angle_beta 86.827484
_cell_angle_gamma 90.000000
_cell_volume 3721.745432
_symmetry_space_group_name_H-M "C 2/M"
_symmetry_group_IT_number 12
_symmetry_cell_setting 'monoclinic'
loop_
_space_group_symop_operation_xyz
x,y,z
-x,y,-z
-x,-y,-z
x,-y,z
1/2+x,1/2+y,z
1/2-x,1/2+y,-z
1/2-x,1/2-y,-z
1/2+x,1/2-y,z
loop_
_atom_site_type_symbol
_atom_site_label
_atom_site_fract_x
_atom_site_fract_y
_atom_site_fract_z
Si Si1 0.938468 0.180234 0.224516
Si Si2 0.279310 0.178046 0.827260
Si Si3 0.141751 0.821663 0.290300
Si Si4 0.341261 0.678758 0.127015
Si Si5 0.854540 0.177936 0.950070
Si Si6 0.074687 0.178717 0.437264
Si Si7 0.445076 0.676400 0.828763
Si Si8 0.542244 0.679113 0.604653
O O1 0.887865 0.246667 0.179738
O O2 0.934288 0.240119 0.314767
O O3 0.994269 0.244893 0.181292
O O4 0.937214 0.000000 0.222452
O O5 0.303631 0.240085 0.743377
O O6 0.216811 0.230385 0.835352
O O7 0.309213 0.244180 0.900594
O O8 0.284919 0.000000 0.828987
O O9 0.126365 0.769930 0.380436
O O10 0.092343 0.765395 0.239375
O O11 0.150829 0.000000 0.282542
O O12 0.345793 0.500000 0.123997
O O13 0.349971 0.741699 0.038343
O O14 0.915162 0.216774 0.913124
O O15 0.843784 0.000000 0.946317
O O16 0.079858 0.232831 0.527764
O O17 0.018759 0.241282 0.404061
O O18 0.071285 0.000000 0.434681
O O19 0.451703 0.500000 0.817909
O O20 0.540558 0.500000 0.607845
#
# Coordination Sequence:
#
# PCOD8085125 Si02
#       8
#     8   8   8   8   8   8   8   8
#     4   9  14  22  36  58  91 118 133 162 211 261
#     4  10  19  30  43  61  83 110 146 182 211 242
#     4   9  15  26  44  66  89 110 136 174 213 249
#     4   9  18  28  39  57  83 114 144 173 208 252
#     4   9  17  30  46  64  84 106 137 180 220 251
#     4   8  12  19  35  62  92 113 131 163 209 254
#     4   8  13  21  37  61  86 107 129 162 211 255
#     4   8  12  18  33  60  93 117 129 158 211 258
#
# _framework density 17.196232999999999
#
# number of rings (size 3 to 8) (size 9 to 14) (size 15 to 20)
#    0.000    3.250    1.250    2.250    0.000    0.500 
#    0.000    3.125    0.000    0.750    0.000   15.750 
#    0.000    0.000    0.000    0.000    0.000    0.125 
#
# Total GULP energy -396466.269020 kJ/mol
# GULP energy per Si atom -12389.570907 kJ/mol
# Density = 1.715709 g / cm^3
# Si number density = 17.196233 Si / 1000 Ang^3
#
#
#
# Elastic Constant Matrix: (Units=GPa)
#
#
# Indices 1 2 3 4 5 6 
#
# 1 131.9029 20.1563 81.6558 0.0000 -19.1013 0.0000
# 2 20.1563 18.3821 20.3831 0.0000 -3.3764 0.0000
# 3 81.6558 20.3831 129.3407 0.0000 -31.2727 0.0000
# 4 0.0000 0.0000 0.0000 10.4244 0.0000 -3.7253
# 5 -19.1013 -3.3764 -31.2727 0.0000 27.8865 0.0000
# 6 0.0000 0.0000 0.0000 -3.7253 0.0000 15.5323
#
#
#
# Elastic Compliance Matrix: (Units=1/GPa)
#
#
# Indices 1 2 3 4 5 6 
#
# 1 0.013012 -0.006258 -0.007213 0.000000 0.000067 0.000000
# 2 -0.006258 0.069449 -0.008228 0.000000 -0.005105 0.000000
# 3 -0.007213 -0.008228 0.016665 0.000000 0.012752 0.000000
# 4 0.000000 0.000000 0.000000 0.104921 0.000000 0.025165
# 5 0.000067 -0.005105 0.012752 0.000000 0.049588 0.000000
# 6 0.000000 0.000000 0.000000 0.025165 0.000000 0.070417
#
#
# Mechanical properties :
#
#
# Convention : Reuss Voigt Hill
#
# Bulk Modulus (GPa) = 17.94408 58.22401 38.08404
# Shear Modulus (GPa) = 12.95246 21.26402 17.10824
#
# Velocity S-wave (km/s) = 2.74745 3.52028 3.15760
# Velocity P-wave (km/s) = 4.53014 7.10318 5.95724
#
# Compressibility (1/GPa) = 0.05572870
#
# Stress axis : x y z
#
# Youngs Moduli (GPa) = 76.84985 14.39900 60.00646
#
# Poissons Ratio (x) = 0.09011 0.43280
# Poissons Ratio (y) = 0.48095 0.49373
# Poissons Ratio (z) = 0.55428 0.11848
#
# Static dielectric constant tensor:
#      x y z
#    x 3.304100 0.000000 -0.224870 
#    y 0.000000 2.612730 0.000000 
#    z -0.224870 0.000000 3.614730 
# 
# 
# High freq. dielectric constant tensor:
#      x y z
#    x 1.647980 0.000000 -0.023950 
#    y 0.000000 1.598180 0.000000 
#    z -0.023950 0.000000 1.670850 
# 
# From -- ./inp_files/287629.got.cif
#   From: 2010.06.25/outbox.cif.g09.slc.cpg/sg12_144_cif.got.tgz:287629.got - 2010.06.28 00:19:55.
