data_PCOD8085553
_publ_section_title
;
Structure prediction by ZEFSAII (Michael W. Deem and Ramdas Pophale) SiO2 
 PCOD8085553
Probable space group: C 2/M
;
_chemical_formula_sum "Si O2"
_cell_formula_units_Z 40
_cell_length_a 19.136267
_cell_length_b 9.250724
_cell_length_c 27.708802
_cell_angle_alpha 90.000000
_cell_angle_beta 27.004436
_cell_angle_gamma 90.000000
_cell_volume 2227.221677
_symmetry_space_group_name_H-M "C 2/M"
_symmetry_group_IT_number 12
_symmetry_cell_setting 'monoclinic'
loop_
_space_group_symop_operation_xyz
x,y,z
-x,y,-z
-x,-y,-z
x,-y,z
1/2+x,1/2+y,z
1/2-x,1/2+y,-z
1/2-x,1/2-y,-z
1/2+x,1/2-y,z
loop_
_atom_site_type_symbol
_atom_site_label
_atom_site_fract_x
_atom_site_fract_y
_atom_site_fract_z
Si Si1 0.719651 0.334073 0.201074
Si Si2 0.063002 0.666289 0.846993
Si Si3 0.626129 0.669607 0.608181
Si Si4 0.699293 0.333057 0.939826
Si Si5 0.950723 0.334762 0.252859
O O1 0.742136 0.500000 0.171945
O O2 0.788038 0.301944 0.211778
O O3 0.540003 0.293425 0.312379
O O4 0.813679 0.239871 0.104694
O O5 0.009937 0.500000 0.883978
O O6 0.110978 0.702034 0.762585
O O7 0.920652 0.764421 0.949603
O O8 0.661020 0.500000 0.587287
O O9 0.750000 0.750000 0.500000
O O10 0.635364 0.729449 0.657003
O O11 0.659555 0.500000 0.957879
O O12 0.867019 0.306976 0.858889
O O13 0.913635 0.500000 0.290220
#
# Coordination Sequence:
#
# PCOD8085553 Si02
#       5
#     8   8   8   8   8
#     4   9  19  34  51  72  97 129 168 202 236 285
#     4  10  19  32  50  72 101 134 165 199 237 281
#     4  10  20  36  57  75  93 122 161 204 248 294
#     4  10  19  30  47  73 104 136 166 197 236 282
#     4   9  19  34  51  73 100 130 165 201 238 284
#
# _framework density 17.959596000000001
#
# number of rings (size 3 to 8) (size 9 to 14) (size 15 to 20)
#    0.000    2.400    0.000    2.400    0.000    5.600 
#    0.000    1.000    0.000    6.000    0.000    0.000 
#    0.000    0.000    0.000    0.000    0.000    0.000 
#
# Total GULP energy -248065.558355 kJ/mol
# GULP energy per Si atom -12403.277918 kJ/mol
# Density = 1.791872 g / cm^3
# Si number density = 17.959596 Si / 1000 Ang^3
#
#
#
# Elastic Constant Matrix: (Units=GPa)
#
#
# Indices 1 2 3 4 5 6 
#
# 1 129.3280 51.1360 41.4672 -0.0003 20.8348 0.0001
# 2 51.1360 97.9311 60.3789 0.0024 16.5185 0.0001
# 3 41.4672 60.3789 94.1842 0.0116 21.8572 0.0008
# 4 -0.0003 0.0024 0.0116 35.3667 0.0004 6.0475
# 5 20.8348 16.5185 21.8572 0.0004 18.2047 -0.0004
# 6 0.0001 0.0001 0.0008 6.0475 -0.0004 25.4787
#
#
#
# Elastic Compliance Matrix: (Units=1/GPa)
#
#
# Indices 1 2 3 4 5 6 
#
# 1 0.010759 -0.004105 -0.000156 0.000001 -0.008402 0.000000
# 2 -0.004105 0.018589 -0.010099 0.000002 -0.000043 0.000000
# 3 -0.000156 -0.010099 0.020783 -0.000006 -0.015611 0.000001
# 4 0.000001 0.000002 -0.000006 0.029471 0.000004 -0.006995
# 5 -0.008402 -0.000043 -0.015611 0.000004 0.083329 0.000001
# 6 0.000000 0.000000 0.000001 -0.006995 0.000001 0.040909
#
#
# Mechanical properties :
#
#
# Convention : Reuss Voigt Hill
#
# Bulk Modulus (GPa) = 46.70440 69.71194 58.20817
# Shear Modulus (GPa) = 20.85971 27.04075 23.95023
#
# Velocity S-wave (km/s) = 3.41175 3.88447 3.65576
# Velocity P-wave (km/s) = 6.44839 7.68239 7.09228
#
# Compressibility (1/GPa) = 0.02141126
#
# Stress axis : x y z
#
# Youngs Moduli (GPa) = 92.94817 53.79638 48.11554
#
# Poissons Ratio (x) = 0.22082 0.00749
# Poissons Ratio (y) = 0.38152 0.48594
# Poissons Ratio (z) = 0.01447 0.54331
#
# Static dielectric constant tensor:
#      x y z
#    x 3.500360 0.000000 0.010740 
#    y 0.000000 3.413210 0.000000 
#    z 0.010740 0.000000 3.102600 
# 
# 
# High freq. dielectric constant tensor:
#      x y z
#    x 1.700270 0.000000 0.004540 
#    y 0.000000 1.701030 0.000000 
#    z 0.004540 0.000000 1.674380 
# 
# From -- ./inp_files/151620.got.cif
#   From: 2010.06.25/outbox.cif.g09.slc.cpg/sg12_76_cif.got.tgz:151620.got - 2010.06.28 00:19:55.
