data_PCOD8085358
_publ_section_title
;
Structure prediction by ZEFSAII (Michael W. Deem and Ramdas Pophale) SiO2 
 PCOD8085358
Probable space group: C 2/M
;
_chemical_formula_sum "Si O2"
_cell_formula_units_Z 56
_cell_length_a 31.824133
_cell_length_b 9.369434
_cell_length_c 19.066926
_cell_angle_alpha 90.000000
_cell_angle_beta 147.519171
_cell_angle_gamma 90.000000
_cell_volume 3053.085461
_symmetry_space_group_name_H-M "C 2/M"
_symmetry_group_IT_number 12
_symmetry_cell_setting 'monoclinic'
loop_
_space_group_symop_operation_xyz
x,y,z
-x,y,-z
-x,-y,-z
x,-y,z
1/2+x,1/2+y,z
1/2-x,1/2+y,-z
1/2-x,1/2-y,-z
1/2+x,1/2-y,z
loop_
_atom_site_type_symbol
_atom_site_label
_atom_site_fract_x
_atom_site_fract_y
_atom_site_fract_z
Si Si1 0.178441 0.661995 0.614875
Si Si2 0.588859 0.163665 0.627577
Si Si3 0.342957 0.156734 0.567202
Si Si4 0.415650 0.164697 0.905607
Si Si5 0.192656 0.337385 0.129602
Si Si6 0.340069 0.656583 0.686125
Si Si7 0.226036 0.170454 0.895277
O O1 0.207617 0.500000 0.643730
O O2 0.111941 0.671647 0.579161
O O3 0.143082 0.718692 0.491515
O O4 0.252687 0.750445 0.742088
O O5 0.500000 0.219184 0.500000
O O6 0.643181 0.266118 0.751680
O O7 0.595277 0.000000 0.664752
O O8 0.380753 0.263380 0.677206
O O9 0.251593 0.141971 0.454859
O O10 0.382471 0.000000 0.630795
O O11 0.395148 0.183232 0.960786
O O12 0.352288 0.254442 0.773846
O O13 0.407788 0.000000 0.872697
O O14 0.500000 0.223290 0.000000
O O15 0.219661 0.500000 0.174077
O O16 0.205561 0.293136 0.066146
O O17 0.378735 0.500000 0.746606
O O18 0.218041 0.000000 0.896615
O O19 0.250000 0.250000 0.000000
#
# Coordination Sequence:
#
# PCOD8085358 Si02
#       7
#     8   8   8   8   8   8   8
#     4   9  16  29  50  74  99 128 165 204 246 297
#     4   9  18  33  54  80 108 137 169 210 262 317
#     4   9  17  29  46  69  95 124 157 196 239 284
#     4  10  20  34  51  70  96 131 167 205 251 300
#     4   9  18  32  51  74  98 126 168 213 251 297
#     4  10  19  30  46  69  95 124 158 199 242 283
#     4  10  20  35  56  81 106 137 176 219 264 312
#
# _framework density 18.342101
#
# number of rings (size 3 to 8) (size 9 to 14) (size 15 to 20)
#    0.000    2.571    1.429    0.857    0.000    2.286 
#    0.000    1.429    0.000    8.571    0.000    0.000 
#    0.000    0.000    0.000    0.000    0.000    0.000 
#
# Total GULP energy -346898.192198 kJ/mol
# GULP energy per Si atom -12389.221150 kJ/mol
# Density = 1.830035 g / cm^3
# Si number density = 18.342101 Si / 1000 Ang^3
#
#
#
# Elastic Constant Matrix: (Units=GPa)
#
#
# Indices 1 2 3 4 5 6 
#
# 1 129.7666 47.5266 53.8626 0.0000 -14.5621 0.0000
# 2 47.5266 80.9433 36.1213 0.0000 -12.7746 0.0000
# 3 53.8626 36.1213 55.2332 0.0000 -12.0523 0.0000
# 4 0.0000 0.0000 0.0000 16.6240 0.0000 -1.8458
# 5 -14.5621 -12.7746 -12.0523 0.0000 33.3178 0.0000
# 6 0.0000 0.0000 0.0000 -1.8458 0.0000 18.3494
#
#
#
# Elastic Compliance Matrix: (Units=1/GPa)
#
#
# Indices 1 2 3 4 5 6 
#
# 1 0.013423 -0.002814 -0.011079 0.000000 0.000780 0.000000
# 2 -0.002814 0.018276 -0.008628 0.000000 0.002656 0.000000
# 3 -0.011079 -0.008628 0.035583 0.000000 0.004721 0.000000
# 4 0.000000 0.000000 0.000000 0.060834 0.000000 0.006119
# 5 0.000780 0.002656 0.004721 0.000000 0.033081 0.000000
# 6 0.000000 0.000000 0.000000 0.006119 0.000000 0.055113
#
#
# Mechanical properties :
#
#
# Convention : Reuss Voigt Hill
#
# Bulk Modulus (GPa) = 44.96815 60.10713 52.53764
# Shear Modulus (GPa) = 18.60352 22.22040 20.41196
#
# Velocity S-wave (km/s) = 3.18819 3.48435 3.33956
# Velocity P-wave (km/s) = 6.17433 7.00206 6.60118
#
# Compressibility (1/GPa) = 0.02223796
#
# Stress axis : x y z
#
# Youngs Moduli (GPa) = 74.49822 54.71545 28.10370
#
# Poissons Ratio (x) = 0.15398 0.31137
# Poissons Ratio (y) = 0.20965 0.24249
# Poissons Ratio (z) = 0.82540 0.47211
#
# Static dielectric constant tensor:
#      x y z
#    x 3.714670 0.000000 -0.145530 
#    y 0.000000 3.619360 0.000000 
#    z -0.145530 0.000000 3.022970 
# 
# 
# High freq. dielectric constant tensor:
#      x y z
#    x 1.720840 0.000000 -0.018290 
#    y 0.000000 1.714860 0.000000 
#    z -0.018290 0.000000 1.668050 
# 
# From -- ./inp_files/295145.got.cif
#   From: 2010.06.25/outbox.cif.g09.slc.cpg/sg12_148_cif.got.tgz:295145.got - 2010.06.28 00:19:55.
