data_PCOD8085218
_publ_section_title
;
Structure prediction by ZEFSAII (Michael W. Deem and Ramdas Pophale) SiO2 
 PCOD8085218
Probable space group: C 2/M
;
_chemical_formula_sum "Si O2"
_cell_formula_units_Z 56
_cell_length_a 26.918765
_cell_length_b 9.351840
_cell_length_c 16.049143
_cell_angle_alpha 90.000000
_cell_angle_beta 64.157576
_cell_angle_gamma 90.000000
_cell_volume 3636.174792
_symmetry_space_group_name_H-M "C 2/M"
_symmetry_group_IT_number 12
_symmetry_cell_setting 'monoclinic'
loop_
_space_group_symop_operation_xyz
x,y,z
-x,y,-z
-x,-y,-z
x,-y,z
1/2+x,1/2+y,z
1/2-x,1/2+y,-z
1/2-x,1/2-y,-z
1/2+x,1/2-y,z
loop_
_atom_site_type_symbol
_atom_site_label
_atom_site_fract_x
_atom_site_fract_y
_atom_site_fract_z
Si Si1 0.557422 0.165174 0.355940
Si Si2 0.761343 0.332880 0.180657
Si Si3 0.356219 0.337455 0.805575
Si Si4 0.835139 0.833211 0.450143
Si Si5 0.068947 0.666282 0.536146
Si Si6 0.201931 0.165471 0.989959
Si Si7 0.729074 0.835093 0.634273
O O1 0.591706 0.247218 0.261302
O O2 0.574401 0.215378 0.436164
O O3 0.493024 0.193786 0.387078
O O4 0.571242 0.000000 0.335920
O O5 0.770200 0.500000 0.155494
O O6 0.699581 0.285457 0.199924
O O7 0.771203 0.294074 0.269007
O O8 0.806113 0.242004 0.093897
O O9 0.367633 0.500000 0.771538
O O10 0.351018 0.322185 0.910126
O O11 0.892040 0.762444 0.435948
O O12 0.789846 0.803285 0.554319
O O13 0.816039 0.763197 0.377472
O O14 0.844894 0.000000 0.427891
O O15 0.084876 0.500000 0.533890
O O16 0.218248 0.000000 0.965237
O O17 0.250000 0.250000 0.000000
O O18 0.713158 0.000000 0.631160
#
# Coordination Sequence:
#
# PCOD8085218 Si02
#       7
#     8   8   8   8   8   8   8
#     4   9  18  30  45  64  85 114 149 177 208 256
#     4   9  17  29  44  63  88 117 146 176 213 255
#     4   9  17  28  42  63  91 116 140 176 216 251
#     4  10  19  30  45  65  87 114 148 179 210 253
#     4   9  18  32  45  61  88 116 143 179 217 249
#     4   9  17  28  41  60  87 116 144 176 214 255
#     4   9  18  31  45  63  89 117 144 177 215 252
#
# _framework density 15.400798999999999
#
# number of rings (size 3 to 8) (size 9 to 14) (size 15 to 20)
#    0.000    2.857    0.000    3.429    0.000    6.286 
#    0.000    1.429    0.000    0.000    0.000    1.000 
#    0.000    8.000    0.000    0.000    0.000    0.000 
#
# Total GULP energy -347125.681315 kJ/mol
# GULP energy per Si atom -12397.345761 kJ/mol
# Density = 1.536575 g / cm^3
# Si number density = 15.400799 Si / 1000 Ang^3
#
#
#
# Elastic Constant Matrix: (Units=GPa)
#
#
# Indices 1 2 3 4 5 6 
#
# 1 78.1527 48.7869 43.6073 0.0000 7.0722 0.0000
# 2 48.7869 81.9121 59.4234 0.0000 2.7694 0.0000
# 3 43.6073 59.4234 114.7594 0.0000 6.2955 0.0000
# 4 0.0000 0.0000 0.0000 30.6016 0.0000 -1.6550
# 5 7.0722 2.7694 6.2955 0.0000 20.8717 0.0000
# 6 0.0000 0.0000 0.0000 -1.6550 0.0000 25.4819
#
#
#
# Elastic Compliance Matrix: (Units=1/GPa)
#
#
# Indices 1 2 3 4 5 6 
#
# 1 0.021291 -0.010959 -0.002135 0.000000 -0.005116 0.000000
# 2 -0.010959 0.025199 -0.009054 0.000000 0.003101 0.000000
# 3 -0.002135 -0.009054 0.014345 0.000000 -0.002402 0.000000
# 4 0.000000 0.000000 0.000000 0.032793 0.000000 0.002130
# 5 -0.005116 0.003101 -0.002402 0.000000 0.049958 0.000000
# 6 0.000000 0.000000 0.000000 0.002130 0.000000 0.039382
#
#
# Mechanical properties :
#
#
# Convention : Reuss Voigt Hill
#
# Bulk Modulus (GPa) = 60.46348 64.27328 62.36838
# Shear Modulus (GPa) = 21.47975 23.59148 22.53562
#
# Velocity S-wave (km/s) = 3.73864 3.91811 3.82943
# Velocity P-wave (km/s) = 7.61458 7.89260 7.75483
#
# Compressibility (1/GPa) = 0.01653891
#
# Stress axis : x y z
#
# Youngs Moduli (GPa) = 46.96836 39.68436 69.71021
#
# Poissons Ratio (x) = 0.43491 0.14882
# Poissons Ratio (y) = 0.51473 0.63115
# Poissons Ratio (z) = 0.10027 0.35930
#
# Static dielectric constant tensor:
#      x y z
#    x 2.665740 0.000000 0.079690 
#    y 0.000000 3.010080 0.000000 
#    z 0.079690 0.000000 3.200500 
# 
# 
# High freq. dielectric constant tensor:
#      x y z
#    x 1.556040 0.000000 0.004090 
#    y 0.000000 1.598420 0.000000 
#    z 0.004090 0.000000 1.588950 
# 
# From -- ./inp_files/237912.got.cif
#   From: 2010.06.25/outbox.cif.g09.slc.cpg/sg12_119_cif.got.tgz:237912.got - 2010.06.28 00:19:55.
