data_PCOD8085602
_publ_section_title
;
Structure prediction by ZEFSAII (Michael W. Deem and Ramdas Pophale) SiO2 
 PCOD8085602
Probable space group: C 2/M
;
_chemical_formula_sum "Si O2"
_cell_formula_units_Z 64
_cell_length_a 25.038813
_cell_length_b 8.965379
_cell_length_c 18.754018
_cell_angle_alpha 90.000000
_cell_angle_beta 118.295981
_cell_angle_gamma 90.000000
_cell_volume 3706.903756
_symmetry_space_group_name_H-M "C 2/M"
_symmetry_group_IT_number 12
_symmetry_cell_setting 'monoclinic'
loop_
_space_group_symop_operation_xyz
x,y,z
-x,y,-z
-x,-y,-z
x,-y,z
1/2+x,1/2+y,z
1/2-x,1/2+y,-z
1/2-x,1/2-y,-z
1/2+x,1/2-y,z
loop_
_atom_site_type_symbol
_atom_site_label
_atom_site_fract_x
_atom_site_fract_y
_atom_site_fract_z
Si Si1 0.992967 0.322570 0.320654
Si Si2 0.252027 0.175300 0.290635
Si Si3 0.522699 0.822558 0.182440
Si Si4 0.439887 0.836328 0.008044
Si Si5 0.877533 0.173098 0.849310
Si Si6 0.382055 0.170756 0.333988
Si Si7 0.402157 0.828445 0.507276
Si Si8 0.221774 0.175851 0.550329
O O1 0.989302 0.500000 0.314621
O O2 0.012811 0.259814 0.256014
O O3 0.040819 0.273395 0.410856
O O4 0.927083 0.256367 0.303312
O O5 0.193644 0.207353 0.205266
O O6 0.313612 0.238718 0.291560
O O7 0.242826 0.260695 0.358813
O O8 0.260016 0.000000 0.312606
O O9 0.583556 0.754068 0.187203
O O10 0.531072 0.000000 0.185868
O O11 0.462163 0.776454 0.099362
O O12 0.393227 0.726043 0.939505
O O13 0.409324 0.000000 0.995615
O O14 0.500000 0.850400 0.000000
O O15 0.892283 0.000000 0.852175
O O16 0.415304 0.187305 0.431495
O O17 0.374514 0.000000 0.308180
O O18 0.348381 0.718234 0.493338
O O19 0.384886 0.000000 0.514709
O O20 0.250000 0.250000 0.500000
O O21 0.230188 0.000000 0.552844
#
# Coordination Sequence:
#
# PCOD8085602 Si02
#       8
#     8   8   8   8   8   8   8   8
#     4   9  16  27  49  75  94 121 161 202 239 277
#     4   9  19  34  50  71  95 122 160 200 234 278
#     4   9  18  30  45  71 100 123 155 194 236 286
#     4   8  15  29  46  65  94 126 154 191 233 280
#     4  10  19  30  48  72  96 122 155 193 235 289
#     4   8  14  28  49  70  94 122 159 204 239 268
#     4   9  17  30  48  72  96 121 160 202 238 278
#     4  11  22  34  48  66  95 131 161 193 236 282
#
# _framework density 17.265083000000001
#
# number of rings (size 3 to 8) (size 9 to 14) (size 15 to 20)
#    0.000    2.875    0.000    3.375    1.750    4.750 
#    0.000    0.000    0.000    9.750    0.000    0.000 
#    0.000    0.000    0.000    0.000    0.000    1.250 
#
# Total GULP energy -396558.226899 kJ/mol
# GULP energy per Si atom -12392.444591 kJ/mol
# Density = 1.722579 g / cm^3
# Si number density = 17.265083 Si / 1000 Ang^3
#
#
#
# Elastic Constant Matrix: (Units=GPa)
#
#
# Indices 1 2 3 4 5 6 
#
# 1 71.8211 22.7573 54.7003 0.0000 7.1010 0.0000
# 2 22.7573 52.2482 29.1859 0.0000 7.7505 0.0000
# 3 54.7003 29.1859 114.0662 0.0000 15.2745 0.0000
# 4 0.0000 0.0000 0.0000 21.7898 0.0000 3.1954
# 5 7.1010 7.7505 15.2745 0.0000 20.8228 0.0000
# 6 0.0000 0.0000 0.0000 3.1954 0.0000 14.1993
#
#
#
# Elastic Compliance Matrix: (Units=1/GPa)
#
#
# Indices 1 2 3 4 5 6 
#
# 1 0.022819 -0.004568 -0.009935 0.000000 0.001207 0.000000
# 2 -0.004568 0.023645 -0.003204 0.000000 -0.004893 0.000000
# 3 -0.009935 -0.003204 0.015234 0.000000 -0.006594 0.000000
# 4 0.000000 0.000000 0.000000 0.047459 0.000000 -0.010680
# 5 0.001207 -0.004893 -0.006594 0.000000 0.054271 0.000000
# 6 0.000000 0.000000 0.000000 -0.010680 0.000000 0.072829
#
#
# Mechanical properties :
#
#
# Convention : Reuss Voigt Hill
#
# Bulk Modulus (GPa) = 38.04839 50.15808 44.10324
# Shear Modulus (GPa) = 17.82958 20.12852 18.97905
#
# Velocity S-wave (km/s) = 3.21704 3.41816 3.31913
# Velocity P-wave (km/s) = 5.99039 6.68530 6.34736
#
# Compressibility (1/GPa) = 0.02628232
#
# Stress axis : x y z
#
# Youngs Moduli (GPa) = 43.82394 42.29281 65.64161
#
# Poissons Ratio (x) = 0.19319 0.65218
# Poissons Ratio (y) = 0.20019 0.21033
# Poissons Ratio (z) = 0.43541 0.13551
#
# Static dielectric constant tensor:
#      x y z
#    x 3.051080 0.000000 -0.056450 
#    y 0.000000 2.945540 0.000000 
#    z -0.056450 0.000000 3.540900 
# 
# 
# High freq. dielectric constant tensor:
#      x y z
#    x 1.652550 0.000000 0.004980 
#    y 0.000000 1.637430 0.000000 
#    z 0.004980 0.000000 1.665710 
# 
# From -- ./inp_files/323771.got.cif
#   From: 2010.06.25/outbox.cif.g09.slc.cpg/sg12_162_cif.got.tgz:323771.got - 2010.06.28 00:19:55.
