data_PCOD8085599
_publ_section_title
;
Structure prediction by ZEFSAII (Michael W. Deem and Ramdas Pophale) SiO2 
 PCOD8085599
Probable space group: C 2/M
;
_chemical_formula_sum "Si O2"
_cell_formula_units_Z 56
_cell_length_a 28.247577
_cell_length_b 9.252731
_cell_length_c 18.186537
_cell_angle_alpha 90.000000
_cell_angle_beta 138.492466
_cell_angle_gamma 90.000000
_cell_volume 3150.142925
_symmetry_space_group_name_H-M "C 2/M"
_symmetry_group_IT_number 12
_symmetry_cell_setting 'monoclinic'
loop_
_space_group_symop_operation_xyz
x,y,z
-x,y,-z
-x,-y,-z
x,-y,z
1/2+x,1/2+y,z
1/2-x,1/2+y,-z
1/2-x,1/2-y,-z
1/2+x,1/2-y,z
loop_
_atom_site_type_symbol
_atom_site_label
_atom_site_fract_x
_atom_site_fract_y
_atom_site_fract_z
Si Si1 0.708567 0.831165 0.626557
Si Si2 0.807094 0.665796 0.018895
Si Si3 0.295382 0.833735 0.833975
Si Si4 0.947577 0.833163 0.165898
Si Si5 0.197848 0.838603 0.391629
Si Si6 0.939442 0.168244 0.987774
Si Si7 0.902532 0.166150 0.603741
O O1 0.723877 0.744487 0.719157
O O2 0.785132 0.803326 0.673472
O O3 0.640640 0.768068 0.502777
O O4 0.693693 0.000000 0.624742
O O5 0.809145 0.500000 0.046605
O O6 0.884644 0.733573 0.122654
O O7 0.750000 0.750000 0.000000
O O8 0.786064 0.681428 0.909841
O O9 0.367879 0.758780 0.890167
O O10 0.297172 0.000000 0.810788
O O11 0.014015 0.795382 0.296794
O O12 0.925126 0.000000 0.148642
O O13 0.966405 0.802359 0.102282
O O14 0.250000 0.750000 0.500000
O O15 0.119546 0.812673 0.334964
O O16 0.223076 0.000000 0.434359
O O17 0.921040 0.000000 0.953664
O O18 0.000000 0.218227 0.000000
O O19 0.889627 0.000000 0.564648
#
# Coordination Sequence:
#
# PCOD8085599 Si02
#       7
#     8   8   8   8   8   8   8
#     4  10  19  30  48  72 102 139 180 219 253 296
#     4  10  21  38  60  81 102 127 163 213 264 318
#     4  10  21  35  51  75 105 135 170 211 259 311
#     4   9  18  32  52  78 105 137 173 209 256 310
#     4   8  15  26  41  62  92 132 178 214 241 277
#     4   9  18  31  50  73 102 139 176 214 253 297
#     4   9  17  30  48  70 103 141 177 214 252 298
#
# _framework density 17.776971
#
# number of rings (size 3 to 8) (size 9 to 14) (size 15 to 20)
#    0.000    2.714    0.000    1.286    2.000    3.143 
#    0.000    0.000    0.000    0.857    0.000    6.000 
#    0.000    0.000    0.000    0.000    0.000    0.000 
#
# Total GULP energy -346878.986045 kJ/mol
# GULP energy per Si atom -12388.535216 kJ/mol
# Density = 1.773651 g / cm^3
# Si number density = 17.776971 Si / 1000 Ang^3
#
#
#
# Elastic Constant Matrix: (Units=GPa)
#
#
# Indices 1 2 3 4 5 6 
#
# 1 87.1344 50.6163 34.8094 0.0000 15.6009 0.0000
# 2 50.6163 111.5092 64.8363 0.0000 9.5237 0.0000
# 3 34.8094 64.8363 110.2276 0.0000 8.9874 0.0000
# 4 0.0000 0.0000 0.0000 29.2431 0.0000 2.7876
# 5 15.6009 9.5237 8.9874 0.0000 13.7403 0.0000
# 6 0.0000 0.0000 0.0000 2.7876 0.0000 25.5513
#
#
#
# Elastic Compliance Matrix: (Units=1/GPa)
#
#
# Indices 1 2 3 4 5 6 
#
# 1 0.018436 -0.006654 -0.000610 0.000000 -0.015922 0.000000
# 2 -0.006654 0.016292 -0.007581 0.000000 0.001222 0.000000
# 3 -0.000610 -0.007581 0.013985 0.000000 -0.003200 0.000000
# 4 0.000000 0.000000 0.000000 0.034556 0.000000 -0.003770
# 5 -0.015922 0.001222 -0.003200 0.000000 0.092103 0.000000
# 6 0.000000 0.000000 0.000000 -0.003770 0.000000 0.039548
#
#
# Mechanical properties :
#
#
# Convention : Reuss Voigt Hill
#
# Bulk Modulus (GPa) = 52.56902 67.71058 60.13980
# Shear Modulus (GPa) = 19.92417 24.28087 22.10252
#
# Velocity S-wave (km/s) = 3.35145 3.69977 3.52990
# Velocity P-wave (km/s) = 6.67921 7.51150 7.10755
#
# Compressibility (1/GPa) = 0.01902261
#
# Stress axis : x y z
#
# Youngs Moduli (GPa) = 54.24095 61.37948 71.50490
#
# Poissons Ratio (x) = 0.40843 0.04361
# Poissons Ratio (y) = 0.36093 0.54210
# Poissons Ratio (z) = 0.03308 0.46534
#
# Static dielectric constant tensor:
#      x y z
#    x 3.037270 0.000000 -0.085750 
#    y 0.000000 3.374790 0.000000 
#    z -0.085750 0.000000 3.103930 
# 
# 
# High freq. dielectric constant tensor:
#      x y z
#    x 1.660840 0.000000 0.000360 
#    y 0.000000 1.694140 0.000000 
#    z 0.000360 0.000000 1.682030 
# 
# From -- ./inp_files/288433.got.cif
#   From: 2010.06.25/outbox.cif.g09.slc.cpg/sg12_145_cif.got.tgz:288433.got - 2010.06.28 00:19:55.
