data_PCOD8085591
_publ_section_title
;
Structure prediction by ZEFSAII (Michael W. Deem and Ramdas Pophale) SiO2 
 PCOD8085591
Probable space group: C 2/M
;
_chemical_formula_sum "Si O2"
_cell_formula_units_Z 48
_cell_length_a 18.463988
_cell_length_b 9.117555
_cell_length_c 24.614273
_cell_angle_alpha 90.000000
_cell_angle_beta 41.700359
_cell_angle_gamma 90.000000
_cell_volume 2756.550964
_symmetry_space_group_name_H-M "C 2/M"
_symmetry_group_IT_number 12
_symmetry_cell_setting 'monoclinic'
loop_
_space_group_symop_operation_xyz
x,y,z
-x,y,-z
-x,-y,-z
x,-y,z
1/2+x,1/2+y,z
1/2-x,1/2+y,-z
1/2-x,1/2-y,-z
1/2+x,1/2-y,z
loop_
_atom_site_type_symbol
_atom_site_label
_atom_site_fract_x
_atom_site_fract_y
_atom_site_fract_z
Si Si1 0.003328 0.673915 0.168676
Si Si2 0.832937 0.167319 0.329733
Si Si3 0.913176 0.671568 0.504262
Si Si4 0.436883 0.829562 0.984561
Si Si5 0.137125 0.831393 0.567616
Si Si6 0.791524 0.828383 0.923351
O O1 0.014691 0.500000 0.166965
O O2 0.019881 0.731808 0.097568
O O3 0.095171 0.749807 0.156138
O O4 0.885718 0.726154 0.255461
O O5 0.707246 0.214215 0.407507
O O6 0.900399 0.183481 0.348676
O O7 0.839356 0.000000 0.305439
O O8 0.921498 0.500000 0.487477
O O9 0.943153 0.755308 0.431136
O O10 0.000000 0.723429 0.500000
O O11 0.465496 0.000000 0.967997
O O12 0.500000 0.753840 0.000000
O O13 0.306339 0.805351 0.065474
O O14 0.250000 0.750000 0.500000
O O15 0.152570 0.000000 0.542846
O O16 0.812073 0.000000 0.922275
O O17 0.750000 0.750000 0.000000
#
# Coordination Sequence:
#
# PCOD8085591 Si02
#       6
#     8   8   8   8   8   8
#     4  10  19  30  48  71  93 122 160 200 240 282
#     4   9  18  32  49  69  95 126 159 198 243 287
#     4   9  18  33  52  73  99 131 162 195 244 300
#     4   8  15  29  48  69  92 120 154 190 231 279
#     4   9  17  30  49  71  93 122 161 199 238 286
#     4   9  16  28  48  69  91 120 153 190 230 278
#
# _framework density 17.413063999999999
#
# number of rings (size 3 to 8) (size 9 to 14) (size 15 to 20)
#    0.000    3.000    0.000    3.500    0.000    3.667 
#    0.000    1.667    0.000   24.000    0.000    0.000 
#    0.000    0.000    0.000    0.000    0.000    0.000 
#
# Total GULP energy -297355.381190 kJ/mol
# GULP energy per Si atom -12389.807550 kJ/mol
# Density = 1.737343 g / cm^3
# Si number density = 17.413064 Si / 1000 Ang^3
#
#
#
# Elastic Constant Matrix: (Units=GPa)
#
#
# Indices 1 2 3 4 5 6 
#
# 1 131.3606 41.2230 41.2613 0.0000 4.6754 0.0000
# 2 41.2230 73.4201 30.5016 0.0001 1.6241 -0.0002
# 3 41.2613 30.5016 71.2219 0.0000 -0.6958 0.0000
# 4 0.0000 0.0001 0.0000 28.7511 0.0000 -1.2740
# 5 4.6754 1.6241 -0.6958 0.0000 18.0863 0.0000
# 6 0.0000 -0.0002 0.0000 -1.2740 0.0000 23.2295
#
#
#
# Elastic Compliance Matrix: (Units=1/GPa)
#
#
# Indices 1 2 3 4 5 6 
#
# 1 0.010285 -0.003935 -0.004298 0.000000 -0.002471 0.000000
# 2 -0.003935 0.018130 -0.005493 0.000000 -0.000822 0.000000
# 3 -0.004298 -0.005493 0.018905 0.000000 0.002332 0.000000
# 4 0.000000 0.000000 0.000000 0.034866 0.000000 0.001912
# 5 -0.002471 -0.000822 0.002332 0.000000 0.056093 0.000000
# 6 0.000000 0.000000 0.000000 0.001912 0.000000 0.043154
#
#
# Mechanical properties :
#
#
# Convention : Reuss Voigt Hill
#
# Bulk Modulus (GPa) = 50.32681 55.77493 53.05087
# Shear Modulus (GPa) = 23.20119 24.88117 24.04118
#
# Velocity S-wave (km/s) = 3.65417 3.78415 3.71973
# Velocity P-wave (km/s) = 6.83874 7.15494 6.99863
#
# Compressibility (1/GPa) = 0.01987013
#
# Stress axis : x y z
#
# Youngs Moduli (GPa) = 97.22624 55.15857 52.89474
#
# Poissons Ratio (x) = 0.21704 0.22732
# Poissons Ratio (y) = 0.38256 0.29053
# Poissons Ratio (z) = 0.41784 0.30297
#
# Static dielectric constant tensor:
#      x y z
#    x 3.510750 0.000000 0.068930 
#    y 0.000000 3.256960 0.000000 
#    z 0.068930 0.000000 2.993400 
# 
# 
# High freq. dielectric constant tensor:
#      x y z
#    x 1.667720 0.000000 -0.000960 
#    y 0.000000 1.667190 0.000000 
#    z -0.000960 0.000000 1.646510 
# 
# From -- ./inp_files/273662.got.cif
#   From: 2010.06.25/outbox.cif.g09.slc.cpg/sg12_137_cif.got.tgz:273662.got - 2010.06.28 00:19:55.
