data_PCOD8085232
_publ_section_title
;
Structure prediction by ZEFSAII (Michael W. Deem and Ramdas Pophale) SiO2 
 PCOD8085232
Probable space group: C 2/M
;
_chemical_formula_sum "Si O2"
_cell_formula_units_Z 64
_cell_length_a 28.152319
_cell_length_b 9.364871
_cell_length_c 14.506261
_cell_angle_alpha 90.000000
_cell_angle_beta 75.051865
_cell_angle_gamma 90.000000
_cell_volume 3695.050581
_symmetry_space_group_name_H-M "C 2/M"
_symmetry_group_IT_number 12
_symmetry_cell_setting 'monoclinic'
loop_
_space_group_symop_operation_xyz
x,y,z
-x,y,-z
-x,-y,-z
x,-y,z
1/2+x,1/2+y,z
1/2-x,1/2+y,-z
1/2-x,1/2-y,-z
1/2+x,1/2-y,z
loop_
_atom_site_type_symbol
_atom_site_label
_atom_site_fract_x
_atom_site_fract_y
_atom_site_fract_z
Si Si1 0.687329 0.334454 0.708017
Si Si2 0.513139 0.160253 0.886834
Si Si3 0.876653 0.168450 0.730867
Si Si4 0.055046 0.170409 0.464264
Si Si5 0.142914 0.831489 0.541499
Si Si6 0.602932 0.663740 0.886491
Si Si7 0.420901 0.332838 0.896383
Si Si8 0.712398 0.668322 0.342549
O O1 0.700255 0.500000 0.685558
O O2 0.655707 0.274215 0.637126
O O3 0.656532 0.311832 0.816946
O O4 0.736789 0.248082 0.695130
O O5 0.564959 0.239513 0.848336
O O6 0.471299 0.247673 0.854549
O O7 0.516739 0.000000 0.845085
O O8 0.500000 0.158284 0.000000
O O9 0.920686 0.226066 0.643440
O O10 0.884349 0.215767 0.832846
O O11 0.823457 0.221073 0.722201
O O12 0.877233 0.000000 0.720310
O O13 0.090098 0.226344 0.530775
O O14 0.000000 0.235210 0.500000
O O15 0.052360 0.000000 0.467373
O O16 0.187127 0.786157 0.451311
O O17 0.138742 0.000000 0.544693
O O18 0.585747 0.500000 0.883855
O O19 0.604729 0.706080 0.993634
O O20 0.433486 0.500000 0.884086
O O21 0.722450 0.500000 0.333546
#
# Coordination Sequence:
#
# PCOD8085232 Si02
#       8
#     8   8   8   8   8   8   8   8
#     4  10  19  30  45  66  90 115 145 184 227 264
#     4   9  17  29  45  65  90 118 147 180 216 255
#     4   8  15  27  44  64  85 114 150 182 214 258
#     4   8  13  22  38  63  91 113 137 175 218 256
#     4   8  15  27  43  64  89 114 142 178 219 265
#     4   9  18  30  44  65  92 118 146 181 218 260
#     4   9  16  29  48  66  87 118 151 179 213 260
#     4   9  17  31  48  65  86 113 148 187 225 265
#
# _framework density 17.320467000000001
#
# number of rings (size 3 to 8) (size 9 to 14) (size 15 to 20)
#    0.000    3.250    0.000    2.250    0.000    3.000 
#    0.000    5.000    0.000    0.000    0.000    0.000 
#    0.000    5.000    0.000    0.000    0.000    0.000 
#
# Total GULP energy -396590.434155 kJ/mol
# GULP energy per Si atom -12393.451067 kJ/mol
# Density = 1.728104 g / cm^3
# Si number density = 17.320467 Si / 1000 Ang^3
#
#
#
# Elastic Constant Matrix: (Units=GPa)
#
#
# Indices 1 2 3 4 5 6 
#
# 1 151.1359 40.3863 75.0650 0.0000 -0.8094 0.0000
# 2 40.3863 41.0974 27.1415 0.0000 -1.8182 0.0000
# 3 75.0650 27.1415 94.6689 0.0000 7.8610 0.0000
# 4 0.0000 0.0000 0.0000 10.8306 0.0000 -4.8340
# 5 -0.8094 -1.8182 7.8610 0.0000 28.9910 0.0000
# 6 0.0000 0.0000 0.0000 -4.8340 0.0000 25.5115
#
#
#
# Elastic Compliance Matrix: (Units=1/GPa)
#
#
# Indices 1 2 3 4 5 6 
#
# 1 0.012480 -0.006807 -0.008120 0.000000 0.002123 0.000000
# 2 -0.006807 0.034265 -0.004694 0.000000 0.003232 0.000000
# 3 -0.008120 -0.004694 0.018815 0.000000 -0.005623 0.000000
# 4 0.000000 0.000000 0.000000 0.100861 0.000000 0.019112
# 5 0.002123 0.003232 -0.005623 0.000000 0.036280 0.000000
# 6 0.000000 0.000000 0.000000 0.019112 0.000000 0.042819
#
#
# Mechanical properties :
#
#
# Convention : Reuss Voigt Hill
#
# Bulk Modulus (GPa) = 38.00017 63.56531 50.78274
# Shear Modulus (GPa) = 17.03359 22.68724 19.86041
#
# Velocity S-wave (km/s) = 3.13938 3.62311 3.38989
# Velocity P-wave (km/s) = 5.92689 7.36762 6.68617
#
# Compressibility (1/GPa) = 0.02631567
#
# Stress axis : x y z
#
# Youngs Moduli (GPa) = 80.12691 29.18403 53.14957
#
# Poissons Ratio (x) = 0.19867 0.43160
# Poissons Ratio (y) = 0.54546 0.24951
# Poissons Ratio (z) = 0.65067 0.13700
#
# Static dielectric constant tensor:
#      x y z
#    x 3.441130 0.000000 0.225500 
#    y 0.000000 2.909460 0.000000 
#    z 0.225500 0.000000 3.334500 
# 
# 
# High freq. dielectric constant tensor:
#      x y z
#    x 1.670900 0.000000 0.004870 
#    y 0.000000 1.625660 0.000000 
#    z 0.004870 0.000000 1.660300 
# 
# From -- ./inp_files/243861.got.cif
#   From: 2010.06.25/outbox.cif.g09.slc.cpg/sg12_122_cif.got.tgz:243861.got - 2010.06.28 00:19:55.
