data_PCOD8085360
_publ_section_title
;
Structure prediction by ZEFSAII (Michael W. Deem and Ramdas Pophale) SiO2 
 PCOD8085360
Probable space group: C 2/M
;
_chemical_formula_sum "Si O2"
_cell_formula_units_Z 56
_cell_length_a 19.044119
_cell_length_b 9.259462
_cell_length_c 17.949982
_cell_angle_alpha 90.000000
_cell_angle_beta 89.454203
_cell_angle_gamma 90.000000
_cell_volume 3165.125630
_symmetry_space_group_name_H-M "C 2/M"
_symmetry_group_IT_number 12
_symmetry_cell_setting 'monoclinic'
loop_
_space_group_symop_operation_xyz
x,y,z
-x,y,-z
-x,-y,-z
x,-y,z
1/2+x,1/2+y,z
1/2-x,1/2+y,-z
1/2-x,1/2-y,-z
1/2+x,1/2-y,z
loop_
_atom_site_type_symbol
_atom_site_label
_atom_site_fract_x
_atom_site_fract_y
_atom_site_fract_z
Si Si1 0.804519 0.669963 0.733956
Si Si2 0.662632 0.661283 0.565246
Si Si3 0.329510 0.840446 0.571727
Si Si4 0.094787 0.668260 0.133193
Si Si5 0.162924 0.668782 0.710757
Si Si6 0.916860 0.163100 0.009740
Si Si7 0.565692 0.165719 0.849512
O O1 0.785538 0.500000 0.734757
O O2 0.845261 0.708476 0.656477
O O3 0.854569 0.715868 0.800673
O O4 0.733463 0.760360 0.742001
O O5 0.631197 0.500000 0.572097
O O6 0.635642 0.731438 0.487935
O O7 0.746092 0.656192 0.563543
O O8 0.636821 0.757380 0.634759
O O9 0.360419 0.000000 0.556180
O O10 0.102099 0.500000 0.114953
O O11 0.015807 0.708285 0.158123
O O12 0.118469 0.755001 0.059440
O O13 0.176508 0.500000 0.695782
O O14 0.101588 0.695967 0.770464
O O15 0.896117 0.239891 0.087254
O O16 0.888462 0.000000 0.011842
O O17 0.000000 0.170039 0.000000
O O18 0.573623 0.000000 0.873986
#
# Coordination Sequence:
#
# PCOD8085360 Si02
#       7
#     8   8   8   8   8   8   8
#     4   9  18  31  48  70  94 121 151 187 231 272
#     4   9  16  26  42  64  89 119 154 188 224 265
#     4   8  14  25  41  63  89 115 148 188 226 265
#     4   9  17  32  52  70  91 119 153 190 226 269
#     4  10  19  30  46  69  96 122 150 187 229 272
#     4   9  17  29  47  71  94 117 150 190 228 267
#     4   9  18  32  50  70  91 120 155 188 225 269
#
# _framework density 17.692820999999999
#
# number of rings (size 3 to 8) (size 9 to 14) (size 15 to 20)
#    0.000    3.000    0.000    2.143    0.000    6.857 
#    0.000    0.714    0.000    0.857    0.000    6.000 
#    0.000    0.000    0.000    0.000    0.000    0.000 
#
# Total GULP energy -347138.532646 kJ/mol
# GULP energy per Si atom -12397.804737 kJ/mol
# Density = 1.765255 g / cm^3
# Si number density = 17.692821 Si / 1000 Ang^3
#
#
#
# Elastic Constant Matrix: (Units=GPa)
#
#
# Indices 1 2 3 4 5 6 
#
# 1 18.8173 11.7260 -0.1279 0.0000 -7.3363 0.0000
# 2 11.7260 83.5797 27.6166 0.0000 -10.6030 0.0000
# 3 -0.1279 27.6166 51.1566 0.0000 -11.7502 0.0000
# 4 0.0000 0.0000 0.0000 32.8469 0.0000 -0.5540
# 5 -7.3363 -10.6030 -11.7502 0.0000 19.4237 0.0000
# 6 0.0000 0.0000 0.0000 -0.5540 0.0000 16.1945
#
#
#
# Elastic Compliance Matrix: (Units=1/GPa)
#
#
# Indices 1 2 3 4 5 6 
#
# 1 0.070835 -0.010396 0.012347 0.000000 0.028548 0.000000
# 2 -0.010396 0.016322 -0.008934 0.000000 -0.000421 0.000000
# 3 0.012347 -0.008934 0.028282 0.000000 0.016896 0.000000
# 4 0.000000 0.000000 0.000000 0.030462 0.000000 0.001042
# 5 0.028548 -0.000421 0.016896 0.000000 0.072257 0.000000
# 6 0.000000 0.000000 0.000000 0.001042 0.000000 0.061785
#
#
# Mechanical properties :
#
#
# Convention : Reuss Voigt Hill
#
# Bulk Modulus (GPa) = 9.85487 25.77587 17.81537
# Shear Modulus (GPa) = 15.25629 21.31561 18.28595
#
# Velocity S-wave (km/s) = 2.93966 3.47473 3.21833
# Velocity P-wave (km/s) = 4.13572 5.54062 4.88890
#
# Compressibility (1/GPa) = 0.10147268
#
# Stress axis : x y z
#
# Youngs Moduli (GPa) = 14.11730 61.26831 35.35774
#
# Poissons Ratio (x) = 0.63694 -0.43655
# Poissons Ratio (y) = 0.14676 0.31588
# Poissons Ratio (z) = -0.17430 0.54736
#
# Static dielectric constant tensor:
#      x y z
#    x 2.788330 0.000000 0.045840 
#    y 0.000000 3.448570 0.000000 
#    z 0.045840 0.000000 3.534650 
# 
# 
# High freq. dielectric constant tensor:
#      x y z
#    x 1.625150 0.000000 0.000290 
#    y 0.000000 1.690450 0.000000 
#    z 0.000290 0.000000 1.700020 
# 
# From -- ./inp_files/280297.got.cif
#   From: 2010.06.25/outbox.cif.g09.slc.cpg/sg12_141_cif.got.tgz:280297.got - 2010.06.28 00:19:55.
