data_PCOD8085293
_publ_section_title
;
Structure prediction by ZEFSAII (Michael W. Deem and Ramdas Pophale) SiO2 
 PCOD8085293
Probable space group: C 2/M
;
_chemical_formula_sum "Si O2"
_cell_formula_units_Z 60
_cell_length_a 12.952010
_cell_length_b 22.570981
_cell_length_c 12.488169
_cell_angle_alpha 90.000000
_cell_angle_beta 101.234269
_cell_angle_gamma 90.000000
_cell_volume 3580.832561
_symmetry_space_group_name_H-M "C 2/M"
_symmetry_group_IT_number 12
_symmetry_cell_setting 'monoclinic'
loop_
_space_group_symop_operation_xyz
x,y,z
-x,y,-z
-x,-y,-z
x,-y,z
1/2+x,1/2+y,z
1/2-x,1/2+y,-z
1/2-x,1/2-y,-z
1/2+x,1/2-y,z
loop_
_atom_site_type_symbol
_atom_site_label
_atom_site_fract_x
_atom_site_fract_y
_atom_site_fract_z
Si Si1 0.342537 0.770658 0.095089
Si Si2 0.514053 0.666452 0.883056
Si Si3 0.783722 0.862448 0.813740
Si Si4 0.090009 0.569351 0.383832
Si Si5 0.356675 0.929877 0.375148
Si Si6 0.858922 0.431973 0.836857
Si Si7 0.500000 0.851651 0.000000
Si Si8 0.328820 0.431006 0.040084
O O1 0.409761 0.715225 0.157251
O O2 0.291590 0.805836 0.184007
O O3 0.250000 0.750000 0.000000
O O4 0.412447 0.812879 0.037511
O O5 0.400546 0.660140 0.803924
O O6 0.565439 0.601112 0.898551
O O7 0.500000 0.691622 0.000000
O O8 0.739203 0.900135 0.707143
O O9 0.786559 0.901789 0.922456
O O10 0.082389 0.500000 0.400345
O O11 0.147498 0.593589 0.502319
O O12 0.156764 0.586084 0.291341
O O13 0.968865 0.591258 0.348748
O O14 0.340561 0.000000 0.362245
O O15 0.895099 0.500000 0.852146
O O16 0.953309 0.392891 0.898800
O O17 0.753548 0.420839 0.881486
O O18 0.352724 0.500000 0.025302
#
# Coordination Sequence:
#
# PCOD8085293 Si02
#       8
#     8   8   8   8   8   8   4   8
#     4  12  19  33  47  70  99 134 170 202 248 299
#     4  10  20  34  48  69 103 134 167 204 242 301
#     4  11  20  31  51  75 101 128 170 209 246 292
#     4   8  16  30  48  69 104 140 167 202 248 302
#     4   9  17  31  49  75 103 134 171 208 249 295
#     4  10  19  30  45  74 107 134 160 199 254 310
#     4  12  19  28  48  72  97 130 162 206 254 294
#     4  10  20  32  47  73 106 131 156 197 257 306
#
# _framework density 16.755880000000001
#
# number of rings (size 3 to 8) (size 9 to 14) (size 15 to 20)
#    0.000    1.867    4.667    2.200    0.000    2.933 
#    0.000    0.000    0.000    0.800    0.000   30.800 
#    0.000    0.000    0.000    0.000    0.000    0.000 
#
# Total GULP energy -371873.037431 kJ/mol
# GULP energy per Si atom -12395.767914 kJ/mol
# Density = 1.671774 g / cm^3
# Si number density = 16.755880 Si / 1000 Ang^3
#
#
#
# Elastic Constant Matrix: (Units=GPa)
#
#
# Indices 1 2 3 4 5 6 
#
# 1 106.5588 52.0399 50.4170 0.0000 13.4959 0.0000
# 2 52.0399 87.3470 34.3004 0.0000 4.4248 0.0000
# 3 50.4170 34.3004 87.0192 0.0000 8.7236 0.0000
# 4 0.0000 0.0000 0.0000 57.2537 0.0000 -23.1638
# 5 13.4959 4.4248 8.7236 0.0000 22.2223 0.0000
# 6 0.0000 0.0000 0.0000 -23.1638 0.0000 47.8651
#
#
#
# Elastic Compliance Matrix: (Units=1/GPa)
#
#
# Indices 1 2 3 4 5 6 
#
# 1 0.016577 -0.007140 -0.006166 0.000000 -0.006225 0.000000
# 2 -0.007140 0.016629 -0.002624 0.000000 0.002055 0.000000
# 3 -0.006166 -0.002624 0.016313 0.000000 -0.002136 0.000000
# 4 0.000000 0.000000 0.000000 0.021718 0.000000 0.010510
# 5 -0.006225 0.002055 -0.002136 0.000000 0.049210 0.000000
# 6 0.000000 0.000000 0.000000 0.010510 0.000000 0.025978
#
#
# Mechanical properties :
#
#
# Convention : Reuss Voigt Hill
#
# Bulk Modulus (GPa) = 56.62841 61.60442 59.11642
# Shear Modulus (GPa) = 27.14868 35.07942 31.11405
#
# Velocity S-wave (km/s) = 4.02960 4.58051 4.31386
# Velocity P-wave (km/s) = 7.45116 8.05111 7.75694
#
# Compressibility (1/GPa) = 0.01765898
#
# Stress axis : x y z
#
# Youngs Moduli (GPa) = 60.32409 60.13745 61.30198
#
# Poissons Ratio (x) = 0.42936 0.37799
# Poissons Ratio (y) = 0.43069 0.16085
# Poissons Ratio (z) = 0.37196 0.15780
#
# Static dielectric constant tensor:
#      x y z
#    x 3.335600 0.000000 -0.151300 
#    y 0.000000 3.232930 0.000000 
#    z -0.151300 0.000000 3.153270 
# 
# 
# High freq. dielectric constant tensor:
#      x y z
#    x 1.649670 0.000000 -0.001840 
#    y 0.000000 1.641830 0.000000 
#    z -0.001840 0.000000 1.612940 
# 
# From -- ./inp_files/147147.got.cif
#   From: 2010.06.25/outbox.cif.g09.slc.cpg/sg12_74_cif.got.tgz:147147.got - 2010.06.28 00:19:55.
