data_PCOD8085226
_publ_section_title
;
Structure prediction by ZEFSAII (Michael W. Deem and Ramdas Pophale) SiO2 
 PCOD8085226
Probable space group: C 2/M
;
_chemical_formula_sum "Si O2"
_cell_formula_units_Z 56
_cell_length_a 19.218322
_cell_length_b 9.579577
_cell_length_c 27.177447
_cell_angle_alpha 90.000000
_cell_angle_beta 39.390143
_cell_angle_gamma 90.000000
_cell_volume 3175.183705
_symmetry_space_group_name_H-M "C 2/M"
_symmetry_group_IT_number 12
_symmetry_cell_setting 'monoclinic'
loop_
_space_group_symop_operation_xyz
x,y,z
-x,y,-z
-x,-y,-z
x,-y,z
1/2+x,1/2+y,z
1/2-x,1/2+y,-z
1/2-x,1/2-y,-z
1/2+x,1/2-y,z
loop_
_atom_site_type_symbol
_atom_site_label
_atom_site_fract_x
_atom_site_fract_y
_atom_site_fract_z
Si Si1 0.839949 0.158701 0.803967
Si Si2 0.452068 0.161107 0.477698
Si Si3 0.141616 0.161491 0.792839
Si Si4 0.899969 0.337312 0.088236
Si Si5 0.945799 0.838013 0.262753
Si Si6 0.279282 0.661760 0.435453
Si Si7 0.116311 0.659192 0.311022
O O1 0.711032 0.190596 0.883371
O O2 0.884074 0.255477 0.737862
O O3 0.922103 0.186933 0.805101
O O4 0.853567 0.000000 0.778938
O O5 0.500000 0.235959 0.500000
O O6 0.322647 0.179026 0.545800
O O7 0.514886 0.225220 0.396529
O O8 0.488823 0.000000 0.458462
O O9 0.096470 0.250112 0.863431
O O10 0.092923 0.225544 0.768462
O O11 0.272551 0.176067 0.718274
O O12 0.106325 0.000000 0.819865
O O13 0.911057 0.500000 0.096024
O O14 0.000000 0.286244 0.000000
O O15 0.881586 0.779824 0.346701
O O16 0.914581 0.000000 0.277878
O O17 0.295628 0.500000 0.442355
O O18 0.250000 0.750000 0.500000
O O19 0.097172 0.500000 0.305968
#
# Coordination Sequence:
#
# PCOD8085226 Si02
#       7
#     8   8   8   8   8   8   8
#     4   9  17  30  48  65  85 117 149 175 212 267
#     4   9  16  26  42  63  85 113 150 187 221 257
#     4   9  17  30  49  70  91 117 150 186 221 260
#     4   9  18  33  51  70  92 117 145 178 220 271
#     4   9  17  30  47  67  91 120 153 186 222 265
#     4  10  19  30  45  65  91 122 154 189 227 264
#     4   9  16  27  44  65  87 112 147 188 221 252
#
# _framework density 17.636773999999999
#
# number of rings (size 3 to 8) (size 9 to 14) (size 15 to 20)
#    0.000    2.857    0.000    1.714    0.000    3.714 
#    0.000    2.143    0.000    3.429    0.000    0.000 
#    0.000    0.000    0.000    0.000    0.000    0.000 
#
# Total GULP energy -346930.347058 kJ/mol
# GULP energy per Si atom -12390.369538 kJ/mol
# Density = 1.759663 g / cm^3
# Si number density = 17.636774 Si / 1000 Ang^3
#
#
#
# Elastic Constant Matrix: (Units=GPa)
#
#
# Indices 1 2 3 4 5 6 
#
# 1 98.9416 24.8978 37.2248 -0.0001 -3.7975 0.0003
# 2 24.8978 35.5997 24.8146 -0.0004 1.7842 0.0008
# 3 37.2248 24.8146 107.1761 0.0000 -7.9547 -0.0001
# 4 -0.0001 -0.0004 0.0000 15.2209 0.0000 -0.5101
# 5 -3.7975 1.7842 -7.9547 0.0000 21.5696 0.0000
# 6 0.0003 0.0008 -0.0001 -0.5101 0.0000 15.4219
#
#
#
# Elastic Compliance Matrix: (Units=1/GPa)
#
#
# Indices 1 2 3 4 5 6 
#
# 1 0.013039 -0.007342 -0.002687 0.000000 0.001912 0.000000
# 2 -0.007342 0.038348 -0.006848 0.000001 -0.006990 -0.000002
# 3 -0.002687 -0.006848 0.012190 0.000000 0.004589 0.000001
# 4 0.000000 0.000001 0.000000 0.065772 0.000000 0.002175
# 5 0.001912 -0.006990 0.004589 0.000000 0.048969 0.000000
# 6 0.000000 -0.000002 0.000001 0.002175 0.000000 0.064915
#
#
# Mechanical properties :
#
#
# Convention : Reuss Voigt Hill
#
# Bulk Modulus (GPa) = 33.53020 46.17688 39.85354
# Shear Modulus (GPa) = 17.42606 20.76117 19.09362
#
# Velocity S-wave (km/s) = 3.14674 3.43469 3.29386
# Velocity P-wave (km/s) = 5.67939 6.47830 6.09196
#
# Compressibility (1/GPa) = 0.02982386
#
# Stress axis : x y z
#
# Youngs Moduli (GPa) = 76.69416 26.07669 82.03667
#
# Poissons Ratio (x) = 0.19146 0.22042
# Poissons Ratio (y) = 0.56309 0.56175
# Poissons Ratio (z) = 0.20607 0.17856
#
# Static dielectric constant tensor:
#      x y z
#    x 3.391080 0.000000 -0.151440 
#    y 0.000000 3.038470 0.000000 
#    z -0.151440 0.000000 3.309040 
# 
# 
# High freq. dielectric constant tensor:
#      x y z
#    x 1.687690 0.000000 -0.013630 
#    y 0.000000 1.647400 0.000000 
#    z -0.013630 0.000000 1.674330 
# 
# From -- ./inp_files/280319.got.cif
#   From: 2010.06.25/outbox.cif.g09.slc.cpg/sg12_141_cif.got.tgz:280319.got - 2010.06.28 00:19:55.
