data_PCOD8085485
_publ_section_title
;
Structure prediction by ZEFSAII (Michael W. Deem and Ramdas Pophale) SiO2 
 PCOD8085485
Probable space group: C 2/M
;
_chemical_formula_sum "Si O2"
_cell_formula_units_Z 64
_cell_length_a 19.634350
_cell_length_b 9.062729
_cell_length_c 25.404751
_cell_angle_alpha 90.000000
_cell_angle_beta 125.551164
_cell_angle_gamma 90.000000
_cell_volume 3677.897399
_symmetry_space_group_name_H-M "C 2/M"
_symmetry_group_IT_number 12
_symmetry_cell_setting 'monoclinic'
loop_
_space_group_symop_operation_xyz
x,y,z
-x,y,-z
-x,-y,-z
x,-y,z
1/2+x,1/2+y,z
1/2-x,1/2+y,-z
1/2-x,1/2-y,-z
1/2+x,1/2-y,z
loop_
_atom_site_type_symbol
_atom_site_label
_atom_site_fract_x
_atom_site_fract_y
_atom_site_fract_z
Si Si1 0.502301 0.326709 0.940257
Si Si2 0.309866 0.829461 0.675653
Si Si3 0.032025 0.675072 0.319367
Si Si4 0.664673 0.329836 0.949076
Si Si5 0.521403 0.673920 0.425310
Si Si6 0.078732 0.671441 0.182757
Si Si7 0.444815 0.671437 0.193894
Si Si8 0.370597 0.674011 0.428645
O O1 0.487904 0.500000 0.925053
O O2 0.590187 0.273869 0.954137
O O3 0.425034 0.237881 0.877922
O O4 0.500000 0.282670 0.000000
O O5 0.384082 0.765819 0.672237
O O6 0.331460 0.809261 0.747683
O O7 0.220641 0.752525 0.622720
O O8 0.301773 0.000000 0.657555
O O9 0.024932 0.500000 0.315069
O O10 0.034768 0.732498 0.379396
O O11 0.950836 0.740918 0.251961
O O12 0.679458 0.500000 0.967417
O O13 0.642023 0.303503 0.877014
O O14 0.750000 0.250000 0.000000
O O15 0.518504 0.500000 0.411240
O O16 0.436160 0.730879 0.414467
O O17 0.598499 0.712462 0.498767
O O18 0.052074 0.500000 0.171085
O O19 0.015297 0.769271 0.187115
O O20 0.459588 0.500000 0.212198
O O21 0.366726 0.500000 0.419999
#
# Coordination Sequence:
#
# PCOD8085485 Si02
#       8
#     8   8   8   8   8   8   8   8
#     4   9  18  33  50  67  92 127 162 193 226 270
#     4   8  15  28  46  68  93 119 150 191 234 274
#     4  10  19  30  47  71  96 121 150 191 239 276
#     4   9  18  31  49  71  93 121 154 190 232 273
#     4   9  17  30  50  70  89 122 161 191 224 272
#     4   9  16  27  46  71  95 120 150 189 239 282
#     4   9  17  31  49  68  92 124 159 189 223 273
#     4   8  15  30  49  67  90 123 160 190 222 274
#
# _framework density 17.401246
#
# number of rings (size 3 to 8) (size 9 to 14) (size 15 to 20)
#    0.000    3.125    0.000    3.375    0.000    3.250 
#    0.000    2.500    0.000   12.750    0.000    0.000 
#    0.000    0.000    0.000    0.000    0.000    0.000 
#
# Total GULP energy -396486.707293 kJ/mol
# GULP energy per Si atom -12390.209603 kJ/mol
# Density = 1.736164 g / cm^3
# Si number density = 17.401246 Si / 1000 Ang^3
#
#
#
# Elastic Constant Matrix: (Units=GPa)
#
#
# Indices 1 2 3 4 5 6 
#
# 1 66.8803 29.9138 69.6000 0.0000 -4.5147 0.0000
# 2 29.9138 56.2380 57.8337 0.0000 0.1816 0.0000
# 3 69.6000 57.8337 162.4050 0.0000 -4.4957 0.0000
# 4 0.0000 0.0000 0.0000 28.1555 0.0000 -5.9626
# 5 -4.5147 0.1816 -4.4957 0.0000 28.1934 0.0000
# 6 0.0000 0.0000 0.0000 -5.9626 0.0000 17.1647
#
#
#
# Elastic Compliance Matrix: (Units=1/GPa)
#
#
# Indices 1 2 3 4 5 6 
#
# 1 0.027758 -0.004135 -0.010345 0.000000 0.002822 0.000000
# 2 -0.004135 0.028761 -0.008531 0.000000 -0.002208 0.000000
# 3 -0.010345 -0.008531 0.013645 0.000000 0.000574 0.000000
# 4 0.000000 0.000000 0.000000 0.038337 0.000000 0.013317
# 5 0.002822 -0.002208 0.000574 0.000000 0.036027 0.000000
# 6 0.000000 0.000000 0.000000 0.013317 0.000000 0.062885
#
#
# Mechanical properties :
#
#
# Convention : Reuss Voigt Hill
#
# Bulk Modulus (GPa) = 41.42291 66.69094 54.05692
# Shear Modulus (GPa) = 19.12162 23.24778 21.18470
#
# Velocity S-wave (km/s) = 3.31851 3.65908 3.49295
# Velocity P-wave (km/s) = 6.20803 7.50069 6.88476
#
# Compressibility (1/GPa) = 0.02414123
#
# Stress axis : x y z
#
# Youngs Moduli (GPa) = 36.02550 34.76872 73.28759
#
# Poissons Ratio (x) = 0.14378 0.75818
# Poissons Ratio (y) = 0.14898 0.62522
# Poissons Ratio (z) = 0.37269 0.29662
#
# Static dielectric constant tensor:
#      x y z
#    x 3.158070 0.000000 0.109480 
#    y 0.000000 3.085640 0.000000 
#    z 0.109480 0.000000 3.866240 
# 
# 
# High freq. dielectric constant tensor:
#      x y z
#    x 1.635640 0.000000 -0.003880 
#    y 0.000000 1.653550 0.000000 
#    z -0.003880 0.000000 1.692080 
# 
# From -- ./inp_files/365205.got.cif
#   From: 2010.06.25/outbox.cif.g09.slc.cpg/sg12_183_cif.got.tgz:365205.got - 2010.06.28 00:19:55.
