data_PCOD8085165
_publ_section_title
;
Structure prediction by ZEFSAII (Michael W. Deem and Ramdas Pophale) SiO2 
 PCOD8085165
Probable space group: C 2/M
;
_chemical_formula_sum "Si O2"
_cell_formula_units_Z 48
_cell_length_a 24.712387
_cell_length_b 9.382654
_cell_length_c 21.579708
_cell_angle_alpha 90.000000
_cell_angle_beta 142.414265
_cell_angle_gamma 90.000000
_cell_volume 3051.958988
_symmetry_space_group_name_H-M "C 2/M"
_symmetry_group_IT_number 12
_symmetry_cell_setting 'monoclinic'
loop_
_space_group_symop_operation_xyz
x,y,z
-x,y,-z
-x,-y,-z
x,-y,z
1/2+x,1/2+y,z
1/2-x,1/2+y,-z
1/2-x,1/2-y,-z
1/2+x,1/2-y,z
loop_
_atom_site_type_symbol
_atom_site_label
_atom_site_fract_x
_atom_site_fract_y
_atom_site_fract_z
Si Si1 0.035355 0.838913 0.962571
Si Si2 0.193232 0.335306 0.146388
Si Si3 0.385528 0.331056 0.341991
Si Si4 0.733494 0.332376 0.547672
Si Si5 0.575527 0.330965 0.486748
Si Si6 0.377283 0.162928 0.780771
O O1 0.964501 0.760996 0.854127
O O2 0.048360 0.000000 0.950896
O O3 0.129410 0.757925 0.044848
O O4 0.000000 0.833664 0.000000
O O5 0.180738 0.500000 0.116295
O O6 0.294202 0.279683 0.226905
O O7 0.172802 0.312354 0.200127
O O8 0.380880 0.500000 0.343878
O O9 0.472568 0.285703 0.380953
O O10 0.394047 0.267799 0.419216
O O11 0.730048 0.500000 0.530960
O O12 0.750000 0.250000 0.500000
O O13 0.640181 0.275143 0.491323
O O14 0.811424 0.294338 0.666125
O O15 0.584222 0.500000 0.497639
O O16 0.408681 0.000000 0.803715
#
# Coordination Sequence:
#
# PCOD8085165 Si02
#       6
#     8   8   8   8   8   8
#     4   9  17  26  37  57  85 114 139 166 207 257
#     4   9  14  23  41  64  85 108 137 169 209 253
#     4   8  12  20  40  65  86 108 136 174 214 248
#     4  10  19  30  44  63  87 116 148 178 209 245
#     4   8  13  23  39  62  87 109 139 177 211 245
#     4   9  16  27  41  58  82 111 143 177 206 241
#
# _framework density 15.727603999999999
#
# number of rings (size 3 to 8) (size 9 to 14) (size 15 to 20)
#    0.000    3.167    1.667    1.500    0.000    2.667 
#    0.000    0.000    0.000    1.000    0.000    3.500 
#    0.000    0.000    0.000    0.000    0.000    0.000 
#
# Total GULP energy -297411.286223 kJ/mol
# GULP energy per Si atom -12392.136926 kJ/mol
# Density = 1.569181 g / cm^3
# Si number density = 15.727604 Si / 1000 Ang^3
#
#
#
# Elastic Constant Matrix: (Units=GPa)
#
#
# Indices 1 2 3 4 5 6 
#
# 1 90.9614 32.2265 60.4405 0.0000 21.7111 0.0000
# 2 32.2265 59.1233 53.6942 0.0000 13.6169 0.0000
# 3 60.4405 53.6942 118.0531 0.0000 34.8781 0.0000
# 4 0.0000 0.0000 0.0000 15.2181 0.0000 -4.4318
# 5 21.7111 13.6169 34.8781 0.0000 29.3857 0.0000
# 6 0.0000 0.0000 0.0000 -4.4318 0.0000 13.1930
#
#
#
# Elastic Compliance Matrix: (Units=1/GPa)
#
#
# Indices 1 2 3 4 5 6 
#
# 1 0.017107 -0.002578 -0.006475 0.000000 -0.003759 0.000000
# 2 -0.002578 0.029427 -0.013242 0.000000 0.003986 0.000000
# 3 -0.006475 -0.013242 0.022457 0.000000 -0.015735 0.000000
# 4 0.000000 0.000000 0.000000 0.072837 0.000000 0.024467
# 5 -0.003759 0.003986 -0.015735 0.000000 0.053636 0.000000
# 6 0.000000 0.000000 0.000000 0.024467 0.000000 0.084017
#
#
# Mechanical properties :
#
#
# Convention : Reuss Voigt Hill
#
# Bulk Modulus (GPa) = 40.98200 62.31782 51.64991
# Shear Modulus (GPa) = 15.05092 19.67778 17.36435
#
# Velocity S-wave (km/s) = 3.09686 3.54101 3.32636
# Velocity P-wave (km/s) = 6.23709 7.51183 6.90395
#
# Compressibility (1/GPa) = 0.02440095
#
# Stress axis : x y z
#
# Youngs Moduli (GPa) = 58.45640 33.98224 44.52870
#
# Poissons Ratio (x) = 0.08761 0.28832
# Poissons Ratio (y) = 0.15071 0.58965
# Poissons Ratio (z) = 0.37851 0.44999
#
# Static dielectric constant tensor:
#      x y z
#    x 2.873910 0.000000 0.403020 
#    y 0.000000 2.746770 0.000000 
#    z 0.403020 0.000000 3.130250 
# 
# 
# High freq. dielectric constant tensor:
#      x y z
#    x 1.565880 0.000000 0.033700 
#    y 0.000000 1.571040 0.000000 
#    z 0.033700 0.000000 1.604120 
# 
# From -- ./inp_files/323861.got.cif
#   From: 2010.06.25/outbox.cif.g09.slc.cpg/sg12_162_cif.got.tgz:323861.got - 2010.06.28 00:19:55.
