data_PCOD8085998
_publ_section_title
;
Structure prediction by ZEFSAII (Michael W. Deem and Ramdas Pophale) SiO2 
 PCOD8085998
Probable space group: C 2/M
;
_chemical_formula_sum "Si O2"
_cell_formula_units_Z 56
_cell_length_a 9.919851
_cell_length_b 18.610295
_cell_length_c 20.692039
_cell_angle_alpha 90.000000
_cell_angle_beta 61.353462
_cell_angle_gamma 90.000000
_cell_volume 3352.395715
_symmetry_space_group_name_H-M "C 2/M"
_symmetry_group_IT_number 12
_symmetry_cell_setting 'monoclinic'
loop_
_space_group_symop_operation_xyz
x,y,z
-x,y,-z
-x,-y,-z
x,-y,z
1/2+x,1/2+y,z
1/2-x,1/2+y,-z
1/2-x,1/2-y,-z
1/2+x,1/2-y,z
loop_
_atom_site_type_symbol
_atom_site_label
_atom_site_fract_x
_atom_site_fract_y
_atom_site_fract_z
Si Si1 0.707176 0.079527 0.133131
Si Si2 0.445511 0.914402 0.704680
Si Si3 0.068930 0.914516 0.581926
Si Si4 0.473438 0.420473 0.866869
Si Si5 0.854872 0.085598 0.295319
Si Si6 0.160874 0.179483 1.000000
Si Si7 0.267216 0.414516 0.581926
O O1 0.580949 0.107446 0.214104
O O2 0.867661 0.072864 0.132338
O O3 0.662609 0.000000 0.116889
O O4 0.720892 0.134948 0.071444
O O5 0.308930 0.883496 0.691070
O O6 0.605701 0.881164 0.642517
O O7 0.446249 0.000000 0.699834
O O8 0.109265 0.881164 0.642517
O O9 0.196167 0.889937 0.500000
O O10 0.901428 0.886550 0.598571
O O11 0.066747 0.000000 0.586420
O O12 0.396388 0.500000 0.883111
O O13 0.509156 0.392554 0.785897
O O14 0.363779 0.365052 0.928557
O O15 0.845921 0.000000 0.300163
O O16 0.250000 0.250000 0.000000
O O17 0.000000 0.195773 0.000000
O O18 0.260410 0.500000 0.586420
#
# Coordination Sequence:
#
# PCOD8085998 Si02
#       7
#     8   8   8   8   8   8   8
#     4   8  14  26  45  65  82 107 145 180 207 242
#     4   8  13  21  34  53  74  96 130 173 205 230
#     4   8  13  20  29  44  71 106 136 158 189 239
#     4   8  14  26  45  65  82 107 145 180 207 242
#     4   8  13  21  34  53  74  96 130 173 205 230
#     4  10  19  31  47  65  87 112 138 172 212 254
#     4   8  13  20  29  44  71 106 136 158 189 239
#
# _framework density 16.704471999999999
#
# number of rings (size 3 to 8) (size 9 to 14) (size 15 to 20)
#    0.000    3.714    0.000    3.000    0.000    2.286 
#    0.000    4.286    0.000    3.429    0.000    0.000 
#    0.000    1.143    0.000    2.571    0.000    6.857 
#
# Total GULP energy -346911.812904 kJ/mol
# GULP energy per Si atom -12389.707604 kJ/mol
# Density = 1.666645 g / cm^3
# Si number density = 16.704472 Si / 1000 Ang^3
#
#
#
# Elastic Constant Matrix: (Units=GPa)
#
#
# Indices 1 2 3 4 5 6 
#
# 1 68.9817 28.0869 76.2365 0.0000 1.8222 0.0000
# 2 28.0869 45.2708 47.4271 0.0000 0.7630 0.0000
# 3 76.2365 47.4271 181.6386 0.0000 2.6221 0.0000
# 4 0.0000 0.0000 0.0000 1.2070 0.0000 -0.5039
# 5 1.8222 0.7630 2.6221 0.0000 19.4985 0.0000
# 6 0.0000 0.0000 0.0000 -0.5039 0.0000 13.9872
#
#
#
# Elastic Compliance Matrix: (Units=1/GPa)
#
#
# Indices 1 2 3 4 5 6 
#
# 1 0.028634 -0.007121 -0.010144 0.000000 -0.001033 0.000000
# 2 -0.007121 0.032178 -0.005415 0.000000 0.000135 0.000000
# 3 -0.010144 -0.005415 0.011182 0.000000 -0.000344 0.000000
# 4 0.000000 0.000000 0.000000 0.841178 0.000000 0.030304
# 5 -0.001033 0.000135 -0.000344 0.000000 0.051424 0.000000
# 6 0.000000 0.000000 0.000000 0.030304 0.000000 0.072585
#
#
# Mechanical properties :
#
#
# Convention : Reuss Voigt Hill
#
# Bulk Modulus (GPa) = 37.54551 66.59912 52.07231
# Shear Modulus (GPa) = 4.58120 16.54790 10.56455
#
# Velocity S-wave (km/s) = 1.65785 3.15084 2.51756
# Velocity P-wave (km/s) = 5.11759 7.29333 6.30009
#
# Compressibility (1/GPa) = 0.02663434
#
# Stress axis : x y z
#
# Youngs Moduli (GPa) = 34.92359 31.07720 89.42999
#
# Poissons Ratio (x) = 0.22129 0.90717
# Poissons Ratio (y) = 0.24868 0.48428
# Poissons Ratio (z) = 0.35426 0.16829
#
# Static dielectric constant tensor:
#      x y z
#    x 3.091550 0.000000 0.025310 
#    y 0.000000 2.640780 0.000000 
#    z 0.025310 0.000000 3.733400 
# 
# 
# High freq. dielectric constant tensor:
#      x y z
#    x 1.615070 0.000000 0.001940 
#    y 0.000000 1.575490 0.000000 
#    z 0.001940 0.000000 1.664160 
# 
# From -- ./inp_files/301396.got.cif
#   From: 2010.06.25/outbox.cif.g09.slc.cpg/sg12_151_cif.got.tgz:301396.got - 2010.06.28 00:19:55.
