data_PCOD8085818
_publ_section_title
;
Structure prediction by ZEFSAII (Michael W. Deem and Ramdas Pophale) SiO2 
 PCOD8085818
Probable space group: C 2/M
;
_chemical_formula_sum "Si O2"
_cell_formula_units_Z 64
_cell_length_a 24.633141
_cell_length_b 9.207274
_cell_length_c 14.880557
_cell_angle_alpha 90.000000
_cell_angle_beta 76.969192
_cell_angle_gamma 90.000000
_cell_volume 3288.062032
_symmetry_space_group_name_H-M "C 2/M"
_symmetry_group_IT_number 12
_symmetry_cell_setting 'monoclinic'
loop_
_space_group_symop_operation_xyz
x,y,z
-x,y,-z
-x,-y,-z
x,-y,z
1/2+x,1/2+y,z
1/2-x,1/2+y,-z
1/2-x,1/2-y,-z
1/2+x,1/2-y,z
loop_
_atom_site_type_symbol
_atom_site_label
_atom_site_fract_x
_atom_site_fract_y
_atom_site_fract_z
Si Si1 0.293988 0.156470 0.935129
Si Si2 0.746224 0.162435 0.248112
Si Si3 0.051739 0.334273 0.697072
Si Si4 0.093378 0.330358 0.028074
Si Si5 0.637738 0.829238 0.818400
Si Si6 0.446503 0.329442 0.797613
Si Si7 0.860981 0.170950 0.675027
Si Si8 0.935946 0.335015 0.509989
O O1 0.281783 0.143756 0.836765
O O2 0.354434 0.219076 0.931207
O O3 0.291933 0.000000 0.983949
O O4 0.250000 0.250000 0.000000
O O5 0.804953 0.243473 0.217257
O O6 0.699780 0.255393 0.318050
O O7 0.754755 0.000000 0.286727
O O8 0.032146 0.500000 0.721473
O O9 0.098432 0.287603 0.750837
O O10 0.079499 0.318366 0.588988
O O11 0.998627 0.230517 0.722270
O O12 0.077392 0.500000 0.037359
O O13 0.048091 0.241277 0.103319
O O14 0.104942 0.280077 0.921529
O O15 0.651686 0.000000 0.818273
O O16 0.452684 0.500000 0.807462
O O17 0.391069 0.291373 0.759174
O O18 0.898827 0.223957 0.579178
O O19 0.851971 0.000000 0.670098
O O20 0.924811 0.500000 0.547574
O O21 0.000000 0.293633 0.500000
#
# Coordination Sequence:
#
# PCOD8085818 Si02
#       8
#     8   8   8   8   8   8   8   8
#     4  10  19  30  50  79 109 146 190 236 279 326
#     4  11  22  36  57  85 118 154 193 239 287 337
#     4  10  22  41  63  85 114 152 192 235 288 352
#     4  10  20  35  55  81 116 156 195 234 281 339
#     4  10  22  40  60  83 115 158 200 234 278 342
#     4  11  23  36  56  87 120 152 190 241 291 336
#     4  11  23  37  58  90 122 150 186 240 296 344
#     4  10  20  37  64  92 115 144 186 239 296 350
#
# _framework density 19.464354
#
# number of rings (size 3 to 8) (size 9 to 14) (size 15 to 20)
#    0.000    1.625    3.750    1.125    0.000    4.250 
#    0.000    3.125    0.000    0.000    0.000    0.000 
#    0.000    0.000    0.000    0.000    0.000    0.000 
#
# Total GULP energy -396594.284101 kJ/mol
# GULP energy per Si atom -12393.571378 kJ/mol
# Density = 1.942005 g / cm^3
# Si number density = 19.464354 Si / 1000 Ang^3
#
#
#
# Elastic Constant Matrix: (Units=GPa)
#
#
# Indices 1 2 3 4 5 6 
#
# 1 55.3042 32.0217 32.3887 0.0000 4.8773 0.0000
# 2 32.0217 80.6345 46.8518 0.0000 -9.1140 0.0000
# 3 32.3887 46.8518 106.4726 0.0000 -4.7858 0.0000
# 4 0.0000 0.0000 0.0000 30.8989 0.0000 -9.3322
# 5 4.8773 -9.1140 -4.7858 0.0000 30.1721 0.0000
# 6 0.0000 0.0000 0.0000 -9.3322 0.0000 26.4845
#
#
#
# Elastic Compliance Matrix: (Units=1/GPa)
#
#
# Indices 1 2 3 4 5 6 
#
# 1 0.026480 -0.008732 -0.004556 0.000000 -0.007641 0.000000
# 2 -0.008732 0.020009 -0.005855 0.000000 0.006527 0.000000
# 3 -0.004556 -0.005855 0.013404 0.000000 0.001094 0.000000
# 4 0.000000 0.000000 0.000000 0.036218 0.000000 0.012762
# 5 -0.007641 0.006527 0.001094 0.000000 0.036523 0.000000
# 6 0.000000 0.000000 0.000000 0.012762 0.000000 0.042255
#
#
# Mechanical properties :
#
#
# Convention : Reuss Voigt Hill
#
# Bulk Modulus (GPa) = 46.28327 51.65954 48.97141
# Shear Modulus (GPa) = 22.68835 26.25438 24.47137
#
# Velocity S-wave (km/s) = 3.41785 3.67665 3.54960
# Velocity P-wave (km/s) = 6.27739 6.67996 6.48180
#
# Compressibility (1/GPa) = 0.02160608
#
# Stress axis : x y z
#
# Youngs Moduli (GPa) = 37.76451 49.97724 74.60646
#
# Poissons Ratio (x) = 0.43641 0.33992
# Poissons Ratio (y) = 0.32976 0.43683
# Poissons Ratio (z) = 0.17206 0.29262
#
# Static dielectric constant tensor:
#      x y z
#    x 3.476680 0.000000 0.001670 
#    y 0.000000 3.656230 0.000000 
#    z 0.001670 0.000000 3.541970 
# 
# 
# High freq. dielectric constant tensor:
#      x y z
#    x 1.747870 0.000000 -0.006170 
#    y 0.000000 1.756310 0.000000 
#    z -0.006170 0.000000 1.756990 
# 
# From -- ./inp_files/243746.got.cif
#   From: 2010.06.25/outbox.cif.g09.slc.cpg/sg12_122_cif.got.tgz:243746.got - 2010.06.28 00:19:55.
