data_PCOD8085542
_publ_section_title
;
Structure prediction by ZEFSAII (Michael W. Deem and Ramdas Pophale) SiO2 
 PCOD8085542
Probable space group: C 2/M
;
_chemical_formula_sum "Si O2"
_cell_formula_units_Z 64
_cell_length_a 24.869208
_cell_length_b 9.191763
_cell_length_c 17.356459
_cell_angle_alpha 90.000000
_cell_angle_beta 103.094224
_cell_angle_gamma 90.000000
_cell_volume 3864.384453
_symmetry_space_group_name_H-M "C 2/M"
_symmetry_group_IT_number 12
_symmetry_cell_setting 'monoclinic'
loop_
_space_group_symop_operation_xyz
x,y,z
-x,y,-z
-x,-y,-z
x,-y,z
1/2+x,1/2+y,z
1/2-x,1/2+y,-z
1/2-x,1/2-y,-z
1/2+x,1/2-y,z
loop_
_atom_site_type_symbol
_atom_site_label
_atom_site_fract_x
_atom_site_fract_y
_atom_site_fract_z
Si Si1 0.838482 0.334265 0.663870
Si Si2 0.126342 0.667974 0.927563
Si Si3 0.195963 0.330826 0.510352
Si Si4 0.786688 0.828387 0.339248
Si Si5 0.203169 0.666268 0.811083
Si Si6 0.320936 0.329178 0.916504
Si Si7 0.400797 0.331164 0.807628
Si Si8 0.984510 0.169105 0.081080
O O1 0.846630 0.500000 0.691216
O O2 0.847440 0.315028 0.574431
O O3 0.777298 0.283671 0.670027
O O4 0.885091 0.242737 0.722110
O O5 0.121638 0.500000 0.949414
O O6 0.152084 0.686882 0.851553
O O7 0.066064 0.737417 0.904869
O O8 0.166092 0.746232 0.000922
O O9 0.208652 0.500000 0.530609
O O10 0.250000 0.250000 0.500000
O O11 0.176457 0.251618 0.582610
O O12 0.807609 0.771975 0.264033
O O13 0.795939 0.000000 0.349146
O O14 0.207927 0.500000 0.783464
O O15 0.259148 0.711511 0.872514
O O16 0.329004 0.500000 0.934006
O O17 0.362810 0.271709 0.864628
O O18 0.389219 0.500000 0.793832
O O19 0.464414 0.298186 0.846195
O O20 0.967707 0.000000 0.076058
O O21 0.000000 0.217670 0.000000
#
# Coordination Sequence:
#
# PCOD8085542 Si02
#       8
#     8   8   8   8   8   8   8   8
#     4   9  18  30  45  71 103 129 159 201 245 290
#     4  11  23  35  50  74  98 128 169 211 252 292
#     4   9  17  29  45  68 100 136 167 198 242 294
#     4  10  19  30  47  73 101 133 168 200 243 294
#     4  10  21  35  50  71 101 134 168 202 245 300
#     4  10  19  34  52  70  97 134 167 201 247 295
#     4  10  19  31  52  74  93 129 170 202 246 295
#     4  10  20  37  54  69  93 128 170 209 247 298
#
# _framework density 16.561499000000001
#
# number of rings (size 3 to 8) (size 9 to 14) (size 15 to 20)
#    0.000    2.125    2.500    2.250    0.000    5.250 
#    0.000    0.000    0.000    0.000    0.000    0.875 
#    0.000    7.000    0.000    0.000    0.000    0.000 
#
# Total GULP energy -396807.504516 kJ/mol
# GULP energy per Si atom -12400.234516 kJ/mol
# Density = 1.652380 g / cm^3
# Si number density = 16.561499 Si / 1000 Ang^3
#
#
#
# Elastic Constant Matrix: (Units=GPa)
#
#
# Indices 1 2 3 4 5 6 
#
# 1 68.4741 34.6565 35.7011 0.0000 -6.4594 0.0000
# 2 34.6565 83.9479 62.6089 0.0000 -0.4908 0.0000
# 3 35.7011 62.6089 119.4022 0.0000 3.6603 0.0000
# 4 0.0000 0.0000 0.0000 35.2150 0.0000 1.3122
# 5 -6.4594 -0.4908 3.6603 0.0000 14.2869 0.0000
# 6 0.0000 0.0000 0.0000 1.3122 0.0000 23.4209
#
#
#
# Elastic Compliance Matrix: (Units=1/GPa)
#
#
# Indices 1 2 3 4 5 6 
#
# 1 0.020186 -0.005833 -0.003277 0.000000 0.009765 0.000000
# 2 -0.005833 0.021406 -0.009496 0.000000 0.000531 0.000000
# 3 -0.003277 -0.009496 0.014504 0.000000 -0.005523 0.000000
# 4 0.000000 0.000000 0.000000 0.028456 0.000000 -0.001594
# 5 0.009765 0.000531 -0.005523 0.000000 0.075842 0.000000
# 6 0.000000 0.000000 0.000000 -0.001594 0.000000 0.042786
#
#
# Mechanical properties :
#
#
# Convention : Reuss Voigt Hill
#
# Bulk Modulus (GPa) = 52.95563 59.75077 56.35320
# Shear Modulus (GPa) = 20.26872 23.84175 22.05523
#
# Velocity S-wave (km/s) = 3.50215 3.79831 3.65323
# Velocity P-wave (km/s) = 6.95686 7.44262 7.20384
#
# Compressibility (1/GPa) = 0.01888373
#
# Stress axis : x y z
#
# Youngs Moduli (GPa) = 49.54031 46.71657 68.94857
#
# Poissons Ratio (x) = 0.27248 0.22591
# Poissons Ratio (y) = 0.28895 0.65477
# Poissons Ratio (z) = 0.16232 0.44364
#
# Static dielectric constant tensor:
#      x y z
#    x 2.838420 0.000000 0.029610 
#    y 0.000000 3.143330 0.000000 
#    z 0.029610 0.000000 3.418370 
# 
# 
# High freq. dielectric constant tensor:
#      x y z
#    x 1.598770 0.000000 0.004250 
#    y 0.000000 1.644510 0.000000 
#    z 0.004250 0.000000 1.643380 
# 
# From -- ./inp_files/244052.got.cif
#   From: 2010.06.25/outbox.cif.g09.slc.cpg/sg12_123_cif.got.tgz:244052.got - 2010.06.28 00:19:55.
