data_PCOD8085794
_publ_section_title
;
Structure prediction by ZEFSAII (Michael W. Deem and Ramdas Pophale) SiO2 
 PCOD8085794
Probable space group: C 2/M
;
_chemical_formula_sum "Si O2"
_cell_formula_units_Z 64
_cell_length_a 23.754976
_cell_length_b 8.907129
_cell_length_c 18.854171
_cell_angle_alpha 90.000000
_cell_angle_beta 108.453400
_cell_angle_gamma 90.000000
_cell_volume 3784.202692
_symmetry_space_group_name_H-M "C 2/M"
_symmetry_group_IT_number 12
_symmetry_cell_setting 'monoclinic'
loop_
_space_group_symop_operation_xyz
x,y,z
-x,y,-z
-x,-y,-z
x,-y,z
1/2+x,1/2+y,z
1/2-x,1/2+y,-z
1/2-x,1/2-y,-z
1/2+x,1/2-y,z
loop_
_atom_site_type_symbol
_atom_site_label
_atom_site_fract_x
_atom_site_fract_y
_atom_site_fract_z
Si Si1 0.309801 0.676013 0.374432
Si Si2 0.095316 0.826912 0.703963
Si Si3 0.142545 0.324031 0.466354
Si Si4 0.811333 0.177871 0.652363
Si Si5 0.451214 0.824573 0.187071
Si Si6 0.933102 0.830037 0.767871
Si Si7 0.493325 0.330117 0.075073
Si Si8 0.506586 0.170956 0.419597
O O1 0.308655 0.500000 0.392323
O O2 0.345826 0.709051 0.317067
O O3 0.341246 0.765774 0.449761
O O4 0.244134 0.738660 0.334698
O O5 0.099141 0.737112 0.779944
O O6 0.037271 0.782987 0.636739
O O7 0.090495 0.000000 0.721394
O O8 0.157684 0.500000 0.468019
O O9 0.181667 0.233418 0.425385
O O10 0.073688 0.292348 0.423021
O O11 0.868144 0.228632 0.721599
O O12 0.801316 0.000000 0.649315
O O13 0.515477 0.774807 0.246198
O O14 0.444909 0.756842 0.104736
O O15 0.446084 0.000000 0.179626
O O16 0.943210 0.825364 0.857764
O O17 0.941760 0.000000 0.742901
O O18 0.470300 0.500000 0.056420
O O19 0.500000 0.254404 0.000000
O O20 0.500000 0.197709 0.500000
O O21 0.489580 0.000000 0.392865
#
# Coordination Sequence:
#
# PCOD8085794 Si02
#       8
#     8   8   8   8   8   8   8   8
#     4  11  24  38  51  68  92 127 174 217 257 298
#     4  11  22  35  50  69  96 130 167 207 249 302
#     4  11  22  36  53  71  95 126 165 211 260 306
#     4  11  22  36  53  70  96 129 168 214 251 294
#     4  10  19  30  50  77 106 133 159 197 241 288
#     4   8  17  33  51  76 103 132 166 194 239 297
#     4   8  15  31  53  78 110 139 162 191 233 291
#     4  10  20  34  52  73  96 123 160 207 258 306
#
# _framework density 16.912413999999998
#
# number of rings (size 3 to 8) (size 9 to 14) (size 15 to 20)
#    0.750    1.250    1.250    3.375    0.000    6.000 
#    0.000    0.000    0.000    0.000    0.000    0.875 
#    0.000    0.000    0.000    0.000    0.000    0.000 
#
# Total GULP energy -396667.513556 kJ/mol
# GULP energy per Si atom -12395.859799 kJ/mol
# Density = 1.687392 g / cm^3
# Si number density = 16.912414 Si / 1000 Ang^3
#
#
#
# Elastic Constant Matrix: (Units=GPa)
#
#
# Indices 1 2 3 4 5 6 
#
# 1 80.4617 38.1062 35.5911 0.0000 -22.4033 0.0000
# 2 38.1062 77.0930 36.1841 0.0000 -14.9576 0.0000
# 3 35.5911 36.1841 61.8082 0.0000 -20.7929 0.0000
# 4 0.0000 0.0000 0.0000 17.2549 0.0000 -1.3266
# 5 -22.4033 -14.9576 -20.7929 0.0000 20.3088 0.0000
# 6 0.0000 0.0000 0.0000 -1.3266 0.0000 25.4413
#
#
#
# Elastic Compliance Matrix: (Units=1/GPa)
#
#
# Indices 1 2 3 4 5 6 
#
# 1 0.020973 -0.005720 -0.003604 0.000000 0.015234 0.000000
# 2 -0.005720 0.019634 -0.008327 0.000000 -0.000374 0.000000
# 3 -0.003604 -0.008327 0.030093 0.000000 0.020703 0.000000
# 4 0.000000 0.000000 0.000000 0.058188 0.000000 0.003034
# 5 0.015234 -0.000374 0.020703 0.000000 0.086965 0.000000
# 6 0.000000 0.000000 0.000000 0.003034 0.000000 0.039464
#
#
# Mechanical properties :
#
#
# Convention : Reuss Voigt Hill
#
# Bulk Modulus (GPa) = 28.24812 48.79176 38.51994
# Shear Modulus (GPa) = 16.53349 19.89978 18.21663
#
# Velocity S-wave (km/s) = 3.13004 3.43394 3.28551
# Velocity P-wave (km/s) = 5.45910 6.68093 6.10068
#
# Compressibility (1/GPa) = 0.03540058
#
# Stress axis : x y z
#
# Youngs Moduli (GPa) = 47.68139 50.93191 33.23001
#
# Poissons Ratio (x) = 0.29131 0.11975
# Poissons Ratio (y) = 0.27272 0.27669
# Poissons Ratio (z) = 0.17182 0.42409
#
# Static dielectric constant tensor:
#      x y z
#    x 3.150830 0.000000 -0.156410 
#    y 0.000000 3.164990 0.000000 
#    z -0.156410 0.000000 3.076780 
# 
# 
# High freq. dielectric constant tensor:
#      x y z
#    x 1.635390 0.000000 -0.018650 
#    y 0.000000 1.660800 0.000000 
#    z -0.018650 0.000000 1.631010 
# 
# From -- ./inp_files/323398.got.cif
#   From: 2010.06.25/outbox.cif.g09.slc.cpg/sg12_162_cif.got.tgz:323398.got - 2010.06.28 00:19:55.
