data_PCOD8085301
_publ_section_title
;
Structure prediction by ZEFSAII (Michael W. Deem and Ramdas Pophale) SiO2 
 PCOD8085301
Probable space group: C 2/M
;
_chemical_formula_sum "Si O2"
_cell_formula_units_Z 64
_cell_length_a 18.883607
_cell_length_b 9.400675
_cell_length_c 20.963590
_cell_angle_alpha 90.000000
_cell_angle_beta 91.858068
_cell_angle_gamma 90.000000
_cell_volume 3719.471564
_symmetry_space_group_name_H-M "C 2/M"
_symmetry_group_IT_number 12
_symmetry_cell_setting 'monoclinic'
loop_
_space_group_symop_operation_xyz
x,y,z
-x,y,-z
-x,-y,-z
x,-y,z
1/2+x,1/2+y,z
1/2-x,1/2+y,-z
1/2-x,1/2-y,-z
1/2+x,1/2-y,z
loop_
_atom_site_type_symbol
_atom_site_label
_atom_site_fract_x
_atom_site_fract_y
_atom_site_fract_z
Si Si1 0.474405 0.337166 0.882671
Si Si2 0.583305 0.668482 0.368341
Si Si3 0.622952 0.834868 0.035513
Si Si4 0.866607 0.163056 0.089655
Si Si5 0.176759 0.831874 0.492769
Si Si6 0.544337 0.331430 0.560059
Si Si7 0.772565 0.661947 0.846584
Si Si8 0.128201 0.833064 0.233176
O O1 0.457510 0.500000 0.900507
O O2 0.447974 0.239840 0.940130
O O3 0.557500 0.310813 0.875822
O O4 0.436752 0.294938 0.815526
O O5 0.582408 0.500000 0.362711
O O6 0.637041 0.713398 0.426262
O O7 0.501109 0.720207 0.379311
O O8 0.609386 0.732553 0.301862
O O9 0.686052 0.807813 0.086759
O O10 0.606696 0.000000 0.024312
O O11 0.646427 0.765631 0.970111
O O12 0.809453 0.198018 0.142805
O O13 0.857842 0.000000 0.065999
O O14 0.250000 0.750000 0.500000
O O15 0.126650 0.785067 0.552223
O O16 0.191846 0.000000 0.494158
O O17 0.500000 0.269488 0.500000
O O18 0.543253 0.500000 0.557151
O O19 0.783316 0.500000 0.824942
O O20 0.800133 0.760580 0.790211
O O21 0.142615 0.000000 0.237009
#
# Coordination Sequence:
#
# PCOD8085301 Si02
#       8
#     8   8   8   8   8   8   8   8
#     4   9  18  31  46  64  86 112 144 183 224 264
#     4   8  14  27  48  68  86 115 155 189 212 248
#     4  10  19  30  46  67  88 113 146 181 220 268
#     4  10  19  31  46  64  88 116 144 180 228 271
#     4   9  16  27  45  70  98 122 144 178 223 262
#     4   7  11  22  42  66  88 113 147 181 210 244
#     4   9  19  33  46  63  91 121 145 177 222 269
#     4   9  17  31  50  67  83 112 154 189 216 255
#
# _framework density 17.206745999999999
#
# number of rings (size 3 to 8) (size 9 to 14) (size 15 to 20)
#    0.000    3.125    0.000    2.625    0.000    3.000 
#    0.000    1.875    0.000    7.125    0.000    0.000 
#    0.000    0.000    0.000    0.000    0.000    0.000 
#
# Total GULP energy -396521.409980 kJ/mol
# GULP energy per Si atom -12391.294062 kJ/mol
# Density = 1.716758 g / cm^3
# Si number density = 17.206746 Si / 1000 Ang^3
#
#
#
# Elastic Constant Matrix: (Units=GPa)
#
#
# Indices 1 2 3 4 5 6 
#
# 1 138.5512 43.6032 51.4104 0.0000 -30.3246 0.0000
# 2 43.6032 49.4312 35.5636 0.0000 -12.0582 0.0000
# 3 51.4104 35.5636 94.5653 0.0000 -28.5541 0.0000
# 4 0.0000 0.0000 0.0000 15.7232 0.0000 -3.3626
# 5 -30.3246 -12.0582 -28.5541 0.0000 24.7157 0.0000
# 6 0.0000 0.0000 0.0000 -3.3626 0.0000 25.5028
#
#
#
# Elastic Compliance Matrix: (Units=1/GPa)
#
#
# Indices 1 2 3 4 5 6 
#
# 1 0.012165 -0.007802 -0.000494 0.000000 0.010548 0.000000
# 2 -0.007802 0.032821 -0.009456 0.000000 -0.004484 0.000000
# 3 -0.000494 -0.009456 0.019693 0.000000 0.017532 0.000000
# 4 0.000000 0.000000 0.000000 0.065446 0.000000 0.008629
# 5 0.010548 -0.004484 0.017532 0.000000 0.071469 0.000000
# 6 0.000000 0.000000 0.000000 0.008629 0.000000 0.040349
#
#
# Mechanical properties :
#
#
# Convention : Reuss Voigt Hill
#
# Bulk Modulus (GPa) = 34.27508 60.41135 47.34322
# Shear Modulus (GPa) = 17.41110 23.31970 20.36540
#
# Velocity S-wave (km/s) = 3.18445 3.68539 3.44404
# Velocity P-wave (km/s) = 5.78652 7.30033 6.58705
#
# Compressibility (1/GPa) = 0.02917571
#
# Stress axis : x y z
#
# Youngs Moduli (GPa) = 82.20311 30.46798 50.77872
#
# Poissons Ratio (x) = 0.23771 0.02510
# Poissons Ratio (y) = 0.64134 0.48015
# Poissons Ratio (z) = 0.04064 0.28809
#
# Static dielectric constant tensor:
#      x y z
#    x 3.391800 0.000000 -0.283120 
#    y 0.000000 2.976090 0.000000 
#    z -0.283120 0.000000 3.296380 
# 
# 
# High freq. dielectric constant tensor:
#      x y z
#    x 1.671170 0.000000 -0.019490 
#    y 0.000000 1.635470 0.000000 
#    z -0.019490 0.000000 1.643590 
# 
# From -- ./inp_files/319149.got.cif
#   From: 2010.06.25/outbox.cif.g09.slc.cpg/sg12_160_cif.got.tgz:319149.got - 2010.06.28 00:19:55.
