data_PCOD8085676
_publ_section_title
;
Structure prediction by ZEFSAII (Michael W. Deem and Ramdas Pophale) SiO2 
 PCOD8085676
Probable space group: C 2/M
;
_chemical_formula_sum "Si O2"
_cell_formula_units_Z 64
_cell_length_a 24.444944
_cell_length_b 8.990621
_cell_length_c 16.625802
_cell_angle_alpha 90.000000
_cell_angle_beta 86.433997
_cell_angle_gamma 90.000000
_cell_volume 3646.864686
_symmetry_space_group_name_H-M "C 2/M"
_symmetry_group_IT_number 12
_symmetry_cell_setting 'monoclinic'
loop_
_space_group_symop_operation_xyz
x,y,z
-x,y,-z
-x,-y,-z
x,-y,z
1/2+x,1/2+y,z
1/2-x,1/2+y,-z
1/2-x,1/2-y,-z
1/2+x,1/2-y,z
loop_
_atom_site_type_symbol
_atom_site_label
_atom_site_fract_x
_atom_site_fract_y
_atom_site_fract_z
Si Si1 0.304882 0.326734 0.670585
Si Si2 0.880257 0.669483 0.784967
Si Si3 0.910644 0.174962 0.364767
Si Si4 0.803930 0.175700 0.277919
Si Si5 0.478355 0.826259 0.668508
Si Si6 0.182927 0.669086 0.060546
Si Si7 0.712060 0.171888 0.886494
Si Si8 0.097237 0.826270 0.450814
O O1 0.292305 0.500000 0.679022
O O2 0.335746 0.275346 0.748001
O O3 0.247479 0.241874 0.668725
O O4 0.342622 0.289393 0.590070
O O5 0.867419 0.500000 0.759575
O O6 0.941395 0.711301 0.750586
O O7 0.873129 0.688773 0.882259
O O8 0.858037 0.227405 0.319766
O O9 0.903025 0.226522 0.457382
O O10 0.963290 0.252270 0.321028
O O11 0.919138 0.000000 0.358581
O O12 0.808836 0.233291 0.186508
O O13 0.797571 0.000000 0.277137
O O14 0.450002 0.761847 0.591314
O O15 0.486589 0.000000 0.655046
O O16 0.205291 0.500000 0.067906
O O17 0.227382 0.781284 0.092172
O O18 0.171780 0.700607 0.966990
O O19 0.713051 0.000000 0.860602
O O20 0.083782 0.000000 0.442683
#
# Coordination Sequence:
#
# PCOD8085676 Si02
#       8
#     8   8   8   8   8   8   8   8
#     4  10  19  31  50  76 101 128 164 206 252 298
#     4   9  17  31  51  75 104 133 159 197 251 302
#     4  10  22  38  53  69  95 138 178 205 247 303
#     4  11  22  35  50  69 101 140 172 203 247 303
#     4  10  20  33  53  80 103 125 163 213 255 292
#     4   9  17  30  50  75 104 134 162 197 246 301
#     4  10  19  30  48  76 104 131 166 204 243 293
#     4   9  19  36  55  74  99 129 165 210 255 302
#
# _framework density 17.549322
#
# number of rings (size 3 to 8) (size 9 to 14) (size 15 to 20)
#    0.000    2.250    1.250    1.875    0.000    5.000 
#    0.000    0.000    0.000    0.750    0.000    5.250 
#    0.000    0.000    0.000    0.000    0.000    0.000 
#
# Total GULP energy -396749.568866 kJ/mol
# GULP energy per Si atom -12398.424027 kJ/mol
# Density = 1.750938 g / cm^3
# Si number density = 17.549322 Si / 1000 Ang^3
#
#
#
# Elastic Constant Matrix: (Units=GPa)
#
#
# Indices 1 2 3 4 5 6 
#
# 1 128.9814 46.8293 52.1670 0.0000 -9.5440 0.0000
# 2 46.8293 58.3881 21.4839 0.0000 -2.2556 0.0000
# 3 52.1670 21.4839 75.0430 0.0000 -19.3917 0.0000
# 4 0.0000 0.0000 0.0000 22.4195 0.0000 -2.5901
# 5 -9.5440 -2.2556 -19.3917 0.0000 22.7425 0.0000
# 6 0.0000 0.0000 0.0000 -2.5901 0.0000 28.2543
#
#
#
# Elastic Compliance Matrix: (Units=1/GPa)
#
#
# Indices 1 2 3 4 5 6 
#
# 1 0.013693 -0.008265 -0.007541 0.000000 -0.001503 0.000000
# 2 -0.008265 0.024360 -0.001924 0.000000 -0.002693 0.000000
# 3 -0.007541 -0.001924 0.023410 0.000000 0.016605 0.000000
# 4 0.000000 0.000000 0.000000 0.045082 0.000000 0.004133
# 5 -0.001503 -0.002693 0.016605 0.000000 0.057231 0.000000
# 6 0.000000 0.000000 0.000000 0.004133 0.000000 0.035772
#
#
# Mechanical properties :
#
#
# Convention : Reuss Voigt Hill
#
# Bulk Modulus (GPa) = 38.45939 55.93034 47.19487
# Shear Modulus (GPa) = 20.51920 24.14539 22.33229
#
# Velocity S-wave (km/s) = 3.42311 3.71328 3.57114
# Velocity P-wave (km/s) = 6.13076 7.09395 6.62987
#
# Compressibility (1/GPa) = 0.02600145
#
# Stress axis : x y z
#
# Youngs Moduli (GPa) = 73.03190 41.05114 42.71768
#
# Poissons Ratio (x) = 0.33931 0.32213
# Poissons Ratio (y) = 0.60364 0.08219
# Poissons Ratio (z) = 0.55072 0.07898
#
# Static dielectric constant tensor:
#      x y z
#    x 3.167700 0.000000 -0.297740 
#    y 0.000000 3.308210 0.000000 
#    z -0.297740 0.000000 3.446990 
# 
# 
# High freq. dielectric constant tensor:
#      x y z
#    x 1.655560 0.000000 -0.028060 
#    y 0.000000 1.686400 0.000000 
#    z -0.028060 0.000000 1.677890 
# 
# From -- ./inp_files/281272.got.cif
#   From: 2010.06.25/outbox.cif.g09.slc.cpg/sg12_141_cif.got.tgz:281272.got - 2010.06.28 00:19:55.
