data_PCOD8085018
_publ_section_title
;
Structure prediction by ZEFSAII (Michael W. Deem and Ramdas Pophale) SiO2 
 PCOD8085018
Probable space group: C 2/M
;
_chemical_formula_sum "Si O2"
_cell_formula_units_Z 48
_cell_length_a 5.347245
_cell_length_b 35.225449
_cell_length_c 15.257955
_cell_angle_alpha 90.000000
_cell_angle_beta 97.059520
_cell_angle_gamma 90.000000
_cell_volume 2852.187207
_symmetry_space_group_name_H-M "C 2/M"
_symmetry_group_IT_number 12
_symmetry_cell_setting 'monoclinic'
loop_
_space_group_symop_operation_xyz
x,y,z
-x,y,-z
-x,-y,-z
x,-y,z
1/2+x,1/2+y,z
1/2-x,1/2+y,-z
1/2-x,1/2-y,-z
1/2+x,1/2-y,z
loop_
_atom_site_type_symbol
_atom_site_label
_atom_site_fract_x
_atom_site_fract_y
_atom_site_fract_z
Si Si1 0.315434 0.802244 0.240080
Si Si2 0.955343 0.457502 0.395397
Si Si3 0.668464 0.334844 0.695745
Si Si4 0.953373 0.914666 0.395041
Si Si5 0.153750 0.240032 0.603297
Si Si6 0.237064 0.291985 0.963023
O O1 0.550023 0.832148 0.251707
O O2 0.353631 0.766043 0.307006
O O3 0.301279 0.787025 0.141728
O O4 0.055199 0.824297 0.247181
O O5 0.915676 0.500000 0.356648
O O6 0.703761 0.433256 0.362939
O O7 0.000000 0.458985 0.500000
O O8 0.208621 0.440335 0.363873
O O9 0.605451 0.375178 0.652928
O O10 0.676456 0.304490 0.618160
O O11 0.000000 0.908458 0.500000
O O12 0.378019 0.253968 0.549430
O O13 0.500000 0.313295 0.000000
O O14 0.250000 0.250000 0.000000
O O15 0.000000 0.313250 0.000000
#
# Coordination Sequence:
#
# PCOD8085018 Si02
#       6
#     8   8   8   8   8   8
#     4  10  19  31  44  61  87 120 161 194 224 281
#     4   9  17  30  49  70  94 119 143 179 229 280
#     4  10  19  29  46  61  86 122 155 190 235 268
#     4  10  19  31  47  70  94 117 157 197 223 266
#     4   8  16  25  42  53  76 105 154 183 217 255
#     4  10  21  27  43  64  89 109 146 206 232 266
#
# _framework density 16.829191000000002
#
# number of rings (size 3 to 8) (size 9 to 14) (size 15 to 20)
#    0.000    2.500    0.000    2.500   14.000    2.000 
#    0.000    0.000    0.000    9.000    0.000    0.000 
#    0.000    0.000    0.000    0.000    0.000  210.000 
#
# Total GULP energy -297322.172145 kJ/mol
# GULP energy per Si atom -12388.423839 kJ/mol
# Density = 1.679089 g / cm^3
# Si number density = 16.829191 Si / 1000 Ang^3
#
#
#
# Elastic Constant Matrix: (Units=GPa)
#
#
# Indices 1 2 3 4 5 6 
#
# 1 174.9335 46.0696 28.8983 0.0000 3.5325 0.0000
# 2 46.0696 107.5869 24.1652 0.0000 2.4880 0.0000
# 3 28.8983 24.1652 68.7210 0.0000 2.3900 0.0000
# 4 0.0000 0.0000 0.0000 34.4832 0.0000 7.8100
# 5 3.5325 2.4880 2.3900 0.0000 21.0006 0.0000
# 6 0.0000 0.0000 0.0000 7.8100 0.0000 25.9508
#
#
#
# Elastic Compliance Matrix: (Units=1/GPa)
#
#
# Indices 1 2 3 4 5 6 
#
# 1 0.006685 -0.002412 -0.001941 0.000000 -0.000618 0.000000
# 2 -0.002412 0.010976 -0.002825 0.000000 -0.000573 0.000000
# 3 -0.001941 -0.002825 0.016403 0.000000 -0.001206 0.000000
# 4 0.000000 0.000000 0.000000 0.031121 0.000000 -0.009366
# 5 -0.000618 -0.000573 -0.001206 0.000000 0.047927 0.000000
# 6 0.000000 0.000000 0.000000 -0.009366 0.000000 0.041353
#
#
# Mechanical properties :
#
#
# Convention : Reuss Voigt Hill
#
# Bulk Modulus (GPa) = 50.74522 61.05640 55.90081
# Shear Modulus (GPa) = 28.50779 33.09415 30.80097
#
# Velocity S-wave (km/s) = 4.12023 4.43930 4.28274
# Velocity P-wave (km/s) = 7.27005 7.91425 7.59898
#
# Compressibility (1/GPa) = 0.01970629
#
# Stress axis : x y z
#
# Youngs Moduli (GPa) = 149.59075 91.11162 60.96314
#
# Poissons Ratio (x) = 0.21978 0.11835
# Poissons Ratio (y) = 0.36084 0.17223
# Poissons Ratio (z) = 0.29041 0.25741
#
# Static dielectric constant tensor:
#      x y z
#    x 2.714220 0.000000 0.084810 
#    y 0.000000 2.896710 0.000000 
#    z 0.084810 0.000000 2.887010 
# 
# 
# High freq. dielectric constant tensor:
#      x y z
#    x 1.699870 0.000000 0.004890 
#    y 0.000000 1.608880 0.000000 
#    z 0.004890 0.000000 1.615670 
# 
# From -- ./inp_files/192061.got.cif
#   From: 2010.06.25/outbox.cif.g09.slc.cpg/sg12_97_cif.got.tgz:192061.got - 2010.06.28 00:19:55.
