data_PCOD8085946
_publ_section_title
;
Structure prediction by ZEFSAII (Michael W. Deem and Ramdas Pophale) SiO2 
 PCOD8085946
Probable space group: C 2/M
;
_chemical_formula_sum "Si O2"
_cell_formula_units_Z 64
_cell_length_a 20.495293
_cell_length_b 9.032266
_cell_length_c 20.641142
_cell_angle_alpha 90.000000
_cell_angle_beta 100.957335
_cell_angle_gamma 90.000000
_cell_volume 3751.404415
_symmetry_space_group_name_H-M "C 2/M"
_symmetry_group_IT_number 12
_symmetry_cell_setting 'monoclinic'
loop_
_space_group_symop_operation_xyz
x,y,z
-x,y,-z
-x,-y,-z
x,-y,z
1/2+x,1/2+y,z
1/2-x,1/2+y,-z
1/2-x,1/2-y,-z
1/2+x,1/2-y,z
loop_
_atom_site_type_symbol
_atom_site_label
_atom_site_fract_x
_atom_site_fract_y
_atom_site_fract_z
Si Si1 0.647549 0.325683 0.159764
Si Si2 0.815956 0.330868 0.432880
Si Si3 0.686682 0.173011 0.956637
Si Si4 0.212020 0.177366 0.833867
Si Si5 0.811273 0.836614 0.310295
Si Si6 0.652824 0.163681 0.286390
Si Si7 0.072757 0.329362 0.037453
Si Si8 0.679829 0.171378 0.427131
O O1 0.659984 0.500000 0.158024
O O2 0.712932 0.237756 0.150168
O O3 0.626473 0.282252 0.229368
O O4 0.588856 0.276552 0.100918
O O5 0.816640 0.500000 0.413350
O O6 0.847169 0.251392 0.375493
O O7 0.740895 0.282422 0.431950
O O8 0.855114 0.301512 0.508791
O O9 0.671299 0.249196 0.884623
O O10 0.701871 0.000000 0.950123
O O11 0.750000 0.250000 0.000000
O O12 0.622766 0.201431 0.988205
O O13 0.175304 0.225379 0.759890
O O14 0.215672 0.000000 0.841393
O O15 0.732412 0.834158 0.304847
O O16 0.840783 0.000000 0.320439
O O17 0.629778 0.200356 0.356443
O O18 0.628084 0.000000 0.260695
O O19 0.076408 0.500000 0.060618
O O20 0.000000 0.285626 0.000000
O O21 0.704980 0.000000 0.428836
#
# Coordination Sequence:
#
# PCOD8085946 Si02
#       8
#     8   8   8   8   8   8   8   8
#     4  11  20  29  45  68  91 115 149 194 237 274
#     4   9  14  19  30  47  69  99 138 181 219 259
#     4  11  21  33  53  76  96 119 152 194 235 276
#     4  10  19  31  46  64  90 121 154 190 229 276
#     4   8  15  25  35  50  75 109 143 177 220 266
#     4   8  14  25  38  51  75 110 146 182 222 271
#     4  10  22  39  55  70  93 126 157 185 229 289
#     4   8  14  22  30  44  68 102 140 176 217 263
#
# _framework density 17.060276999999999
#
# number of rings (size 3 to 8) (size 9 to 14) (size 15 to 20)
#    0.000    2.625    1.250    3.750    0.000    6.250 
#    0.000    0.000    0.000    0.000    0.000    0.000 
#    0.000    0.000    0.000    1.125    0.000   24.000 
#
# Total GULP energy -396444.755361 kJ/mol
# GULP energy per Si atom -12388.898605 kJ/mol
# Density = 1.702145 g / cm^3
# Si number density = 17.060277 Si / 1000 Ang^3
#
#
#
# Elastic Constant Matrix: (Units=GPa)
#
#
# Indices 1 2 3 4 5 6 
#
# 1 39.4062 21.2014 29.2665 0.0000 -0.6102 0.0000
# 2 21.2014 87.8992 66.0534 0.0000 -3.2198 0.0000
# 3 29.2665 66.0534 174.6974 0.0000 -13.4358 0.0000
# 4 0.0000 0.0000 0.0000 33.5326 0.0000 -2.5486
# 5 -0.6102 -3.2198 -13.4358 0.0000 9.1185 0.0000
# 6 0.0000 0.0000 0.0000 -2.5486 0.0000 10.8086
#
#
#
# Elastic Compliance Matrix: (Units=1/GPa)
#
#
# Indices 1 2 3 4 5 6 
#
# 1 0.030631 -0.004783 -0.003717 0.000000 -0.005115 0.000000
# 2 -0.004783 0.016748 -0.005753 0.000000 -0.002883 0.000000
# 3 -0.003717 -0.005753 0.009413 0.000000 0.011590 0.000000
# 4 0.000000 0.000000 0.000000 0.030366 0.000000 0.007160
# 5 -0.005115 -0.002883 0.011590 0.000000 0.125385 0.000000
# 6 0.000000 0.000000 0.000000 0.007160 0.000000 0.094207
#
#
# Mechanical properties :
#
#
# Convention : Reuss Voigt Hill
#
# Bulk Modulus (GPa) = 35.35093 59.44950 47.40022
# Shear Modulus (GPa) = 14.50607 23.05738 18.78172
#
# Velocity S-wave (km/s) = 2.91913 3.68030 3.32159
# Velocity P-wave (km/s) = 5.66815 7.27886 6.52341
#
# Compressibility (1/GPa) = 0.02828780
#
# Stress axis : x y z
#
# Youngs Moduli (GPa) = 32.64675 59.70954 106.23199
#
# Poissons Ratio (x) = 0.28557 0.39482
# Poissons Ratio (y) = 0.15614 0.61114
# Poissons Ratio (z) = 0.12133 0.34350
#
# Static dielectric constant tensor:
#      x y z
#    x 2.516330 0.000000 -0.217800 
#    y 0.000000 3.258170 0.000000 
#    z -0.217800 0.000000 4.051340 
# 
# 
# High freq. dielectric constant tensor:
#      x y z
#    x 1.559980 0.000000 -0.013920 
#    y 0.000000 1.664190 0.000000 
#    z -0.013920 0.000000 1.693320 
# 
# From -- ./inp_files/323390.got.cif
#   From: 2010.06.25/outbox.cif.g09.slc.cpg/sg12_162_cif.got.tgz:323390.got - 2010.06.28 00:19:55.
