data_PCOD8085223
_publ_section_title
;
Structure prediction by ZEFSAII (Michael W. Deem and Ramdas Pophale) SiO2 
 PCOD8085223
Probable space group: C 2/M
;
_chemical_formula_sum "Si O2"
_cell_formula_units_Z 56
_cell_length_a 20.780396
_cell_length_b 9.450867
_cell_length_c 17.975772
_cell_angle_alpha 90.000000
_cell_angle_beta 79.042199
_cell_angle_gamma 90.000000
_cell_volume 3465.944875
_symmetry_space_group_name_H-M "C 2/M"
_symmetry_group_IT_number 12
_symmetry_cell_setting 'monoclinic'
loop_
_space_group_symop_operation_xyz
x,y,z
-x,y,-z
-x,-y,-z
x,-y,z
1/2+x,1/2+y,z
1/2-x,1/2+y,-z
1/2-x,1/2-y,-z
1/2+x,1/2-y,z
loop_
_atom_site_type_symbol
_atom_site_label
_atom_site_fract_x
_atom_site_fract_y
_atom_site_fract_z
Si Si1 0.537378 0.168265 0.798935
Si Si2 0.815585 0.331958 0.967993
Si Si3 0.606987 0.167536 0.190756
Si Si4 0.906649 0.658399 0.644496
Si Si5 0.061724 0.341473 0.633792
Si Si6 0.922419 0.159377 0.505399
Si Si7 0.932031 0.667937 0.047713
O O1 0.463578 0.231810 0.817375
O O2 0.574970 0.216204 0.715037
O O3 0.575616 0.218894 0.864643
O O4 0.532361 0.000000 0.798214
O O5 0.804290 0.500000 0.976276
O O6 0.838026 0.285115 0.880213
O O7 0.750000 0.250000 0.000000
O O8 0.870288 0.277628 0.014249
O O9 0.625813 0.214446 0.270997
O O10 0.599953 0.000000 0.191114
O O11 0.882075 0.500000 0.630332
O O12 0.886657 0.762353 0.581908
O O13 0.984284 0.655496 0.638304
O O14 0.090007 0.500000 0.616520
O O15 0.096440 0.238199 0.567122
O O16 0.000000 0.161744 0.500000
O O17 0.895600 0.000000 0.507150
O O18 0.934666 0.500000 0.041749
O O19 0.000000 0.729777 0.000000
#
# Coordination Sequence:
#
# PCOD8085223 Si02
#       7
#     8   8   8   8   8   8   8
#     4   8  12  20  37  62  82  99 136 185 218 239
#     4  10  19  30  45  65  90 117 144 178 220 261
#     4   8  13  23  39  59  80 104 138 179 215 247
#     4   8  13  21  34  50  69  97 134 170 203 239
#     4   8  13  20  32  50  74 100 127 165 208 244
#     4   9  15  21  29  45  73 106 135 159 192 244
#     4   9  14  23  43  68  87 106 143 190 222 246
#
# _framework density 16.157211
#
# number of rings (size 3 to 8) (size 9 to 14) (size 15 to 20)
#    0.000    3.429    1.429    2.143    0.000    1.714 
#    0.000    0.714    0.000    2.143    0.000    0.000 
#    0.000    1.143    0.000    2.286    0.000    3.571 
#
# Total GULP energy -346901.359187 kJ/mol
# GULP energy per Si atom -12389.334257 kJ/mol
# Density = 1.612044 g / cm^3
# Si number density = 16.157211 Si / 1000 Ang^3
#
#
#
# Elastic Constant Matrix: (Units=GPa)
#
#
# Indices 1 2 3 4 5 6 
#
# 1 55.3618 21.1652 46.9878 0.0000 -0.5020 0.0000
# 2 21.1652 56.3360 56.6237 0.0000 -0.2666 0.0000
# 3 46.9878 56.6237 188.0942 0.0000 3.8989 0.0000
# 4 0.0000 0.0000 0.0000 11.6963 0.0000 -4.6118
# 5 -0.5020 -0.2666 3.8989 0.0000 12.3285 0.0000
# 6 0.0000 0.0000 0.0000 -4.6118 0.0000 11.8971
#
#
#
# Elastic Compliance Matrix: (Units=1/GPa)
#
#
# Indices 1 2 3 4 5 6 
#
# 1 0.023670 -0.004142 -0.004715 0.000000 0.002365 0.000000
# 2 -0.004142 0.026287 -0.006932 0.000000 0.002592 0.000000
# 3 -0.004715 -0.006932 0.008645 0.000000 -0.003076 0.000000
# 4 0.000000 0.000000 0.000000 0.100923 0.000000 0.039122
# 5 0.002365 0.002592 -0.003076 0.000000 0.082238 0.000000
# 6 0.000000 0.000000 0.000000 0.039122 0.000000 0.099219
#
#
# Mechanical properties :
#
#
# Convention : Reuss Voigt Hill
#
# Bulk Modulus (GPa) = 37.00635 61.03838 49.02237
# Shear Modulus (GPa) = 13.10381 18.85207 15.97794
#
# Velocity S-wave (km/s) = 2.85093 3.41954 3.14810
# Velocity P-wave (km/s) = 5.81298 7.31100 6.60460
#
# Compressibility (1/GPa) = 0.02702239
#
# Stress axis : x y z
#
# Youngs Moduli (GPa) = 42.24775 38.04174 115.67403
#
# Poissons Ratio (x) = 0.15759 0.54540
# Poissons Ratio (y) = 0.17501 0.80189
# Poissons Ratio (z) = 0.19920 0.26372
#
# Static dielectric constant tensor:
#      x y z
#    x 2.528990 0.000000 0.102100 
#    y 0.000000 2.741410 0.000000 
#    z 0.102100 0.000000 3.703940 
# 
# 
# High freq. dielectric constant tensor:
#      x y z
#    x 1.548380 0.000000 0.006500 
#    y 0.000000 1.576930 0.000000 
#    z 0.006500 0.000000 1.648690 
# 
# From -- ./inp_files/287021.got.cif
#   From: 2010.06.25/outbox.cif.g09.slc.cpg/sg12_144_cif.got.tgz:287021.got - 2010.06.28 00:19:55.
