data_PCOD8085710
_publ_section_title
;
Structure prediction by ZEFSAII (Michael W. Deem and Ramdas Pophale) SiO2 
 PCOD8085710
Probable space group: C 2/M
;
_chemical_formula_sum "Si O2"
_cell_formula_units_Z 64
_cell_length_a 25.022449
_cell_length_b 8.965131
_cell_length_c 23.945557
_cell_angle_alpha 90.000000
_cell_angle_beta 133.613260
_cell_angle_gamma 90.000000
_cell_volume 3889.173398
_symmetry_space_group_name_H-M "C 2/M"
_symmetry_group_IT_number 12
_symmetry_cell_setting 'monoclinic'
loop_
_space_group_symop_operation_xyz
x,y,z
-x,y,-z
-x,-y,-z
x,-y,z
1/2+x,1/2+y,z
1/2-x,1/2+y,-z
1/2-x,1/2-y,-z
1/2+x,1/2-y,z
loop_
_atom_site_type_symbol
_atom_site_label
_atom_site_fract_x
_atom_site_fract_y
_atom_site_fract_z
Si Si1 0.223526 0.176311 0.092960
Si Si2 0.911718 0.172646 0.079514
Si Si3 0.885749 0.324301 0.174476
Si Si4 0.460486 0.672826 0.914411
Si Si5 0.825273 0.678342 0.336228
Si Si6 0.444703 0.821977 0.332825
Si Si7 0.061456 0.336159 0.496947
Si Si8 0.807810 0.323478 0.811901
O O1 0.300529 0.222569 0.120259
O O2 0.214872 0.258440 0.144971
O O3 0.218452 0.000000 0.101097
O O4 0.159059 0.232282 0.005458
O O5 0.920010 0.255575 0.143860
O O6 0.985163 0.204139 0.097592
O O7 0.900738 0.000000 0.084329
O O8 0.892529 0.500000 0.175142
O O9 0.933394 0.264424 0.261585
O O10 0.436706 0.500000 0.900796
O O11 0.389558 0.774311 0.853719
O O12 0.500000 0.721097 0.000000
O O13 0.815233 0.500000 0.331042
O O14 0.873666 0.727101 0.317499
O O15 0.866182 0.739259 0.422558
O O16 0.746803 0.759266 0.274911
O O17 0.521317 0.754627 0.414986
O O18 0.449855 0.000000 0.338964
O O19 0.086435 0.500000 0.495237
O O20 0.000000 0.351904 0.500000
O O21 0.802889 0.500000 0.809903
#
# Coordination Sequence:
#
# PCOD8085710 Si02
#       8
#     8   8   8   8   8   8   8   8
#     4  10  19  35  52  68  94 133 170 195 232 283
#     4  10  21  35  52  70  92 124 165 206 238 284
#     4  10  19  30  49  73 102 133 159 194 236 285
#     4  10  20  38  58  69  86 123 166 204 246 292
#     4   9  15  28  48  68  96 129 163 196 230 284
#     4   8  13  24  44  71  98 126 161 195 231 275
#     4   7  11  20  41  70  93 120 160 200 227 264
#     4  12  23  31  47  75 102 126 157 204 249 286
#
# _framework density 16.455939000000001
#
# number of rings (size 3 to 8) (size 9 to 14) (size 15 to 20)
#    0.000    2.500    2.500    3.000    0.000    1.750 
#    0.000    0.000    0.000    4.125    0.000    0.875 
#    0.000    0.000    0.000    0.000    0.000    0.000 
#
# Total GULP energy -396577.151548 kJ/mol
# GULP energy per Si atom -12393.035986 kJ/mol
# Density = 1.641848 g / cm^3
# Si number density = 16.455939 Si / 1000 Ang^3
#
#
#
# Elastic Constant Matrix: (Units=GPa)
#
#
# Indices 1 2 3 4 5 6 
#
# 1 62.7349 25.2740 47.1749 0.0000 4.0293 0.0000
# 2 25.2740 38.5378 37.6725 0.0000 2.6671 0.0000
# 3 47.1749 37.6725 151.9698 0.0000 9.6255 0.0000
# 4 0.0000 0.0000 0.0000 9.6714 0.0000 -5.1987
# 5 4.0293 2.6671 9.6255 0.0000 15.3883 0.0000
# 6 0.0000 0.0000 0.0000 -5.1987 0.0000 17.9451
#
#
#
# Elastic Compliance Matrix: (Units=1/GPa)
#
#
# Indices 1 2 3 4 5 6 
#
# 1 0.023970 -0.011133 -0.004587 0.000000 -0.001477 0.000000
# 2 -0.011133 0.039425 -0.006319 0.000000 0.000035 0.000000
# 3 -0.004587 -0.006319 0.009814 0.000000 -0.003842 0.000000
# 4 0.000000 0.000000 0.000000 0.122469 0.000000 0.035479
# 5 -0.001477 0.000035 -0.003842 0.000000 0.067769 0.000000
# 6 0.000000 0.000000 0.000000 0.035479 0.000000 0.066004
#
#
# Mechanical properties :
#
#
# Convention : Reuss Voigt Hill
#
# Bulk Modulus (GPa) = 34.33020 52.60948 43.46984
# Shear Modulus (GPa) = 13.04665 18.14237 15.59451
#
# Velocity S-wave (km/s) = 2.81877 3.32397 3.08174
# Velocity P-wave (km/s) = 5.61258 6.83893 6.25588
#
# Compressibility (1/GPa) = 0.02912888
#
# Stress axis : x y z
#
# Youngs Moduli (GPa) = 41.71913 25.36447 101.89342
#
# Poissons Ratio (x) = 0.28239 0.46741
# Poissons Ratio (y) = 0.46448 0.64391
# Poissons Ratio (z) = 0.19138 0.16029
#
# Static dielectric constant tensor:
#      x y z
#    x 2.846830 0.000000 0.054260 
#    y 0.000000 2.767020 0.000000 
#    z 0.054260 0.000000 3.616690 
# 
# 
# High freq. dielectric constant tensor:
#      x y z
#    x 1.597370 0.000000 0.005240 
#    y 0.000000 1.600070 0.000000 
#    z 0.005240 0.000000 1.651490 
# 
# From -- ./inp_files/348586.got.cif
#   From: 2010.06.25/outbox.cif.g09.slc.cpg/sg12_175_cif.got.tgz:348586.got - 2010.06.28 00:19:55.
