data_PCOD8085411
_publ_section_title
;
Structure prediction by ZEFSAII (Michael W. Deem and Ramdas Pophale) SiO2 
 PCOD8085411
Probable space group: C 2/M
;
_chemical_formula_sum "Si O2"
_cell_formula_units_Z 48
_cell_length_a 27.612155
_cell_length_b 9.085548
_cell_length_c 11.449700
_cell_angle_alpha 90.000000
_cell_angle_beta 102.119789
_cell_angle_gamma 90.000000
_cell_volume 2808.380449
_symmetry_space_group_name_H-M "C 2/M"
_symmetry_group_IT_number 12
_symmetry_cell_setting 'monoclinic'
loop_
_space_group_symop_operation_xyz
x,y,z
-x,y,-z
-x,-y,-z
x,-y,z
1/2+x,1/2+y,z
1/2-x,1/2+y,-z
1/2-x,1/2-y,-z
1/2+x,1/2-y,z
loop_
_atom_site_type_symbol
_atom_site_label
_atom_site_fract_x
_atom_site_fract_y
_atom_site_fract_z
Si Si1 0.953091 0.174686 0.903677
Si Si2 0.025512 0.173880 0.340888
Si Si3 0.137066 0.667141 0.027061
Si Si4 0.745593 0.829943 0.119578
Si Si5 0.924010 0.174167 0.399221
Si Si6 0.837321 0.327202 0.226094
O O1 0.957208 0.239831 0.774436
O O2 0.902875 0.226341 0.937551
O O3 0.952390 0.000000 0.901465
O O4 0.000000 0.233790 0.000000
O O5 0.064437 0.218824 0.460935
O O6 0.970139 0.228546 0.343428
O O7 0.022763 0.000000 0.333075
O O8 0.117856 0.500000 0.024294
O O9 0.187957 0.684340 0.127846
O O10 0.145297 0.711787 0.896260
O O11 0.784056 0.749546 0.226331
O O12 0.760717 0.000000 0.113888
O O13 0.750000 0.750000 0.000000
O O14 0.875815 0.263108 0.337869
O O15 0.914859 0.000000 0.381286
O O16 0.831280 0.500000 0.241777
#
# Coordination Sequence:
#
# PCOD8085411 Si02
#       6
#     8   8   8   8   8   8
#     4  10  19  30  47  71  96 122 155 189 221 270
#     4   8  16  30  47  70  95 121 156 193 230 274
#     4   9  19  32  45  66  96 125 150 184 230 275
#     4   9  17  30  47  68  94 122 154 191 233 278
#     4   9  16  30  51  68  90 124 157 192 233 275
#     4  10  19  30  46  71  98 120 153 196 234 276
#
# _framework density 17.091699999999999
#
# number of rings (size 3 to 8) (size 9 to 14) (size 15 to 20)
#    0.000    2.833    0.000    4.000    0.000    5.667 
#    0.000    3.333    0.000    1.000    0.000    0.000 
#    0.000    0.000    0.000    0.000    0.000    0.000 
#
# Total GULP energy -297476.842841 kJ/mol
# GULP energy per Si atom -12394.868452 kJ/mol
# Density = 1.705280 g / cm^3
# Si number density = 17.091700 Si / 1000 Ang^3
#
#
#
# Elastic Constant Matrix: (Units=GPa)
#
#
# Indices 1 2 3 4 5 6 
#
# 1 105.5418 43.8612 56.2866 0.0000 24.1116 0.0000
# 2 43.8612 63.4319 34.5763 0.0000 13.4311 0.0000
# 3 56.2866 34.5763 98.6321 0.0000 15.8363 0.0000
# 4 0.0000 0.0000 0.0000 19.1252 0.0000 4.0565
# 5 24.1116 13.4311 15.8363 0.0000 32.1807 0.0000
# 6 0.0000 0.0000 0.0000 4.0565 0.0000 29.0969
#
#
#
# Elastic Compliance Matrix: (Units=1/GPa)
#
#
# Indices 1 2 3 4 5 6 
#
# 1 0.017383 -0.007107 -0.006312 0.000000 -0.006952 0.000000
# 2 -0.007107 0.023224 -0.003675 0.000000 -0.002560 0.000000
# 3 -0.006312 -0.003675 0.015227 0.000000 -0.001230 0.000000
# 4 0.000000 0.000000 0.000000 0.053880 0.000000 -0.007512
# 5 -0.006952 -0.002560 -0.001230 0.000000 0.037957 0.000000
# 6 0.000000 0.000000 0.000000 -0.007512 0.000000 0.035415
#
#
# Mechanical properties :
#
#
# Convention : Reuss Voigt Hill
#
# Bulk Modulus (GPa) = 46.19860 59.67268 52.93564
# Shear Modulus (GPa) = 22.27270 24.93932 23.60601
#
# Velocity S-wave (km/s) = 3.61380 3.82402 3.72040
# Velocity P-wave (km/s) = 6.67093 7.38150 7.03519
#
# Compressibility (1/GPa) = 0.02164568
#
# Stress axis : x y z
#
# Youngs Moduli (GPa) = 57.52682 43.05839 65.67410
#
# Poissons Ratio (x) = 0.30602 0.41457
# Poissons Ratio (y) = 0.40885 0.24133
# Poissons Ratio (z) = 0.36314 0.15823
#
# Static dielectric constant tensor:
#      x y z
#    x 3.317250 0.000000 0.129360 
#    y 0.000000 3.051530 0.000000 
#    z 0.129360 0.000000 3.305180 
# 
# 
# High freq. dielectric constant tensor:
#      x y z
#    x 1.657770 0.000000 0.023050 
#    y 0.000000 1.647310 0.000000 
#    z 0.023050 0.000000 1.639700 
# 
# From -- ./inp_files/172445.got.cif
#   From: 2010.06.25/outbox.cif.g09.slc.cpg/sg12_87_cif.got.tgz:172445.got - 2010.06.28 00:19:55.
