data_PCOD8085694
_publ_section_title
;
Structure prediction by ZEFSAII (Michael W. Deem and Ramdas Pophale) SiO2 
 PCOD8085694
Probable space group: C 2/M
;
_chemical_formula_sum "Si O2"
_cell_formula_units_Z 64
_cell_length_a 20.735465
_cell_length_b 9.119624
_cell_length_c 21.760247
_cell_angle_alpha 90.000000
_cell_angle_beta 118.944996
_cell_angle_gamma 90.000000
_cell_volume 3600.846714
_symmetry_space_group_name_H-M "C 2/M"
_symmetry_group_IT_number 12
_symmetry_cell_setting 'monoclinic'
loop_
_space_group_symop_operation_xyz
x,y,z
-x,y,-z
-x,-y,-z
x,-y,z
1/2+x,1/2+y,z
1/2-x,1/2+y,-z
1/2-x,1/2-y,-z
1/2+x,1/2-y,z
loop_
_atom_site_type_symbol
_atom_site_label
_atom_site_fract_x
_atom_site_fract_y
_atom_site_fract_z
Si Si1 0.584351 0.329137 0.546723
Si Si2 0.659703 0.668840 0.815251
Si Si3 0.211552 0.668659 0.037282
Si Si4 0.032874 0.669979 0.823690
Si Si5 0.328354 0.327458 0.536080
Si Si6 0.548008 0.172301 0.967618
Si Si7 0.600076 0.171547 0.676165
Si Si8 0.945497 0.331069 0.666418
O O1 0.500000 0.280960 0.500000
O O2 0.590452 0.500000 0.565273
O O3 0.629853 0.287134 0.507356
O O4 0.618215 0.237588 0.618191
O O5 0.639044 0.500000 0.794183
O O6 0.742273 0.686570 0.878827
O O7 0.603236 0.733509 0.838943
O O8 0.656330 0.755568 0.749849
O O9 0.205233 0.500000 0.014532
O O10 0.250000 0.750000 0.000000
O O11 0.130493 0.737142 0.009869
O O12 0.056052 0.500000 0.826470
O O13 0.011260 0.706413 0.884098
O O14 0.964385 0.703483 0.746574
O O15 0.317277 0.500000 0.538674
O O16 0.250000 0.250000 0.500000
O O17 0.377084 0.269371 0.615354
O O18 0.552074 0.000000 0.980938
O O19 0.500000 0.245801 0.000000
O O20 0.516524 0.208106 0.657799
O O21 0.615119 0.000000 0.682045
O O22 0.922820 0.500000 0.646949
#
# Coordination Sequence:
#
# PCOD8085694 Si02
#       8
#     8   8   8   8   8   8   8   8
#     4  10  20  36  57  82 110 139 176 222 273 318
#     4  10  19  30  48  77 109 139 175 222 273 322
#     4  10  19  31  51  77 104 136 176 220 267 317
#     4   9  17  31  52  77 104 137 178 222 265 319
#     4  11  23  38  57  80 110 146 179 222 269 320
#     4   9  17  31  52  77 105 138 178 222 265 315
#     4  10  20  33  54  82 110 142 179 224 270 320
#     4   9  18  32  51  78 107 137 178 221 267 320
#
# _framework density 17.773598
#
# number of rings (size 3 to 8) (size 9 to 14) (size 15 to 20)
#    0.000    2.250    2.500    1.875    0.000    3.750 
#    0.000    1.250    0.000    6.000    0.000    0.000 
#    0.000    0.000    0.000    0.000    0.000    0.000 
#
# Total GULP energy -396807.204019 kJ/mol
# GULP energy per Si atom -12400.225126 kJ/mol
# Density = 1.773314 g / cm^3
# Si number density = 17.773598 Si / 1000 Ang^3
#
#
#
# Elastic Constant Matrix: (Units=GPa)
#
#
# Indices 1 2 3 4 5 6 
#
# 1 113.0538 42.3691 71.6473 0.0000 -0.0060 0.0000
# 2 42.3691 68.4951 56.4584 0.0000 1.8966 0.0000
# 3 71.6473 56.4584 145.9557 0.0000 -2.8060 0.0000
# 4 0.0000 0.0000 0.0000 28.3603 0.0000 0.3795
# 5 -0.0060 1.8966 -2.8060 0.0000 27.5593 0.0000
# 6 0.0000 0.0000 0.0000 0.3795 0.0000 22.9867
#
#
#
# Elastic Compliance Matrix: (Units=1/GPa)
#
#
# Indices 1 2 3 4 5 6 
#
# 1 0.013648 -0.004273 -0.005051 0.000000 -0.000217 0.000000
# 2 -0.004273 0.022921 -0.006812 0.000000 -0.002272 0.000000
# 3 -0.005051 -0.006812 0.011998 0.000000 0.001689 0.000000
# 4 0.000000 0.000000 0.000000 0.035268 0.000000 -0.000582
# 5 -0.000217 -0.002272 0.001689 0.000000 0.036614 0.000000
# 6 0.000000 0.000000 0.000000 -0.000582 0.000000 0.043513
#
#
# Mechanical properties :
#
#
# Convention : Reuss Voigt Hill
#
# Bulk Modulus (GPa) = 61.36931 74.27270 67.82100
# Shear Modulus (GPa) = 24.79357 26.24991 25.52174
#
# Velocity S-wave (km/s) = 3.73898 3.84722 3.79348
# Velocity P-wave (km/s) = 7.29680 7.84944 7.57816
#
# Compressibility (1/GPa) = 0.01629479
#
# Stress axis : x y z
#
# Youngs Moduli (GPa) = 73.27337 43.62852 83.34463
#
# Poissons Ratio (x) = 0.18642 0.42095
# Poissons Ratio (y) = 0.31308 0.56778
# Poissons Ratio (z) = 0.37008 0.29722
#
# Static dielectric constant tensor:
#      x y z
#    x 3.219380 0.000000 0.007870 
#    y 0.000000 3.207230 0.000000 
#    z 0.007870 0.000000 3.503250 
# 
# 
# High freq. dielectric constant tensor:
#      x y z
#    x 1.658290 0.000000 -0.000750 
#    y 0.000000 1.679210 0.000000 
#    z -0.000750 0.000000 1.703150 
# 
# From -- ./inp_files/320186.got.cif
#   From: 2010.06.25/outbox.cif.g09.slc.cpg/sg12_161_cif.got.tgz:320186.got - 2010.06.28 00:19:55.
