data_PCOD8085477
_publ_section_title
;
Structure prediction by ZEFSAII (Michael W. Deem and Ramdas Pophale) SiO2 
 PCOD8085477
Probable space group: C 2/M
;
_chemical_formula_sum "Si O2"
_cell_formula_units_Z 56
_cell_length_a 24.255772
_cell_length_b 9.033989
_cell_length_c 18.388131
_cell_angle_alpha 90.000000
_cell_angle_beta 129.207169
_cell_angle_gamma 90.000000
_cell_volume 3122.184172
_symmetry_space_group_name_H-M "C 2/M"
_symmetry_group_IT_number 12
_symmetry_cell_setting 'monoclinic'
loop_
_space_group_symop_operation_xyz
x,y,z
-x,y,-z
-x,-y,-z
x,-y,z
1/2+x,1/2+y,z
1/2-x,1/2+y,-z
1/2-x,1/2-y,-z
1/2+x,1/2-y,z
loop_
_atom_site_type_symbol
_atom_site_label
_atom_site_fract_x
_atom_site_fract_y
_atom_site_fract_z
Si Si1 0.458837 0.830802 0.312317
Si Si2 0.938647 0.672301 0.894683
Si Si3 0.440421 0.659962 0.509410
Si Si4 0.696699 0.325524 0.398983
Si Si5 0.446661 0.830932 0.736435
Si Si6 0.705787 0.674174 0.239275
Si Si7 0.340664 0.325620 0.301965
O O1 0.532749 0.785358 0.413602
O O2 0.478716 0.806520 0.244310
O O3 0.391525 0.733038 0.279635
O O4 0.441249 0.000000 0.316759
O O5 0.920946 0.500000 0.891665
O O6 0.964793 0.705758 0.834789
O O7 0.868688 0.766502 0.853145
O O8 0.000000 0.726713 0.000000
O O9 0.500000 0.630252 0.500000
O O10 0.425910 0.500000 0.536269
O O11 0.371304 0.714633 0.407581
O O12 0.700601 0.500000 0.413941
O O13 0.750000 0.250000 0.500000
O O14 0.616249 0.272105 0.347384
O O15 0.716881 0.280378 0.333066
O O16 0.420529 0.000000 0.705562
O O17 0.708673 0.500000 0.231629
O O18 0.764708 0.747128 0.236149
O O19 0.332582 0.500000 0.283993
#
# Coordination Sequence:
#
# PCOD8085477 Si02
#       7
#     8   8   8   8   8   8   8
#     4  10  19  30  47  71 102 137 171 212 253 296
#     4   9  18  36  61  82 101 129 166 209 259 316
#     4   8  16  29  42  61  90 130 177 212 241 280
#     4  10  21  34  49  71 101 138 174 210 254 300
#     4   9  19  34  51  76 105 133 169 209 255 307
#     4  10  21  35  52  77 105 133 170 213 259 307
#     4  10  20  33  49  70 100 138 177 215 251 296
#
# _framework density 17.936160999999998
#
# number of rings (size 3 to 8) (size 9 to 14) (size 15 to 20)
#    0.000    2.571    0.000    2.571    2.000    6.286 
#    0.000    0.000    0.000    0.857    0.000    0.000 
#    0.000    0.000    0.000    0.000    0.000    0.000 
#
# Total GULP energy -347089.339136 kJ/mol
# GULP energy per Si atom -12396.047826 kJ/mol
# Density = 1.789534 g / cm^3
# Si number density = 17.936161 Si / 1000 Ang^3
#
#
#
# Elastic Constant Matrix: (Units=GPa)
#
#
# Indices 1 2 3 4 5 6 
#
# 1 117.9373 54.1635 49.3337 0.0000 12.4890 0.0000
# 2 54.1635 89.7563 45.9229 0.0000 9.4268 0.0000
# 3 49.3337 45.9229 103.6303 0.0000 11.5275 0.0000
# 4 0.0000 0.0000 0.0000 22.6545 0.0000 4.5567
# 5 12.4890 9.4268 11.5275 0.0000 16.3819 0.0000
# 6 0.0000 0.0000 0.0000 4.5567 0.0000 23.6780
#
#
#
# Elastic Compliance Matrix: (Units=1/GPa)
#
#
# Indices 1 2 3 4 5 6 
#
# 1 0.012864 -0.005717 -0.003109 0.000000 -0.004329 0.000000
# 2 -0.005717 0.017210 -0.004652 0.000000 -0.002271 0.000000
# 3 -0.003109 -0.004652 0.013702 0.000000 -0.004595 0.000000
# 4 0.000000 0.000000 0.000000 0.045919 0.000000 -0.008837
# 5 -0.004329 -0.002271 -0.004595 0.000000 0.068884 0.000000
# 6 0.000000 0.000000 0.000000 -0.008837 0.000000 0.043934
#
#
# Mechanical properties :
#
#
# Convention : Reuss Voigt Hill
#
# Bulk Modulus (GPa) = 59.45369 67.79602 63.62485
# Shear Modulus (GPa) = 21.26977 23.33645 22.30311
#
# Velocity S-wave (km/s) = 3.44737 3.61097 3.53012
# Velocity P-wave (km/s) = 7.00465 7.43411 7.22257
#
# Compressibility (1/GPa) = 0.01681981
#
# Stress axis : x y z
#
# Youngs Moduli (GPa) = 77.73849 58.10510 72.98077
#
# Poissons Ratio (x) = 0.33221 0.22687
# Poissons Ratio (y) = 0.44446 0.33952
# Poissons Ratio (z) = 0.24166 0.27031
#
# Static dielectric constant tensor:
#      x y z
#    x 3.321820 0.000000 -0.007580 
#    y 0.000000 3.350820 0.000000 
#    z -0.007580 0.000000 3.257560 
# 
# 
# High freq. dielectric constant tensor:
#      x y z
#    x 1.695130 0.000000 0.002110 
#    y 0.000000 1.703120 0.000000 
#    z 0.002110 0.000000 1.655830 
# 
# From -- ./inp_files/288449.got.cif
#   From: 2010.06.25/outbox.cif.g09.slc.cpg/sg12_145_cif.got.tgz:288449.got - 2010.06.28 00:19:55.
