data_PCOD8085098
_publ_section_title
;
Structure prediction by ZEFSAII (Michael W. Deem and Ramdas Pophale) SiO2 
 PCOD8085098
Probable space group: C 2/M
;
_chemical_formula_sum "Si O2"
_cell_formula_units_Z 64
_cell_length_a 32.009614
_cell_length_b 9.170000
_cell_length_c 11.979416
_cell_angle_alpha 90.000000
_cell_angle_beta 89.573582
_cell_angle_gamma 90.000000
_cell_volume 3516.198559
_symmetry_space_group_name_H-M "C 2/M"
_symmetry_group_IT_number 12
_symmetry_cell_setting 'monoclinic'
loop_
_space_group_symop_operation_xyz
x,y,z
-x,y,-z
-x,-y,-z
x,-y,z
1/2+x,1/2+y,z
1/2-x,1/2+y,-z
1/2-x,1/2-y,-z
1/2+x,1/2-y,z
loop_
_atom_site_type_symbol
_atom_site_label
_atom_site_fract_x
_atom_site_fract_y
_atom_site_fract_z
Si Si1 0.475400 0.168574 0.198493
Si Si2 0.849178 0.835164 0.192251
Si Si3 0.690537 0.830673 0.426631
Si Si4 0.781088 0.167580 0.359045
Si Si5 0.939701 0.829735 0.828091
Si Si6 0.598687 0.832099 0.973710
Si Si7 0.421591 0.667223 0.366058
Si Si8 0.108858 0.831167 0.393901
O O1 0.516226 0.251634 0.156416
O O2 0.441588 0.190759 0.102599
O O3 0.458766 0.235731 0.314593
O O4 0.486146 0.000000 0.217497
O O5 0.802511 0.801146 0.238562
O O6 0.860366 0.725955 0.091917
O O7 0.879590 0.812388 0.296655
O O8 0.852761 0.000000 0.146558
O O9 0.731662 0.800794 0.350373
O O10 0.697563 0.769293 0.549912
O O11 0.651469 0.754761 0.367871
O O12 0.680604 0.000000 0.438082
O O13 0.789222 0.000000 0.394880
O O14 0.923586 0.801085 0.703913
O O15 0.944742 0.000000 0.854247
O O16 0.906573 0.760557 0.914097
O O17 0.605807 0.000000 0.004556
O O18 0.436923 0.500000 0.365287
O O19 0.412691 0.723025 0.491337
O O20 0.120839 0.000000 0.403676
#
# Coordination Sequence:
#
# PCOD8085098 Si02
#       8
#     8   8   8   8   8   8   8   8
#     4  10  21  36  54  77 105 131 162 216 270 306
#     4   9  16  30  54  77 102 136 171 208 251 301
#     4  10  19  29  49  79 109 140 172 208 253 305
#     4   9  17  31  50  77 110 140 171 209 252 301
#     4  11  23  37  55  75  97 136 182 214 252 310
#     4  10  21  36  54  77 105 131 165 218 269 304
#     4   9  17  32  53  74 100 137 172 205 251 305
#     4  10  21  37  53  72 105 142 175 213 253 304
#
# _framework density 18.201474999999999
#
# number of rings (size 3 to 8) (size 9 to 14) (size 15 to 20)
#    0.000    2.250    1.250    1.875    0.000    6.000 
#    0.000    2.500    0.000    0.750    0.000    0.000 
#    0.000    0.000    0.000    0.000    0.000    0.000 
#
# Total GULP energy -396878.167144 kJ/mol
# GULP energy per Si atom -12402.442723 kJ/mol
# Density = 1.816005 g / cm^3
# Si number density = 18.201475 Si / 1000 Ang^3
#
#
#
# Elastic Constant Matrix: (Units=GPa)
#
#
# Indices 1 2 3 4 5 6 
#
# 1 54.5428 33.4429 19.8496 0.0000 -24.6496 0.0000
# 2 33.4429 94.1132 39.1232 0.0000 -14.9183 0.0000
# 3 19.8496 39.1232 81.9136 0.0000 -26.2563 0.0000
# 4 0.0000 0.0000 0.0000 23.5875 0.0000 -6.1691
# 5 -24.6496 -14.9183 -26.2563 0.0000 27.4440 0.0000
# 6 0.0000 0.0000 0.0000 -6.1691 0.0000 31.3858
#
#
#
# Elastic Compliance Matrix: (Units=1/GPa)
#
#
# Indices 1 2 3 4 5 6 
#
# 1 0.038605 -0.011139 0.007411 0.000000 0.035710 0.000000
# 2 -0.011139 0.016524 -0.007962 0.000000 -0.008640 0.000000
# 3 0.007411 -0.007962 0.021579 0.000000 0.022973 0.000000
# 4 0.000000 0.000000 0.000000 0.044693 0.000000 0.008785
# 5 0.035710 -0.008640 0.022973 0.000000 0.085794 0.000000
# 6 0.000000 0.000000 0.000000 0.008785 0.000000 0.033588
#
#
# Mechanical properties :
#
#
# Convention : Reuss Voigt Hill
#
# Bulk Modulus (GPa) = 18.75160 46.15566 32.45363
# Shear Modulus (GPa) = 17.73433 25.69373 21.71403
#
# Velocity S-wave (km/s) = 3.12482 3.76124 3.45770
# Velocity P-wave (km/s) = 4.83156 6.65401 5.81463
#
# Compressibility (1/GPa) = 0.05332879
#
# Stress axis : x y z
#
# Youngs Moduli (GPa) = 25.90322 60.51784 46.34174
#
# Poissons Ratio (x) = 0.67409 -0.34346
# Poissons Ratio (y) = 0.28853 0.36899
# Poissons Ratio (z) = -0.19198 0.48187
#
# Static dielectric constant tensor:
#      x y z
#    x 3.342980 0.000000 -0.276040 
#    y 0.000000 3.427890 0.000000 
#    z -0.276040 0.000000 3.233220 
# 
# 
# High freq. dielectric constant tensor:
#      x y z
#    x 1.695900 0.000000 -0.026730 
#    y 0.000000 1.711060 0.000000 
#    z -0.026730 0.000000 1.686610 
# 
# From -- ./inp_files/187458.got.cif
#   From: 2010.06.25/outbox.cif.g09.slc.cpg/sg12_94_cif.got.tgz:187458.got - 2010.06.28 00:19:55.
