data_PCOD8085330
_publ_section_title
;
Structure prediction by ZEFSAII (Michael W. Deem and Ramdas Pophale) SiO2 
 PCOD8085330
Probable space group: C 2/M
;
_chemical_formula_sum "Si O2"
_cell_formula_units_Z 48
_cell_length_a 22.355519
_cell_length_b 9.288009
_cell_length_c 13.752948
_cell_angle_alpha 90.000000
_cell_angle_beta 101.979925
_cell_angle_gamma 90.000000
_cell_volume 2793.443522
_symmetry_space_group_name_H-M "C 2/M"
_symmetry_group_IT_number 12
_symmetry_cell_setting 'monoclinic'
loop_
_space_group_symop_operation_xyz
x,y,z
-x,y,-z
-x,-y,-z
x,-y,z
1/2+x,1/2+y,z
1/2-x,1/2+y,-z
1/2-x,1/2-y,-z
1/2+x,1/2-y,z
loop_
_atom_site_type_symbol
_atom_site_label
_atom_site_fract_x
_atom_site_fract_y
_atom_site_fract_z
Si Si1 0.933249 0.162789 0.523556
Si Si2 0.545825 0.665835 0.103455
Si Si3 0.803759 0.332396 0.137025
Si Si4 0.889235 0.665500 0.336844
Si Si5 0.168579 0.832925 0.040485
Si Si6 0.020156 0.332838 0.287919
O O1 0.886569 0.237332 0.432534
O O2 0.933405 0.250585 0.624226
O O3 0.000000 0.166387 0.500000
O O4 0.911443 0.000000 0.536377
O O5 0.542834 0.500000 0.136993
O O6 0.614074 0.709384 0.094125
O O7 0.526505 0.769396 0.183269
O O8 0.500000 0.693543 0.000000
O O9 0.814548 0.500000 0.121287
O O10 0.832490 0.287617 0.250031
O O11 0.732129 0.291700 0.114744
O O12 0.838791 0.250762 0.062930
O O13 0.884422 0.500000 0.368225
O O14 0.950811 0.691736 0.297250
O O15 0.165715 0.000000 0.012485
O O16 0.038008 0.500000 0.293798
#
# Coordination Sequence:
#
# PCOD8085330 Si02
#       6
#     8   8   8   8   8   8
#     4   9  17  29  46  68  93 120 149 183 225 271
#     4  10  20  32  46  66  94 125 154 185 222 266
#     4   9  17  30  48  68  91 119 151 189 228 266
#     4   9  17  29  46  69  94 118 148 187 229 269
#     4   9  18  31  46  66  92 122 154 187 225 266
#     4  10  19  30  46  68  94 122 150 184 226 270
#
# _framework density 17.183094000000001
#
# number of rings (size 3 to 8) (size 9 to 14) (size 15 to 20)
#    0.000    2.667    0.000    2.000    0.000    4.333 
#    0.000    0.000    0.000    1.000    0.000    0.000 
#    0.000    0.000    0.000    0.000    0.000    0.000 
#
# Total GULP energy -297631.415873 kJ/mol
# GULP energy per Si atom -12401.308995 kJ/mol
# Density = 1.714398 g / cm^3
# Si number density = 17.183094 Si / 1000 Ang^3
#
#
#
# Elastic Constant Matrix: (Units=GPa)
#
#
# Indices 1 2 3 4 5 6 
#
# 1 50.5475 33.2073 37.1882 0.0000 8.9532 0.0000
# 2 33.2073 94.0320 64.5240 0.0000 4.0608 0.0000
# 3 37.1882 64.5240 112.6871 0.0000 15.1505 0.0000
# 4 0.0000 0.0000 0.0000 38.4181 0.0000 -1.7637
# 5 8.9532 4.0608 15.1505 0.0000 23.8453 0.0000
# 6 0.0000 0.0000 0.0000 -1.7637 0.0000 17.2473
#
#
#
# Elastic Compliance Matrix: (Units=1/GPa)
#
#
# Indices 1 2 3 4 5 6 
#
# 1 0.028851 -0.006556 -0.004878 0.000000 -0.006617 0.000000
# 2 -0.006556 0.019312 -0.009604 0.000000 0.005275 0.000000
# 3 -0.004878 -0.009604 0.016966 0.000000 -0.007313 0.000000
# 4 0.000000 0.000000 0.000000 0.026152 0.000000 0.002674
# 5 -0.006617 0.005275 -0.007313 0.000000 0.048170 0.000000
# 6 0.000000 0.000000 0.000000 0.002674 0.000000 0.058254
#
#
# Mechanical properties :
#
#
# Convention : Reuss Voigt Hill
#
# Bulk Modulus (GPa) = 43.37527 58.56728 50.97127
# Shear Modulus (GPa) = 20.20503 24.05861 22.13182
#
# Velocity S-wave (km/s) = 3.43281 3.74589 3.59276
# Velocity P-wave (km/s) = 6.40391 7.27098 6.85118
#
# Compressibility (1/GPa) = 0.02305461
#
# Stress axis : x y z
#
# Youngs Moduli (GPa) = 34.66099 51.78128 58.94171
#
# Poissons Ratio (x) = 0.33947 0.28749
# Poissons Ratio (y) = 0.22724 0.56605
# Poissons Ratio (z) = 0.16906 0.49728
#
# Static dielectric constant tensor:
#      x y z
#    x 3.095290 0.000000 0.198940 
#    y 0.000000 3.283610 0.000000 
#    z 0.198940 0.000000 3.228550 
# 
# 
# High freq. dielectric constant tensor:
#      x y z
#    x 1.633820 0.000000 0.016270 
#    y 0.000000 1.668340 0.000000 
#    z 0.016270 0.000000 1.665430 
# 
# From -- ./inp_files/172098.got.cif
#   From: 2010.06.25/outbox.cif.g09.slc.cpg/sg12_87_cif.got.tgz:172098.got - 2010.06.28 00:19:55.
