data_PCOD8085124
_publ_section_title
;
Structure prediction by ZEFSAII (Michael W. Deem and Ramdas Pophale) SiO2 
 PCOD8085124
Probable space group: C 2/M
;
_chemical_formula_sum "Si O2"
_cell_formula_units_Z 64
_cell_length_a 29.767289
_cell_length_b 9.131613
_cell_length_c 15.233342
_cell_angle_alpha 90.000000
_cell_angle_beta 96.999972
_cell_angle_gamma 90.000000
_cell_volume 4109.913769
_symmetry_space_group_name_H-M "C 2/M"
_symmetry_group_IT_number 12
_symmetry_cell_setting 'monoclinic'
loop_
_space_group_symop_operation_xyz
x,y,z
-x,y,-z
-x,-y,-z
x,-y,z
1/2+x,1/2+y,z
1/2-x,1/2+y,-z
1/2-x,1/2-y,-z
1/2+x,1/2-y,z
loop_
_atom_site_type_symbol
_atom_site_label
_atom_site_fract_x
_atom_site_fract_y
_atom_site_fract_z
Si Si1 0.543438 0.828896 0.784116
Si Si2 0.608550 0.674972 0.926624
Si Si3 0.438095 0.830590 0.741201
Si Si4 0.778528 0.661452 0.887129
Si Si5 0.049965 0.834334 0.615907
Si Si6 0.557233 0.336127 0.425847
Si Si7 0.622371 0.826552 0.112463
Si Si8 0.696177 0.836692 0.903955
O O1 0.564101 0.735183 0.867974
O O2 0.490151 0.795560 0.774241
O O3 0.565187 0.774655 0.697082
O O4 0.554160 0.000000 0.798719
O O5 0.609189 0.500000 0.927575
O O6 0.652313 0.734109 0.884317
O O7 0.606708 0.735417 0.024624
O O8 0.420894 0.760036 0.646036
O O9 0.408058 0.771121 0.814253
O O10 0.429478 0.000000 0.726857
O O11 0.763796 0.500000 0.851762
O O12 0.825248 0.709630 0.851104
O O13 0.737515 0.771813 0.855674
O O14 0.788436 0.657586 0.992493
O O15 0.070768 0.780530 0.527229
O O16 0.996349 0.831640 0.595522
O O17 0.066194 0.000000 0.641061
O O18 0.575421 0.500000 0.417935
O O19 0.616566 0.000000 0.091066
O O20 0.684832 0.000000 0.866909
#
# Coordination Sequence:
#
# PCOD8085124 Si02
#       8
#     8   8   8   8   8   8   8   8
#     4  10  19  30  43  60  83 112 145 179 212 245
#     4  11  21  31  43  59  81 111 146 179 210 248
#     4   9  18  30  44  61  83 113 146 177 208 244
#     4   8  14  25  42  61  80 103 132 167 208 250
#     4   8  14  26  42  60  81 106 135 169 212 254
#     4   8  14  25  42  61  82 106 133 170 213 252
#     4   9  18  32  45  59  83 114 145 176 208 243
#     4   9  16  27  43  61  81 103 130 168 212 253
#
# _framework density 15.572101999999999
#
# number of rings (size 3 to 8) (size 9 to 14) (size 15 to 20)
#    0.000    3.000    0.000    3.375    0.000    5.000 
#    0.000    5.000    0.000    0.000    0.000    0.000 
#    0.000    1.000    0.000    3.000    0.000    4.875 
#
# Total GULP energy -396589.589847 kJ/mol
# GULP energy per Si atom -12393.424683 kJ/mol
# Density = 1.553666 g / cm^3
# Si number density = 15.572102 Si / 1000 Ang^3
#
#
#
# Elastic Constant Matrix: (Units=GPa)
#
#
# Indices 1 2 3 4 5 6 
#
# 1 54.1682 35.9334 43.7109 0.0000 -18.2819 0.0000
# 2 35.9334 87.3689 48.5929 0.0000 -13.8649 0.0000
# 3 43.7109 48.5929 88.2906 0.0000 -19.7824 0.0000
# 4 0.0000 0.0000 0.0000 25.7392 0.0000 0.5548
# 5 -18.2819 -13.8649 -19.7824 0.0000 8.0812 0.0000
# 6 0.0000 0.0000 0.0000 0.5548 0.0000 20.7675
#
#
#
# Elastic Compliance Matrix: (Units=1/GPa)
#
#
# Indices 1 2 3 4 5 6 
#
# 1 0.080899 -0.006881 0.004645 0.000000 0.182579 0.000000
# 2 -0.006881 0.017769 -0.006711 0.000000 -0.001510 0.000000
# 3 0.004645 -0.006711 0.027673 0.000000 0.066736 0.000000
# 4 0.000000 0.000000 0.000000 0.038874 0.000000 -0.001038
# 5 0.182579 -0.001510 0.066736 0.000000 0.697567 0.000000
# 6 0.000000 0.000000 0.000000 -0.001038 0.000000 0.048180
#
#
# Mechanical properties :
#
#
# Convention : Reuss Voigt Hill
#
# Bulk Modulus (GPa) = 9.22123 54.03358 31.62741
# Shear Modulus (GPa) = 5.18132 17.69026 11.43579
#
# Velocity S-wave (km/s) = 1.82607 3.37415 2.71288
# Velocity P-wave (km/s) = 3.22188 7.06782 5.49248
#
# Compressibility (1/GPa) = 0.10844539
#
# Stress axis : x y z
#
# Youngs Moduli (GPa) = 12.36112 56.27830 36.13601
#
# Poissons Ratio (x) = 0.38727 -0.16784
# Poissons Ratio (y) = 0.08506 0.24251
# Poissons Ratio (z) = -0.05741 0.37768
#
# Static dielectric constant tensor:
#      x y z
#    x 2.886130 0.000000 -0.167990 
#    y 0.000000 3.103160 0.000000 
#    z -0.167990 0.000000 3.037600 
# 
# 
# High freq. dielectric constant tensor:
#      x y z
#    x 1.566450 0.000000 -0.010970 
#    y 0.000000 1.603010 0.000000 
#    z -0.010970 0.000000 1.572190 
# 
# From -- ./inp_files/248307.got.cif
#   From: 2010.06.25/outbox.cif.g09.slc.cpg/sg12_125_cif.got.tgz:248307.got - 2010.06.28 00:19:55.
