data_PCOD8085733
_publ_section_title
;
Structure prediction by ZEFSAII (Michael W. Deem and Ramdas Pophale) SiO2 
 PCOD8085733
Probable space group: C 2/M
;
_chemical_formula_sum "Si O2"
_cell_formula_units_Z 64
_cell_length_a 22.806642
_cell_length_b 9.167105
_cell_length_c 21.168533
_cell_angle_alpha 90.000000
_cell_angle_beta 126.975589
_cell_angle_gamma 90.000000
_cell_volume 3535.674690
_symmetry_space_group_name_H-M "C 2/M"
_symmetry_group_IT_number 12
_symmetry_cell_setting 'monoclinic'
loop_
_space_group_symop_operation_xyz
x,y,z
-x,y,-z
-x,-y,-z
x,-y,z
1/2+x,1/2+y,z
1/2-x,1/2+y,-z
1/2-x,1/2-y,-z
1/2+x,1/2-y,z
loop_
_atom_site_type_symbol
_atom_site_label
_atom_site_fract_x
_atom_site_fract_y
_atom_site_fract_z
Si Si1 0.421940 0.165748 0.938512
Si Si2 0.682029 0.833740 0.873399
Si Si3 0.358863 0.828718 0.536064
Si Si4 0.497960 0.328955 0.571199
Si Si5 0.223170 0.330050 0.390785
Si Si6 0.149792 0.171293 0.732118
Si Si7 0.176740 0.662091 0.008716
Si Si8 0.799451 0.327121 0.766024
O O1 0.367678 0.239135 0.850980
O O2 0.435930 0.000000 0.925000
O O3 0.500000 0.247206 0.000000
O O4 0.389705 0.171681 0.987132
O O5 0.639580 0.738939 0.794618
O O6 0.644480 0.810800 0.917548
O O7 0.680220 0.000000 0.849701
O O8 0.765932 0.784202 0.934050
O O9 0.436928 0.757495 0.571242
O O10 0.296722 0.760738 0.451000
O O11 0.338509 0.796909 0.596288
O O12 0.362998 0.000000 0.525315
O O13 0.500000 0.280794 0.500000
O O14 0.481222 0.500000 0.567942
O O15 0.577943 0.284434 0.647232
O O16 0.245435 0.500000 0.405526
O O17 0.191922 0.283280 0.301940
O O18 0.222357 0.233813 0.743880
O O19 0.156720 0.000000 0.744397
O O20 0.213555 0.500000 0.035382
O O21 0.798975 0.500000 0.774354
#
# Coordination Sequence:
#
# PCOD8085733 Si02
#       8
#     8   8   8   8   8   8   8   8
#     4   9  16  28  50  78 100 123 165 220 261 288
#     4  10  19  30  49  76 102 132 166 207 257 308
#     4  10  20  34  53  80 112 140 167 215 271 313
#     4  10  21  37  57  78 102 140 184 220 258 314
#     4   9  18  34  56  79 102 140 183 213 251 310
#     4  10  19  33  54  76 100 133 174 218 260 303
#     4   9  17  32  51  73 100 131 168 209 253 305
#     4   9  16  30  53  76  98 128 174 222 252 295
#
# _framework density 18.101212
#
# number of rings (size 3 to 8) (size 9 to 14) (size 15 to 20)
#    0.000    2.500    1.250    1.500    0.000    3.750 
#    2.250    1.875    0.000    0.375    0.000    0.000 
#    0.000    0.000    0.000    0.000    0.000    0.000 
#
# Total GULP energy -396655.890494 kJ/mol
# GULP energy per Si atom -12395.496578 kJ/mol
# Density = 1.806001 g / cm^3
# Si number density = 18.101212 Si / 1000 Ang^3
#
#
#
# Elastic Constant Matrix: (Units=GPa)
#
#
# Indices 1 2 3 4 5 6 
#
# 1 108.5584 38.9781 87.0361 0.0000 3.3083 0.0000
# 2 38.9781 30.2067 39.9486 0.0000 2.7681 0.0000
# 3 87.0361 39.9486 170.5220 0.0000 -3.4557 0.0000
# 4 0.0000 0.0000 0.0000 23.2012 0.0000 -2.1500
# 5 3.3083 2.7681 -3.4557 0.0000 30.1854 0.0000
# 6 0.0000 0.0000 0.0000 -2.1500 0.0000 23.9148
#
#
#
# Elastic Compliance Matrix: (Units=1/GPa)
#
#
# Indices 1 2 3 4 5 6 
#
# 1 0.021079 -0.018563 -0.006437 0.000000 -0.001345 0.000000
# 2 -0.018563 0.065312 -0.005920 0.000000 -0.004633 0.000000
# 3 -0.006437 -0.005920 0.010587 0.000000 0.002460 0.000000
# 4 0.000000 0.000000 0.000000 0.043463 0.000000 0.003907
# 5 -0.001345 -0.004633 0.002460 0.000000 0.033983 0.000000
# 6 0.000000 0.000000 0.000000 0.003907 0.000000 0.042166
#
#
# Mechanical properties :
#
#
# Convention : Reuss Voigt Hill
#
# Bulk Modulus (GPa) = 28.45977 71.24584 49.85281
# Shear Modulus (GPa) = 17.23288 25.01523 21.12406
#
# Velocity S-wave (km/s) = 3.08884 3.72151 3.41984
# Velocity P-wave (km/s) = 5.33648 7.60995 6.57227
#
# Compressibility (1/GPa) = 0.03513732
#
# Stress axis : x y z
#
# Youngs Moduli (GPa) = 47.44117 15.31102 94.45783
#
# Poissons Ratio (x) = 0.28422 0.60805
# Poissons Ratio (y) = 0.88065 0.55919
# Poissons Ratio (z) = 0.30539 0.09064
#
# Static dielectric constant tensor:
#      x y z
#    x 3.388510 0.000000 -0.132700 
#    y 0.000000 3.149880 0.000000 
#    z -0.132700 0.000000 3.539290 
# 
# 
# High freq. dielectric constant tensor:
#      x y z
#    x 1.698440 0.000000 -0.013510 
#    y 0.000000 1.670790 0.000000 
#    z -0.013510 0.000000 1.707120 
# 
# From -- ./inp_files/324280.got.cif
#   From: 2010.06.25/outbox.cif.g09.slc.cpg/sg12_163_cif.got.tgz:324280.got - 2010.06.28 00:19:55.
