data_PCOD8085401
_publ_section_title
;
Structure prediction by ZEFSAII (Michael W. Deem and Ramdas Pophale) SiO2 
 PCOD8085401
Probable space group: C 2/M
;
_chemical_formula_sum "Si O2"
_cell_formula_units_Z 48
_cell_length_a 27.193239
_cell_length_b 8.598330
_cell_length_c 23.742276
_cell_angle_alpha 90.000000
_cell_angle_beta 149.661113
_cell_angle_gamma 90.000000
_cell_volume 2804.054004
_symmetry_space_group_name_H-M "C 2/M"
_symmetry_group_IT_number 12
_symmetry_cell_setting 'monoclinic'
loop_
_space_group_symop_operation_xyz
x,y,z
-x,y,-z
-x,-y,-z
x,-y,z
1/2+x,1/2+y,z
1/2-x,1/2+y,-z
1/2-x,1/2-y,-z
1/2+x,1/2-y,z
loop_
_atom_site_type_symbol
_atom_site_label
_atom_site_fract_x
_atom_site_fract_y
_atom_site_fract_z
Si Si1 0.963762 0.816632 0.380293
Si Si2 0.139733 0.179588 0.955414
Si Si3 0.142012 0.818368 0.160804
Si Si4 0.347382 0.684368 0.372798
Si Si5 0.152221 0.818172 0.840442
Si Si6 0.534800 0.181091 0.953067
O O1 0.886518 0.758592 0.350588
O O2 0.930322 0.762295 0.285215
O O3 0.073301 0.759290 0.502186
O O4 0.965755 0.000000 0.387136
O O5 0.251391 0.221524 0.077528
O O6 0.123732 0.000000 0.954255
O O7 0.112825 0.217026 0.863999
O O8 0.068392 0.281387 0.923137
O O9 0.247593 0.771536 0.287971
O O10 0.063586 0.774584 0.130878
O O11 0.136480 0.000000 0.142860
O O12 0.119574 0.728178 0.080573
O O13 0.329703 0.500000 0.357236
O O14 0.177475 0.000000 0.858249
O O15 0.512665 0.000000 0.937108
#
# Coordination Sequence:
#
# PCOD8085401 Si02
#       6
#     8   8   8   8   8   8
#     4   8  15  28  48  71  95 127 163 194 223 269
#     4  10  19  30  46  71 100 127 158 199 240 276
#     4  11  21  33  49  72  99 122 150 192 240 284
#     4   9  16  29  49  72  97 126 160 192 227 275
#     4   9  17  30  48  70  98 132 164 192 231 282
#     4  11  21  34  51  69  92 125 161 193 232 284
#
# _framework density 17.118072999999999
#
# number of rings (size 3 to 8) (size 9 to 14) (size 15 to 20)
#    0.000    2.333    0.000    6.500    0.000    2.000 
#    0.000    2.500    0.000    1.000    0.000    0.000 
#    0.000    0.000    0.000    0.000    0.000    0.000 
#
# Total GULP energy -297589.093808 kJ/mol
# GULP energy per Si atom -12399.545575 kJ/mol
# Density = 1.707911 g / cm^3
# Si number density = 17.118073 Si / 1000 Ang^3
#
#
#
# Elastic Constant Matrix: (Units=GPa)
#
#
# Indices 1 2 3 4 5 6 
#
# 1 94.4980 18.8940 54.2827 0.0000 -6.8551 0.0000
# 2 18.8940 53.2470 20.2253 0.0000 -0.4922 0.0000
# 3 54.2827 20.2253 128.0555 0.0000 -5.6565 0.0000
# 4 0.0000 0.0000 0.0000 18.0458 0.0000 1.6791
# 5 -6.8551 -0.4922 -5.6565 0.0000 26.2688 0.0000
# 6 0.0000 0.0000 0.0000 1.6791 0.0000 23.4934
#
#
#
# Elastic Compliance Matrix: (Units=1/GPa)
#
#
# Indices 1 2 3 4 5 6 
#
# 1 0.014584 -0.003028 -0.005592 0.000000 0.002545 0.000000
# 2 -0.003028 0.020610 -0.002009 0.000000 -0.000836 0.000000
# 3 -0.005592 -0.002009 0.010531 0.000000 0.000771 0.000000
# 4 0.000000 0.000000 0.000000 0.055786 0.000000 -0.003987
# 5 0.002545 -0.000836 0.000771 0.000000 0.038883 0.000000
# 6 0.000000 0.000000 0.000000 -0.003987 0.000000 0.042850
#
#
# Mechanical properties :
#
#
# Convention : Reuss Voigt Hill
#
# Bulk Modulus (GPa) = 40.86800 51.40050 46.13425
# Shear Modulus (GPa) = 23.51222 25.72149 24.61686
#
# Velocity S-wave (km/s) = 3.71014 3.88053 3.79629
# Velocity P-wave (km/s) = 6.50227 7.08310 6.79889
#
# Compressibility (1/GPa) = 0.02446902
#
# Stress axis : x y z
#
# Youngs Moduli (GPa) = 68.56723 48.52021 94.96023
#
# Poissons Ratio (x) = 0.14690 0.53098
# Poissons Ratio (y) = 0.20759 0.19075
# Poissons Ratio (z) = 0.38340 0.09746
#
# Static dielectric constant tensor:
#      x y z
#    x 3.162190 0.000000 -0.115430 
#    y 0.000000 3.081330 0.000000 
#    z -0.115430 0.000000 3.341970 
# 
# 
# High freq. dielectric constant tensor:
#      x y z
#    x 1.649310 0.000000 -0.000960 
#    y 0.000000 1.654110 0.000000 
#    z -0.000960 0.000000 1.652170 
# 
# From -- ./inp_files/351043.got.cif
#   From: 2010.06.25/outbox.cif.g09.slc.cpg/sg12_176_cif.got.tgz:351043.got - 2010.06.28 00:19:55.
