data_PCOD8085214
_publ_section_title
;
Structure prediction by ZEFSAII (Michael W. Deem and Ramdas Pophale) SiO2 
 PCOD8085214
Probable space group: C 2/M
;
_chemical_formula_sum "Si O2"
_cell_formula_units_Z 48
_cell_length_a 18.404099
_cell_length_b 9.392648
_cell_length_c 23.821989
_cell_angle_alpha 90.000000
_cell_angle_beta 43.193440
_cell_angle_gamma 90.000000
_cell_volume 2818.584177
_symmetry_space_group_name_H-M "C 2/M"
_symmetry_group_IT_number 12
_symmetry_cell_setting 'monoclinic'
loop_
_space_group_symop_operation_xyz
x,y,z
-x,y,-z
-x,-y,-z
x,-y,z
1/2+x,1/2+y,z
1/2-x,1/2+y,-z
1/2-x,1/2-y,-z
1/2+x,1/2-y,z
loop_
_atom_site_type_symbol
_atom_site_label
_atom_site_fract_x
_atom_site_fract_y
_atom_site_fract_z
Si Si1 0.059978 0.830092 0.912020
Si Si2 0.712506 0.166149 0.575192
Si Si3 0.246853 0.341162 0.343896
Si Si4 0.207810 0.669420 0.244278
Si Si5 0.993790 0.842340 0.177651
Si Si6 0.530885 0.164705 0.259795
O O1 0.180501 0.770252 0.842516
O O2 0.995760 0.783181 0.891988
O O3 0.063177 0.000000 0.912369
O O4 0.000000 0.766272 0.000000
O O5 0.750000 0.250000 0.500000
O O6 0.775114 0.231085 0.593355
O O7 0.587262 0.191623 0.651651
O O8 0.740874 0.000000 0.554018
O O9 0.206010 0.500000 0.383641
O O10 0.189123 0.283966 0.319776
O O11 0.370450 0.349971 0.261279
O O12 0.211171 0.500000 0.241287
O O13 0.111633 0.728379 0.260576
O O14 0.053680 0.740649 0.187627
O O15 0.043901 0.000000 0.154379
O O16 0.553346 0.000000 0.236601
#
# Coordination Sequence:
#
# PCOD8085214 Si02
#       6
#     8   8   8   8   8   8
#     4   8  13  23  42  66  88 112 144 178 208 242
#     4  10  19  30  45  64  85 110 140 173 211 254
#     4   8  14  27  46  63  81 109 143 175 206 245
#     4   8  14  26  44  64  85 111 144 177 207 244
#     4   8  14  25  42  63  85 111 143 175 207 246
#     4   9  17  29  45  64  85 111 142 174 210 252
#
# _framework density 17.029827000000001
#
# number of rings (size 3 to 8) (size 9 to 14) (size 15 to 20)
#    0.000    3.500    0.000    2.500    0.000    0.667 
#    0.000    2.500    0.000    6.500    0.000    0.000 
#    0.000    0.000    0.000    0.000    0.000    0.000 
#
# Total GULP energy -297413.849901 kJ/mol
# GULP energy per Si atom -12392.243746 kJ/mol
# Density = 1.699107 g / cm^3
# Si number density = 17.029827 Si / 1000 Ang^3
#
#
#
# Elastic Constant Matrix: (Units=GPa)
#
#
# Indices 1 2 3 4 5 6 
#
# 1 127.8081 44.4797 54.6372 0.0000 37.7980 0.0000
# 2 44.4797 61.9378 48.0813 0.0000 18.8547 -0.0002
# 3 54.6372 48.0813 105.3438 0.0000 37.3771 0.0000
# 4 0.0000 0.0000 0.0000 17.5121 0.0000 8.7814
# 5 37.7980 18.8547 37.3771 0.0000 30.4814 0.0000
# 6 0.0000 -0.0002 0.0000 8.7814 0.0000 21.1996
#
#
#
# Elastic Compliance Matrix: (Units=1/GPa)
#
#
# Indices 1 2 3 4 5 6 
#
# 1 0.013893 -0.006151 0.000645 0.000000 -0.014214 0.000000
# 2 -0.006151 0.027845 -0.010823 0.000000 0.003674 0.000000
# 3 0.000645 -0.010823 0.021253 0.000000 -0.020166 0.000000
# 4 0.000000 0.000000 0.000000 0.072074 0.000000 -0.029855
# 5 -0.014214 0.003674 -0.020166 0.000000 0.072888 0.000000
# 6 0.000000 0.000000 0.000000 -0.029855 0.000000 0.059537
#
#
# Mechanical properties :
#
#
# Convention : Reuss Voigt Hill
#
# Bulk Modulus (GPa) = 32.96606 65.49847 49.23226
# Shear Modulus (GPa) = 16.11555 23.69806 19.90680
#
# Velocity S-wave (km/s) = 3.07956 3.73441 3.42268
# Velocity P-wave (km/s) = 5.66081 7.55903 6.67771
#
# Compressibility (1/GPa) = 0.03033423
#
# Stress axis : x y z
#
# Youngs Moduli (GPa) = 71.98085 35.91266 47.05159
#
# Poissons Ratio (x) = 0.22089 -0.03035
# Poissons Ratio (y) = 0.44273 0.50923
# Poissons Ratio (z) = -0.04642 0.38868
#
# Static dielectric constant tensor:
#      x y z
#    x 3.533260 0.000000 0.370900 
#    y 0.000000 3.003490 0.000000 
#    z 0.370900 0.000000 3.258120 
# 
# 
# High freq. dielectric constant tensor:
#      x y z
#    x 1.649440 0.000000 0.029120 
#    y 0.000000 1.621150 0.000000 
#    z 0.029120 0.000000 1.644160 
# 
# From -- ./inp_files/229325.got.cif
#   From: 2010.06.25/outbox.cif.g09.slc.cpg/sg12_115_cif.got.tgz:229325.got - 2010.06.28 00:19:55.
