data_PCOD8085298
_publ_section_title
;
Structure prediction by ZEFSAII (Michael W. Deem and Ramdas Pophale) SiO2 
 PCOD8085298
Probable space group: C 2/M
;
_chemical_formula_sum "Si O2"
_cell_formula_units_Z 40
_cell_length_a 18.600362
_cell_length_b 9.204408
_cell_length_c 19.285840
_cell_angle_alpha 90.000000
_cell_angle_beta 42.487731
_cell_angle_gamma 90.000000
_cell_volume 2230.168373
_symmetry_space_group_name_H-M "C 2/M"
_symmetry_group_IT_number 12
_symmetry_cell_setting 'monoclinic'
loop_
_space_group_symop_operation_xyz
x,y,z
-x,y,-z
-x,-y,-z
x,-y,z
1/2+x,1/2+y,z
1/2-x,1/2+y,-z
1/2-x,1/2-y,-z
1/2+x,1/2-y,z
loop_
_atom_site_type_symbol
_atom_site_label
_atom_site_fract_x
_atom_site_fract_y
_atom_site_fract_z
Si Si1 0.966436 0.668311 0.099956
Si Si2 0.686859 0.335508 0.700996
Si Si3 0.358249 0.832218 0.909584
Si Si4 0.994986 0.839125 0.284986
Si Si5 0.681017 0.329491 0.491747
O O1 0.933628 0.500000 0.124242
O O2 0.862947 0.760266 0.195618
O O3 0.065215 0.698369 0.080172
O O4 0.000000 0.720419 0.000000
O O5 0.720391 0.500000 0.695133
O O6 0.600135 0.330372 0.702298
O O7 0.791705 0.245568 0.601525
O O8 0.413143 0.774950 0.799620
O O9 0.332965 0.000000 0.917103
O O10 0.250000 0.750000 0.000000
O O11 0.943386 0.808168 0.397799
O O12 0.046015 0.000000 0.247261
O O13 0.710763 0.500000 0.468098
O O14 0.750000 0.250000 0.500000
#
# Coordination Sequence:
#
# PCOD8085298 Si02
#       5
#     8   8   8   8   8
#     4   9  18  32  48  66  89 119 154 188 222 262
#     4   9  16  25  39  61  88 116 145 180 222 267
#     4  10  19  30  46  66  90 119 149 184 222 263
#     4   8  15  26  39  58  85 114 145 180 217 259
#     4   9  15  23  37  58  85 115 144 179 222 266
#
# _framework density 17.935866000000001
#
# number of rings (size 3 to 8) (size 9 to 14) (size 15 to 20)
#    0.000    3.000    0.000    3.000    0.000    6.800 
#    0.000    0.000    0.000    0.000    0.000    1.400 
#    0.000   11.200    0.000    0.000    0.000    0.000 
#
# Total GULP energy -247865.097339 kJ/mol
# GULP energy per Si atom -12393.254867 kJ/mol
# Density = 1.789504 g / cm^3
# Si number density = 17.935866 Si / 1000 Ang^3
#
#
#
# Elastic Constant Matrix: (Units=GPa)
#
#
# Indices 1 2 3 4 5 6 
#
# 1 12.6585 22.8778 27.9641 0.0000 2.7637 0.0000
# 2 22.8778 143.7162 104.9368 0.0000 -0.6214 0.0000
# 3 27.9641 104.9368 192.5992 0.0000 9.5104 0.0000
# 4 0.0000 0.0000 0.0000 42.1925 0.0000 -2.0241
# 5 2.7637 -0.6214 9.5104 0.0000 20.1012 0.0000
# 6 0.0000 0.0000 0.0000 -2.0241 0.0000 12.5243
#
#
#
# Elastic Compliance Matrix: (Units=1/GPa)
#
#
# Indices 1 2 3 4 5 6 
#
# 1 0.129252 -0.012267 -0.011454 0.000000 -0.012730 0.000000
# 2 -0.012267 0.012953 -0.005508 0.000000 0.004693 0.000000
# 3 -0.011454 -0.005508 0.010021 0.000000 -0.003337 0.000000
# 4 0.000000 0.000000 0.000000 0.023886 0.000000 0.003860
# 5 -0.012730 0.004693 -0.003337 0.000000 0.053222 0.000000
# 6 0.000000 0.000000 0.000000 0.003860 0.000000 0.080469
#
#
# Mechanical properties :
#
#
# Convention : Reuss Voigt Hill
#
# Bulk Modulus (GPa) = 10.66468 73.39236 42.02852
# Shear Modulus (GPa) = 12.51511 27.84328 20.17919
#
# Velocity S-wave (km/s) = 2.64440 3.94430 3.35785
# Velocity P-wave (km/s) = 3.90931 7.85821 6.20621
#
# Compressibility (1/GPa) = 0.09376749
#
# Stress axis : x y z
#
# Youngs Moduli (GPa) = 7.73683 77.20256 99.79009
#
# Poissons Ratio (x) = 0.94702 1.14304
# Poissons Ratio (y) = 0.09491 0.54965
# Poissons Ratio (z) = 0.08862 0.42524
#
# Static dielectric constant tensor:
#      x y z
#    x 2.659890 0.000000 0.158500 
#    y 0.000000 3.505620 0.000000 
#    z 0.158500 0.000000 4.091270 
# 
# 
# High freq. dielectric constant tensor:
#      x y z
#    x 1.607470 0.000000 0.004620 
#    y 0.000000 1.707280 0.000000 
#    z 0.004620 0.000000 1.720620 
# 
# From -- ./inp_files/171583.got.cif
#   From: 2010.06.25/outbox.cif.g09.slc.cpg/sg12_86_cif.got.tgz:171583.got - 2010.06.28 00:19:55.
