data_PCOD8085648
_publ_section_title
;
Structure prediction by ZEFSAII (Michael W. Deem and Ramdas Pophale) SiO2 
 PCOD8085648
Probable space group: C 2/M
;
_chemical_formula_sum "Si O2"
_cell_formula_units_Z 56
_cell_length_a 19.715947
_cell_length_b 9.164218
_cell_length_c 22.930455
_cell_angle_alpha 90.000000
_cell_angle_beta 50.845637
_cell_angle_gamma 90.000000
_cell_volume 3212.759513
_symmetry_space_group_name_H-M "C 2/M"
_symmetry_group_IT_number 12
_symmetry_cell_setting 'monoclinic'
loop_
_space_group_symop_operation_xyz
x,y,z
-x,y,-z
-x,-y,-z
x,-y,z
1/2+x,1/2+y,z
1/2-x,1/2+y,-z
1/2-x,1/2-y,-z
1/2+x,1/2-y,z
loop_
_atom_site_type_symbol
_atom_site_label
_atom_site_fract_x
_atom_site_fract_y
_atom_site_fract_z
Si Si1 0.576277 0.664527 0.005583
Si Si2 0.995842 0.174171 0.437363
Si Si3 0.041885 0.328926 0.846609
Si Si4 0.339466 0.332039 0.444231
Si Si5 0.384955 0.673049 0.728658
Si Si6 0.309123 0.171293 0.142132
Si Si7 0.461525 0.668860 0.270889
O O1 0.602662 0.500000 0.008842
O O2 0.659661 0.746460 0.933122
O O3 0.500000 0.664688 0.000000
O O4 0.543402 0.750114 0.080439
O O5 0.077155 0.231262 0.353819
O O6 0.000000 0.241020 0.500000
O O7 0.906257 0.228398 0.456604
O O8 0.997808 0.000000 0.437915
O O9 0.022771 0.500000 0.855447
O O10 0.128198 0.293440 0.837433
O O11 0.057978 0.269731 0.773510
O O12 0.320323 0.500000 0.466143
O O13 0.250000 0.250000 0.500000
O O14 0.380255 0.308024 0.358317
O O15 0.383785 0.500000 0.726909
O O16 0.287200 0.733285 0.790833
O O17 0.448579 0.721222 0.746924
O O18 0.308273 0.000000 0.128715
O O19 0.468617 0.500000 0.247827
#
# Coordination Sequence:
#
# PCOD8085648 Si02
#       7
#     8   8   8   8   8   8   8
#     4   9  17  30  48  69  95 126 156 187 229 280
#     4   8  14  26  46  70  93 119 155 195 231 272
#     4  10  19  30  48  74  98 120 152 195 237 274
#     4   9  18  31  48  70  95 124 156 192 233 276
#     4   8  15  29  47  66  91 124 156 189 233 277
#     4   9  17  30  49  72  95 118 152 199 240 272
#     4   9  18  33  49  66  94 129 159 187 227 281
#
# _framework density 17.430499000000001
#
# number of rings (size 3 to 8) (size 9 to 14) (size 15 to 20)
#    0.000    3.143    0.000    2.571    0.000    4.000 
#    0.000    4.286    0.000    1.286    0.000    0.000 
#    0.000    0.000    0.000    0.000    0.000    0.000 
#
# Total GULP energy -347106.995142 kJ/mol
# GULP energy per Si atom -12396.678398 kJ/mol
# Density = 1.739083 g / cm^3
# Si number density = 17.430499 Si / 1000 Ang^3
#
#
#
# Elastic Constant Matrix: (Units=GPa)
#
#
# Indices 1 2 3 4 5 6 
#
# 1 77.0581 35.0559 71.5305 0.0000 -10.4333 0.0001
# 2 35.0559 60.7125 50.4656 -0.0001 -1.2474 0.0004
# 3 71.5305 50.4656 131.5800 0.0000 -15.8996 0.0000
# 4 0.0000 -0.0001 0.0000 30.0182 0.0000 0.7151
# 5 -10.4333 -1.2474 -15.8996 0.0000 33.7157 -0.0001
# 6 0.0001 0.0004 0.0000 0.7151 -0.0001 18.9160
#
#
#
# Elastic Compliance Matrix: (Units=1/GPa)
#
#
# Indices 1 2 3 4 5 6 
#
# 1 0.027370 -0.005320 -0.012554 0.000000 0.002352 0.000000
# 2 -0.005320 0.025654 -0.007456 0.000000 -0.004213 -0.000001
# 3 -0.012554 -0.007456 0.017796 0.000000 0.004231 0.000000
# 4 0.000000 0.000000 0.000000 0.033343 0.000000 -0.001261
# 5 0.002352 -0.004213 0.004231 0.000000 0.032227 0.000000
# 6 0.000000 -0.000001 0.000000 -0.001261 0.000000 0.052913
#
#
# Mechanical properties :
#
#
# Convention : Reuss Voigt Hill
#
# Bulk Modulus (GPa) = 49.60635 64.82830 57.21733
# Shear Modulus (GPa) = 20.26890 24.01656 22.14273
#
# Velocity S-wave (km/s) = 3.41375 3.71596 3.56806
# Velocity P-wave (km/s) = 6.63773 7.46220 7.06201
#
# Compressibility (1/GPa) = 0.02015871
#
# Stress axis : x y z
#
# Youngs Moduli (GPa) = 36.53699 38.98015 56.19258
#
# Poissons Ratio (x) = 0.20736 0.70546
# Poissons Ratio (y) = 0.19436 0.41900
# Poissons Ratio (z) = 0.45870 0.29065
#
# Static dielectric constant tensor:
#      x y z
#    x 3.205290 0.000000 -0.067520 
#    y 0.000000 2.992810 0.000000 
#    z -0.067520 0.000000 3.517560 
# 
# 
# High freq. dielectric constant tensor:
#      x y z
#    x 1.657140 0.000000 -0.001180 
#    y 0.000000 1.645520 0.000000 
#    z -0.001180 0.000000 1.684500 
# 
# From -- ./inp_files/319653.got.cif
#   From: 2010.06.25/outbox.cif.g09.slc.cpg/sg12_160_cif.got.tgz:319653.got - 2010.06.28 00:19:55.
