data_PCOD8085057
_publ_section_title
;
Structure prediction by ZEFSAII (Michael W. Deem and Ramdas Pophale) SiO2 
 PCOD8085057
Probable space group: C 2/M
;
_chemical_formula_sum "Si O2"
_cell_formula_units_Z 56
_cell_length_a 7.982858
_cell_length_b 21.505186
_cell_length_c 19.279406
_cell_angle_alpha 90.000000
_cell_angle_beta 115.304652
_cell_angle_gamma 90.000000
_cell_volume 2992.172817
_symmetry_space_group_name_H-M "C 2/M"
_symmetry_group_IT_number 12
_symmetry_cell_setting 'monoclinic'
loop_
_space_group_symop_operation_xyz
x,y,z
-x,y,-z
-x,-y,-z
x,-y,z
1/2+x,1/2+y,z
1/2-x,1/2+y,-z
1/2-x,1/2-y,-z
1/2+x,1/2-y,z
loop_
_atom_site_type_symbol
_atom_site_label
_atom_site_fract_x
_atom_site_fract_y
_atom_site_fract_z
Si Si1 0.445084 0.866838 0.744366
Si Si2 0.292238 0.676062 0.580611
Si Si3 0.127496 0.246714 0.823884
Si Si4 0.659078 0.428536 0.184413
Si Si5 0.060378 0.874358 0.728336
Si Si6 0.084764 0.683768 0.409846
Si Si7 0.018071 0.182539 0.083981
O O1 0.481446 0.803537 0.793747
O O2 0.623588 0.911494 0.773915
O O3 0.268912 0.900110 0.750976
O O4 0.380035 0.851864 0.655112
O O5 0.446193 0.627805 0.635984
O O6 0.220227 0.654358 0.492281
O O7 0.380135 0.743603 0.590272
O O8 0.128060 0.675892 0.607244
O O9 0.072753 0.196888 0.756412
O O10 0.323779 0.279171 0.846998
O O11 0.152984 0.211530 0.903467
O O12 0.641605 0.500000 0.160724
O O13 0.550727 0.417022 0.237169
O O14 0.554896 0.390197 0.104893
O O15 0.000000 0.195261 0.000000
#
# Coordination Sequence:
#
# PCOD8085057 Si02
#       7
#     8   8   8   8   8   8   8
#     4  11  20  34  58  81 114 152 184 233 280 331
#     4  10  19  29  46  80 121 152 181 225 282 341
#     4  10  19  32  51  88 118 138 180 220 279 352
#     4  10  24  41  57  82 108 148 202 237 273 326
#     4  11  20  34  58  81 114 152 184 233 280 331
#     4  10  19  29  46  80 121 152 181 225 282 341
#     4  10  20  35  58  83 114 148 174 228 286 343
#
# _framework density 18.715496999999999
#
# number of rings (size 3 to 8) (size 9 to 14) (size 15 to 20)
#    0.000    1.714    4.286    1.286    0.000    2.571 
#    0.000    0.000    0.000    1.714    0.000    6.000 
#    0.000    0.000    0.000    0.000    0.000    0.000 
#
# Total GULP energy -346996.551131 kJ/mol
# GULP energy per Si atom -12392.733969 kJ/mol
# Density = 1.867290 g / cm^3
# Si number density = 18.715497 Si / 1000 Ang^3
#
#
#
# Elastic Constant Matrix: (Units=GPa)
#
#
# Indices 1 2 3 4 5 6 
#
# 1 101.7309 20.1575 12.2188 0.0000 -1.7429 0.0000
# 2 20.1575 77.6749 14.7624 0.0000 -1.1796 0.0000
# 3 12.2188 14.7624 78.0973 0.0000 -13.1287 0.0000
# 4 0.0000 0.0000 0.0000 14.7167 0.0000 0.6554
# 5 -1.7429 -1.1796 -13.1287 0.0000 22.1328 0.0000
# 6 0.0000 0.0000 0.0000 0.6554 0.0000 17.0477
#
#
#
# Elastic Compliance Matrix: (Units=1/GPa)
#
#
# Indices 1 2 3 4 5 6 
#
# 1 0.010464 -0.002494 -0.001166 0.000000 0.000000 0.000000
# 2 -0.002494 0.013964 -0.002396 0.000000 -0.000874 0.000000
# 3 -0.001166 -0.002396 0.014888 0.000000 0.008611 0.000000
# 4 0.000000 0.000000 0.000000 0.068066 0.000000 -0.002617
# 5 0.000000 -0.000874 0.008611 0.000000 0.050243 0.000000
# 6 0.000000 0.000000 0.000000 -0.002617 0.000000 0.058759
#
#
# Mechanical properties :
#
#
# Convention : Reuss Voigt Hill
#
# Bulk Modulus (GPa) = 36.76028 39.08673 37.92350
# Shear Modulus (GPa) = 21.04697 24.80374 22.92535
#
# Velocity S-wave (km/s) = 3.35711 3.64442 3.50371
# Velocity P-wave (km/s) = 5.89162 6.21604 6.05600
#
# Compressibility (1/GPa) = 0.02720328
#
# Stress axis : x y z
#
# Youngs Moduli (GPa) = 95.56535 71.61523 67.17036
#
# Poissons Ratio (x) = 0.17861 0.07831
# Poissons Ratio (y) = 0.23834 0.16095
# Poissons Ratio (z) = 0.11141 0.17160
#
# Static dielectric constant tensor:
#      x y z
#    x 3.618970 0.000000 0.025880 
#    y 0.000000 2.997810 0.000000 
#    z 0.025880 0.000000 3.367170 
# 
# 
# High freq. dielectric constant tensor:
#      x y z
#    x 1.743130 0.000000 -0.000750 
#    y 0.000000 1.675020 0.000000 
#    z -0.000750 0.000000 1.725260 
# 
# From -- ./inp_files/301467.got.cif
#   From: 2010.06.25/outbox.cif.g09.slc.cpg/sg12_151_cif.got.tgz:301467.got - 2010.06.28 00:19:55.
