data_PCOD8085556
_publ_section_title
;
Structure prediction by ZEFSAII (Michael W. Deem and Ramdas Pophale) SiO2 
 PCOD8085556
Probable space group: C 2/M
;
_chemical_formula_sum "Si O2"
_cell_formula_units_Z 60
_cell_length_a 18.014406
_cell_length_b 12.682528
_cell_length_c 24.946093
_cell_angle_alpha 90.000000
_cell_angle_beta 35.596771
_cell_angle_gamma 90.000000
_cell_volume 3317.484184
_symmetry_space_group_name_H-M "C 2/M"
_symmetry_group_IT_number 12
_symmetry_cell_setting 'monoclinic'
loop_
_space_group_symop_operation_xyz
x,y,z
-x,y,-z
-x,-y,-z
x,-y,z
1/2+x,1/2+y,z
1/2-x,1/2+y,-z
1/2-x,1/2-y,-z
1/2+x,1/2-y,z
loop_
_atom_site_type_symbol
_atom_site_label
_atom_site_fract_x
_atom_site_fract_y
_atom_site_fract_z
Si Si1 0.186047 0.760153 0.295842
Si Si2 0.000000 0.748706 0.000000
Si Si3 0.650418 0.383728 0.418908
Si Si4 0.336812 0.381997 0.401569
Si Si5 0.471976 0.379150 0.801077
Si Si6 0.098749 0.738361 0.542241
Si Si7 0.069854 0.873985 0.855728
Si Si8 0.259855 0.373750 0.844435
O O1 0.220140 0.832553 0.326751
O O2 0.284014 0.664164 0.233196
O O3 0.185191 0.834446 0.244366
O O4 0.045832 0.709923 0.388362
O O5 0.996265 0.823638 0.053826
O O6 0.879272 0.673156 0.064248
O O7 0.500000 0.392266 0.500000
O O8 0.709652 0.500000 0.392420
O O9 0.675115 0.314739 0.456847
O O10 0.368972 0.500000 0.403018
O O11 0.394461 0.364984 0.308594
O O12 0.183349 0.367728 0.492514
O O13 0.404500 0.296135 0.398938
O O14 0.437716 0.500000 0.829061
O O15 0.491913 0.332056 0.849138
O O16 0.353611 0.330593 0.836724
O O17 0.070147 0.000000 0.859995
O O18 0.254026 0.500000 0.846675
#
# Coordination Sequence:
#
# PCOD8085556 Si02
#       8
#     8   4   8   8   8   8   8   8
#     4  10  19  32  51  77 103 139 177 216 256 300
#     4  10  22  36  56  82 102 128 164 214 268 316
#     4   9  17  28  45  70 101 133 169 211 253 296
#     4  10  19  31  48  72 104 139 178 216 251 298
#     4   9  18  33  54  75 100 137 171 204 253 308
#     4  10  19  30  47  73 104 140 179 216 255 295
#     4  10  21  37  55  76 103 136 173 211 257 316
#     4  10  19  34  56  80 105 130 165 213 266 317
#
# _framework density 18.085995
#
# number of rings (size 3 to 8) (size 9 to 14) (size 15 to 20)
#    0.000    2.267    1.333    2.000    0.000    2.133 
#    0.000    0.000    0.000    4.800    0.000    4.667 
#    0.000    0.000    0.000    0.000    0.000    0.000 
#
# Total GULP energy -371861.494766 kJ/mol
# GULP energy per Si atom -12395.383159 kJ/mol
# Density = 1.804483 g / cm^3
# Si number density = 18.085995 Si / 1000 Ang^3
#
#
#
# Elastic Constant Matrix: (Units=GPa)
#
#
# Indices 1 2 3 4 5 6 
#
# 1 99.9192 30.2341 49.1251 0.0000 13.7842 0.0000
# 2 30.2341 61.2540 30.0167 0.0000 0.8590 0.0000
# 3 49.1251 30.0167 96.7491 -0.0001 3.7865 0.0000
# 4 0.0000 0.0000 -0.0001 15.9666 0.0000 7.7853
# 5 13.7842 0.8590 3.7865 0.0000 35.0666 0.0000
# 6 0.0000 0.0000 0.0000 7.7853 0.0000 19.3498
#
#
#
# Elastic Compliance Matrix: (Units=1/GPa)
#
#
# Indices 1 2 3 4 5 6 
#
# 1 0.015025 -0.004368 -0.006072 0.000000 -0.005143 0.000000
# 2 -0.004368 0.020524 -0.004215 0.000000 0.001669 0.000000
# 3 -0.006072 -0.004215 0.014692 0.000000 0.000904 0.000000
# 4 0.000000 0.000000 0.000000 0.077917 0.000000 -0.031350
# 5 -0.005143 0.001669 0.000904 0.000000 0.030400 0.000000
# 6 0.000000 0.000000 0.000000 -0.031350 0.000000 0.064293
#
#
# Mechanical properties :
#
#
# Convention : Reuss Voigt Hill
#
# Bulk Modulus (GPa) = 47.78039 52.96378 50.37208
# Shear Modulus (GPa) = 19.29472 23.97970 21.63721
#
# Velocity S-wave (km/s) = 3.26978 3.64520 3.46258
# Velocity P-wave (km/s) = 6.38209 6.86037 6.62555
#
# Compressibility (1/GPa) = 0.02092909
#
# Stress axis : x y z
#
# Youngs Moduli (GPa) = 66.55620 48.72443 68.06597
#
# Poissons Ratio (x) = 0.21284 0.41333
# Poissons Ratio (y) = 0.29073 0.28689
# Poissons Ratio (z) = 0.40416 0.20537
#
# Static dielectric constant tensor:
#      x y z
#    x 3.524880 0.000000 0.120680 
#    y 0.000000 3.191760 0.000000 
#    z 0.120680 0.000000 3.309130 
# 
# 
# High freq. dielectric constant tensor:
#      x y z
#    x 1.704230 0.000000 0.011570 
#    y 0.000000 1.682550 0.000000 
#    z 0.011570 0.000000 1.697610 
# 
# From -- ./inp_files/343336.got.cif
#   From: 2010.06.25/outbox.cif.g09.slc.cpg/sg12_172_cif.got.tgz:343336.got - 2010.06.28 00:19:55.
