data_PCOD8085410
_publ_section_title
;
Structure prediction by ZEFSAII (Michael W. Deem and Ramdas Pophale) SiO2 
 PCOD8085410
Probable space group: C 2/M
;
_chemical_formula_sum "Si O2"
_cell_formula_units_Z 64
_cell_length_a 30.857957
_cell_length_b 13.903488
_cell_length_c 12.754100
_cell_angle_alpha 90.000000
_cell_angle_beta 141.663441
_cell_angle_gamma 90.000000
_cell_volume 3394.128559
_symmetry_space_group_name_H-M "C 2/M"
_symmetry_group_IT_number 12
_symmetry_cell_setting 'monoclinic'
loop_
_space_group_symop_operation_xyz
x,y,z
-x,y,-z
-x,-y,-z
x,-y,z
1/2+x,1/2+y,z
1/2-x,1/2+y,-z
1/2-x,1/2-y,-z
1/2+x,1/2-y,z
loop_
_atom_site_type_symbol
_atom_site_label
_atom_site_fract_x
_atom_site_fract_y
_atom_site_fract_z
Si Si1 0.441961 0.107218 0.576896
Si Si2 0.102394 0.203678 0.002926
Si Si3 0.101329 0.392309 0.891916
Si Si4 0.443012 0.302680 0.664201
Si Si5 0.072803 0.114098 0.589067
Si Si6 0.582277 0.608843 0.173041
Si Si7 0.317291 0.614402 0.031635
Si Si8 0.165357 0.613882 0.802168
O O1 0.522847 0.105362 0.696973
O O2 0.432358 0.186671 0.650215
O O3 0.396757 0.144810 0.393163
O O4 0.418499 0.000000 0.570630
O O5 0.108868 0.319637 0.004230
O O6 0.024626 0.168735 0.824977
O O7 0.119815 0.173258 0.155245
O O8 0.156946 0.151284 0.031380
O O9 0.123374 0.500000 0.970147
O O10 0.149563 0.349858 0.890136
O O11 0.413291 0.343267 0.499239
O O12 0.399983 0.348282 0.678886
O O13 0.000000 0.150654 0.500000
O O14 0.073352 0.000000 0.580506
O O15 0.134108 0.152547 0.781361
O O16 0.610397 0.500000 0.219302
O O17 0.500000 0.613010 0.000000
O O18 0.319050 0.500000 0.031954
O O19 0.239391 0.654717 0.903308
O O20 0.167607 0.500000 0.812162
#
# Coordination Sequence:
#
# PCOD8085410 Si02
#       8
#     8   8   8   8   8   8   8   8
#     4   9  18  32  51  73  99 132 171 213 253 295
#     4  10  19  31  50  74 101 132 171 208 252 300
#     4   9  18  32  50  73 102 134 171 211 255 300
#     4  10  19  31  51  74 101 132 172 208 252 300
#     4  10  19  30  46  71 106 138 165 202 254 308
#     4   9  18  32  51  75 102 133 169 211 251 295
#     4  10  20  32  48  75 106 136 167 204 255 310
#     4   9  18  32  49  73 104 137 170 207 252 305
#
# _framework density 18.856092
#
# number of rings (size 3 to 8) (size 9 to 14) (size 15 to 20)
#    0.000    2.500    1.250    1.125    1.750    3.000 
#    0.000    0.625    0.000    4.500    0.000    0.000 
#    0.000    0.000    0.000    0.000    0.000    0.000 
#
# Total GULP energy -396718.734982 kJ/mol
# GULP energy per Si atom -12397.460468 kJ/mol
# Density = 1.881317 g / cm^3
# Si number density = 18.856092 Si / 1000 Ang^3
#
#
#
# Elastic Constant Matrix: (Units=GPa)
#
#
# Indices 1 2 3 4 5 6 
#
# 1 127.3145 59.8756 54.3083 0.0000 -24.4164 0.0000
# 2 59.8756 80.5109 31.5336 0.0000 -17.1376 0.0000
# 3 54.3083 31.5336 50.3232 0.0000 -11.3762 0.0000
# 4 0.0000 0.0000 0.0000 19.8095 0.0000 -8.3668
# 5 -24.4164 -17.1376 -11.3762 0.0000 31.3381 0.0000
# 6 0.0000 0.0000 0.0000 -8.3668 0.0000 26.5202
#
#
#
# Elastic Compliance Matrix: (Units=1/GPa)
#
#
# Indices 1 2 3 4 5 6 
#
# 1 0.018044 -0.006812 -0.014019 0.000000 0.005244 0.000000
# 2 -0.006812 0.020033 -0.004276 0.000000 0.004096 0.000000
# 3 -0.014019 -0.004276 0.037783 0.000000 0.000455 0.000000
# 4 0.000000 0.000000 0.000000 0.058241 0.000000 0.018374
# 5 0.005244 0.004096 0.000455 0.000000 0.038401 0.000000
# 6 0.000000 0.000000 0.000000 0.018374 0.000000 0.043504
#
#
# Mechanical properties :
#
#
# Convention : Reuss Voigt Hill
#
# Bulk Modulus (GPa) = 38.99155 61.06481 50.02818
# Shear Modulus (GPa) = 18.19714 23.02898 20.61306
#
# Velocity S-wave (km/s) = 3.10990 3.49850 3.30991
# Velocity P-wave (km/s) = 5.79816 6.98386 6.41845
#
# Compressibility (1/GPa) = 0.02564658
#
# Stress axis : x y z
#
# Youngs Moduli (GPa) = 55.42001 49.91656 26.46726
#
# Poissons Ratio (x) = 0.34005 0.37104
# Poissons Ratio (y) = 0.37754 0.11317
# Poissons Ratio (z) = 0.77692 0.21343
#
# Static dielectric constant tensor:
#      x y z
#    x 3.418000 0.000000 0.014550 
#    y 0.000000 3.644940 0.000000 
#    z 0.014550 0.000000 3.280540 
# 
# 
# High freq. dielectric constant tensor:
#      x y z
#    x 1.710570 0.000000 -0.002780 
#    y 0.000000 1.748920 0.000000 
#    z -0.002780 0.000000 1.695290 
# 
# From -- ./inp_files/189499.got.cif
#   From: 2010.06.25/outbox.cif.g09.slc.cpg/sg12_95_cif.got.tgz:189499.got - 2010.06.28 00:19:55.
