data_PCOD8085141
_publ_section_title
;
Structure prediction by ZEFSAII (Michael W. Deem and Ramdas Pophale) SiO2 
 PCOD8085141
Probable space group: C 2/M
;
_chemical_formula_sum "Si O2"
_cell_formula_units_Z 64
_cell_length_a 25.570297
_cell_length_b 9.357810
_cell_length_c 21.163726
_cell_angle_alpha 90.000000
_cell_angle_beta 53.255454
_cell_angle_gamma 90.000000
_cell_volume 4057.916462
_symmetry_space_group_name_H-M "C 2/M"
_symmetry_group_IT_number 12
_symmetry_cell_setting 'monoclinic'
loop_
_space_group_symop_operation_xyz
x,y,z
-x,y,-z
-x,-y,-z
x,-y,z
1/2+x,1/2+y,z
1/2-x,1/2+y,-z
1/2-x,1/2-y,-z
1/2+x,1/2-y,z
loop_
_atom_site_type_symbol
_atom_site_label
_atom_site_fract_x
_atom_site_fract_y
_atom_site_fract_z
Si Si1 0.010668 0.330928 0.093956
Si Si2 0.293951 0.331258 0.918572
Si Si3 0.444125 0.333033 0.819972
Si Si4 0.398478 0.830679 0.083719
Si Si5 0.863369 0.165434 0.648359
Si Si6 0.746677 0.830120 0.816846
Si Si7 0.561337 0.838484 0.501819
Si Si8 0.015605 0.835794 0.348719
O O1 0.013261 0.500000 0.103010
O O2 0.016014 0.253160 0.156669
O O3 0.942131 0.283193 0.111846
O O4 0.069046 0.279418 0.005500
O O5 0.282568 0.500000 0.933426
O O6 0.368605 0.288819 0.876644
O O7 0.273773 0.275067 0.864053
O O8 0.250000 0.250000 0.000000
O O9 0.452246 0.500000 0.827164
O O10 0.474581 0.290811 0.730660
O O11 0.325703 0.766203 0.142671
O O12 0.395807 0.000000 0.083802
O O13 0.794325 0.220208 0.726032
O O14 0.878648 0.257351 0.574941
O O15 0.916592 0.190012 0.664340
O O16 0.861012 0.000000 0.629973
O O17 0.745641 0.000000 0.818819
O O18 0.500000 0.833036 0.500000
O O19 0.542291 0.760256 0.580655
O O20 0.582625 0.000000 0.501611
O O21 0.994160 0.000000 0.370760
#
# Coordination Sequence:
#
# PCOD8085141 Si02
#       8
#     8   8   8   8   8   8   8   8
#     4   9  17  30  47  66  86 115 154 191 226 260
#     4  10  19  30  43  63  90 119 149 179 217 264
#     4  10  19  30  44  65  93 119 146 183 222 260
#     4   8  15  28  46  66  87 112 151 196 225 254
#     4   9  15  26  44  63  83 114 150 178 210 259
#     4   9  15  26  45  65  86 115 150 185 218 256
#     4   9  17  27  40  61  89 117 142 174 216 257
#     4   9  16  28  43  61  86 117 149 177 207 257
#
# _framework density 15.77164
#
# number of rings (size 3 to 8) (size 9 to 14) (size 15 to 20)
#    0.000    2.875    1.250    1.875    0.000    3.500 
#    0.000    1.875    0.000    2.250    0.000    0.875 
#    0.000    0.000    0.000    0.000    0.000    0.000 
#
# Total GULP energy -396721.934484 kJ/mol
# GULP energy per Si atom -12397.560453 kJ/mol
# Density = 1.573574 g / cm^3
# Si number density = 15.771640 Si / 1000 Ang^3
#
#
#
# Elastic Constant Matrix: (Units=GPa)
#
#
# Indices 1 2 3 4 5 6 
#
# 1 74.1250 29.2989 53.1579 -0.0002 4.4072 0.0007
# 2 29.2989 52.4588 54.1753 -0.0016 5.3080 0.0036
# 3 53.1579 54.1753 141.4491 0.0032 2.6867 -0.0042
# 4 -0.0002 -0.0016 0.0032 25.8150 -0.0008 5.4858
# 5 4.4072 5.3080 2.6867 -0.0008 20.3025 0.0007
# 6 0.0007 0.0036 -0.0042 5.4858 0.0007 17.1136
#
#
#
# Elastic Compliance Matrix: (Units=1/GPa)
#
#
# Indices 1 2 3 4 5 6 
#
# 1 0.019461 -0.005194 -0.005283 0.000001 -0.002167 -0.000001
# 2 -0.005194 0.033848 -0.010893 0.000006 -0.006280 -0.000011
# 3 -0.005283 -0.010893 0.013184 -0.000004 0.002250 0.000007
# 4 0.000001 0.000006 -0.000004 0.041569 0.000001 -0.013325
# 5 -0.002167 -0.006280 0.002250 0.000001 0.051070 0.000000
# 6 -0.000001 -0.000011 0.000007 -0.013325 0.000000 0.062704
#
#
# Mechanical properties :
#
#
# Convention : Reuss Voigt Hill
#
# Bulk Modulus (GPa) = 42.09816 60.14412 51.12114
# Shear Modulus (GPa) = 18.34902 21.40630 19.87766
#
# Velocity S-wave (km/s) = 3.41459 3.68810 3.55398
# Velocity P-wave (km/s) = 6.50355 7.50688 7.02316
#
# Compressibility (1/GPa) = 0.02375401
#
# Stress axis : x y z
#
# Youngs Moduli (GPa) = 51.38369 29.54385 75.84747
#
# Poissons Ratio (x) = 0.15345 0.40073
# Poissons Ratio (y) = 0.26688 0.82618
# Poissons Ratio (z) = 0.27148 0.32181
#
# Static dielectric constant tensor:
#      x y z
#    x 2.944720 -0.000010 -0.135790 
#    y -0.000010 2.782540 0.000000 
#    z -0.135790 0.000000 3.159620 
# 
# 
# High freq. dielectric constant tensor:
#      x y z
#    x 1.575140 0.000000 -0.001490 
#    y 0.000000 1.581950 0.000000 
#    z -0.001490 0.000000 1.612630 
# 
# From -- ./inp_files/323727.got.cif
#   From: 2010.06.25/outbox.cif.g09.slc.cpg/sg12_162_cif.got.tgz:323727.got - 2010.06.28 00:19:55.
