data_PCOD8085606
_publ_section_title
;
Structure prediction by ZEFSAII (Michael W. Deem and Ramdas Pophale) SiO2 
 PCOD8085606
Probable space group: C 2/M
;
_chemical_formula_sum "Si O2"
_cell_formula_units_Z 56
_cell_length_a 18.169119
_cell_length_b 9.219787
_cell_length_c 29.320145
_cell_angle_alpha 90.000000
_cell_angle_beta 141.748437
_cell_angle_gamma 90.000000
_cell_volume 3040.832220
_symmetry_space_group_name_H-M "C 2/M"
_symmetry_group_IT_number 12
_symmetry_cell_setting 'monoclinic'
loop_
_space_group_symop_operation_xyz
x,y,z
-x,y,-z
-x,-y,-z
x,-y,z
1/2+x,1/2+y,z
1/2-x,1/2+y,-z
1/2-x,1/2-y,-z
1/2+x,1/2-y,z
loop_
_atom_site_type_symbol
_atom_site_label
_atom_site_fract_x
_atom_site_fract_y
_atom_site_fract_z
Si Si1 0.297124 0.168525 0.206034
Si Si2 0.127222 0.330379 0.934175
Si Si3 0.527919 0.339481 0.654217
Si Si4 0.339956 0.664301 0.644107
Si Si5 0.680557 0.329681 0.505978
Si Si6 0.523050 0.168846 0.787078
Si Si7 0.947477 0.669840 0.926172
O O1 0.367910 0.224969 0.285195
O O2 0.371609 0.204453 0.196963
O O3 0.172629 0.246816 0.142068
O O4 0.274355 0.000000 0.201446
O O5 0.154480 0.500000 0.946872
O O6 0.065992 0.280914 0.857511
O O7 0.041844 0.286097 0.933832
O O8 0.250000 0.250000 0.000000
O O9 0.585176 0.500000 0.681411
O O10 0.428674 0.331172 0.644872
O O11 0.460844 0.308714 0.573266
O O12 0.305215 0.500000 0.640278
O O13 0.220080 0.754229 0.572766
O O14 0.404364 0.740506 0.718202
O O15 0.714117 0.500000 0.523061
O O16 0.750000 0.250000 0.500000
O O17 0.489377 0.000000 0.769052
O O18 0.919000 0.500000 0.911917
O O19 0.000000 0.720107 0.000000
#
# Coordination Sequence:
#
# PCOD8085606 Si02
#       7
#     8   8   8   8   8   8   8
#     4  10  19  30  48  72  97 127 161 201 244 283
#     4  10  21  36  54  75  98 127 161 199 243 289
#     4   8  15  26  40  61  92 128 162 196 236 284
#     4   9  16  25  40  64  93 127 164 201 244 290
#     4   9  15  23  37  60  92 129 165 202 244 287
#     4   9  18  32  48  69  98 129 163 202 244 290
#     4  10  21  36  53  73  98 128 160 195 239 292
#
# _framework density 18.416013
#
# number of rings (size 3 to 8) (size 9 to 14) (size 15 to 20)
#    0.000    2.714    0.000    3.000    0.000    6.000 
#    0.000    0.000    0.000    0.000    0.000    1.000 
#    0.000    8.000    0.000    0.000    0.000    0.000 
#
# Total GULP energy -347111.147973 kJ/mol
# GULP energy per Si atom -12396.826713 kJ/mol
# Density = 1.837410 g / cm^3
# Si number density = 18.416013 Si / 1000 Ang^3
#
#
#
# Elastic Constant Matrix: (Units=GPa)
#
#
# Indices 1 2 3 4 5 6 
#
# 1 54.4236 38.7613 60.4082 0.0000 -4.5081 0.0000
# 2 38.7613 98.0924 86.3285 0.0000 1.6557 0.0000
# 3 60.4082 86.3285 192.7555 0.0000 -6.7819 0.0000
# 4 0.0000 0.0000 0.0000 40.3924 0.0000 3.9707
# 5 -4.5081 1.6557 -6.7819 0.0000 19.4640 0.0000
# 6 0.0000 0.0000 0.0000 3.9707 0.0000 13.7649
#
#
#
# Elastic Compliance Matrix: (Units=1/GPa)
#
#
# Indices 1 2 3 4 5 6 
#
# 1 0.030669 -0.006466 -0.006526 0.000000 0.005379 0.000000
# 2 -0.006466 0.018521 -0.006456 0.000000 -0.005323 0.000000
# 3 -0.006526 -0.006456 0.010216 0.000000 0.002597 0.000000
# 4 0.000000 0.000000 0.000000 0.025480 0.000000 -0.007350
# 5 0.005379 -0.005323 0.002597 0.000000 0.053981 0.000000
# 6 0.000000 0.000000 0.000000 -0.007350 0.000000 0.074769
#
#
# Mechanical properties :
#
#
# Convention : Reuss Voigt Hill
#
# Bulk Modulus (GPa) = 48.75739 79.58529 64.17134
# Shear Modulus (GPa) = 19.27763 25.37582 22.32673
#
# Velocity S-wave (km/s) = 3.23892 3.71606 3.48566
# Velocity P-wave (km/s) = 6.36557 7.85629 7.14989
#
# Compressibility (1/GPa) = 0.02050971
#
# Stress axis : x y z
#
# Youngs Moduli (GPa) = 32.60598 53.99304 97.88704
#
# Poissons Ratio (x) = 0.34913 0.63884
# Poissons Ratio (y) = 0.21084 0.63193
# Poissons Ratio (z) = 0.21280 0.34856
#
# Static dielectric constant tensor:
#      x y z
#    x 3.000620 0.000000 -0.233470 
#    y 0.000000 3.469330 0.000000 
#    z -0.233470 0.000000 3.999880 
# 
# 
# High freq. dielectric constant tensor:
#      x y z
#    x 1.656080 0.000000 -0.005350 
#    y 0.000000 1.719500 0.000000 
#    z -0.005350 0.000000 1.737680 
# 
# From -- ./inp_files/313723.got.cif
#   From: 2010.06.25/outbox.cif.g09.slc.cpg/sg12_157_cif.got.tgz:313723.got - 2010.06.28 00:19:55.
