data_PCOD8085944
_publ_section_title
;
Structure prediction by ZEFSAII (Michael W. Deem and Ramdas Pophale) SiO2 
 PCOD8085944
Probable space group: C 2/M
;
_chemical_formula_sum "Si O2"
_cell_formula_units_Z 56
_cell_length_a 16.299730
_cell_length_b 37.522728
_cell_length_c 5.144517
_cell_angle_alpha 90.000000
_cell_angle_beta 118.426530
_cell_angle_gamma 90.000000
_cell_volume 2767.068010
_symmetry_space_group_name_H-M "C 2/M"
_symmetry_group_IT_number 12
_symmetry_cell_setting 'monoclinic'
loop_
_space_group_symop_operation_xyz
x,y,z
-x,y,-z
-x,-y,-z
x,-y,z
1/2+x,1/2+y,z
1/2-x,1/2+y,-z
1/2-x,1/2-y,-z
1/2+x,1/2-y,z
loop_
_atom_site_type_symbol
_atom_site_label
_atom_site_fract_x
_atom_site_fract_y
_atom_site_fract_z
Si Si1 0.904123 0.874663 0.944288
Si Si2 0.872576 0.168786 0.386535
Si Si3 0.797972 0.601015 0.392704
Si Si4 0.327140 0.144725 0.947069
Si Si5 0.104600 0.748816 0.616506
Si Si6 0.896144 0.283976 0.887957
Si Si7 0.439217 0.959350 0.664704
O O1 0.882680 0.845867 0.691460
O O2 0.814075 0.900879 0.839474
O O3 0.928205 0.853783 0.249287
O O4 0.000000 0.895269 0.000000
O O5 0.765532 0.167324 0.139708
O O6 0.903110 0.209371 0.442942
O O7 0.813977 0.616252 0.701536
O O8 0.842968 0.561896 0.472574
O O9 0.851748 0.624251 0.252891
O O10 0.402194 0.173957 0.967974
O O11 0.155390 0.726605 0.459925
O O12 0.000000 0.733329 0.500000
O O13 0.156684 0.738177 0.963632
O O14 0.000000 0.269070 0.000000
O O15 0.500000 0.955851 0.500000
O O16 0.409884 0.000000 0.676887
O O17 0.500000 0.944436 0.000000
#
# Coordination Sequence:
#
# PCOD8085944 Si02
#       7
#     8   8   8   8   8   8   8
#     4  10  19  33  53  77 106 137 173 220 269 313
#     4  10  20  32  50  73  96 129 176 226 270 316
#     4  10  21  36  55  81 109 138 174 213 257 313
#     4  10  21  35  50  73 103 134 171 214 264 316
#     4  10  19  31  46  64  89 125 172 221 270 317
#     4  10  21  33  45  64  92 129 171 216 266 321
#     4  10  21  38  61  89 117 145 178 213 252 300
#
# _framework density 20.238029000000001
#
# number of rings (size 3 to 8) (size 9 to 14) (size 15 to 20)
#    0.000    2.000    0.000    3.857    0.000    4.000 
#    0.000    0.000    0.000    0.429    0.000    0.000 
#    0.000   10.286    0.000    0.000    0.000    1.714 
#
# Total GULP energy -346975.373400 kJ/mol
# GULP energy per Si atom -12391.977621 kJ/mol
# Density = 2.019197 g / cm^3
# Si number density = 20.238029 Si / 1000 Ang^3
#
#
#
# Elastic Constant Matrix: (Units=GPa)
#
#
# Indices 1 2 3 4 5 6 
#
# 1 80.0092 46.8802 40.2863 0.0000 -15.4040 0.0000
# 2 46.8802 86.5763 32.5859 0.0000 4.7484 0.0000
# 3 40.2863 32.5859 102.4439 0.0000 -29.2684 0.0000
# 4 0.0000 0.0000 0.0000 24.4762 0.0000 8.2574
# 5 -15.4040 4.7484 -29.2684 0.0000 33.0999 0.0000
# 6 0.0000 0.0000 0.0000 8.2574 0.0000 14.1197
#
#
#
# Elastic Compliance Matrix: (Units=1/GPa)
#
#
# Indices 1 2 3 4 5 6 
#
# 1 0.022593 -0.012014 -0.002096 0.000000 0.010384 0.000000
# 2 -0.012014 0.021047 -0.005928 0.000000 -0.013852 0.000000
# 3 -0.002096 -0.005928 0.016639 0.000000 0.014588 0.000000
# 4 0.000000 0.000000 0.000000 0.050898 0.000000 -0.029766
# 5 0.010384 -0.013852 0.014588 0.000000 0.049931 0.000000
# 6 0.000000 0.000000 0.000000 -0.029766 0.000000 0.088230
#
#
# Mechanical properties :
#
#
# Convention : Reuss Voigt Hill
#
# Bulk Modulus (GPa) = 49.49922 56.50381 53.00151
# Shear Modulus (GPa) = 16.88339 24.29096 20.58717
#
# Velocity S-wave (km/s) = 2.89146 3.46824 3.19290
# Velocity P-wave (km/s) = 5.97151 6.63464 6.31179
#
# Compressibility (1/GPa) = 0.02020234
#
# Stress axis : x y z
#
# Youngs Moduli (GPa) = 44.26147 47.51279 60.09938
#
# Poissons Ratio (x) = 0.57084 0.12599
# Poissons Ratio (y) = 0.53177 0.35625
# Poissons Ratio (z) = 0.09279 0.28164
#
# Static dielectric constant tensor:
#      x y z
#    x 3.996090 0.000000 -0.259700 
#    y 0.000000 3.275280 0.000000 
#    z -0.259700 0.000000 4.076820 
# 
# 
# High freq. dielectric constant tensor:
#      x y z
#    x 1.800610 0.000000 -0.022990 
#    y 0.000000 1.738770 0.000000 
#    z -0.022990 0.000000 1.808470 
# 
# From -- ./inp_files/18388.got.cif
#   From: 2010.06.25/outbox.cif.g09.slc.cpg/sg12_10_cif.got.tgz:18388.got - 2010.06.28 00:19:55.
