data_PCOD8085871
_publ_section_title
;
Structure prediction by ZEFSAII (Michael W. Deem and Ramdas Pophale) SiO2 
 PCOD8085871
Probable space group: C 2/M
;
_chemical_formula_sum "Si O2"
_cell_formula_units_Z 64
_cell_length_a 24.349180
_cell_length_b 9.301473
_cell_length_c 19.834133
_cell_angle_alpha 90.000000
_cell_angle_beta 125.672869
_cell_angle_gamma 90.000000
_cell_volume 3649.200219
_symmetry_space_group_name_H-M "C 2/M"
_symmetry_group_IT_number 12
_symmetry_cell_setting 'monoclinic'
loop_
_space_group_symop_operation_xyz
x,y,z
-x,y,-z
-x,-y,-z
x,-y,z
1/2+x,1/2+y,z
1/2-x,1/2+y,-z
1/2-x,1/2-y,-z
1/2+x,1/2-y,z
loop_
_atom_site_type_symbol
_atom_site_label
_atom_site_fract_x
_atom_site_fract_y
_atom_site_fract_z
Si Si1 0.932473 0.833620 0.709426
Si Si2 0.183619 0.834469 0.472794
Si Si3 0.334433 0.664924 0.756389
Si Si4 0.316142 0.169781 0.021609
Si Si5 0.701012 0.334155 0.636770
Si Si6 0.841554 0.665364 0.270519
Si Si7 0.690897 0.663370 0.113824
Si Si8 0.070154 0.331986 0.790198
O O1 0.880054 0.777044 0.615465
O O2 0.901660 0.805532 0.761643
O O3 0.000884 0.747660 0.753003
O O4 0.948933 0.000000 0.709645
O O5 0.250000 0.750000 0.500000
O O6 0.166211 0.814739 0.539124
O O7 0.197359 0.000000 0.464250
O O8 0.309824 0.500000 0.730428
O O9 0.274920 0.764523 0.686339
O O10 0.349700 0.695957 0.846041
O O11 0.377800 0.210474 0.114091
O O12 0.302221 0.000000 0.010415
O O13 0.250000 0.250000 0.000000
O O14 0.335535 0.226288 0.961189
O O15 0.709500 0.500000 0.662406
O O16 0.653229 0.259642 0.658131
O O17 0.850190 0.500000 0.297665
O O18 0.770158 0.689272 0.182804
O O19 0.899629 0.714804 0.260493
O O20 0.678375 0.500000 0.080329
O O21 0.055635 0.500000 0.780911
#
# Coordination Sequence:
#
# PCOD8085871 Si02
#       8
#     8   8   8   8   8   8   8   8
#     4  10  21  37  56  79 107 145 184 218 265 321
#     4  10  20  34  54  81 111 139 178 225 266 313
#     4   9  18  34  54  76 109 145 175 214 265 318
#     4  11  21  35  55  80 108 138 176 223 269 316
#     4  10  19  30  51  84 110 133 175 226 267 309
#     4   9  18  35  54  74 107 145 176 215 268 320
#     4   9  17  32  54  80 106 136 175 222 265 309
#     4  10  22  39  55  76 108 144 180 221 268 319
#
# _framework density 17.538088999999999
#
# number of rings (size 3 to 8) (size 9 to 14) (size 15 to 20)
#    0.000    2.250    2.500    1.500    0.000    5.000 
#    0.000    1.250    0.000    7.500    0.000    0.000 
#    0.000    0.000    0.000    0.000    0.000    0.000 
#
# Total GULP energy -396823.031264 kJ/mol
# GULP energy per Si atom -12400.719727 kJ/mol
# Density = 1.749817 g / cm^3
# Si number density = 17.538089 Si / 1000 Ang^3
#
#
#
# Elastic Constant Matrix: (Units=GPa)
#
#
# Indices 1 2 3 4 5 6 
#
# 1 140.9698 60.2636 75.4915 0.0000 -7.3207 0.0000
# 2 60.2636 79.2462 61.9471 0.0000 -4.0632 0.0000
# 3 75.4915 61.9471 112.7637 0.0000 -7.5656 0.0000
# 4 0.0000 0.0000 0.0000 29.0135 0.0000 -0.9496
# 5 -7.3207 -4.0632 -7.5656 0.0000 28.0740 0.0000
# 6 0.0000 0.0000 0.0000 -0.9496 0.0000 34.6416
#
#
#
# Elastic Compliance Matrix: (Units=1/GPa)
#
#
# Indices 1 2 3 4 5 6 
#
# 1 0.012132 -0.005044 -0.005283 0.000000 0.001010 0.000000
# 2 -0.005044 0.024214 -0.009958 0.000000 -0.000494 0.000000
# 3 -0.005283 -0.009958 0.018012 0.000000 0.002035 0.000000
# 4 0.000000 0.000000 0.000000 0.034498 0.000000 0.000946
# 5 0.001010 -0.000494 0.002035 0.000000 0.036360 0.000000
# 6 0.000000 0.000000 0.000000 0.000946 0.000000 0.028893
#
#
# Mechanical properties :
#
#
# Convention : Reuss Voigt Hill
#
# Bulk Modulus (GPa) = 72.53325 80.93157 76.73241
# Shear Modulus (GPa) = 25.09104 27.36433 26.22768
#
# Velocity S-wave (km/s) = 3.78651 3.95432 3.87133
# Velocity P-wave (km/s) = 7.78230 8.19117 7.98935
#
# Compressibility (1/GPa) = 0.01378678
#
# Stress axis : x y z
#
# Youngs Moduli (GPa) = 82.42953 41.29878 55.51866
#
# Poissons Ratio (x) = 0.20832 0.29330
# Poissons Ratio (y) = 0.41579 0.55287
# Poissons Ratio (z) = 0.43547 0.41126
#
# Static dielectric constant tensor:
#      x y z
#    x 3.281100 0.000000 -0.344310 
#    y 0.000000 3.272580 0.000000 
#    z -0.344310 0.000000 3.403120 
# 
# 
# High freq. dielectric constant tensor:
#      x y z
#    x 1.673500 0.000000 -0.026030 
#    y 0.000000 1.678840 0.000000 
#    z -0.026030 0.000000 1.668530 
# 
# From -- ./inp_files/326965.got.cif
#   From: 2010.06.25/outbox.cif.g09.slc.cpg/sg12_164_cif.got.tgz:326965.got - 2010.06.28 00:19:55.
