data_PCOD8085236
_publ_section_title
;
Structure prediction by ZEFSAII (Michael W. Deem and Ramdas Pophale) SiO2 
 PCOD8085236
Probable space group: C 2/M
;
_chemical_formula_sum "Si O2"
_cell_formula_units_Z 64
_cell_length_a 27.820485
_cell_length_b 9.046918
_cell_length_c 20.508984
_cell_angle_alpha 90.000000
_cell_angle_beta 134.637945
_cell_angle_gamma 90.000000
_cell_volume 3673.005339
_symmetry_space_group_name_H-M "C 2/M"
_symmetry_group_IT_number 12
_symmetry_cell_setting 'monoclinic'
loop_
_space_group_symop_operation_xyz
x,y,z
-x,y,-z
-x,-y,-z
x,-y,z
1/2+x,1/2+y,z
1/2-x,1/2+y,-z
1/2-x,1/2-y,-z
1/2+x,1/2-y,z
loop_
_atom_site_type_symbol
_atom_site_label
_atom_site_fract_x
_atom_site_fract_y
_atom_site_fract_z
Si Si1 0.054436 0.325774 0.603063
Si Si2 0.003904 0.837698 0.676142
Si Si3 0.036421 0.673873 0.101376
Si Si4 0.189677 0.330491 0.257798
Si Si5 0.154778 0.833370 0.494528
Si Si6 0.184628 0.326306 0.653673
Si Si7 0.966744 0.826987 0.776608
Si Si8 0.327848 0.171786 0.614041
O O1 0.048629 0.500000 0.595104
O O2 0.039553 0.277139 0.662452
O O3 0.129682 0.273887 0.654805
O O4 0.000000 0.257430 0.500000
O O5 0.923297 0.832689 0.598432
O O6 0.020518 0.804809 0.768333
O O7 0.029772 0.000000 0.680050
O O8 0.031106 0.500000 0.111468
O O9 0.114476 0.727023 0.171885
O O10 0.000148 0.767608 0.124471
O O11 0.000000 0.716626 0.000000
O O12 0.193971 0.500000 0.242080
O O13 0.242041 0.243361 0.261461
O O14 0.213846 0.307198 0.357325
O O15 0.159230 0.726382 0.559678
O O16 0.197097 0.771776 0.471633
O O17 0.180213 0.000000 0.534018
O O18 0.191994 0.500000 0.660116
O O19 0.902719 0.721590 0.704703
O O20 0.945731 0.000000 0.761725
O O21 0.329100 0.000000 0.594208
#
# Coordination Sequence:
#
# PCOD8085236 Si02
#       8
#     8   8   8   8   8   8   8   8
#     4  10  20  33  47  66  91 123 168 214 249 283
#     4   9  18  30  46  68  94 126 162 203 245 285
#     4   9  18  34  56  80 103 128 158 189 230 289
#     4   9  19  34  49  68  95 125 155 193 236 283
#     4  10  19  30  45  66  91 123 164 205 243 283
#     4  11  22  33  46  65  91 126 165 204 244 286
#     4   9  17  29  46  74 104 127 157 194 238 288
#     4   9  17  30  47  65  90 126 164 198 236 280
#
# _framework density 17.424422
#
# number of rings (size 3 to 8) (size 9 to 14) (size 15 to 20)
#    0.000    2.500    1.250    3.000    0.000    7.000 
#    0.000    0.000    0.000    0.000    0.000    0.875 
#    0.000    0.000    0.000    0.000    0.000    0.000 
#
# Total GULP energy -396632.314369 kJ/mol
# GULP energy per Si atom -12394.759824 kJ/mol
# Density = 1.738476 g / cm^3
# Si number density = 17.424422 Si / 1000 Ang^3
#
#
#
# Elastic Constant Matrix: (Units=GPa)
#
#
# Indices 1 2 3 4 5 6 
#
# 1 125.4772 39.3218 30.4362 0.0000 -8.8576 0.0000
# 2 39.3218 28.0933 5.2879 0.0000 3.4507 0.0000
# 3 30.4362 5.2879 47.8531 0.0000 -8.2705 0.0000
# 4 0.0000 0.0000 0.0000 20.0838 0.0000 -3.2489
# 5 -8.8576 3.4507 -8.2705 0.0000 16.9368 0.0000
# 6 0.0000 0.0000 0.0000 -3.2489 0.0000 31.0546
#
#
#
# Elastic Compliance Matrix: (Units=1/GPa)
#
#
# Indices 1 2 3 4 5 6 
#
# 1 0.018771 -0.026407 -0.006984 0.000000 0.011787 0.000000
# 2 -0.026407 0.075199 0.003769 0.000000 -0.027291 0.000000
# 3 -0.006984 0.003769 0.026386 0.000000 0.008464 0.000000
# 4 0.000000 0.000000 0.000000 0.050649 0.000000 0.005299
# 5 0.011787 -0.027291 0.008464 0.000000 0.074900 0.000000
# 6 0.000000 0.000000 0.000000 0.005299 0.000000 0.032756
#
#
# Mechanical properties :
#
#
# Convention : Reuss Voigt Hill
#
# Bulk Modulus (GPa) = 16.36309 39.05727 27.71018
# Shear Modulus (GPa) = 13.95579 22.04023 17.99801
#
# Velocity S-wave (km/s) = 2.83315 3.56041 3.21739
# Velocity P-wave (km/s) = 4.48482 6.27423 5.45342
#
# Compressibility (1/GPa) = 0.06111314
#
# Stress axis : x y z
#
# Youngs Moduli (GPa) = 53.27407 13.29800 37.89944
#
# Poissons Ratio (x) = 0.35115 0.26468
# Poissons Ratio (y) = 1.40678 -0.14285
# Poissons Ratio (z) = 0.37206 -0.05012
#
# Static dielectric constant tensor:
#      x y z
#    x 3.409940 0.000000 -0.144470 
#    y 0.000000 3.249960 0.000000 
#    z -0.144470 0.000000 3.078630 
# 
# 
# High freq. dielectric constant tensor:
#      x y z
#    x 1.671410 0.000000 -0.008150 
#    y 0.000000 1.677680 0.000000 
#    z -0.008150 0.000000 1.633110 
# 
# From -- ./inp_files/326922.got.cif
#   From: 2010.06.25/outbox.cif.g09.slc.cpg/sg12_164_cif.got.tgz:326922.got - 2010.06.28 00:19:55.
