data_PCOD8085745
_publ_section_title
;
Structure prediction by ZEFSAII (Michael W. Deem and Ramdas Pophale) SiO2 
 PCOD8085745
Probable space group: C 2/M
;
_chemical_formula_sum "Si O2"
_cell_formula_units_Z 64
_cell_length_a 20.791554
_cell_length_b 9.085492
_cell_length_c 23.519289
_cell_angle_alpha 90.000000
_cell_angle_beta 127.307853
_cell_angle_gamma 90.000000
_cell_volume 3533.783538
_symmetry_space_group_name_H-M "C 2/M"
_symmetry_group_IT_number 12
_symmetry_cell_setting 'monoclinic'
loop_
_space_group_symop_operation_xyz
x,y,z
-x,y,-z
-x,-y,-z
x,-y,z
1/2+x,1/2+y,z
1/2-x,1/2+y,-z
1/2-x,1/2-y,-z
1/2+x,1/2-y,z
loop_
_atom_site_type_symbol
_atom_site_label
_atom_site_fract_x
_atom_site_fract_y
_atom_site_fract_z
Si Si1 0.757804 0.328536 0.093346
Si Si2 0.196810 0.666179 0.388114
Si Si3 0.363405 0.664033 0.546169
Si Si4 0.265472 0.826552 0.323067
Si Si5 0.369785 0.170692 0.052439
Si Si6 0.529336 0.827114 0.076077
Si Si7 0.212370 0.675769 0.182579
Si Si8 0.586873 0.841814 0.523538
O O1 0.746393 0.500000 0.101715
O O2 0.842088 0.303654 0.103206
O O3 0.758212 0.235109 0.151264
O O4 0.682793 0.275538 0.015475
O O5 0.171662 0.500000 0.359182
O O6 0.278566 0.672204 0.468023
O O7 0.130507 0.740607 0.393244
O O8 0.200292 0.760538 0.332361
O O9 0.387609 0.500000 0.575881
O O10 0.426302 0.728847 0.534902
O O11 0.260003 0.742860 0.260916
O O12 0.353844 0.786071 0.394992
O O13 0.250929 0.000000 0.307047
O O14 0.464534 0.211077 0.091671
O O15 0.354226 0.000000 0.026871
O O16 0.619300 0.766314 0.137121
O O17 0.537534 0.000000 0.073584
O O18 0.500000 0.759660 0.000000
O O19 0.217992 0.500000 0.186338
O O20 0.500000 0.870578 0.500000
O O21 0.622116 0.000000 0.520085
#
# Coordination Sequence:
#
# PCOD8085745 Si02
#       8
#     8   8   8   8   8   8   8   8
#     4  10  19  30  49  77 105 133 169 213 262 307
#     4   9  16  28  47  71  98 128 163 196 239 297
#     4   9  16  26  45  74 102 126 156 201 249 287
#     4  10  20  34  52  75 104 131 164 210 256 303
#     4   9  17  32  52  74 101 133 172 215 256 304
#     4   9  16  30  53  77  99 131 176 217 250 294
#     4  11  21  34  54  75 102 138 177 213 255 313
#     4   9  18  33  53  75  99 131 170 208 249 303
#
# _framework density 18.110900999999998
#
# number of rings (size 3 to 8) (size 9 to 14) (size 15 to 20)
#    0.000    2.500    1.250    1.875    0.000    4.250 
#    0.000    1.875    2.750    0.000    0.000    0.000 
#    0.000    0.000    0.000    0.000    0.000    0.000 
#
# Total GULP energy -396562.942332 kJ/mol
# GULP energy per Si atom -12392.591948 kJ/mol
# Density = 1.806968 g / cm^3
# Si number density = 18.110901 Si / 1000 Ang^3
#
#
#
# Elastic Constant Matrix: (Units=GPa)
#
#
# Indices 1 2 3 4 5 6 
#
# 1 110.4962 43.1483 46.0169 0.0000 -21.1646 0.0000
# 2 43.1483 100.3769 40.4519 0.0000 -20.2887 0.0000
# 3 46.0169 40.4519 80.6342 0.0000 -23.2217 0.0000
# 4 0.0000 0.0000 0.0000 26.3059 0.0000 -10.4747
# 5 -21.1646 -20.2887 -23.2217 0.0000 25.6969 0.0000
# 6 0.0000 0.0000 0.0000 -10.4747 0.0000 25.0079
#
#
#
# Elastic Compliance Matrix: (Units=1/GPa)
#
#
# Indices 1 2 3 4 5 6 
#
# 1 0.012923 -0.002794 -0.004790 0.000000 0.004109 0.000000
# 2 -0.002794 0.013735 -0.003833 0.000000 0.005079 0.000000
# 3 -0.004790 -0.003833 0.020345 0.000000 0.011414 0.000000
# 4 0.000000 0.000000 0.000000 0.045624 0.000000 0.019110
# 5 0.004109 0.005079 0.011414 0.000000 0.056624 0.000000
# 6 0.000000 0.000000 0.000000 0.019110 0.000000 0.047992
#
#
# Mechanical properties :
#
#
# Convention : Reuss Voigt Hill
#
# Bulk Modulus (GPa) = 41.37562 61.19349 51.28455
# Shear Modulus (GPa) = 21.91699 26.19482 24.05591
#
# Velocity S-wave (km/s) = 3.48250 3.80723 3.64848
# Velocity P-wave (km/s) = 6.25026 7.29302 6.79168
#
# Compressibility (1/GPa) = 0.02416882
#
# Stress axis : x y z
#
# Youngs Moduli (GPa) = 77.38103 72.80713 49.15143
#
# Poissons Ratio (x) = 0.20344 0.23543
# Poissons Ratio (y) = 0.21623 0.18840
# Poissons Ratio (z) = 0.37064 0.27908
#
# Static dielectric constant tensor:
#      x y z
#    x 3.469030 0.000000 -0.232400 
#    y 0.000000 3.473180 0.000000 
#    z -0.232400 0.000000 3.093000 
# 
# 
# High freq. dielectric constant tensor:
#      x y z
#    x 1.697400 0.000000 -0.026700 
#    y 0.000000 1.703620 0.000000 
#    z -0.026700 0.000000 1.666910 
# 
# From -- ./inp_files/320107.got.cif
#   From: 2010.06.25/outbox.cif.g09.slc.cpg/sg12_161_cif.got.tgz:320107.got - 2010.06.28 00:19:55.
