data_PCOD8085557
_publ_section_title
;
Structure prediction by ZEFSAII (Michael W. Deem and Ramdas Pophale) SiO2 
 PCOD8085557
Probable space group: C 2/M
;
_chemical_formula_sum "Si O2"
_cell_formula_units_Z 56
_cell_length_a 29.634104
_cell_length_b 13.165152
_cell_length_c 25.014776
_cell_angle_alpha 90.000000
_cell_angle_beta 160.520833
_cell_angle_gamma 90.000000
_cell_volume 3254.343320
_symmetry_space_group_name_H-M "C 2/M"
_symmetry_group_IT_number 12
_symmetry_cell_setting 'monoclinic'
loop_
_space_group_symop_operation_xyz
x,y,z
-x,y,-z
-x,-y,-z
x,-y,z
1/2+x,1/2+y,z
1/2-x,1/2+y,-z
1/2-x,1/2-y,-z
1/2+x,1/2-y,z
loop_
_atom_site_type_symbol
_atom_site_label
_atom_site_fract_x
_atom_site_fract_y
_atom_site_fract_z
Si Si1 0.087111 0.619903 0.649709
Si Si2 0.859251 0.118615 0.903586
Si Si3 0.828082 0.618112 0.044763
Si Si4 0.156063 0.119251 0.232377
Si Si5 0.807538 0.256235 0.483640
Si Si6 0.623824 0.881721 0.339283
Si Si7 0.091730 0.265457 0.763062
O O1 0.070417 0.500000 0.642202
O O2 0.242586 0.653912 0.813500
O O3 0.045969 0.681667 0.656551
O O4 0.000000 0.650780 0.500000
O O5 0.839114 0.164529 0.822070
O O6 0.846565 0.000000 0.879830
O O7 0.008025 0.144020 0.092638
O O8 0.790590 0.500000 0.002274
O O9 0.849960 0.650243 0.130904
O O10 0.962778 0.639733 0.160007
O O11 0.704479 0.679126 0.879798
O O12 0.270046 0.178916 0.390428
O O13 0.188523 0.000000 0.271214
O O14 0.698240 0.166692 0.370763
O O15 0.804428 0.334222 0.529172
O O16 0.958573 0.213515 0.640946
O O17 0.654976 0.000000 0.373960
#
# Coordination Sequence:
#
# PCOD8085557 Si02
#       7
#     8   8   8   8   8   8   8
#     4  10  19  30  47  73 106 136 162 198 246 299
#     4   8  16  28  42  67  98 129 161 192 232 284
#     4   9  19  36  53  70  98 135 167 205 248 289
#     4   9  16  28  46  68  99 131 159 192 236 288
#     4  10  19  30  49  73  96 127 160 197 244 282
#     4   9  19  34  49  69  96 125 164 203 240 287
#     4  10  20  32  51  77 102 129 168 202 243 301
#
# _framework density 17.207773
#
# number of rings (size 3 to 8) (size 9 to 14) (size 15 to 20)
#    0.000    2.714    0.000    2.571    2.000    3.429 
#    0.000    0.000    0.000    0.429    0.000    3.000 
#    0.000    0.000    0.000    0.000    0.000    0.000 
#
# Total GULP energy -347032.368017 kJ/mol
# GULP energy per Si atom -12394.013143 kJ/mol
# Density = 1.716861 g / cm^3
# Si number density = 17.207773 Si / 1000 Ang^3
#
#
#
# Elastic Constant Matrix: (Units=GPa)
#
#
# Indices 1 2 3 4 5 6 
#
# 1 76.3590 37.7276 33.3940 -0.0007 11.7822 -0.0004
# 2 37.7276 81.8622 42.4071 -0.0001 12.2937 -0.0001
# 3 33.3940 42.4071 80.1555 -0.0023 9.5648 -0.0016
# 4 -0.0007 -0.0001 -0.0023 25.5349 -0.0016 1.8982
# 5 11.7822 12.2937 9.5648 -0.0016 30.2100 -0.0009
# 6 -0.0004 -0.0001 -0.0016 1.8982 -0.0009 21.8738
#
#
#
# Elastic Compliance Matrix: (Units=1/GPa)
#
#
# Indices 1 2 3 4 5 6 
#
# 1 0.018296 -0.005753 -0.004164 0.000000 -0.003476 0.000000
# 2 -0.005753 0.019162 -0.007356 -0.000001 -0.003225 -0.000001
# 3 -0.004164 -0.007356 0.018241 0.000001 -0.001158 0.000001
# 4 0.000000 -0.000001 0.000001 0.039416 0.000002 -0.003420
# 5 -0.003476 -0.003225 -0.001158 0.000002 0.036136 0.000001
# 6 0.000000 -0.000001 0.000001 -0.003420 0.000001 0.046014
#
#
# Mechanical properties :
#
#
# Convention : Reuss Voigt Hill
#
# Bulk Modulus (GPa) = 47.27625 51.71491 49.49558
# Shear Modulus (GPa) = 22.84549 23.84695 23.34622
#
# Velocity S-wave (km/s) = 3.64761 3.72670 3.68737
# Velocity P-wave (km/s) = 6.72856 6.97397 6.85236
#
# Compressibility (1/GPa) = 0.02115227
#
# Stress axis : x y z
#
# Youngs Moduli (GPa) = 54.65742 52.18636 54.82294
#
# Poissons Ratio (x) = 0.30022 0.22828
# Poissons Ratio (y) = 0.31444 0.40329
# Poissons Ratio (z) = 0.22759 0.38390
#
# Static dielectric constant tensor:
#      x y z
#    x 3.464190 0.000000 0.391420 
#    y 0.000000 2.874020 0.000000 
#    z 0.391420 0.000000 3.355370 
# 
# 
# High freq. dielectric constant tensor:
#      x y z
#    x 1.663670 0.000000 0.019190 
#    y 0.000000 1.622430 0.000000 
#    z 0.019190 0.000000 1.671500 
# 
# From -- ./inp_files/353984.got.cif
#   From: 2010.06.25/outbox.cif.g09.slc.cpg/sg12_177_cif.got.tgz:353984.got - 2010.06.28 00:19:55.
