data_PCOD8085511
_publ_section_title
;
Structure prediction by ZEFSAII (Michael W. Deem and Ramdas Pophale) SiO2 
 PCOD8085511
Probable space group: C 2/M
;
_chemical_formula_sum "Si O2"
_cell_formula_units_Z 64
_cell_length_a 16.637966
_cell_length_b 13.873507
_cell_length_c 15.572020
_cell_angle_alpha 90.000000
_cell_angle_beta 94.204776
_cell_angle_gamma 90.000000
_cell_volume 3584.766780
_symmetry_space_group_name_H-M "C 2/M"
_symmetry_group_IT_number 12
_symmetry_cell_setting 'monoclinic'
loop_
_space_group_symop_operation_xyz
x,y,z
-x,y,-z
-x,-y,-z
x,-y,z
1/2+x,1/2+y,z
1/2-x,1/2+y,-z
1/2-x,1/2-y,-z
1/2+x,1/2-y,z
loop_
_atom_site_type_symbol
_atom_site_label
_atom_site_fract_x
_atom_site_fract_y
_atom_site_fract_z
Si Si1 0.998255 0.390869 0.141460
Si Si2 0.056722 0.782143 0.427499
Si Si3 0.825198 0.387703 0.873514
Si Si4 0.365720 0.891229 0.470759
Si Si5 0.169331 0.387957 0.931947
Si Si6 0.937376 0.683991 0.307615
Si Si7 0.769889 0.274089 0.218482
Si Si8 0.702816 0.388894 0.368057
O O1 0.009731 0.500000 0.112934
O O2 0.923074 0.346950 0.081392
O O3 0.976643 0.384778 0.240026
O O4 0.084706 0.342133 0.129144
O O5 0.102610 0.682879 0.455572
O O6 0.119881 0.864725 0.409381
O O7 0.000000 0.819526 0.500000
O O8 0.001592 0.765050 0.339680
O O9 0.821654 0.500000 0.846447
O O10 0.765409 0.331074 0.805519
O O11 0.796994 0.373116 0.969715
O O12 0.417056 0.882347 0.387539
O O13 0.273072 0.867382 0.442228
O O14 0.375698 0.000000 0.507044
O O15 0.167744 0.500000 0.905234
O O16 0.227808 0.334848 0.869640
O O17 0.858631 0.738380 0.265250
O O18 0.712309 0.326529 0.282480
O O19 0.703977 0.500000 0.340286
#
# Coordination Sequence:
#
# PCOD8085511 Si02
#       8
#     8   8   8   8   8   8   8   8
#     4   9  16  27  45  70  99 126 155 194 239 285
#     4  10  20  33  50  72  98 126 157 195 238 284
#     4  10  19  30  47  72 101 129 156 192 240 288
#     4   9  18  32  52  76  99 123 153 194 241 285
#     4   9  17  30  49  73  97 124 159 197 239 283
#     4   9  18  30  47  70  97 129 163 195 229 274
#     4  10  19  33  50  69  96 128 163 199 233 276
#     4  10  20  35  53  71  93 124 162 200 235 277
#
# _framework density 17.853323
#
# number of rings (size 3 to 8) (size 9 to 14) (size 15 to 20)
#    0.000    2.500    0.000    2.625    0.000    7.500 
#    0.000    1.250    0.000    4.500    0.000    0.000 
#    0.000   13.000    0.000    0.000    0.000    0.000 
#
# Total GULP energy -396732.420811 kJ/mol
# GULP energy per Si atom -12397.888150 kJ/mol
# Density = 1.781269 g / cm^3
# Si number density = 17.853323 Si / 1000 Ang^3
#
#
#
# Elastic Constant Matrix: (Units=GPa)
#
#
# Indices 1 2 3 4 5 6 
#
# 1 91.6555 36.1953 31.3579 0.0000 -5.0228 0.0000
# 2 36.1953 63.2261 36.2822 0.0000 3.5676 0.0000
# 3 31.3579 36.2822 71.3342 0.0000 5.8398 0.0000
# 4 0.0000 0.0000 0.0000 24.1366 0.0000 -0.8767
# 5 -5.0228 3.5676 5.8398 0.0000 21.5152 0.0000
# 6 0.0000 0.0000 0.0000 -0.8767 0.0000 23.9860
#
#
#
# Elastic Compliance Matrix: (Units=1/GPa)
#
#
# Indices 1 2 3 4 5 6 
#
# 1 0.015203 -0.006950 -0.003613 0.000000 0.005682 0.000000
# 2 -0.006950 0.025521 -0.009661 0.000000 -0.003232 0.000000
# 3 -0.003613 -0.009661 0.020923 0.000000 -0.004921 0.000000
# 4 0.000000 0.000000 0.000000 0.041486 0.000000 0.001516
# 5 0.005682 -0.003232 -0.004921 0.000000 0.049677 0.000000
# 6 0.000000 0.000000 0.000000 0.001516 0.000000 0.041746
#
#
# Mechanical properties :
#
#
# Convention : Reuss Voigt Hill
#
# Bulk Modulus (GPa) = 47.17224 48.20962 47.69093
# Shear Modulus (GPa) = 20.65506 22.08626 21.37066
#
# Velocity S-wave (km/s) = 3.40506 3.52105 3.46354
# Velocity P-wave (km/s) = 6.47601 6.60244 6.53953
#
# Compressibility (1/GPa) = 0.02119891
#
# Stress axis : x y z
#
# Youngs Moduli (GPa) = 65.77781 39.18271 47.79356
#
# Poissons Ratio (x) = 0.27234 0.17268
# Poissons Ratio (y) = 0.45719 0.46172
# Poissons Ratio (z) = 0.23765 0.37854
#
# Static dielectric constant tensor:
#      x y z
#    x 3.443130 0.000000 0.037210 
#    y 0.000000 2.977590 0.000000 
#    z 0.037210 0.000000 3.293800 
# 
# 
# High freq. dielectric constant tensor:
#      x y z
#    x 1.694950 0.000000 -0.001730 
#    y 0.000000 1.656160 0.000000 
#    z -0.001730 0.000000 1.692730 
# 
# From -- ./inp_files/224840.got.cif
#   From: 2010.06.25/outbox.cif.g09.slc.cpg/sg12_113_cif.got.tgz:224840.got - 2010.06.28 00:19:55.
