data_PCOD8085408
_publ_section_title
;
Structure prediction by ZEFSAII (Michael W. Deem and Ramdas Pophale) SiO2 
 PCOD8085408
Probable space group: C 2/M
;
_chemical_formula_sum "Si O2"
_cell_formula_units_Z 48
_cell_length_a 26.895957
_cell_length_b 9.198858
_cell_length_c 11.770727
_cell_angle_alpha 90.000000
_cell_angle_beta 72.535546
_cell_angle_gamma 90.000000
_cell_volume 2777.976488
_symmetry_space_group_name_H-M "C 2/M"
_symmetry_group_IT_number 12
_symmetry_cell_setting 'monoclinic'
loop_
_space_group_symop_operation_xyz
x,y,z
-x,y,-z
-x,-y,-z
x,-y,z
1/2+x,1/2+y,z
1/2-x,1/2+y,-z
1/2-x,1/2-y,-z
1/2+x,1/2-y,z
loop_
_atom_site_type_symbol
_atom_site_label
_atom_site_fract_x
_atom_site_fract_y
_atom_site_fract_z
Si Si1 0.395362 0.666025 0.746053
Si Si2 0.925104 0.665183 0.268853
Si Si3 0.445359 0.665964 0.482333
Si Si4 0.958100 0.665589 0.875862
Si Si5 0.303586 0.332881 0.965916
Si Si6 0.887674 0.829346 0.093094
O O1 0.407162 0.500000 0.777316
O O2 0.399280 0.679975 0.607516
O O3 0.438847 0.770935 0.769072
O O4 0.338330 0.710822 0.831867
O O5 0.905627 0.500000 0.295256
O O6 0.928781 0.732850 0.390769
O O7 0.883996 0.754289 0.219545
O O8 0.979821 0.671616 0.165911
O O9 0.500000 0.716958 0.500000
O O10 0.450919 0.500000 0.435505
O O11 0.938393 0.500000 0.904217
O O12 0.936629 0.763499 0.992190
O O13 0.288810 0.500000 0.972030
O O14 0.250000 0.250000 0.000000
O O15 0.335055 0.295088 0.059367
O O16 0.896640 0.000000 0.102372
#
# Coordination Sequence:
#
# PCOD8085408 Si02
#       6
#     8   8   8   8   8   8
#     4   9  18  33  51  75 103 133 174 211 243 294
#     4  11  22  32  46  72 107 140 170 207 251 296
#     4  10  19  32  52  73 100 142 181 206 238 292
#     4  10  19  30  46  71 104 137 168 206 251 296
#     4   9  19  35  56  79 100 124 160 212 263 305
#     4  10  21  35  51  72  99 132 172 211 251 303
#
# _framework density 17.278763999999999
#
# number of rings (size 3 to 8) (size 9 to 14) (size 15 to 20)
#    0.000    2.167    1.667    3.000    0.000    8.333 
#    0.000    0.000    0.000    1.000    0.000    0.000 
#    0.000    0.000    0.000    0.000    0.000    0.000 
#
# Total GULP energy -297576.366873 kJ/mol
# GULP energy per Si atom -12399.015286 kJ/mol
# Density = 1.723944 g / cm^3
# Si number density = 17.278764 Si / 1000 Ang^3
#
#
#
# Elastic Constant Matrix: (Units=GPa)
#
#
# Indices 1 2 3 4 5 6 
#
# 1 80.5643 52.0368 49.6769 0.0000 1.9549 0.0000
# 2 52.0368 110.8222 57.4967 0.0000 14.0992 0.0000
# 3 49.6769 57.4967 98.8532 0.0000 16.9612 0.0000
# 4 0.0000 0.0000 0.0000 25.9530 0.0000 0.4454
# 5 1.9549 14.0992 16.9612 0.0000 23.3083 0.0000
# 6 0.0000 0.0000 0.0000 0.4454 0.0000 27.1371
#
#
#
# Elastic Compliance Matrix: (Units=1/GPa)
#
#
# Indices 1 2 3 4 5 6 
#
# 1 0.021913 -0.007020 -0.008390 0.000000 0.008514 0.000000
# 2 -0.007020 0.015320 -0.004450 0.000000 -0.005440 0.000000
# 3 -0.008390 -0.004450 0.018669 0.000000 -0.010190 0.000000
# 4 0.000000 0.000000 0.000000 0.038542 0.000000 -0.000633
# 5 0.008514 -0.005440 -0.010190 0.000000 0.052895 0.000000
# 6 0.000000 0.000000 0.000000 -0.000633 0.000000 0.036860
#
#
# Mechanical properties :
#
#
# Convention : Reuss Voigt Hill
#
# Bulk Modulus (GPa) = 61.79146 67.62895 64.71020
# Shear Modulus (GPa) = 21.80427 24.01496 22.90962
#
# Velocity S-wave (km/s) = 3.55619 3.73212 3.64522
# Velocity P-wave (km/s) = 7.25956 7.60240 7.43296
#
# Compressibility (1/GPa) = 0.01618347
#
# Stress axis : x y z
#
# Youngs Moduli (GPa) = 45.63454 65.27269 53.56542
#
# Poissons Ratio (x) = 0.45819 0.44941
# Poissons Ratio (y) = 0.32034 0.23836
# Poissons Ratio (z) = 0.38287 0.29045
#
# Static dielectric constant tensor:
#      x y z
#    x 2.952590 0.000000 0.106880 
#    y 0.000000 3.350350 0.000000 
#    z 0.106880 0.000000 3.263820 
# 
# 
# High freq. dielectric constant tensor:
#      x y z
#    x 1.632210 0.000000 0.013170 
#    y 0.000000 1.676870 0.000000 
#    z 0.013170 0.000000 1.665150 
# 
# From -- ./inp_files/172052.got.cif
#   From: 2010.06.25/outbox.cif.g09.slc.cpg/sg12_87_cif.got.tgz:172052.got - 2010.06.28 00:19:55.
