data_PCOD8085917
_publ_section_title
;
Structure prediction by ZEFSAII (Michael W. Deem and Ramdas Pophale) SiO2 
 PCOD8085917
Probable space group: C 2/M
;
_chemical_formula_sum "Si O2"
_cell_formula_units_Z 64
_cell_length_a 28.739419
_cell_length_b 9.539357
_cell_length_c 19.774111
_cell_angle_alpha 90.000000
_cell_angle_beta 46.605354
_cell_angle_gamma 90.000000
_cell_volume 3939.242178
_symmetry_space_group_name_H-M "C 2/M"
_symmetry_group_IT_number 12
_symmetry_cell_setting 'monoclinic'
loop_
_space_group_symop_operation_xyz
x,y,z
-x,y,-z
-x,-y,-z
x,-y,z
1/2+x,1/2+y,z
1/2-x,1/2+y,-z
1/2-x,1/2-y,-z
1/2+x,1/2-y,z
loop_
_atom_site_type_symbol
_atom_site_label
_atom_site_fract_x
_atom_site_fract_y
_atom_site_fract_z
Si Si1 0.482655 0.666428 0.336592
Si Si2 0.871567 0.839011 0.958797
Si Si3 0.323313 0.835769 0.129167
Si Si4 0.818906 0.834333 0.725535
Si Si5 0.562754 0.667010 0.476966
Si Si6 0.375099 0.333563 0.806409
Si Si7 0.522995 0.338903 0.806624
Si Si8 0.559795 0.835468 0.894495
O O1 0.487622 0.500000 0.331504
O O2 0.438969 0.718504 0.442931
O O3 0.553800 0.728348 0.276371
O O4 0.455392 0.712095 0.290263
O O5 0.849274 0.788690 0.906164
O O6 0.947376 0.818619 0.890368
O O7 0.852812 0.000000 0.991123
O O8 0.834991 0.742304 0.047645
O O9 0.252625 0.793546 0.226804
O O10 0.374799 0.791187 0.133766
O O11 0.328310 0.000000 0.108438
O O12 0.872396 0.770795 0.621389
O O13 0.830092 0.777008 0.790894
O O14 0.827404 0.000000 0.717736
O O15 0.500000 0.722869 0.500000
O O16 0.563248 0.500000 0.473155
O O17 0.379618 0.500000 0.800902
O O18 0.542295 0.500000 0.799925
O O19 0.560025 0.243806 0.823234
O O20 0.556204 0.000000 0.883446
O O21 0.500000 0.786887 0.000000
#
# Coordination Sequence:
#
# PCOD8085917 Si02
#       8
#     8   8   8   8   8   8   8   8
#     4   8  13  22  38  64  93 112 132 172 221 260
#     4   9  17  28  43  63  88 117 145 173 211 259
#     4  10  20  31  42  61  89 117 147 183 217 249
#     4   9  16  25  39  61  89 119 145 172 212 259
#     4   9  13  20  39  65  91 116 139 168 214 264
#     4   8  13  23  38  59  88 116 140 170 210 255
#     4   9  17  28  45  68  89 109 140 183 222 255
#     4  10  19  31  45  60  83 117 152 185 217 250
#
# _framework density 16.246779
#
# number of rings (size 3 to 8) (size 9 to 14) (size 15 to 20)
#    0.000    3.000    2.500    1.500    0.000    1.250 
#    0.000    0.000    0.000    0.750    0.000    0.875 
#    0.000    1.000    0.000    0.000    0.000    0.000 
#
# Total GULP energy -396540.681499 kJ/mol
# GULP energy per Si atom -12391.896297 kJ/mol
# Density = 1.620980 g / cm^3
# Si number density = 16.246779 Si / 1000 Ang^3
#
#
#
# Elastic Constant Matrix: (Units=GPa)
#
#
# Indices 1 2 3 4 5 6 
#
# 1 120.1642 24.4017 76.6303 0.0236 6.6616 0.1119
# 2 24.4017 18.4701 25.9945 0.0030 3.5318 0.0720
# 3 76.6303 25.9945 126.4335 0.0347 10.0266 0.1095
# 4 0.0236 0.0030 0.0347 10.4703 -0.0050 -0.0154
# 5 6.6616 3.5318 10.0266 -0.0050 26.0194 -0.0156
# 6 0.1119 0.0720 0.1095 -0.0154 -0.0156 6.0536
#
#
#
# Elastic Compliance Matrix: (Units=1/GPa)
#
#
# Indices 1 2 3 4 5 6 
#
# 1 0.014702 -0.009710 -0.006932 -0.000007 0.000225 -0.000030
# 2 -0.009710 0.083103 -0.010834 0.000031 -0.004620 -0.000624
# 3 -0.006932 -0.010834 0.014525 -0.000031 -0.002352 -0.000012
# 4 -0.000007 0.000031 -0.000031 0.095509 0.000028 0.000243
# 5 0.000225 -0.004620 -0.002352 0.000028 0.039909 0.000197
# 6 -0.000030 -0.000624 -0.000012 0.000243 0.000197 0.165201
#
#
# Mechanical properties :
#
#
# Convention : Reuss Voigt Hill
#
# Bulk Modulus (GPa) = 17.42834 57.68009 37.55421
# Shear Modulus (GPa) = 10.26636 17.71140 13.98888
#
# Velocity S-wave (km/s) = 2.51649 3.30532 2.93751
# Velocity P-wave (km/s) = 4.38112 7.08141 5.88815
#
# Compressibility (1/GPa) = 0.05737782
#
# Stress axis : x y z
#
# Youngs Moduli (GPa) = 68.01718 12.03321 68.84789
#
# Poissons Ratio (x) = 0.11685 0.47727
# Poissons Ratio (y) = 0.66047 0.74587
# Poissons Ratio (z) = 0.47151 0.13036
#
# Static dielectric constant tensor:
#      x y z
#    x 3.147420 -0.000040 0.142920 
#    y -0.000040 2.577660 0.000020 
#    z 0.142920 0.000020 3.291130 
# 
# 
# High freq. dielectric constant tensor:
#      x y z
#    x 1.619010 0.000000 0.014550 
#    y 0.000000 1.569200 0.000000 
#    z 0.014550 0.000000 1.621380 
# 
# From -- ./inp_files/292734.got.cif
#   From: 2010.06.25/outbox.cif.g09.slc.cpg/sg12_147_cif.got.tgz:292734.got - 2010.06.28 00:19:55.
