data_PCOD8085393
_publ_section_title
;
Structure prediction by ZEFSAII (Michael W. Deem and Ramdas Pophale) SiO2 
 PCOD8085393
Probable space group: C 2/M
;
_chemical_formula_sum "Si O2"
_cell_formula_units_Z 56
_cell_length_a 17.868932
_cell_length_b 9.273749
_cell_length_c 19.996905
_cell_angle_alpha 90.000000
_cell_angle_beta 116.848090
_cell_angle_gamma 90.000000
_cell_volume 2956.530591
_symmetry_space_group_name_H-M "C 2/M"
_symmetry_group_IT_number 12
_symmetry_cell_setting 'monoclinic'
loop_
_space_group_symop_operation_xyz
x,y,z
-x,y,-z
-x,-y,-z
x,-y,z
1/2+x,1/2+y,z
1/2-x,1/2+y,-z
1/2-x,1/2-y,-z
1/2+x,1/2-y,z
loop_
_atom_site_type_symbol
_atom_site_label
_atom_site_fract_x
_atom_site_fract_y
_atom_site_fract_z
Si Si1 0.076426 0.337024 0.479643
Si Si2 0.569547 0.662838 0.934762
Si Si3 0.023712 0.668748 0.793905
Si Si4 0.121350 0.161371 0.096598
Si Si5 0.178396 0.164813 0.619654
Si Si6 0.663316 0.167078 0.235424
Si Si7 0.027551 0.165977 0.661679
O O1 0.099644 0.500000 0.467461
O O2 0.156480 0.262975 0.546907
O O3 0.000000 0.336928 0.500000
O O4 0.051649 0.245987 0.404180
O O5 0.593905 0.500000 0.922879
O O6 0.581494 0.772501 0.877949
O O7 0.474064 0.665875 0.919021
O O8 0.626530 0.713561 0.021078
O O9 0.041176 0.500000 0.791670
O O10 0.926283 0.701950 0.768498
O O11 0.051015 0.754282 0.739370
O O12 0.175978 0.259849 0.168018
O O13 0.157082 0.000000 0.116297
O O14 0.265850 0.223132 0.684918
O O15 0.108220 0.177860 0.647788
O O16 0.186034 0.000000 0.598041
O O17 0.676304 0.000000 0.226923
O O18 0.003046 0.000000 0.665261
#
# Coordination Sequence:
#
# PCOD8085393 Si02
#       7
#     8   8   8   8   8   8   8
#     4   9  17  30  49  72  94 116 149 193 232 267
#     4   8  14  26  43  64  91 122 155 188 224 269
#     4  10  19  30  46  70  98 123 150 189 233 273
#     4   8  14  25  43  66  91 120 154 190 225 267
#     4   9  18  33  51  70  92 121 156 188 224 273
#     4   9  18  31  47  69  97 124 150 187 232 274
#     4  10  19  32  51  70  91 122 156 189 225 271
#
# _framework density 18.941119
#
# number of rings (size 3 to 8) (size 9 to 14) (size 15 to 20)
#    0.000    3.000    0.000    2.143    0.000    4.000 
#    0.000    3.571    0.000    0.857    0.000    0.000 
#    0.000    0.000    0.000    0.000    0.000    0.000 
#
# Total GULP energy -347106.078447 kJ/mol
# GULP energy per Si atom -12396.645659 kJ/mol
# Density = 1.889801 g / cm^3
# Si number density = 18.941119 Si / 1000 Ang^3
#
#
#
# Elastic Constant Matrix: (Units=GPa)
#
#
# Indices 1 2 3 4 5 6 
#
# 1 6.8396 6.3519 -2.1005 0.0000 0.8333 0.0000
# 2 6.3519 90.7277 20.3033 0.0000 -12.1708 0.0000
# 3 -2.1005 20.3033 35.6896 0.0000 -14.4304 0.0000
# 4 0.0000 0.0000 0.0000 43.3270 0.0000 -3.1452
# 5 0.8333 -12.1708 -14.4304 0.0000 23.6375 0.0000
# 6 0.0000 0.0000 0.0000 -3.1452 0.0000 15.2674
#
#
#
# Elastic Compliance Matrix: (Units=1/GPa)
#
#
# Indices 1 2 3 4 5 6 
#
# 1 0.166967 -0.016086 0.017592 0.000000 -0.003429 0.000000
# 2 -0.016086 0.014322 -0.007812 0.000000 0.003172 0.000000
# 3 0.017592 -0.007812 0.041985 0.000000 0.020989 0.000000
# 4 0.000000 0.000000 0.000000 0.023431 0.000000 0.004827
# 5 -0.003429 0.003172 0.020989 0.000000 0.056874 0.000000
# 6 0.000000 0.000000 0.000000 0.004827 0.000000 0.066494
#
#
# Mechanical properties :
#
#
# Convention : Reuss Voigt Hill
#
# Bulk Modulus (GPa) = 4.74694 20.26291 12.50493
# Shear Modulus (GPa) = 11.03985 23.69318 17.36652
#
# Velocity S-wave (km/s) = 2.41685 3.54062 3.03127
# Velocity P-wave (km/s) = 3.20933 5.23792 4.34371
#
# Compressibility (1/GPa) = 0.21066192
#
# Stress axis : x y z
#
# Youngs Moduli (GPa) = 5.98921 69.82331 23.81795
#
# Poissons Ratio (x) = 1.12319 -0.41900
# Poissons Ratio (y) = 0.09634 0.18606
# Poissons Ratio (z) = -0.10536 0.54543
#
# Static dielectric constant tensor:
#      x y z
#    x 2.966000 0.000000 0.019730 
#    y 0.000000 3.592130 0.000000 
#    z 0.019730 0.000000 3.841260 
# 
# 
# High freq. dielectric constant tensor:
#      x y z
#    x 1.680200 0.000000 -0.002870 
#    y 0.000000 1.738120 0.000000 
#    z -0.002870 0.000000 1.751070 
# 
# From -- ./inp_files/287383.got.cif
#   From: 2010.06.25/outbox.cif.g09.slc.cpg/sg12_144_cif.got.tgz:287383.got - 2010.06.28 00:19:55.
