data_PCOD8085577
_publ_section_title
;
Structure prediction by ZEFSAII (Michael W. Deem and Ramdas Pophale) SiO2 
 PCOD8085577
Probable space group: C 2/M
;
_chemical_formula_sum "Si O2"
_cell_formula_units_Z 64
_cell_length_a 9.075195
_cell_length_b 27.678012
_cell_length_c 13.179620
_cell_angle_alpha 90.000000
_cell_angle_beta 112.870023
_cell_angle_gamma 90.000000
_cell_volume 3050.258939
_symmetry_space_group_name_H-M "C 2/M"
_symmetry_group_IT_number 12
_symmetry_cell_setting 'monoclinic'
loop_
_space_group_symop_operation_xyz
x,y,z
-x,y,-z
-x,-y,-z
x,-y,z
1/2+x,1/2+y,z
1/2-x,1/2+y,-z
1/2-x,1/2-y,-z
1/2+x,1/2-y,z
loop_
_atom_site_type_symbol
_atom_site_label
_atom_site_fract_x
_atom_site_fract_y
_atom_site_fract_z
Si Si1 0.420857 0.213662 0.681587
Si Si2 0.426964 0.445516 0.241827
Si Si3 0.137564 0.555110 0.307070
Si Si4 0.743378 0.054476 0.559625
Si Si5 0.073807 0.244447 0.919560
Si Si6 0.608033 0.877455 0.688193
Si Si7 0.964238 0.853412 0.802713
Si Si8 0.552001 0.695056 0.621415
O O1 0.528822 0.224431 0.809408
O O2 0.485486 0.166873 0.639626
O O3 0.441491 0.257690 0.609114
O O4 0.239569 0.208062 0.671302
O O5 0.420474 0.500000 0.195153
O O6 0.261223 0.431982 0.251656
O O7 0.571192 0.441026 0.361038
O O8 0.457039 0.406681 0.158770
O O9 0.083275 0.500000 0.285294
O O10 0.225006 0.566950 0.436691
O O11 0.977446 0.587408 0.252250
O O12 0.633355 0.091936 0.592368
O O13 0.682242 0.000000 0.566498
O O14 0.033114 0.187659 0.893721
O O15 0.250000 0.250000 0.000000
O O16 0.000000 0.266917 0.000000
O O17 0.775106 0.856481 0.773439
O O18 0.007398 0.842662 0.696674
O O19 0.500000 0.672414 0.500000
#
# Coordination Sequence:
#
# PCOD8085577 Si02
#       8
#     8   8   8   8   8   8   8   8
#     4  11  23  39  56  84 112 140 192 237 280 353
#     4   9  18  33  53  76 110 153 190 238 294 331
#     4  10  19  30  47  75 109 154 209 246 272 319
#     4   9  18  31  47  72 109 155 207 250 278 317
#     4  11  22  41  67  87 107 138 178 241 307 346
#     4  11  21  32  49  72 111 148 180 236 288 323
#     4  10  22  38  55  85 116 145 193 233 275 351
#     4  11  23  38  55  76 115 159 189 224 273 332
#
# _framework density 20.981826000000002
#
# number of rings (size 3 to 8) (size 9 to 14) (size 15 to 20)
#    0.000    1.750    0.000    6.000    0.000    9.000 
#    0.000    0.000    0.000    0.375    0.000    1.750 
#    0.000   11.500    0.000    0.000    0.000    0.000 
#
# Total GULP energy -396615.681910 kJ/mol
# GULP energy per Si atom -12394.240060 kJ/mol
# Density = 2.093407 g / cm^3
# Si number density = 20.981826 Si / 1000 Ang^3
#
#
#
# Elastic Constant Matrix: (Units=GPa)
#
#
# Indices 1 2 3 4 5 6 
#
# 1 126.1343 33.3540 6.7936 0.0000 22.3961 0.0000
# 2 33.3540 99.3389 -1.5914 0.0000 7.8901 0.0000
# 3 6.7936 -1.5914 57.8207 0.0000 9.4753 0.0000
# 4 0.0000 0.0000 0.0000 13.8944 0.0000 4.8802
# 5 22.3961 7.8901 9.4753 0.0000 31.5165 0.0000
# 6 0.0000 0.0000 0.0000 4.8802 0.0000 45.0314
#
#
#
# Elastic Compliance Matrix: (Units=1/GPa)
#
#
# Indices 1 2 3 4 5 6 
#
# 1 0.009777 -0.002795 -0.000212 0.000000 -0.006184 0.000000
# 2 -0.002795 0.011100 0.000803 0.000000 -0.001034 0.000000
# 3 -0.000212 0.000803 0.018249 0.000000 -0.005537 0.000000
# 4 0.000000 0.000000 0.000000 0.074819 0.000000 -0.008108
# 5 -0.006184 -0.001034 -0.005537 0.000000 0.038047 0.000000
# 6 0.000000 0.000000 0.000000 -0.008108 0.000000 0.023085
#
#
# Mechanical properties :
#
#
# Convention : Reuss Voigt Hill
#
# Bulk Modulus (GPa) = 28.80316 40.04513 34.42415
# Shear Modulus (GPa) = 26.17009 34.40433 30.28721
#
# Velocity S-wave (km/s) = 3.53551 4.05374 3.80346
# Velocity P-wave (km/s) = 5.51579 6.40605 5.97751
#
# Compressibility (1/GPa) = 0.03471842
#
# Stress axis : x y z
#
# Youngs Moduli (GPa) = 102.28596 90.09050 54.79680
#
# Poissons Ratio (x) = 0.25178 0.01163
# Poissons Ratio (y) = 0.28587 -0.04402
# Poissons Ratio (z) = 0.02171 -0.07238
#
# Static dielectric constant tensor:
#      x y z
#    x 3.986540 0.000000 0.112780 
#    y 0.000000 4.182620 0.000000 
#    z 0.112780 0.000000 3.226230 
# 
# 
# High freq. dielectric constant tensor:
#      x y z
#    x 1.846030 0.000000 0.008640 
#    y 0.000000 1.839650 0.000000 
#    z 0.008640 0.000000 1.762530 
# 
# From -- ./inp_files/200964.got.cif
#   From: 2010.06.25/outbox.cif.g09.slc.cpg/sg12_101_cif.got.tgz:200964.got - 2010.06.28 00:19:55.
