data_PCOD8085206
_publ_section_title
;
Structure prediction by ZEFSAII (Michael W. Deem and Ramdas Pophale) SiO2 
 PCOD8085206
Probable space group: C 2/M
;
_chemical_formula_sum "Si O2"
_cell_formula_units_Z 56
_cell_length_a 19.190341
_cell_length_b 14.404389
_cell_length_c 20.616089
_cell_angle_alpha 90.000000
_cell_angle_beta 145.361231
_cell_angle_gamma 90.000000
_cell_volume 3239.204236
_symmetry_space_group_name_H-M "C 2/M"
_symmetry_group_IT_number 12
_symmetry_cell_setting 'monoclinic'
loop_
_space_group_symop_operation_xyz
x,y,z
-x,y,-z
-x,-y,-z
x,-y,z
1/2+x,1/2+y,z
1/2-x,1/2+y,-z
1/2-x,1/2-y,-z
1/2+x,1/2-y,z
loop_
_atom_site_type_symbol
_atom_site_label
_atom_site_fract_x
_atom_site_fract_y
_atom_site_fract_z
Si Si1 0.154037 0.250147 0.984783
Si Si2 0.513917 0.893087 0.806067
Si Si3 0.735771 0.605566 0.566891
Si Si4 0.516086 0.393343 0.807137
Si Si5 0.944809 0.253872 0.527983
Si Si6 0.756680 0.605558 0.437652
Si Si7 0.393237 0.749739 0.225572
O O1 0.242566 0.248564 0.115722
O O2 0.250000 0.250000 0.000000
O O3 0.071772 0.343313 0.914234
O O4 0.069372 0.158269 0.912165
O O5 0.367986 0.885363 0.701421
O O6 0.557117 0.841065 0.773778
O O7 0.556964 0.000000 0.835793
O O8 0.689716 0.500000 0.529595
O O9 0.637463 0.661616 0.533346
O O10 0.740584 0.647268 0.497683
O O11 0.560092 0.500000 0.840073
O O12 0.369571 0.385865 0.698395
O O13 0.563536 0.343455 0.778299
O O14 0.860800 0.341847 0.478501
O O15 0.000000 0.266951 0.500000
O O16 0.057116 0.247768 0.663969
O O17 0.801214 0.500000 0.478342
#
# Coordination Sequence:
#
# PCOD8085206 Si02
#       7
#     8   8   8   8   8   8   8
#     4   8  17  27  42  73 104 124 155 202 246 299
#     4   9  16  29  52  75  95 123 161 209 252 286
#     4  10  19  33  55  76  96 129 172 213 249 291
#     4   9  16  29  52  75  95 123 161 209 252 286
#     4  12  23  34  50  73 107 141 163 200 253 300
#     4  10  19  33  55  76  96 129 172 213 249 291
#     4  10  19  30  44  71 105 130 162 198 241 301
#
# _framework density 17.288197
#
# number of rings (size 3 to 8) (size 9 to 14) (size 15 to 20)
#    0.000    2.571    2.857    2.143    0.000    5.714 
#    0.000    0.000    0.000    3.429    0.000    4.000 
#    0.000    0.000    0.000    0.000    0.000    0.000 
#
# Total GULP energy -347052.400037 kJ/mol
# GULP energy per Si atom -12394.728573 kJ/mol
# Density = 1.724885 g / cm^3
# Si number density = 17.288197 Si / 1000 Ang^3
#
#
#
# Elastic Constant Matrix: (Units=GPa)
#
#
# Indices 1 2 3 4 5 6 
#
# 1 37.0902 6.7167 15.3843 0.0000 1.0072 0.0000
# 2 6.7167 110.0823 33.2562 0.0000 6.1411 0.0000
# 3 15.3843 33.2562 119.9534 0.0000 11.6009 0.0000
# 4 0.0000 0.0000 0.0000 15.9997 0.0000 -0.9364
# 5 1.0072 6.1411 11.6009 0.0000 15.5162 0.0000
# 6 0.0000 0.0000 0.0000 -0.9364 0.0000 8.3459
#
#
#
# Elastic Compliance Matrix: (Units=1/GPa)
#
#
# Indices 1 2 3 4 5 6 
#
# 1 0.028542 -0.000726 -0.003566 0.000000 0.001100 0.000000
# 2 -0.000726 0.009992 -0.002478 0.000000 -0.002055 0.000000
# 3 -0.003566 -0.002478 0.010094 0.000000 -0.006334 0.000000
# 4 0.000000 0.000000 0.000000 0.062914 0.000000 0.007059
# 5 0.001100 -0.002055 -0.006334 0.000000 0.069926 0.000000
# 6 0.000000 0.000000 0.000000 0.007059 0.000000 0.120611
#
#
# Mechanical properties :
#
#
# Convention : Reuss Voigt Hill
#
# Bulk Modulus (GPa) = 28.50016 41.98226 35.24121
# Shear Modulus (GPa) = 15.27586 22.09030 18.68308
#
# Velocity S-wave (km/s) = 2.97577 3.57847 3.29094
# Velocity P-wave (km/s) = 5.32241 6.43509 5.90502
#
# Compressibility (1/GPa) = 0.03508752
#
# Stress axis : x y z
#
# Youngs Moduli (GPa) = 35.03629 100.08282 99.07277
#
# Poissons Ratio (x) = 0.07262 0.35327
# Poissons Ratio (y) = 0.02542 0.24554
# Poissons Ratio (z) = 0.12493 0.24804
#
# Static dielectric constant tensor:
#      x y z
#    x 2.645120 0.000000 0.316880 
#    y 0.000000 3.421820 0.000000 
#    z 0.316880 0.000000 4.063380 
# 
# 
# High freq. dielectric constant tensor:
#      x y z
#    x 1.598110 0.000000 0.029880 
#    y 0.000000 1.681320 0.000000 
#    z 0.029880 0.000000 1.685430 
# 
# From -- ./inp_files/277887.got.cif
#   From: 2010.06.25/outbox.cif.g09.slc.cpg/sg12_139_cif.got.tgz:277887.got - 2010.06.28 00:19:55.
