data_PCOD8085757
_publ_section_title
;
Structure prediction by ZEFSAII (Michael W. Deem and Ramdas Pophale) SiO2 
 PCOD8085757
Probable space group: C 2/M
;
_chemical_formula_sum "Si O2"
_cell_formula_units_Z 64
_cell_length_a 17.162979
_cell_length_b 13.912752
_cell_length_c 15.988188
_cell_angle_alpha 90.000000
_cell_angle_beta 105.627313
_cell_angle_gamma 90.000000
_cell_volume 3676.602684
_symmetry_space_group_name_H-M "C 2/M"
_symmetry_group_IT_number 12
_symmetry_cell_setting 'monoclinic'
loop_
_space_group_symop_operation_xyz
x,y,z
-x,y,-z
-x,-y,-z
x,-y,z
1/2+x,1/2+y,z
1/2-x,1/2+y,-z
1/2-x,1/2-y,-z
1/2+x,1/2-y,z
loop_
_atom_site_type_symbol
_atom_site_label
_atom_site_fract_x
_atom_site_fract_y
_atom_site_fract_z
Si Si1 0.954614 0.895581 0.900519
Si Si2 0.408841 0.704932 0.143699
Si Si3 0.816836 0.890208 0.971631
Si Si4 0.287018 0.889060 0.348662
Si Si5 0.837072 0.608360 0.175985
Si Si6 0.442423 0.391289 0.315021
Si Si7 0.874965 0.110581 0.603574
Si Si8 0.592110 0.740318 0.542162
O O1 0.864454 0.862720 0.899430
O O2 0.999880 0.813643 0.861338
O O3 0.953799 0.000000 0.852576
O O4 0.000000 0.910743 0.000000
O O5 0.406960 0.815572 0.173685
O O6 0.392819 0.636295 0.217877
O O7 0.340768 0.679836 0.054793
O O8 0.724074 0.880360 0.919521
O O9 0.838310 0.000000 0.003806
O O10 0.295948 0.865973 0.252718
O O11 0.195431 0.863129 0.350336
O O12 0.351887 0.831561 0.422769
O O13 0.305569 0.000000 0.371784
O O14 0.872798 0.500000 0.188416
O O15 0.424160 0.500000 0.334002
O O16 0.538246 0.373944 0.327194
O O17 0.406802 0.329972 0.379459
O O18 0.869333 0.182391 0.523802
O O19 0.866335 0.000000 0.570231
O O20 0.500000 0.775587 0.500000
#
# Coordination Sequence:
#
# PCOD8085757 Si02
#       8
#     8   8   8   8   8   8   8   8
#     4   8  15  27  46  73  99 119 148 197 247 285
#     4  11  18  30  49  74 102 129 166 198 244 290
#     4   9  18  32  51  76 102 128 159 203 249 292
#     4  10  20  35  51  72  99 132 172 204 234 283
#     4  10  21  34  48  69 101 135 169 203 238 282
#     4  10  19  30  49  78 104 126 154 198 252 303
#     4   9  19  33  53  75 100 130 158 198 252 302
#     4  10  19  34  52  75 102 127 160 200 248 298
#
# _framework density 17.407374999999998
#
# number of rings (size 3 to 8) (size 9 to 14) (size 15 to 20)
#    0.000    2.375    1.250    3.000    1.750    1.750 
#    0.000    0.000    0.000    3.375    0.000    1.750 
#    0.000    0.000    0.000    0.000    0.000    0.000 
#
# Total GULP energy -396588.596096 kJ/mol
# GULP energy per Si atom -12393.393628 kJ/mol
# Density = 1.736775 g / cm^3
# Si number density = 17.407375 Si / 1000 Ang^3
#
#
#
# Elastic Constant Matrix: (Units=GPa)
#
#
# Indices 1 2 3 4 5 6 
#
# 1 63.4788 48.7809 23.6796 0.0000 -15.4220 0.0000
# 2 48.7809 93.7308 42.2644 0.0000 -13.8343 0.0000
# 3 23.6796 42.2644 81.1596 0.0000 -7.8757 0.0000
# 4 0.0000 0.0000 0.0000 19.0603 0.0000 16.8436
# 5 -15.4220 -13.8343 -7.8757 0.0000 23.5085 0.0000
# 6 0.0000 0.0000 0.0000 16.8436 0.0000 -9.1334
#
#
#
# Elastic Compliance Matrix: (Units=1/GPa)
#
#
# Indices 1 2 3 4 5 6 
#
# 1 0.028633 -0.013069 -0.000488 0.000000 0.010930 0.000000
# 2 -0.013069 0.020767 -0.006871 0.000000 0.001346 0.000000
# 3 -0.000488 -0.006871 0.016143 0.000000 0.001045 0.000000
# 4 0.000000 0.000000 0.000000 0.019951 0.000000 0.036793
# 5 0.010930 0.001346 0.001045 0.000000 0.050850 0.000000
# 6 0.000000 0.000000 0.000000 0.036793 0.000000 -0.041635
#
#
# Mechanical properties :
#
#
# Convention : Reuss Voigt Hill
#
# Bulk Modulus (GPa) = 40.50472 51.97988 46.24230
# Shear Modulus (GPa) = 34.77180 14.93002 24.85091
#
# Velocity S-wave (km/s) = 4.47423 2.93180 3.78247
# Velocity P-wave (km/s) = 7.07183 6.43322 6.76007
#
# Compressibility (1/GPa) = 0.02468848
#
# Stress axis : x y z
#
# Youngs Moduli (GPa) = 34.92416 48.15307 61.94517
#
# Poissons Ratio (x) = 0.62929 0.03023
# Poissons Ratio (y) = 0.45641 0.42563
# Poissons Ratio (z) = 0.01705 0.33086
#
# Static dielectric constant tensor:
#      x y z
#    x 3.615200 0.000000 -0.150760 
#    y 0.000000 3.179430 0.000000 
#    z -0.150760 0.000000 3.269760 
# 
# 
# High freq. dielectric constant tensor:
#      x y z
#    x 1.655200 0.000000 -0.004760 
#    y 0.000000 1.660220 0.000000 
#    z -0.004760 0.000000 1.676720 
# 
# From -- ./inp_files/224821.got.cif
#   From: 2010.06.25/outbox.cif.g09.slc.cpg/sg12_113_cif.got.tgz:224821.got - 2010.06.28 00:19:55.
