data_PCOD8085808
_publ_section_title
;
Structure prediction by ZEFSAII (Michael W. Deem and Ramdas Pophale) SiO2 
 PCOD8085808
Probable space group: C 2/M
;
_chemical_formula_sum "Si O2"
_cell_formula_units_Z 64
_cell_length_a 12.568412
_cell_length_b 20.080621
_cell_length_c 18.909434
_cell_angle_alpha 90.000000
_cell_angle_beta 133.917621
_cell_angle_gamma 90.000000
_cell_volume 3437.734229
_symmetry_space_group_name_H-M "C 2/M"
_symmetry_group_IT_number 12
_symmetry_cell_setting 'monoclinic'
loop_
_space_group_symop_operation_xyz
x,y,z
-x,y,-z
-x,-y,-z
x,-y,z
1/2+x,1/2+y,z
1/2-x,1/2+y,-z
1/2-x,1/2-y,-z
1/2+x,1/2-y,z
loop_
_atom_site_type_symbol
_atom_site_label
_atom_site_fract_x
_atom_site_fract_y
_atom_site_fract_z
Si Si1 0.959127 0.818249 0.689639
Si Si2 0.650110 0.199800 0.610020
Si Si3 0.346679 0.717789 0.955442
Si Si4 0.588645 0.920944 0.252044
Si Si5 0.066521 0.423057 0.959922
Si Si6 0.096487 0.673724 0.740645
Si Si7 0.104810 0.851309 0.613233
Si Si8 0.659399 0.654480 0.907885
O O1 0.783626 0.824734 0.621358
O O2 0.003184 0.741329 0.704942
O O3 0.008717 0.856300 0.641177
O O4 0.034064 0.853984 0.791445
O O5 0.500000 0.185500 0.500000
O O6 0.642692 0.160376 0.680717
O O7 0.672478 0.277861 0.636026
O O8 0.248539 0.676798 0.854345
O O9 0.260543 0.782144 0.940070
O O10 0.500000 0.747151 0.000000
O O11 0.401212 0.666989 0.041769
O O12 0.508203 0.891862 0.144610
O O13 0.509136 0.885974 0.281924
O O14 0.761126 0.903297 0.324467
O O15 0.571442 0.000000 0.253281
O O16 0.028324 0.500000 0.940702
O O17 0.241873 0.411861 0.043389
O O18 0.000000 0.389890 0.000000
O O19 0.000000 0.870445 0.500000
#
# Coordination Sequence:
#
# PCOD8085808 Si02
#       8
#     8   8   8   8   8   8   8   8
#     4  10  20  35  55  86 117 144 180 236 290 338
#     4  10  21  34  59  86 112 149 181 234 297 340
#     4  10  19  30  50  78 110 144 173 223 273 321
#     4  11  22  38  59  82 116 153 193 231 274 336
#     4  10  20  34  54  78 108 146 184 220 264 327
#     4  10  20  35  55  83 117 146 189 230 278 345
#     4  10  22  35  58  85 115 146 185 238 289 339
#     4  10  19  31  50  78 110 142 174 216 272 329
#
# _framework density 18.616914000000001
#
# number of rings (size 3 to 8) (size 9 to 14) (size 15 to 20)
#    0.000    1.875    2.500    1.875    1.750    3.750 
#    0.000    0.000    0.000    4.875    0.000    0.000 
#    0.000    0.000    0.000    0.000    0.000    0.000 
#
# Total GULP energy -396714.672126 kJ/mol
# GULP energy per Si atom -12397.333504 kJ/mol
# Density = 1.857454 g / cm^3
# Si number density = 18.616914 Si / 1000 Ang^3
#
#
#
# Elastic Constant Matrix: (Units=GPa)
#
#
# Indices 1 2 3 4 5 6 
#
# 1 108.8778 19.7251 51.0684 0.0000 4.5878 0.0000
# 2 19.7251 39.3831 22.8188 0.0000 0.0364 0.0000
# 3 51.0684 22.8188 123.6201 0.0000 -4.1390 0.0000
# 4 0.0000 0.0000 0.0000 17.8594 0.0000 4.6644
# 5 4.5878 0.0364 -4.1390 0.0000 37.2078 0.0000
# 6 0.0000 0.0000 0.0000 4.6644 0.0000 24.2689
#
#
#
# Elastic Compliance Matrix: (Units=1/GPa)
#
#
# Indices 1 2 3 4 5 6 
#
# 1 0.011937 -0.003451 -0.004360 0.000000 -0.001953 0.000000
# 2 -0.003451 0.029444 -0.004011 0.000000 -0.000050 0.000000
# 3 -0.004360 -0.004011 0.010689 0.000000 0.001730 0.000000
# 4 0.000000 0.000000 0.000000 0.058952 0.000000 -0.011330
# 5 -0.001953 -0.000050 0.001730 0.000000 0.027309 0.000000
# 6 0.000000 0.000000 0.000000 -0.011330 0.000000 0.043383
#
#
# Mechanical properties :
#
#
# Convention : Reuss Voigt Hill
#
# Bulk Modulus (GPa) = 35.17847 51.01172 43.09510
# Shear Modulus (GPa) = 23.27394 27.75183 25.51288
#
# Velocity S-wave (km/s) = 3.53958 3.86512 3.70593
# Velocity P-wave (km/s) = 5.97008 6.88325 6.44286
#
# Compressibility (1/GPa) = 0.02842647
#
# Stress axis : x y z
#
# Youngs Moduli (GPa) = 83.77337 33.96265 93.55719
#
# Poissons Ratio (x) = 0.11720 0.40788
# Poissons Ratio (y) = 0.28909 0.37527
# Poissons Ratio (z) = 0.36522 0.13623
#
# Static dielectric constant tensor:
#      x y z
#    x 3.883250 0.000000 -0.280960 
#    y 0.000000 2.993390 0.000000 
#    z -0.280960 0.000000 3.624290 
# 
# 
# High freq. dielectric constant tensor:
#      x y z
#    x 1.730340 0.000000 -0.006750 
#    y 0.000000 1.676260 0.000000 
#    z -0.006750 0.000000 1.734570 
# 
# From -- ./inp_files/265114.got.cif
#   From: 2010.06.25/outbox.cif.g09.slc.cpg/sg12_133_cif.got.tgz:265114.got - 2010.06.28 00:19:55.
