data_PCOD8085061
_publ_section_title
;
Structure prediction by ZEFSAII (Michael W. Deem and Ramdas Pophale) SiO2 
 PCOD8085061
Probable space group: C 2/M
;
_chemical_formula_sum "Si O2"
_cell_formula_units_Z 56
_cell_length_a 24.137419
_cell_length_b 21.391211
_cell_length_c 17.582929
_cell_angle_alpha 90.000000
_cell_angle_beta 159.028642
_cell_angle_gamma 90.000000
_cell_volume 3249.231020
_symmetry_space_group_name_H-M "C 2/M"
_symmetry_group_IT_number 12
_symmetry_cell_setting 'monoclinic'
loop_
_space_group_symop_operation_xyz
x,y,z
-x,y,-z
-x,-y,-z
x,-y,z
1/2+x,1/2+y,z
1/2-x,1/2+y,-z
1/2-x,1/2-y,-z
1/2+x,1/2-y,z
loop_
_atom_site_type_symbol
_atom_site_label
_atom_site_fract_x
_atom_site_fract_y
_atom_site_fract_z
Si Si1 0.682214 0.215532 0.741307
Si Si2 0.843037 0.156388 0.492686
Si Si3 0.149141 0.342578 0.999853
Si Si4 0.794488 0.820813 0.038205
Si Si5 0.706894 0.819349 0.467540
Si Si6 0.847048 0.426425 0.851094
Si Si7 0.680882 0.284295 0.237782
O O1 0.500000 0.223590 0.500000
O O2 0.755454 0.284131 0.845451
O O3 0.752952 0.186196 0.755088
O O4 0.724831 0.167624 0.864577
O O5 0.778874 0.136665 0.494210
O O6 0.803605 0.099384 0.385940
O O7 0.761394 0.218031 0.355936
O O8 0.024052 0.167920 0.729352
O O9 0.220211 0.364177 0.009222
O O10 0.150598 0.399322 0.060801
O O11 0.975670 0.322418 0.761146
O O12 0.750000 0.750000 0.000000
O O13 0.750000 0.750000 0.500000
O O14 0.781100 0.833224 0.645501
O O15 0.832293 0.500000 0.839579
O O16 0.000000 0.406365 0.000000
O O17 0.500000 0.271869 0.000000
#
# Coordination Sequence:
#
# PCOD8085061 Si02
#       7
#     8   8   8   8   8   8   8
#     4  11  19  30  48  73 109 142 171 201 253 317
#     4  11  19  34  49  70 106 143 171 218 264 301
#     4  11  20  34  49  70 104 142 172 218 260 304
#     4  10  21  32  47  73 105 143 173 204 257 326
#     4  10  19  29  47  71  98 137 180 209 257 322
#     4  11  23  38  57  79 101 140 191 231 262 301
#     4  11  18  27  47  73 102 133 177 207 250 320
#
# _framework density 17.234848
#
# number of rings (size 3 to 8) (size 9 to 14) (size 15 to 20)
#    0.000    1.286    2.857    9.000    0.000    0.000 
#    0.000    1.429    0.000    0.000    0.000    0.000 
#    0.000   22.857    0.000    0.000    0.000    0.000 
#
# Total GULP energy -347096.547765 kJ/mol
# GULP energy per Si atom -12396.305277 kJ/mol
# Density = 1.719562 g / cm^3
# Si number density = 17.234848 Si / 1000 Ang^3
#
#
#
# Elastic Constant Matrix: (Units=GPa)
#
#
# Indices 1 2 3 4 5 6 
#
# 1 176.4756 28.0919 67.4816 0.0000 -10.9369 0.0000
# 2 28.0919 37.9906 26.4425 0.0000 -8.7709 0.0000
# 3 67.4816 26.4425 169.0399 0.0000 7.8428 0.0000
# 4 0.0000 0.0000 0.0000 18.9834 0.0000 4.1951
# 5 -10.9369 -8.7709 7.8428 0.0000 37.4770 0.0000
# 6 0.0000 0.0000 0.0000 4.1951 0.0000 19.5802
#
#
#
# Elastic Compliance Matrix: (Units=1/GPa)
#
#
# Indices 1 2 3 4 5 6 
#
# 1 0.007239 -0.003193 -0.002478 0.000000 0.001884 0.000000
# 2 -0.003193 0.033500 -0.004328 0.000000 0.007814 0.000000
# 3 -0.002478 -0.004328 0.007738 0.000000 -0.003355 0.000000
# 4 0.000000 0.000000 0.000000 0.055296 0.000000 -0.011847
# 5 0.001884 0.007814 -0.003355 0.000000 0.029764 0.000000
# 6 0.000000 0.000000 0.000000 -0.011847 0.000000 0.053610
#
#
# Mechanical properties :
#
#
# Convention : Reuss Voigt Hill
#
# Bulk Modulus (GPa) = 35.11437 69.72645 52.42041
# Shear Modulus (GPa) = 23.08002 32.64077 27.86040
#
# Velocity S-wave (km/s) = 3.66341 4.35660 4.02495
# Velocity P-wave (km/s) = 6.18970 8.11487 7.21677
#
# Compressibility (1/GPa) = 0.02847837
#
# Stress axis : x y z
#
# Youngs Moduli (GPa) = 138.14017 29.85064 129.23937
#
# Poissons Ratio (x) = 0.09532 0.32022
# Poissons Ratio (y) = 0.44114 0.55936
# Poissons Ratio (z) = 0.34227 0.12920
#
# Static dielectric constant tensor:
#      x y z
#    x 4.644670 0.000000 -0.337070 
#    y 0.000000 2.628490 0.000000 
#    z -0.337070 0.000000 3.440660 
# 
# 
# High freq. dielectric constant tensor:
#      x y z
#    x 1.699840 0.000000 -0.001520 
#    y 0.000000 1.578180 0.000000 
#    z -0.001520 0.000000 1.684980 
# 
# From -- ./inp_files/99611.got.cif
#   From: 2010.06.25/outbox.cif.g09.slc.cpg/sg12_50_cif.got.tgz:99611.got - 2010.06.28 00:19:55.
