data_PCOD8085529
_publ_section_title
;
Structure prediction by ZEFSAII (Michael W. Deem and Ramdas Pophale) SiO2 
 PCOD8085529
Probable space group: C 2/M
;
_chemical_formula_sum "Si O2"
_cell_formula_units_Z 48
_cell_length_a 21.123740
_cell_length_b 15.659587
_cell_length_c 19.725084
_cell_angle_alpha 90.000000
_cell_angle_beta 24.929817
_cell_angle_gamma 90.000000
_cell_volume 2750.271575
_symmetry_space_group_name_H-M "C 2/M"
_symmetry_group_IT_number 12
_symmetry_cell_setting 'monoclinic'
loop_
_space_group_symop_operation_xyz
x,y,z
-x,y,-z
-x,-y,-z
x,-y,z
1/2+x,1/2+y,z
1/2-x,1/2+y,-z
1/2-x,1/2-y,-z
1/2+x,1/2-y,z
loop_
_atom_site_type_symbol
_atom_site_label
_atom_site_fract_x
_atom_site_fract_y
_atom_site_fract_z
Si Si1 0.912159 0.901682 0.905792
Si Si2 0.538186 0.405744 0.640072
Si Si3 0.842249 0.777549 0.304294
Si Si4 0.944674 0.247081 0.479647
Si Si5 0.347085 0.860122 0.396084
Si Si6 0.580707 0.095106 0.271331
O O1 0.934477 0.880477 0.804849
O O2 0.033285 0.848538 0.832793
O O3 0.947377 0.000000 0.886668
O O4 0.746477 0.875371 0.088577
O O5 0.493335 0.500000 0.655438
O O6 0.511267 0.332921 0.610764
O O7 0.710320 0.414844 0.498519
O O8 0.738432 0.757183 0.339555
O O9 0.713624 0.801819 0.483737
O O10 0.919880 0.694828 0.263409
O O11 0.000000 0.222862 0.500000
O O12 0.021837 0.335890 0.382131
O O13 0.480619 0.914234 0.300113
O O14 0.583795 0.000000 0.301629
#
# Coordination Sequence:
#
# PCOD8085529 Si02
#       6
#     8   8   8   8   8   8
#     4   9  17  29  48  75  98 116 146 192 246 287
#     4   9  17  31  51  73  96 119 147 191 242 284
#     4   8  15  28  45  65  90 120 153 190 230 270
#     4  10  21  34  47  66  93 129 167 191 217 268
#     4   8  14  26  46  70  92 116 147 186 236 281
#     4  10  19  30  47  72  99 124 152 190 233 276
#
# _framework density 17.452822000000001
#
# number of rings (size 3 to 8) (size 9 to 14) (size 15 to 20)
#    0.000    3.000    0.000    3.500    0.000    7.333 
#    0.000    0.833    0.000    2.000    0.000    0.000 
#    0.000   13.333    0.000    0.000    0.000    0.000 
#
# Total GULP energy -297334.288477 kJ/mol
# GULP energy per Si atom -12388.928687 kJ/mol
# Density = 1.741310 g / cm^3
# Si number density = 17.452822 Si / 1000 Ang^3
#
#
#
# Elastic Constant Matrix: (Units=GPa)
#
#
# Indices 1 2 3 4 5 6 
#
# 1 79.3368 17.5759 13.2010 0.0009 -1.9809 -0.0011
# 2 17.5759 72.2642 10.4117 0.0006 5.8525 -0.0007
# 3 13.2010 10.4117 42.7888 0.0009 -10.8190 -0.0007
# 4 0.0009 0.0006 0.0009 21.0834 -0.0006 -3.8185
# 5 -1.9809 5.8525 -10.8190 -0.0006 15.1125 0.0004
# 6 -0.0011 -0.0007 -0.0007 -3.8185 0.0004 16.0920
#
#
#
# Elastic Compliance Matrix: (Units=1/GPa)
#
#
# Indices 1 2 3 4 5 6 
#
# 1 0.013833 -0.002907 -0.003440 0.000000 0.000477 0.000001
# 2 -0.002907 0.016257 -0.005796 0.000000 -0.010826 0.000000
# 3 -0.003440 -0.005796 0.032108 0.000000 0.024780 0.000000
# 4 0.000000 0.000000 0.000000 0.049561 0.000001 0.011760
# 5 0.000477 -0.010826 0.024780 0.000001 0.088165 -0.000001
# 6 0.000001 0.000000 0.000000 0.011760 -0.000001 0.064933
#
#
# Mechanical properties :
#
#
# Convention : Reuss Voigt Hill
#
# Bulk Modulus (GPa) = 26.37761 30.75189 28.56475
# Shear Modulus (GPa) = 16.56835 20.67101 18.61968
#
# Velocity S-wave (km/s) = 3.08445 3.44524 3.26982
# Velocity P-wave (km/s) = 5.27556 5.78658 5.53697
#
# Compressibility (1/GPa) = 0.03791094
#
# Stress axis : x y z
#
# Youngs Moduli (GPa) = 72.29185 61.51135 31.14523
#
# Poissons Ratio (x) = 0.17884 0.10713
# Poissons Ratio (y) = 0.21018 0.18053
# Poissons Ratio (z) = 0.24866 0.35654
#
# Static dielectric constant tensor:
#      x y z
#    x 3.184090 0.000000 -0.261020 
#    y 0.000000 3.271080 0.000000 
#    z -0.261020 0.000000 2.980230 
# 
# 
# High freq. dielectric constant tensor:
#      x y z
#    x 1.651370 0.000000 -0.027050 
#    y 0.000000 1.683490 0.000000 
#    z -0.027050 0.000000 1.638710 
# 
# From -- ./inp_files/283969.got.cif
#   From: 2010.06.25/outbox.cif.g09.slc.cpg/sg12_142_cif.got.tgz:283969.got - 2010.06.28 00:19:55.
