data_PCOD8085891
_publ_section_title
;
Structure prediction by ZEFSAII (Michael W. Deem and Ramdas Pophale) SiO2 
 PCOD8085891
Probable space group: C 2/M
;
_chemical_formula_sum "Si O2"
_cell_formula_units_Z 56
_cell_length_a 20.755496
_cell_length_b 9.036583
_cell_length_c 30.362142
_cell_angle_alpha 90.000000
_cell_angle_beta 32.911370
_cell_angle_gamma 90.000000
_cell_volume 3094.156586
_symmetry_space_group_name_H-M "C 2/M"
_symmetry_group_IT_number 12
_symmetry_cell_setting 'monoclinic'
loop_
_space_group_symop_operation_xyz
x,y,z
-x,y,-z
-x,-y,-z
x,-y,z
1/2+x,1/2+y,z
1/2-x,1/2+y,-z
1/2-x,1/2-y,-z
1/2+x,1/2-y,z
loop_
_atom_site_type_symbol
_atom_site_label
_atom_site_fract_x
_atom_site_fract_y
_atom_site_fract_z
Si Si1 0.566989 0.670947 0.588282
Si Si2 0.544519 0.172962 0.759742
Si Si3 0.169692 0.324975 0.266749
Si Si4 0.187723 0.324366 0.155507
Si Si5 0.106751 0.673271 0.819829
Si Si6 0.073737 0.671909 0.999587
Si Si7 0.304904 0.830004 0.407583
O O1 0.532487 0.500000 0.612620
O O2 0.450581 0.762937 0.642556
O O3 0.620828 0.724430 0.603426
O O4 0.664307 0.696319 0.493885
O O5 0.425359 0.239481 0.806235
O O6 0.568321 0.238794 0.794431
O O7 0.658081 0.207309 0.663655
O O8 0.524233 0.000000 0.776697
O O9 0.169366 0.500000 0.270557
O O10 0.178126 0.270468 0.211439
O O11 0.278717 0.261878 0.231192
O O12 0.193544 0.500000 0.150182
O O13 0.304373 0.259730 0.065944
O O14 0.138863 0.500000 0.799640
O O15 0.999082 0.703932 0.914588
O O16 0.103145 0.500000 0.976320
O O17 0.000000 0.731451 0.000000
O O18 0.338635 0.000000 0.399980
#
# Coordination Sequence:
#
# PCOD8085891 Si02
#       7
#     8   8   8   8   8   8   8
#     4  10  19  30  53  84 109 137 177 221 265 312
#     4   9  18  36  57  78 106 142 179 215 261 317
#     4  11  21  35  55  79 108 140 178 222 264 314
#     4  10  20  34  56  79 102 139 180 217 260 316
#     4  10  21  37  57  77 105 143 179 217 266 320
#     4  10  20  34  52  79 110 136 170 222 271 309
#     4   9  17  33  54  79 110 141 176 219 262 310
#
# _framework density 18.098631999999998
#
# number of rings (size 3 to 8) (size 9 to 14) (size 15 to 20)
#    0.000    2.143    2.857    0.857    0.000    2.571 
#    0.000    2.143    0.000    4.286    0.000    0.000 
#    0.000    0.000    0.000    0.000    0.000    0.000 
#
# Total GULP energy -347235.906489 kJ/mol
# GULP energy per Si atom -12401.282375 kJ/mol
# Density = 1.805744 g / cm^3
# Si number density = 18.098632 Si / 1000 Ang^3
#
#
#
# Elastic Constant Matrix: (Units=GPa)
#
#
# Indices 1 2 3 4 5 6 
#
# 1 143.6275 36.9662 78.3924 0.0011 1.1338 -0.0101
# 2 36.9662 40.1203 43.7984 0.0043 -7.5034 -0.0056
# 3 78.3924 43.7984 137.2320 0.0006 -5.0126 -0.0003
# 4 0.0011 0.0043 0.0006 29.9696 0.0003 -7.8907
# 5 1.1338 -7.5034 -5.0126 0.0003 33.6883 0.0005
# 6 -0.0101 -0.0056 -0.0003 -7.8907 0.0005 24.4690
#
#
#
# Elastic Compliance Matrix: (Units=1/GPa)
#
#
# Indices 1 2 3 4 5 6 
#
# 1 0.010870 -0.005479 -0.004544 0.000001 -0.002262 0.000004
# 2 -0.005479 0.042599 -0.010168 -0.000004 0.008160 0.000006
# 3 -0.004544 -0.010168 0.013122 0.000000 -0.000159 -0.000004
# 4 0.000001 -0.000004 0.000000 0.036463 -0.000001 0.011759
# 5 -0.002262 0.008160 -0.000159 -0.000001 0.031554 0.000000
# 6 0.000004 0.000006 -0.000004 0.011759 0.000000 0.044660
#
#
# Mechanical properties :
#
#
# Convention : Reuss Voigt Hill
#
# Bulk Modulus (GPa) = 38.15249 71.03264 54.59257
# Shear Modulus (GPa) = 21.89276 28.41356 25.15316
#
# Velocity S-wave (km/s) = 3.48176 3.96653 3.73202
# Velocity P-wave (km/s) = 6.10652 7.76599 6.98570
#
# Compressibility (1/GPa) = 0.02621061
#
# Stress axis : x y z
#
# Youngs Moduli (GPa) = 91.99369 23.47455 76.20870
#
# Poissons Ratio (x) = 0.12861 0.34627
# Poissons Ratio (y) = 0.50400 0.77490
# Poissons Ratio (z) = 0.41799 0.23869
#
# Static dielectric constant tensor:
#      x y z
#    x 3.361240 0.000000 0.008050 
#    y 0.000000 3.185950 0.000000 
#    z 0.008050 0.000000 3.562180 
# 
# 
# High freq. dielectric constant tensor:
#      x y z
#    x 1.685770 0.000000 -0.006980 
#    y 0.000000 1.685420 0.000000 
#    z -0.006980 0.000000 1.714570 
# 
# From -- ./inp_files/275236.got.cif
#   From: 2010.06.25/outbox.cif.g09.slc.cpg/sg12_138_cif.got.tgz:275236.got - 2010.06.28 00:19:55.
