data_PCOD8085083
_publ_section_title
;
Structure prediction by ZEFSAII (Michael W. Deem and Ramdas Pophale) SiO2 
 PCOD8085083
Probable space group: C 2/M
;
_chemical_formula_sum "Si O2"
_cell_formula_units_Z 64
_cell_length_a 23.403164
_cell_length_b 8.923656
_cell_length_c 21.203400
_cell_angle_alpha 90.000000
_cell_angle_beta 127.409765
_cell_angle_gamma 90.000000
_cell_volume 3517.333354
_symmetry_space_group_name_H-M "C 2/M"
_symmetry_group_IT_number 12
_symmetry_cell_setting 'monoclinic'
loop_
_space_group_symop_operation_xyz
x,y,z
-x,y,-z
-x,-y,-z
x,-y,z
1/2+x,1/2+y,z
1/2-x,1/2+y,-z
1/2-x,1/2-y,-z
1/2+x,1/2-y,z
loop_
_atom_site_type_symbol
_atom_site_label
_atom_site_fract_x
_atom_site_fract_y
_atom_site_fract_z
Si Si1 0.528787 0.168407 0.336532
Si Si2 0.369288 0.165809 0.175684
Si Si3 0.421253 0.176628 0.965257
Si Si4 0.823333 0.322404 0.783300
Si Si5 0.321998 0.178062 0.276853
Si Si6 0.424531 0.323113 0.751988
Si Si7 0.031413 0.827502 0.590212
Si Si8 0.418590 0.325736 0.092881
O O1 0.449056 0.162608 0.256196
O O2 0.579140 0.256391 0.320947
O O3 0.527424 0.257129 0.401630
O O4 0.558591 0.000000 0.366827
O O5 0.319027 0.219662 0.199993
O O6 0.364605 0.276096 0.112806
O O7 0.346721 0.000000 0.137730
O O8 0.366186 0.227284 0.874449
O O9 0.424009 0.000000 0.975628
O O10 0.500000 0.239454 0.000000
O O11 0.394553 0.246186 0.012741
O O12 0.821791 0.500000 0.774678
O O13 0.743522 0.258168 0.732580
O O14 0.860464 0.251607 0.747421
O O15 0.394176 0.237871 0.357461
O O16 0.318502 0.000000 0.283717
O O17 0.413846 0.500000 0.741478
O O18 0.499813 0.280080 0.835735
O O19 0.000000 0.811881 0.500000
O O20 0.045091 0.000000 0.618250
O O21 0.409497 0.500000 0.076910
#
# Coordination Sequence:
#
# PCOD8085083 Si02
#       8
#     8   8   8   8   8   8   8   8
#     4   9  17  30  51  79 108 138 175 217 258 304
#     4   8  16  31  50  70  97 133 170 212 261 312
#     4  10  20  34  50  70 100 138 179 222 268 317
#     4  11  22  35  53  75 103 142 181 221 268 320
#     4  10  21  37  56  79 107 140 176 216 261 315
#     4  10  19  31  49  75 106 139 177 222 267 312
#     4  10  20  35  58  87 115 141 171 210 255 306
#     4  10  19  29  48  75 100 129 171 226 272 308
#
# _framework density 18.195602999999998
#
# number of rings (size 3 to 8) (size 9 to 14) (size 15 to 20)
#    0.000    2.250    1.250    3.000    0.000    6.750 
#    0.000    0.625    0.000    0.750    0.000    0.000 
#    0.000    0.000    0.000    0.000    0.000    0.000 
#
# Total GULP energy -396824.660938 kJ/mol
# GULP energy per Si atom -12400.770654 kJ/mol
# Density = 1.815419 g / cm^3
# Si number density = 18.195603 Si / 1000 Ang^3
#
#
#
# Elastic Constant Matrix: (Units=GPa)
#
#
# Indices 1 2 3 4 5 6 
#
# 1 126.3108 49.0546 40.1526 0.0000 -20.5602 0.0000
# 2 49.0546 75.3867 27.3696 0.0000 -15.3978 0.0000
# 3 40.1526 27.3696 53.9227 0.0000 -19.4563 0.0000
# 4 0.0000 0.0000 0.0000 24.1445 0.0000 -6.9912
# 5 -20.5602 -15.3978 -19.4563 0.0000 27.3145 0.0000
# 6 0.0000 0.0000 0.0000 -6.9912 0.0000 32.3052
#
#
#
# Elastic Compliance Matrix: (Units=1/GPa)
#
#
# Indices 1 2 3 4 5 6 
#
# 1 0.012132 -0.005465 -0.005487 0.000000 0.002143 0.000000
# 2 -0.005465 0.019130 -0.004352 0.000000 0.003570 0.000000
# 3 -0.005487 -0.004352 0.030235 0.000000 0.014953 0.000000
# 4 0.000000 0.000000 0.000000 0.044186 0.000000 0.009562
# 5 0.002143 0.003570 0.014953 0.000000 0.050888 0.000000
# 6 0.000000 0.000000 0.000000 0.009562 0.000000 0.033024
#
#
# Mechanical properties :
#
#
# Convention : Reuss Voigt Hill
#
# Bulk Modulus (GPa) = 32.37344 54.30818 43.34081
# Shear Modulus (GPa) = 21.69182 26.02241 23.85712
#
# Velocity S-wave (km/s) = 3.45649 3.78583 3.62491
# Velocity P-wave (km/s) = 5.81036 7.00155 6.43358
#
# Compressibility (1/GPa) = 0.03088951
#
# Stress axis : x y z
#
# Youngs Moduli (GPa) = 82.42362 52.27295 33.07373
#
# Poissons Ratio (x) = 0.28566 0.18148
# Poissons Ratio (y) = 0.45043 0.14395
# Poissons Ratio (z) = 0.45227 0.22752
#
# Static dielectric constant tensor:
#      x y z
#    x 3.490930 0.000000 -0.260620 
#    y 0.000000 3.461290 0.000000 
#    z -0.260620 0.000000 3.037530 
# 
# 
# High freq. dielectric constant tensor:
#      x y z
#    x 1.705410 0.000000 -0.025910 
#    y 0.000000 1.717370 0.000000 
#    z -0.025910 0.000000 1.668720 
# 
# From -- ./inp_files/324338.got.cif
#   From: 2010.06.25/outbox.cif.g09.slc.cpg/sg12_163_cif.got.tgz:324338.got - 2010.06.28 00:19:55.
