data_PCOD8085279
_publ_section_title
;
Structure prediction by ZEFSAII (Michael W. Deem and Ramdas Pophale) SiO2 
 PCOD8085279
Probable space group: C 2/M
;
_chemical_formula_sum "Si O2"
_cell_formula_units_Z 48
_cell_length_a 26.859516
_cell_length_b 8.814754
_cell_length_c 11.452089
_cell_angle_alpha 90.000000
_cell_angle_beta 89.668927
_cell_angle_gamma 90.000000
_cell_volume 2711.351625
_symmetry_space_group_name_H-M "C 2/M"
_symmetry_group_IT_number 12
_symmetry_cell_setting 'monoclinic'
loop_
_space_group_symop_operation_xyz
x,y,z
-x,y,-z
-x,-y,-z
x,-y,z
1/2+x,1/2+y,z
1/2-x,1/2+y,-z
1/2-x,1/2-y,-z
1/2+x,1/2-y,z
loop_
_atom_site_type_symbol
_atom_site_label
_atom_site_fract_x
_atom_site_fract_y
_atom_site_fract_z
Si Si1 0.126832 0.677223 0.689598
Si Si2 0.943057 0.179666 0.489144
Si Si3 0.197614 0.677067 0.128906
Si Si4 0.299106 0.665673 0.473112
Si Si5 0.131961 0.834465 0.316966
Si Si6 0.189761 0.176722 0.880651
O O1 0.117317 0.500000 0.701927
O O2 0.077573 0.751207 0.632138
O O3 0.171830 0.714596 0.604303
O O4 0.144000 0.742278 0.814352
O O5 0.914363 0.236404 0.607478
O O6 0.000000 0.229404 0.500000
O O7 0.935593 0.000000 0.479871
O O8 0.193021 0.500000 0.100558
O O9 0.153999 0.720405 0.220490
O O10 0.254468 0.713873 0.171655
O O11 0.186943 0.771525 0.013593
O O12 0.291994 0.500000 0.410087
O O13 0.250000 0.750000 0.500000
O O14 0.324412 0.633828 0.594389
O O15 0.117332 0.000000 0.262056
O O16 0.178910 0.000000 0.874630
#
# Coordination Sequence:
#
# PCOD8085279 Si02
#       6
#     8   8   8   8   8   8
#     4  11  21  32  49  74 103 132 166 208 254 304
#     4   9  19  37  58  77  99 130 169 212 259 310
#     4  10  20  32  49  74 103 136 172 208 246 291
#     4  10  19  30  45  68  99 133 168 204 246 297
#     4   9  18  31  48  71  98 129 164 202 247 300
#     4  10  20  34  51  71 101 140 177 208 242 292
#
# _framework density 17.703347000000001
#
# number of rings (size 3 to 8) (size 9 to 14) (size 15 to 20)
#    0.000    2.167    0.000    5.000    0.000    8.333 
#    0.000    0.000    0.000    1.000    0.000    7.000 
#    0.000    0.000    0.000    0.000    0.000    0.000 
#
# Total GULP energy -297339.420373 kJ/mol
# GULP energy per Si atom -12389.142516 kJ/mol
# Density = 1.766305 g / cm^3
# Si number density = 17.703347 Si / 1000 Ang^3
#
#
#
# Elastic Constant Matrix: (Units=GPa)
#
#
# Indices 1 2 3 4 5 6 
#
# 1 112.3840 25.9317 29.0491 0.0000 -5.7495 0.0000
# 2 25.9317 67.5429 18.7622 0.0000 -4.5705 0.0000
# 3 29.0491 18.7622 56.3451 0.0000 -6.9235 0.0000
# 4 0.0000 0.0000 0.0000 29.0515 0.0000 3.3800
# 5 -5.7495 -4.5705 -6.9235 0.0000 16.9981 0.0000
# 6 0.0000 0.0000 0.0000 3.3800 0.0000 19.7498
#
#
#
# Elastic Compliance Matrix: (Units=1/GPa)
#
#
# Indices 1 2 3 4 5 6 
#
# 1 0.010760 -0.002815 -0.004480 0.000000 0.001058 0.000000
# 2 -0.002815 0.017136 -0.004006 0.000000 0.002024 0.000000
# 3 -0.004480 -0.004006 0.022183 0.000000 0.006443 0.000000
# 4 0.000000 0.000000 0.000000 0.035121 0.000000 -0.006011
# 5 0.001058 0.002024 0.006443 0.000000 0.062356 0.000000
# 6 0.000000 0.000000 0.000000 -0.006011 0.000000 0.051662
#
#
# Mechanical properties :
#
#
# Convention : Reuss Voigt Hill
#
# Bulk Modulus (GPa) = 36.39439 42.63976 39.51707
# Shear Modulus (GPa) = 21.64701 23.99516 22.82108
#
# Velocity S-wave (km/s) = 3.50060 3.68557 3.59428
# Velocity P-wave (km/s) = 6.07795 6.49994 6.29248
#
# Compressibility (1/GPa) = 0.02747676
#
# Stress axis : x y z
#
# Youngs Moduli (GPa) = 92.93962 58.35706 45.07942
#
# Poissons Ratio (x) = 0.16427 0.20195
# Poissons Ratio (y) = 0.26162 0.18059
# Poissons Ratio (z) = 0.41636 0.23378
#
# Static dielectric constant tensor:
#      x y z
#    x 3.259190 0.000000 0.066140 
#    y 0.000000 3.259930 0.000000 
#    z 0.066140 0.000000 3.238610 
# 
# 
# High freq. dielectric constant tensor:
#      x y z
#    x 1.661580 0.000000 0.003710 
#    y 0.000000 1.692760 0.000000 
#    z 0.003710 0.000000 1.674570 
# 
# From -- ./inp_files/179171.got.cif
#   From: 2010.06.25/outbox.cif.g09.slc.cpg/sg12_90_cif.got.tgz:179171.got - 2010.06.28 00:19:55.
