data_PCOD8085362
_publ_section_title
;
Structure prediction by ZEFSAII (Michael W. Deem and Ramdas Pophale) SiO2 
 PCOD8085362
Probable space group: C 2/M
;
_chemical_formula_sum "Si O2"
_cell_formula_units_Z 64
_cell_length_a 24.432972
_cell_length_b 9.075749
_cell_length_c 20.107480
_cell_angle_alpha 90.000000
_cell_angle_beta 56.655194
_cell_angle_gamma 90.000000
_cell_volume 3724.768878
_symmetry_space_group_name_H-M "C 2/M"
_symmetry_group_IT_number 12
_symmetry_cell_setting 'monoclinic'
loop_
_space_group_symop_operation_xyz
x,y,z
-x,y,-z
-x,-y,-z
x,-y,z
1/2+x,1/2+y,z
1/2-x,1/2+y,-z
1/2-x,1/2-y,-z
1/2+x,1/2-y,z
loop_
_atom_site_type_symbol
_atom_site_label
_atom_site_fract_x
_atom_site_fract_y
_atom_site_fract_z
Si Si1 0.547118 0.327021 0.057046
Si Si2 0.344387 0.173162 0.632293
Si Si3 0.061957 0.827701 0.334253
Si Si4 0.974910 0.171420 0.786139
Si Si5 0.570813 0.170646 0.550504
Si Si6 0.094710 0.174781 0.890329
Si Si7 0.392258 0.171586 0.327343
Si Si8 0.304377 0.325088 0.284683
O O1 0.544124 0.500000 0.048293
O O2 0.568253 0.288556 0.118972
O O3 0.473523 0.266804 0.094768
O O4 0.597024 0.267556 0.966322
O O5 0.374977 0.253476 0.675404
O O6 0.382763 0.220567 0.540376
O O7 0.269969 0.226598 0.675259
O O8 0.348770 0.000000 0.641684
O O9 0.066112 0.791807 0.252594
O O10 0.995528 0.763668 0.409802
O O11 0.062968 0.000000 0.347942
O O12 0.040432 0.265995 0.746690
O O13 0.995721 0.000000 0.773176
O O14 0.610351 0.201840 0.591898
O O15 0.550608 0.000000 0.558593
O O16 0.154686 0.236682 0.806224
O O17 0.099361 0.000000 0.884069
O O18 0.331151 0.253460 0.334584
O O19 0.388295 0.000000 0.313448
O O20 0.309498 0.500000 0.289022
#
# Coordination Sequence:
#
# PCOD8085362 Si02
#       8
#     8   8   8   8   8   8   8   8
#     4   8  12  21  43  72  95 115 146 188 228 263
#     4  10  21  35  50  66  89 127 163 191 229 275
#     4  10  20  32  50  74  94 116 153 200 240 270
#     4   9  16  29  49  71  95 121 151 190 232 275
#     4   9  19  35  51  68  92 121 155 193 234 280
#     4   8  13  22  42  71  95 116 148 189 223 262
#     4  10  19  30  46  69  96 124 151 186 234 279
#     4  10  19  32  49  68  94 126 159 190 223 274
#
# _framework density 17.182274
#
# number of rings (size 3 to 8) (size 9 to 14) (size 15 to 20)
#    0.000    2.750    1.250    1.875    0.000    4.000 
#    0.000    0.000    0.000    2.250    0.000    0.000 
#    0.000    0.000    0.000    0.000    0.000    0.375 
#
# Total GULP energy -396602.966810 kJ/mol
# GULP energy per Si atom -12393.842713 kJ/mol
# Density = 1.714317 g / cm^3
# Si number density = 17.182274 Si / 1000 Ang^3
#
#
#
# Elastic Constant Matrix: (Units=GPa)
#
#
# Indices 1 2 3 4 5 6 
#
# 1 123.6941 39.5300 48.8367 0.0000 9.6462 0.0002
# 2 39.5300 36.6404 17.4590 -0.0003 4.2915 0.0015
# 3 48.8367 17.4590 79.4581 0.0002 20.5354 -0.0004
# 4 0.0000 -0.0003 0.0002 12.5106 -0.0001 3.0349
# 5 9.6462 4.2915 20.5354 -0.0001 21.9076 0.0000
# 6 0.0002 0.0015 -0.0004 3.0349 0.0000 27.2023
#
#
#
# Elastic Compliance Matrix: (Units=1/GPa)
#
#
# Indices 1 2 3 4 5 6 
#
# 1 0.014721 -0.012908 -0.006850 0.000000 0.002467 0.000001
# 2 -0.012908 0.041804 -0.000798 0.000002 -0.001758 -0.000002
# 3 -0.006850 -0.000798 0.021314 -0.000001 -0.016807 0.000001
# 4 0.000000 0.000002 -0.000001 0.082156 0.000001 -0.009166
# 5 0.002467 -0.001758 -0.016807 0.000001 0.060658 0.000000
# 6 0.000001 -0.000002 0.000001 -0.009166 0.000000 0.037784
#
#
# Mechanical properties :
#
#
# Convention : Reuss Voigt Hill
#
# Bulk Modulus (GPa) = 27.22612 50.16043 38.69328
# Shear Modulus (GPa) = 16.03643 21.25523 18.64583
#
# Velocity S-wave (km/s) = 3.05833 3.52098 3.29778
# Velocity P-wave (km/s) = 5.32457 6.76655 6.08840
#
# Compressibility (1/GPa) = 0.03672943
#
# Stress axis : x y z
#
# Youngs Moduli (GPa) = 67.92849 23.92125 46.91751
#
# Poissons Ratio (x) = 0.30876 0.32136
# Poissons Ratio (y) = 0.87679 0.03743
# Poissons Ratio (z) = 0.46528 0.01909
#
# Static dielectric constant tensor:
#      x y z
#    x 3.119550 0.000000 0.234270 
#    y 0.000000 2.971750 0.000000 
#    z 0.234270 0.000000 3.523330 
# 
# 
# High freq. dielectric constant tensor:
#      x y z
#    x 1.643630 0.000000 0.024310 
#    y 0.000000 1.637490 0.000000 
#    z 0.024310 0.000000 1.667740 
# 
# From -- ./inp_files/319787.got.cif
#   From: 2010.06.25/outbox.cif.g09.slc.cpg/sg12_160_cif.got.tgz:319787.got - 2010.06.28 00:19:55.
