data_PCOD8085134
_publ_section_title
;
Structure prediction by ZEFSAII (Michael W. Deem and Ramdas Pophale) SiO2 
 PCOD8085134
Probable space group: C 2/M
;
_chemical_formula_sum "Si O2"
_cell_formula_units_Z 64
_cell_length_a 22.822953
_cell_length_b 8.983064
_cell_length_c 19.007936
_cell_angle_alpha 90.000000
_cell_angle_beta 84.611951
_cell_angle_gamma 90.000000
_cell_volume 3879.789294
_symmetry_space_group_name_H-M "C 2/M"
_symmetry_group_IT_number 12
_symmetry_cell_setting 'monoclinic'
loop_
_space_group_symop_operation_xyz
x,y,z
-x,y,-z
-x,-y,-z
x,-y,z
1/2+x,1/2+y,z
1/2-x,1/2+y,-z
1/2-x,1/2-y,-z
1/2+x,1/2-y,z
loop_
_atom_site_type_symbol
_atom_site_label
_atom_site_fract_x
_atom_site_fract_y
_atom_site_fract_z
Si Si1 0.380755 0.172658 0.236472
Si Si2 0.583219 0.176433 0.038398
Si Si3 0.460785 0.822592 0.105160
Si Si4 0.248908 0.824967 0.204658
Si Si5 0.809035 0.824054 0.520111
Si Si6 0.785131 0.330149 0.656690
Si Si7 0.788421 0.677859 0.934992
Si Si8 0.850407 0.165539 0.371146
O O1 0.429218 0.243940 0.178240
O O2 0.316734 0.209963 0.213263
O O3 0.388822 0.232973 0.314879
O O4 0.391578 0.000000 0.241212
O O5 0.528984 0.229877 0.094164
O O6 0.644595 0.234625 0.062345
O O7 0.583406 0.000000 0.035577
O O8 0.573449 0.237001 0.960208
O O9 0.456572 0.000000 0.106938
O O10 0.207878 0.760825 0.271592
O O11 0.233680 0.736918 0.136491
O O12 0.237242 0.000000 0.196819
O O13 0.750000 0.750000 0.500000
O O14 0.826411 0.748014 0.592532
O O15 0.858043 0.793430 0.453382
O O16 0.799137 0.000000 0.531730
O O17 0.805845 0.500000 0.665421
O O18 0.718203 0.321064 0.639182
O O19 0.783253 0.500000 0.938987
O O20 0.750000 0.750000 0.000000
O O21 0.873181 0.000000 0.355077
#
# Coordination Sequence:
#
# PCOD8085134 Si02
#       8
#     8   8   8   8   8   8   8   8
#     4   9  16  25  41  62  83 108 142 177 211 248
#     4   8  15  27  44  63  83 106 137 175 215 252
#     4   8  13  25  44  64  82 103 135 178 216 248
#     4  10  19  30  43  62  87 115 144 175 209 252
#     4   9  15  23  35  52  76 110 147 180 211 249
#     4   9  16  26  39  56  79 110 144 178 213 251
#     4  11  21  32  46  65  87 113 142 174 211 252
#     4   8  15  24  34  52  81 112 140 169 207 250
#
# _framework density 16.495742
#
# number of rings (size 3 to 8) (size 9 to 14) (size 15 to 20)
#    0.000    3.000    0.000    3.750    0.000    6.000 
#    0.000    0.000    0.000    1.500    0.000    5.250 
#    0.000    1.000    0.000   11.500    0.000    5.875 
#
# Total GULP energy -396505.574063 kJ/mol
# GULP energy per Si atom -12390.799189 kJ/mol
# Density = 1.645820 g / cm^3
# Si number density = 16.495742 Si / 1000 Ang^3
#
#
#
# Elastic Constant Matrix: (Units=GPa)
#
#
# Indices 1 2 3 4 5 6 
#
# 1 54.1017 34.1904 48.1282 0.0000 -16.6353 0.0000
# 2 34.1904 61.6687 52.9462 0.0000 -7.4102 0.0000
# 3 48.1282 52.9462 156.7738 0.0000 -31.0860 0.0000
# 4 0.0000 0.0000 0.0000 32.3492 0.0000 -2.6870
# 5 -16.6353 -7.4102 -31.0860 0.0000 21.3806 0.0000
# 6 0.0000 0.0000 0.0000 -2.6870 0.0000 10.4889
#
#
#
# Elastic Compliance Matrix: (Units=1/GPa)
#
#
# Indices 1 2 3 4 5 6 
#
# 1 0.036599 -0.016430 -0.001643 0.000000 0.020393 0.000000
# 2 -0.016430 0.030545 -0.008019 0.000000 -0.013857 0.000000
# 3 -0.001643 -0.008019 0.012346 0.000000 0.013893 0.000000
# 4 0.000000 0.000000 0.000000 0.031585 0.000000 0.008091
# 5 0.020393 -0.013857 0.013893 0.000000 0.078034 0.000000
# 6 0.000000 0.000000 0.000000 0.008091 0.000000 0.097411
#
#
# Mechanical properties :
#
#
# Convention : Reuss Voigt Hill
#
# Bulk Modulus (GPa) = 36.62379 60.34151 48.48265
# Shear Modulus (GPa) = 14.37574 21.99569 18.18571
#
# Velocity S-wave (km/s) = 2.95529 3.65556 3.32392
# Velocity P-wave (km/s) = 5.82195 7.38085 6.64726
#
# Compressibility (1/GPa) = 0.02730466
#
# Stress axis : x y z
#
# Youngs Moduli (GPa) = 27.32298 32.73852 80.99716
#
# Poissons Ratio (x) = 0.53790 0.13309
# Poissons Ratio (y) = 0.44892 0.64956
# Poissons Ratio (z) = 0.04490 0.26255
#
# Static dielectric constant tensor:
#      x y z
#    x 2.901920 0.000000 -0.276690 
#    y 0.000000 3.003510 0.000000 
#    z -0.276690 0.000000 3.433450 
# 
# 
# High freq. dielectric constant tensor:
#      x y z
#    x 1.577280 0.000000 -0.024260 
#    y 0.000000 1.622080 0.000000 
#    z -0.024260 0.000000 1.651270 
# 
# From -- ./inp_files/287680.got.cif
#   From: 2010.06.25/outbox.cif.g09.slc.cpg/sg12_144_cif.got.tgz:287680.got - 2010.06.28 00:19:55.
