data_PCOD8085645
_publ_section_title
;
Structure prediction by ZEFSAII (Michael W. Deem and Ramdas Pophale) SiO2 
 PCOD8085645
Probable space group: C 2/M
;
_chemical_formula_sum "Si O2"
_cell_formula_units_Z 48
_cell_length_a 23.690589
_cell_length_b 8.768448
_cell_length_c 15.348390
_cell_angle_alpha 90.000000
_cell_angle_beta 123.735359
_cell_angle_gamma 90.000000
_cell_volume 2651.440763
_symmetry_space_group_name_H-M "C 2/M"
_symmetry_group_IT_number 12
_symmetry_cell_setting 'monoclinic'
loop_
_space_group_symop_operation_xyz
x,y,z
-x,y,-z
-x,-y,-z
x,-y,z
1/2+x,1/2+y,z
1/2-x,1/2+y,-z
1/2-x,1/2-y,-z
1/2+x,1/2-y,z
loop_
_atom_site_type_symbol
_atom_site_label
_atom_site_fract_x
_atom_site_fract_y
_atom_site_fract_z
Si Si1 0.930131 0.824234 0.789398
Si Si2 0.094907 0.329162 0.059632
Si Si3 0.251449 0.671891 0.240191
Si Si4 0.697411 0.821205 0.886421
Si Si5 0.219401 0.179424 0.387746
Si Si6 0.926265 0.173876 0.135625
O O1 0.945356 0.723140 0.888413
O O2 0.860132 0.773645 0.683821
O O3 0.993135 0.800652 0.776304
O O4 0.924881 0.000000 0.814588
O O5 0.071477 0.500000 0.013287
O O6 0.173918 0.327489 0.147079
O O7 0.083548 0.207790 0.974379
O O8 0.279550 0.500000 0.272207
O O9 0.293749 0.759731 0.203166
O O10 0.260424 0.755437 0.340254
O O11 0.619931 0.784638 0.846337
O O12 0.709497 0.000000 0.898557
O O13 0.750000 0.750000 0.000000
O O14 0.250000 0.250000 0.500000
O O15 0.229311 0.000000 0.398111
O O16 0.904484 0.000000 0.135600
#
# Coordination Sequence:
#
# PCOD8085645 Si02
#       6
#     8   8   8   8   8   8
#     4   9  20  35  51  74 105 140 177 217 268 324
#     4  10  19  30  48  74 106 141 178 219 261 310
#     4  10  20  35  54  79 109 142 181 222 266 316
#     4  12  23  35  52  76 108 148 186 222 260 310
#     4  10  20  37  60  84 108 136 175 224 276 325
#     4  11  21  33  50  72 105 147 182 216 260 314
#
# _framework density 18.103365
#
# number of rings (size 3 to 8) (size 9 to 14) (size 15 to 20)
#    0.000    1.667    1.667    4.000    0.000    5.333 
#    0.000    0.000    0.000    1.000    0.000    7.000 
#    0.000    0.000    0.000    0.000    0.000    0.000 
#
# Total GULP energy -297617.334873 kJ/mol
# GULP energy per Si atom -12400.722286 kJ/mol
# Density = 1.806216 g / cm^3
# Si number density = 18.103365 Si / 1000 Ang^3
#
#
#
# Elastic Constant Matrix: (Units=GPa)
#
#
# Indices 1 2 3 4 5 6 
#
# 1 120.1440 44.5267 44.9076 0.0000 -19.2684 0.0000
# 2 44.5267 110.8783 42.6819 0.0000 -7.8493 0.0000
# 3 44.9076 42.6819 95.5733 0.0000 -17.6716 0.0000
# 4 0.0000 0.0000 0.0000 29.1033 0.0000 -5.7636
# 5 -19.2684 -7.8493 -17.6716 0.0000 14.7442 0.0000
# 6 0.0000 0.0000 0.0000 -5.7636 0.0000 30.4662
#
#
#
# Elastic Compliance Matrix: (Units=1/GPa)
#
#
# Indices 1 2 3 4 5 6 
#
# 1 0.012192 -0.003255 -0.002119 0.000000 0.011660 0.000000
# 2 -0.003255 0.011760 -0.004306 0.000000 -0.003153 0.000000
# 3 -0.002119 -0.004306 0.015989 0.000000 0.014103 0.000000
# 4 0.000000 0.000000 0.000000 0.035698 0.000000 0.006753
# 5 0.011660 -0.003153 0.014103 0.000000 0.098286 0.000000
# 6 0.000000 0.000000 0.000000 0.006753 0.000000 0.034101
#
#
# Mechanical properties :
#
#
# Convention : Reuss Voigt Hill
#
# Bulk Modulus (GPa) = 48.58581 65.64756 57.11669
# Shear Modulus (GPa) = 21.34516 27.82802 24.58659
#
# Velocity S-wave (km/s) = 3.43749 3.92493 3.68927
# Velocity P-wave (km/s) = 6.53080 7.54198 7.05453
#
# Compressibility (1/GPa) = 0.02058214
#
# Stress axis : x y z
#
# Youngs Moduli (GPa) = 82.02292 85.03278 62.54182
#
# Poissons Ratio (x) = 0.27677 0.13253
# Poissons Ratio (y) = 0.26697 0.26928
# Poissons Ratio (z) = 0.17381 0.36612
#
# Static dielectric constant tensor:
#      x y z
#    x 3.552130 0.000000 -0.017540 
#    y 0.000000 3.562040 0.000000 
#    z -0.017540 0.000000 3.085780 
# 
# 
# High freq. dielectric constant tensor:
#      x y z
#    x 1.708750 0.000000 -0.002190 
#    y 0.000000 1.717460 0.000000 
#    z -0.002190 0.000000 1.660750 
# 
# From -- ./inp_files/229836.got.cif
#   From: 2010.06.25/outbox.cif.g09.slc.cpg/sg12_115_cif.got.tgz:229836.got - 2010.06.28 00:19:55.
