data_PCOD8085127
_publ_section_title
;
Structure prediction by ZEFSAII (Michael W. Deem and Ramdas Pophale) SiO2 
 PCOD8085127
Probable space group: C 2/M
;
_chemical_formula_sum "Si O2"
_cell_formula_units_Z 64
_cell_length_a 27.342190
_cell_length_b 9.251702
_cell_length_c 21.796054
_cell_angle_alpha 90.000000
_cell_angle_beta 48.047648
_cell_angle_gamma 90.000000
_cell_volume 4100.446869
_symmetry_space_group_name_H-M "C 2/M"
_symmetry_group_IT_number 12
_symmetry_cell_setting 'monoclinic'
loop_
_space_group_symop_operation_xyz
x,y,z
-x,y,-z
-x,-y,-z
x,-y,z
1/2+x,1/2+y,z
1/2-x,1/2+y,-z
1/2-x,1/2-y,-z
1/2+x,1/2-y,z
loop_
_atom_site_type_symbol
_atom_site_label
_atom_site_fract_x
_atom_site_fract_y
_atom_site_fract_z
Si Si1 0.353347 0.330512 0.646478
Si Si2 0.482097 0.336571 0.113098
Si Si3 0.794359 0.667247 0.213651
Si Si4 0.682217 0.329371 0.569319
Si Si5 0.910041 0.833611 0.467638
Si Si6 0.028506 0.336642 0.408117
Si Si7 0.897085 0.838453 0.062092
Si Si8 0.623088 0.830954 0.734225
O O1 0.360829 0.500000 0.652841
O O2 0.279951 0.274245 0.721555
O O3 0.368928 0.293528 0.562793
O O4 0.402148 0.246834 0.651450
O O5 0.483037 0.500000 0.139207
O O6 0.439276 0.334357 0.088052
O O7 0.450398 0.225769 0.188351
O O8 0.556383 0.285500 0.033357
O O9 0.795232 0.500000 0.198007
O O10 0.832613 0.740837 0.124874
O O11 0.828049 0.699221 0.250489
O O12 0.694292 0.500000 0.568064
O O13 0.750000 0.250000 0.500000
O O14 0.634961 0.297059 0.552144
O O15 0.649259 0.262521 0.656513
O O16 0.976531 0.739950 0.406580
O O17 0.931657 0.000000 0.451024
O O18 0.039557 0.500000 0.376381
O O19 0.000000 0.329949 0.500000
O O20 0.872726 0.000000 0.068811
O O21 0.620020 0.000000 0.719875
#
# Coordination Sequence:
#
# PCOD8085127 Si02
#       8
#     8   8   8   8   8   8   8   8
#     4   9  16  28  44  60  82 112 141 170 208 254
#     4   8  14  26  41  57  79 109 143 176 212 252
#     4   9  17  27  40  60  87 116 145 175 208 252
#     4  11  22  34  47  63  85 114 148 182 214 248
#     4   9  18  32  47  60  79 111 146 176 209 250
#     4   9  17  28  43  64  84 102 132 174 215 253
#     4   8  14  24  39  58  81 109 140 174 212 253
#     4  10  19  30  43  61  85 114 149 183 213 247
#
# _framework density 15.608055
#
# number of rings (size 3 to 8) (size 9 to 14) (size 15 to 20)
#    0.000    2.875    0.000    2.625    0.000    6.000 
#    0.000    5.000    0.000    0.000    0.000    0.000 
#    0.000    1.000    0.000    3.250    0.000    4.000 
#
# Total GULP energy -396677.346057 kJ/mol
# GULP energy per Si atom -12396.167064 kJ/mol
# Density = 1.557253 g / cm^3
# Si number density = 15.608055 Si / 1000 Ang^3
#
#
#
# Elastic Constant Matrix: (Units=GPa)
#
#
# Indices 1 2 3 4 5 6 
#
# 1 76.0858 53.8968 49.8720 -0.0003 -21.5463 0.0019
# 2 53.8968 89.9252 59.7812 -0.0011 -14.9857 0.0021
# 3 49.8720 59.7812 111.3168 -0.0056 -25.8207 0.0036
# 4 -0.0003 -0.0011 -0.0056 29.6285 0.0019 -5.9278
# 5 -21.5463 -14.9857 -25.8207 0.0019 21.8116 -0.0032
# 6 0.0019 0.0021 0.0036 -5.9278 -0.0032 20.6969
#
#
#
# Elastic Compliance Matrix: (Units=1/GPa)
#
#
# Indices 1 2 3 4 5 6 
#
# 1 0.028271 -0.012930 -0.001799 -0.000001 0.016914 0.000001
# 2 -0.012930 0.023232 -0.008194 -0.000001 -0.006511 -0.000001
# 3 -0.001799 -0.008194 0.017193 0.000002 0.012946 0.000001
# 4 -0.000001 -0.000001 0.000002 0.035803 -0.000001 0.010254
# 5 0.016914 -0.006511 0.012946 -0.000001 0.073408 0.000008
# 6 0.000001 -0.000001 0.000001 0.010254 0.000008 0.051253
#
#
# Mechanical properties :
#
#
# Convention : Reuss Voigt Hill
#
# Bulk Modulus (GPa) = 43.76232 67.15862 55.46047
# Shear Modulus (GPa) = 17.69149 22.01260 19.85204
#
# Velocity S-wave (km/s) = 3.37038 3.75952 3.57025
# Velocity P-wave (km/s) = 6.57610 7.87191 7.25300
#
# Compressibility (1/GPa) = 0.02285071
#
# Stress axis : x y z
#
# Youngs Moduli (GPa) = 35.37194 43.04400 58.16434
#
# Poissons Ratio (x) = 0.55655 0.10463
# Poissons Ratio (y) = 0.45735 0.47659
# Poissons Ratio (z) = 0.06363 0.35270
#
# Static dielectric constant tensor:
#      x y z
#    x 2.814050 0.000000 -0.281990 
#    y 0.000000 3.116130 0.000010 
#    z -0.281990 0.000010 3.186850 
# 
# 
# High freq. dielectric constant tensor:
#      x y z
#    x 1.563410 0.000000 -0.025270 
#    y 0.000000 1.605510 0.000000 
#    z -0.025270 0.000000 1.587270 
# 
# From -- ./inp_files/326825.got.cif
#   From: 2010.06.25/outbox.cif.g09.slc.cpg/sg12_164_cif.got.tgz:326825.got - 2010.06.28 00:19:55.
