data_PCOD8085025
_publ_section_title
;
Structure prediction by ZEFSAII (Michael W. Deem and Ramdas Pophale) SiO2 
 PCOD8085025
Probable space group: C 2/M
;
_chemical_formula_sum "Si O2"
_cell_formula_units_Z 64
_cell_length_a 20.258519
_cell_length_b 9.148279
_cell_length_c 20.298466
_cell_angle_alpha 90.000000
_cell_angle_beta 99.781300
_cell_angle_gamma 90.000000
_cell_volume 3707.240929
_symmetry_space_group_name_H-M "C 2/M"
_symmetry_group_IT_number 12
_symmetry_cell_setting 'monoclinic'
loop_
_space_group_symop_operation_xyz
x,y,z
-x,y,-z
-x,-y,-z
x,-y,z
1/2+x,1/2+y,z
1/2-x,1/2+y,-z
1/2-x,1/2-y,-z
1/2+x,1/2-y,z
loop_
_atom_site_type_symbol
_atom_site_label
_atom_site_fract_x
_atom_site_fract_y
_atom_site_fract_z
Si Si1 0.913042 0.664428 0.921242
Si Si2 0.613245 0.171116 0.336368
Si Si3 0.434210 0.331289 0.451235
Si Si4 0.928504 0.664145 0.068283
Si Si5 0.683475 0.670582 0.466360
Si Si6 0.441464 0.336519 0.194168
Si Si7 0.457194 0.829921 0.325315
Si Si8 0.100068 0.835856 0.204823
O O1 0.885465 0.500000 0.907208
O O2 0.877638 0.769853 0.862071
O O3 0.991866 0.664158 0.922619
O O4 0.897989 0.719944 0.993279
O O5 0.659220 0.255987 0.395244
O O6 0.536284 0.201235 0.341542
O O7 0.630391 0.234699 0.267323
O O8 0.630372 0.000000 0.340307
O O9 0.500000 0.273503 0.500000
O O10 0.443870 0.500000 0.432853
O O11 0.370667 0.305824 0.486070
O O12 0.422838 0.238110 0.383672
O O13 0.903349 0.500000 0.078450
O O14 0.904806 0.767363 0.124086
O O15 0.696831 0.500000 0.455682
O O16 0.750000 0.750000 0.500000
O O17 0.413883 0.500000 0.199083
O O18 0.423696 0.243095 0.255675
O O19 0.520460 0.337123 0.196561
O O20 0.440980 0.000000 0.319613
O O21 0.128718 0.000000 0.215799
#
# Coordination Sequence:
#
# PCOD8085025 Si02
#       8
#     8   8   8   8   8   8   8   8
#     4   8  13  21  32  47  70 104 144 186 228 273
#     4  10  19  31  47  67  91 120 155 195 239 285
#     4  10  20  35  54  74  97 125 157 197 243 287
#     4   8  13  21  32  46  70 105 145 185 227 274
#     4  11  23  38  55  74  99 128 158 196 242 293
#     4   9  16  24  35  53  80 112 147 187 232 280
#     4  10  19  29  46  69  92 118 154 199 238 280
#     4   9  16  24  36  55  79 109 147 190 232 276
#
# _framework density 17.263511999999999
#
# number of rings (size 3 to 8) (size 9 to 14) (size 15 to 20)
#    0.000    2.625    1.250    2.625    0.000    5.750 
#    0.000    2.500    0.000    0.000    0.000    0.000 
#    0.000    0.000    0.000    1.125    0.000   15.500 
#
# Total GULP energy -396727.985037 kJ/mol
# GULP energy per Si atom -12397.749532 kJ/mol
# Density = 1.722422 g / cm^3
# Si number density = 17.263512 Si / 1000 Ang^3
#
#
#
# Elastic Constant Matrix: (Units=GPa)
#
#
# Indices 1 2 3 4 5 6 
#
# 1 31.8629 31.4501 31.7304 0.0000 -2.5435 0.0000
# 2 31.4501 130.9011 89.8598 0.0000 -11.3390 0.0000
# 3 31.7304 89.8598 157.3080 0.0000 -26.7261 0.0000
# 4 0.0000 0.0000 0.0000 39.2394 0.0000 -6.3175
# 5 -2.5435 -11.3390 -26.7261 0.0000 14.0556 0.0000
# 6 0.0000 0.0000 0.0000 -6.3175 0.0000 15.8023
#
#
#
# Elastic Compliance Matrix: (Units=1/GPa)
#
#
# Indices 1 2 3 4 5 6 
#
# 1 0.044020 -0.006861 -0.006717 0.000000 -0.010341 0.000000
# 2 -0.006861 0.013898 -0.007181 0.000000 -0.003684 0.000000
# 3 -0.006717 -0.007181 0.015693 0.000000 0.022830 0.000000
# 4 0.000000 0.000000 0.000000 0.027238 0.000000 0.010889
# 5 -0.010341 -0.003684 0.022830 0.000000 0.109714 0.000000
# 6 0.000000 0.000000 0.000000 0.010889 0.000000 0.067635
#
#
# Mechanical properties :
#
#
# Convention : Reuss Voigt Hill
#
# Bulk Modulus (GPa) = 31.15943 69.57249 50.36596
# Shear Modulus (GPa) = 15.13257 24.95491 20.04374
#
# Velocity S-wave (km/s) = 2.96389 3.80614 3.41111
# Velocity P-wave (km/s) = 5.45906 7.72680 6.68972
#
# Compressibility (1/GPa) = 0.03209301
#
# Stress axis : x y z
#
# Youngs Moduli (GPa) = 22.71691 71.95116 63.72382
#
# Poissons Ratio (x) = 0.49366 0.42802
# Poissons Ratio (y) = 0.15586 0.45761
# Poissons Ratio (z) = 0.15259 0.51670
#
# Static dielectric constant tensor:
#      x y z
#    x 2.648650 0.000000 -0.192480 
#    y 0.000000 3.402500 0.000000 
#    z -0.192480 0.000000 3.457870 
# 
# 
# High freq. dielectric constant tensor:
#      x y z
#    x 1.587510 0.000000 -0.025100 
#    y 0.000000 1.678370 0.000000 
#    z -0.025100 0.000000 1.681380 
# 
# From -- ./inp_files/314199.got.cif
#   From: 2010.06.25/outbox.cif.g09.slc.cpg/sg12_158_cif.got.tgz:314199.got - 2010.06.28 00:19:55.
