data_PCOD8085878
_publ_section_title
;
Structure prediction by ZEFSAII (Michael W. Deem and Ramdas Pophale) SiO2 
 PCOD8085878
Probable space group: C 2/M
;
_chemical_formula_sum "Si O2"
_cell_formula_units_Z 64
_cell_length_a 24.365160
_cell_length_b 8.843690
_cell_length_c 28.628712
_cell_angle_alpha 90.000000
_cell_angle_beta 145.935222
_cell_angle_gamma 90.000000
_cell_volume 3455.360012
_symmetry_space_group_name_H-M "C 2/M"
_symmetry_group_IT_number 12
_symmetry_cell_setting 'monoclinic'
loop_
_space_group_symop_operation_xyz
x,y,z
-x,y,-z
-x,-y,-z
x,-y,z
1/2+x,1/2+y,z
1/2-x,1/2+y,-z
1/2-x,1/2-y,-z
1/2+x,1/2-y,z
loop_
_atom_site_type_symbol
_atom_site_label
_atom_site_fract_x
_atom_site_fract_y
_atom_site_fract_z
Si Si1 0.094920 0.673659 0.881780
Si Si2 0.701315 0.171519 0.809687
Si Si3 0.527376 0.825677 0.338773
Si Si4 0.409896 0.321473 0.711893
Si Si5 0.961475 0.825618 0.557669
Si Si6 0.758231 0.326798 0.936661
Si Si7 0.163308 0.678727 0.679532
Si Si8 0.231548 0.174417 0.637331
O O1 0.067992 0.500000 0.852468
O O2 0.176549 0.721292 0.902103
O O3 0.997598 0.772187 0.808113
O O4 0.137624 0.696127 0.964117
O O5 0.588915 0.193616 0.745139
O O6 0.768669 0.278002 0.889877
O O7 0.714395 0.219176 0.764982
O O8 0.735408 0.000000 0.841275
O O9 0.574222 0.736324 0.329147
O O10 0.568977 0.757431 0.416056
O O11 0.558843 0.000000 0.358054
O O12 0.402757 0.500000 0.706548
O O13 0.309078 0.253566 0.658771
O O14 0.874852 0.806096 0.459921
O O15 0.056500 0.752718 0.601038
O O16 0.983335 0.000000 0.584273
O O17 0.723747 0.500000 0.916266
O O18 0.150021 0.500000 0.664940
O O19 0.232857 0.744625 0.688512
O O20 0.260070 0.000000 0.663982
#
# Coordination Sequence:
#
# PCOD8085878 Si02
#       8
#     8   8   8   8   8   8   8   8
#     4  10  20  34  51  77 114 147 177 219 268 319
#     4   9  18  32  53  80 112 144 174 221 275 319
#     4  10  20  35  55  80 111 146 179 221 276 323
#     4  12  24  37  56  79 108 147 186 223 269 331
#     4  10  21  37  58  83 109 140 181 228 276 325
#     4  10  19  30  52  83 111 143 181 219 264 319
#     4  10  21  37  58  83 110 142 182 229 276 319
#     4  11  24  40  57  78 107 145 185 228 276 324
#
# _framework density 18.521948999999999
#
# number of rings (size 3 to 8) (size 9 to 14) (size 15 to 20)
#    0.000    1.750    1.250    4.500    0.000    8.000 
#    0.000    0.000    0.000    0.750    0.000    5.250 
#    0.000    0.000    0.000    0.000    0.000    0.000 
#
# Total GULP energy -396909.986432 kJ/mol
# GULP energy per Si atom -12403.437076 kJ/mol
# Density = 1.847979 g / cm^3
# Si number density = 18.521949 Si / 1000 Ang^3
#
#
#
# Elastic Constant Matrix: (Units=GPa)
#
#
# Indices 1 2 3 4 5 6 
#
# 1 146.5001 100.7814 10.1869 0.0000 -18.9918 0.0000
# 2 100.7814 189.4712 17.7616 0.0001 -14.4568 0.0003
# 3 10.1869 17.7616 39.5440 0.0000 -18.0425 0.0000
# 4 0.0000 0.0001 0.0000 29.8553 0.0000 -2.3965
# 5 -18.9918 -14.4568 -18.0425 0.0000 25.7695 0.0000
# 6 0.0000 0.0003 0.0000 -2.3965 0.0000 34.5378
#
#
#
# Elastic Compliance Matrix: (Units=1/GPa)
#
#
# Indices 1 2 3 4 5 6 
#
# 1 0.011639 -0.005911 0.003023 0.000000 0.007378 0.000000
# 2 -0.005911 0.008583 -0.003120 0.000000 -0.001726 0.000000
# 3 0.003023 -0.003120 0.038394 0.000000 0.027359 0.000000
# 4 0.000000 0.000000 0.000000 0.033683 0.000000 0.002337
# 5 0.007378 -0.001726 0.027359 0.000000 0.062431 0.000000
# 6 0.000000 0.000000 0.000000 0.002337 0.000000 0.029116
#
#
# Mechanical properties :
#
#
# Convention : Reuss Voigt Hill
#
# Bulk Modulus (GPa) = 21.45928 70.33054 45.89491
# Shear Modulus (GPa) = 23.65266 34.48486 29.06876
#
# Velocity S-wave (km/s) = 3.57740 4.31958 3.96589
# Velocity P-wave (km/s) = 5.35488 7.93299 6.76783
#
# Compressibility (1/GPa) = 0.04659988
#
# Stress axis : x y z
#
# Youngs Moduli (GPa) = 85.92095 116.51210 26.04592
#
# Poissons Ratio (x) = 0.68872 -0.07874
# Poissons Ratio (y) = 0.50789 0.08125
# Poissons Ratio (z) = -0.25975 0.36348
#
# Static dielectric constant tensor:
#      x y z
#    x 3.334740 0.000000 -0.288580 
#    y 0.000000 3.552710 0.000000 
#    z -0.288580 0.000000 3.350890 
# 
# 
# High freq. dielectric constant tensor:
#      x y z
#    x 1.706240 0.000000 -0.026360 
#    y 0.000000 1.736040 0.000000 
#    z -0.026360 0.000000 1.705990 
# 
# From -- ./inp_files/281381.got.cif
#   From: 2010.06.25/outbox.cif.g09.slc.cpg/sg12_141_cif.got.tgz:281381.got - 2010.06.28 00:19:55.
