data_PCOD8085804
_publ_section_title
;
Structure prediction by ZEFSAII (Michael W. Deem and Ramdas Pophale) SiO2 
 PCOD8085804
Probable space group: C 2/M
;
_chemical_formula_sum "Si O2"
_cell_formula_units_Z 64
_cell_length_a 20.035367
_cell_length_b 9.168336
_cell_length_c 20.022588
_cell_angle_alpha 90.000000
_cell_angle_beta 83.297214
_cell_angle_gamma 90.000000
_cell_volume 3652.829735
_symmetry_space_group_name_H-M "C 2/M"
_symmetry_group_IT_number 12
_symmetry_cell_setting 'monoclinic'
loop_
_space_group_symop_operation_xyz
x,y,z
-x,y,-z
-x,-y,-z
x,-y,z
1/2+x,1/2+y,z
1/2-x,1/2+y,-z
1/2-x,1/2-y,-z
1/2+x,1/2-y,z
loop_
_atom_site_type_symbol
_atom_site_label
_atom_site_fract_x
_atom_site_fract_y
_atom_site_fract_z
Si Si1 0.307843 0.832197 0.453971
Si Si2 0.003532 0.669121 0.826990
Si Si3 0.195639 0.831581 0.963075
Si Si4 0.161865 0.335930 0.694035
Si Si5 0.841145 0.664692 0.160666
Si Si6 0.469834 0.333395 0.300653
Si Si7 0.053537 0.831635 0.046730
Si Si8 0.551714 0.330558 0.550176
O O1 0.250000 0.750000 0.500000
O O2 0.290113 0.820810 0.376336
O O3 0.380644 0.764387 0.461309
O O4 0.309028 0.000000 0.476826
O O5 0.987598 0.500000 0.827019
O O6 0.080314 0.703977 0.838510
O O7 0.987398 0.734522 0.755436
O O8 0.952448 0.742149 0.884558
O O9 0.193229 0.771264 0.888067
O O10 0.214874 0.000000 0.956298
O O11 0.250000 0.750000 0.000000
O O12 0.125871 0.804828 0.007737
O O13 0.128559 0.500000 0.697197
O O14 0.197086 0.317580 0.762817
O O15 0.107967 0.208754 0.694811
O O16 0.833781 0.500000 0.134531
O O17 0.479119 0.500000 0.277573
O O18 0.489421 0.308091 0.375683
O O19 0.039048 0.000000 0.064420
O O20 0.000000 0.770420 0.000000
O O21 0.500000 0.277154 0.500000
O O22 0.572023 0.500000 0.538624
#
# Coordination Sequence:
#
# PCOD8085804 Si02
#       8
#     8   8   8   8   8   8   8   8
#     4  10  19  32  52  78 108 138 173 215 260 306
#     4  10  19  30  50  78 106 133 165 211 256 299
#     4  11  23  37  54  75 103 136 167 207 252 304
#     4   8  16  30  48  73 102 132 168 211 256 302
#     4   9  17  31  51  75 101 130 168 207 251 302
#     4   9  16  27  47  74 103 134 169 210 254 301
#     4  10  20  35  54  78 104 129 167 212 254 297
#     4   9  18  33  53  77 105 138 177 214 255 309
#
# _framework density 17.520662999999999
#
# number of rings (size 3 to 8) (size 9 to 14) (size 15 to 20)
#    0.000    2.500    1.250    2.250    0.000    4.500 
#    0.000    0.000    2.750    0.000    0.000    0.000 
#    0.000    0.000    0.000    0.000    0.000    0.000 
#
# Total GULP energy -396619.477633 kJ/mol
# GULP energy per Si atom -12394.358676 kJ/mol
# Density = 1.748078 g / cm^3
# Si number density = 17.520663 Si / 1000 Ang^3
#
#
#
# Elastic Constant Matrix: (Units=GPa)
#
#
# Indices 1 2 3 4 5 6 
#
# 1 56.9406 46.9556 47.3297 0.0000 7.7447 0.0000
# 2 46.9556 104.5475 75.8779 0.0000 3.8797 0.0000
# 3 47.3297 75.8779 154.0548 0.0000 4.5277 0.0000
# 4 0.0000 0.0000 0.0000 31.7675 0.0000 -1.8997
# 5 7.7447 3.8797 4.5277 0.0000 23.6713 0.0000
# 6 0.0000 0.0000 0.0000 -1.8997 0.0000 24.2616
#
#
#
# Elastic Compliance Matrix: (Units=1/GPa)
#
#
# Indices 1 2 3 4 5 6 
#
# 1 0.030619 -0.010592 -0.003969 0.000000 -0.007523 0.000000
# 2 -0.010592 0.018577 -0.005941 0.000000 0.001557 0.000000
# 3 -0.003969 -0.005941 0.010630 0.000000 0.000239 0.000000
# 4 0.000000 0.000000 0.000000 0.031627 0.000000 0.002476
# 5 -0.007523 0.001557 0.000239 0.000000 0.044406 0.000000
# 6 0.000000 0.000000 0.000000 0.002476 0.000000 0.041411
#
#
# Mechanical properties :
#
#
# Convention : Reuss Voigt Hill
#
# Bulk Modulus (GPa) = 53.13282 72.87438 63.00360
# Shear Modulus (GPa) = 22.26700 25.63207 23.94953
#
# Velocity S-wave (km/s) = 3.56884 3.82902 3.70121
# Velocity P-wave (km/s) = 6.88286 7.82510 7.36906
#
# Compressibility (1/GPa) = 0.01882076
#
# Stress axis : x y z
#
# Youngs Moduli (GPa) = 32.65925 53.83114 94.07584
#
# Poissons Ratio (x) = 0.57021 0.37336
# Poissons Ratio (y) = 0.34594 0.55892
# Poissons Ratio (z) = 0.12962 0.31982
#
# Static dielectric constant tensor:
#      x y z
#    x 2.830260 0.000000 0.064430 
#    y 0.000000 3.352830 0.000000 
#    z 0.064430 0.000000 3.668140 
# 
# 
# High freq. dielectric constant tensor:
#      x y z
#    x 1.620460 0.000000 -0.001050 
#    y 0.000000 1.688600 0.000000 
#    z -0.001050 0.000000 1.698190 
# 
# From -- ./inp_files/319136.got.cif
#   From: 2010.06.25/outbox.cif.g09.slc.cpg/sg12_160_cif.got.tgz:319136.got - 2010.06.28 00:19:55.
