data_PCOD8085014
_publ_section_title
;
Structure prediction by ZEFSAII (Michael W. Deem and Ramdas Pophale) SiO2 
 PCOD8085014
Probable space group: C 2/M
;
_chemical_formula_sum "Si O2"
_cell_formula_units_Z 64
_cell_length_a 28.738509
_cell_length_b 9.249541
_cell_length_c 14.074611
_cell_angle_alpha 90.000000
_cell_angle_beta 86.646017
_cell_angle_gamma 90.000000
_cell_volume 3734.876884
_symmetry_space_group_name_H-M "C 2/M"
_symmetry_group_IT_number 12
_symmetry_cell_setting 'monoclinic'
loop_
_space_group_symop_operation_xyz
x,y,z
-x,y,-z
-x,-y,-z
x,-y,z
1/2+x,1/2+y,z
1/2-x,1/2+y,-z
1/2-x,1/2-y,-z
1/2+x,1/2-y,z
loop_
_atom_site_type_symbol
_atom_site_label
_atom_site_fract_x
_atom_site_fract_y
_atom_site_fract_z
Si Si1 0.582386 0.834414 0.309711
Si Si2 0.317198 0.671333 0.225316
Si Si3 0.015209 0.666622 0.601399
Si Si4 0.798463 0.828134 0.015318
Si Si5 0.347472 0.163013 0.851920
Si Si6 0.278679 0.165400 0.684531
Si Si7 0.893148 0.166568 0.358996
Si Si8 0.149117 0.833342 0.435238
O O1 0.526899 0.811031 0.318728
O O2 0.602523 0.798933 0.202313
O O3 0.605291 0.734176 0.386155
O O4 0.595538 0.000000 0.334166
O O5 0.313687 0.500000 0.230816
O O6 0.316746 0.721588 0.116260
O O7 0.272095 0.731955 0.286931
O O8 0.364533 0.724607 0.270781
O O9 0.029168 0.500000 0.588151
O O10 0.059170 0.747582 0.638554
O O11 0.000000 0.728347 0.500000
O O12 0.791320 0.000000 0.009199
O O13 0.750000 0.750000 0.000000
O O14 0.837779 0.776448 0.936646
O O15 0.308076 0.178619 0.777180
O O16 0.347392 0.000000 0.893364
O O17 0.302401 0.257105 0.597941
O O18 0.275979 0.000000 0.650290
O O19 0.859238 0.188714 0.452480
O O20 0.906980 0.000000 0.345535
O O21 0.152555 0.000000 0.406077
#
# Coordination Sequence:
#
# PCOD8085014 Si02
#       8
#     8   8   8   8   8   8   8   8
#     4   9  18  33  52  73 101 136 164 197 251 309
#     4   9  19  36  52  69  99 141 174 200 251 311
#     4  10  19  33  55  78 100 130 171 211 248 298
#     4  11  20  33  54  76 100 131 170 211 252 296
#     4   9  17  31  51  76 101 128 165 205 251 300
#     4   9  17  32  51  68  97 141 174 197 242 306
#     4  10  21  35  51  72 103 138 170 208 253 298
#     4  10  19  29  45  74 105 130 166 212 246 283
#
# _framework density 17.135771999999999
#
# number of rings (size 3 to 8) (size 9 to 14) (size 15 to 20)
#    0.000    2.375    2.500    1.500    0.000    3.750 
#    0.000    1.875    0.000    0.750    0.000    5.250 
#    0.000    0.000    0.000    0.000    0.000    0.000 
#
# Total GULP energy -396754.801717 kJ/mol
# GULP energy per Si atom -12398.587554 kJ/mol
# Density = 1.709677 g / cm^3
# Si number density = 17.135772 Si / 1000 Ang^3
#
#
#
# Elastic Constant Matrix: (Units=GPa)
#
#
# Indices 1 2 3 4 5 6 
#
# 1 125.6637 43.5368 67.4036 0.0000 -4.4761 0.0000
# 2 43.5368 71.3270 48.8937 0.0000 -1.8935 0.0000
# 3 67.4036 48.8937 101.0408 0.0000 -0.8757 0.0000
# 4 0.0000 0.0000 0.0000 23.4219 0.0000 -6.3074
# 5 -4.4761 -1.8935 -0.8757 0.0000 25.3386 0.0000
# 6 0.0000 0.0000 0.0000 -6.3074 0.0000 27.4929
#
#
#
# Elastic Compliance Matrix: (Units=1/GPa)
#
#
# Indices 1 2 3 4 5 6 
#
# 1 0.012870 -0.002893 -0.007170 0.000000 0.001810 0.000000
# 2 -0.002893 0.021666 -0.008548 0.000000 0.000813 0.000000
# 3 -0.007170 -0.008548 0.018806 0.000000 -0.001255 0.000000
# 4 0.000000 0.000000 0.000000 0.045507 0.000000 0.010440
# 5 0.001810 0.000813 -0.001255 0.000000 0.039802 0.000000
# 6 0.000000 0.000000 0.000000 0.010440 0.000000 0.038768
#
#
# Mechanical properties :
#
#
# Convention : Reuss Voigt Hill
#
# Bulk Modulus (GPa) = 62.03039 68.63330 65.33184
# Shear Modulus (GPa) = 22.72574 24.46383 23.59479
#
# Velocity S-wave (km/s) = 3.64568 3.78252 3.71473
# Velocity P-wave (km/s) = 7.34842 7.69521 7.52381
#
# Compressibility (1/GPa) = 0.01612113
#
# Stress axis : x y z
#
# Youngs Moduli (GPa) = 77.69761 46.15424 53.17565
#
# Poissons Ratio (x) = 0.13351 0.38129
# Poissons Ratio (y) = 0.22476 0.45453
# Poissons Ratio (z) = 0.55712 0.39451
#
# Static dielectric constant tensor:
#      x y z
#    x 3.242450 0.000000 -0.195870 
#    y 0.000000 3.124650 0.000000 
#    z -0.195870 0.000000 3.249860 
# 
# 
# High freq. dielectric constant tensor:
#      x y z
#    x 1.654860 0.000000 -0.018530 
#    y 0.000000 1.651060 0.000000 
#    z -0.018530 0.000000 1.648000 
# 
# From -- ./inp_files/248429.got.cif
#   From: 2010.06.25/outbox.cif.g09.slc.cpg/sg12_125_cif.got.tgz:248429.got - 2010.06.28 00:19:55.
