data_PCOD8085290
_publ_section_title
;
Structure prediction by ZEFSAII (Michael W. Deem and Ramdas Pophale) SiO2 
 PCOD8085290
Probable space group: C 2/M
;
_chemical_formula_sum "Si O2"
_cell_formula_units_Z 64
_cell_length_a 23.904772
_cell_length_b 27.519711
_cell_length_c 12.442269
_cell_angle_alpha 90.000000
_cell_angle_beta 26.526777
_cell_angle_gamma 90.000000
_cell_volume 3655.630967
_symmetry_space_group_name_H-M "C 2/M"
_symmetry_group_IT_number 12
_symmetry_cell_setting 'monoclinic'
loop_
_space_group_symop_operation_xyz
x,y,z
-x,y,-z
-x,-y,-z
x,-y,z
1/2+x,1/2+y,z
1/2-x,1/2+y,-z
1/2-x,1/2-y,-z
1/2+x,1/2-y,z
loop_
_atom_site_type_symbol
_atom_site_label
_atom_site_fract_x
_atom_site_fract_y
_atom_site_fract_z
Si Si1 0.533180 0.620261 0.819940
Si Si2 0.669313 0.228213 0.774844
Si Si3 0.319343 0.557274 0.110833
Si Si4 0.136276 0.442585 0.241648
Si Si5 0.311041 0.115453 0.291140
Si Si6 0.436618 0.730023 0.257502
Si Si7 0.132961 0.553915 0.614732
Si Si8 0.634217 0.054323 0.005920
O O1 0.673449 0.602285 0.566545
O O2 0.519086 0.675133 0.802560
O O3 0.500000 0.614398 0.000000
O O4 0.448806 0.586352 0.889073
O O5 0.657698 0.172205 0.761417
O O6 0.623144 0.262708 0.757729
O O7 0.817646 0.241076 0.544037
O O8 0.566155 0.238155 0.048199
O O9 0.345839 0.500000 0.055257
O O10 0.239463 0.577375 0.147289
O O11 0.249922 0.570129 0.341597
O O12 0.126008 0.500000 0.273586
O O13 0.179543 0.429296 0.046210
O O14 0.000000 0.419180 0.500000
O O15 0.397647 0.089759 0.232744
O O16 0.320352 0.093895 0.156622
O O17 0.154754 0.500000 0.625534
O O18 0.016204 0.553441 0.734447
O O19 0.684848 0.000000 0.891091
#
# Coordination Sequence:
#
# PCOD8085290 Si02
#       8
#     8   8   8   8   8   8   8   8
#     4  11  20  35  49  69 108 139 165 206 253 313
#     4   9  18  31  49  69 101 136 172 209 243 314
#     4  10  20  32  52  77  96 135 185 214 244 294
#     4   9  16  33  54  71  96 132 182 227 252 283
#     4  11  22  31  47  76 110 138 164 204 260 313
#     4   9  18  32  47  70  99 136 171 204 257 304
#     4  10  19  30  45  72 107 136 167 206 254 305
#     4  10  20  33  49  71 105 140 168 213 262 296
#
# _framework density 17.507238000000001
#
# number of rings (size 3 to 8) (size 9 to 14) (size 15 to 20)
#    0.000    2.125    3.750    0.750    3.500    2.250 
#    0.000    0.625    0.000    2.250    0.000    0.875 
#    0.000    0.250    0.000    0.000    0.000    0.000 
#
# Total GULP energy -396523.169677 kJ/mol
# GULP energy per Si atom -12391.349052 kJ/mol
# Density = 1.746739 g / cm^3
# Si number density = 17.507238 Si / 1000 Ang^3
#
#
#
# Elastic Constant Matrix: (Units=GPa)
#
#
# Indices 1 2 3 4 5 6 
#
# 1 75.1105 27.8902 26.8087 0.0067 -3.1430 -0.0011
# 2 27.8902 63.2341 29.0777 0.0022 -1.3867 -0.0018
# 3 26.8087 29.0777 93.5574 0.0156 -11.5254 -0.0019
# 4 0.0067 0.0022 0.0156 26.5211 -0.0052 -6.5769
# 5 -3.1430 -1.3867 -11.5254 -0.0052 19.4870 0.0006
# 6 -0.0011 -0.0018 -0.0019 -6.5769 0.0006 7.9370
#
#
#
# Elastic Compliance Matrix: (Units=1/GPa)
#
#
# Indices 1 2 3 4 5 6 
#
# 1 0.016570 -0.006003 -0.002811 -0.000002 0.000583 -0.000002
# 2 -0.006003 0.020718 -0.005022 0.000004 -0.002464 0.000006
# 3 -0.002811 -0.005022 0.013973 -0.000007 0.007454 -0.000004
# 4 -0.000002 0.000004 -0.000007 0.047458 0.000008 0.039325
# 5 0.000583 -0.002464 0.007454 0.000008 0.055643 0.000004
# 6 -0.000002 0.000006 -0.000004 0.039325 0.000004 0.158578
#
#
# Mechanical properties :
#
#
# Convention : Reuss Voigt Hill
#
# Bulk Modulus (GPa) = 42.39346 44.38393 43.38869
# Shear Modulus (GPa) = 14.34819 20.66405 17.50612
#
# Velocity S-wave (km/s) = 2.86590 3.43930 3.16561
# Velocity P-wave (km/s) = 5.93452 6.41705 6.18049
#
# Compressibility (1/GPa) = 0.02358855
#
# Stress axis : x y z
#
# Youngs Moduli (GPa) = 60.34830 48.26816 71.56585
#
# Poissons Ratio (x) = 0.28977 0.20114
# Poissons Ratio (y) = 0.36230 0.35943
# Poissons Ratio (z) = 0.16961 0.24242
#
# Static dielectric constant tensor:
#      x y z
#    x 2.981810 -0.000010 -0.190210 
#    y -0.000010 3.079370 0.000020 
#    z -0.190210 0.000020 3.634280 
# 
# 
# High freq. dielectric constant tensor:
#      x y z
#    x 1.634180 0.000000 -0.014600 
#    y 0.000000 1.658800 0.000000 
#    z -0.014600 0.000000 1.688040 
# 
# From -- ./inp_files/178546.got.cif
#   From: 2010.06.25/outbox.cif.g09.slc.cpg/sg12_90_cif.got.tgz:178546.got - 2010.06.28 00:19:55.
