data_PCOD8085700
_publ_section_title
;
Structure prediction by ZEFSAII (Michael W. Deem and Ramdas Pophale) SiO2 
 PCOD8085700
Probable space group: C 2/M
;
_chemical_formula_sum "Si O2"
_cell_formula_units_Z 64
_cell_length_a 23.943537
_cell_length_b 9.044522
_cell_length_c 21.370470
_cell_angle_alpha 90.000000
_cell_angle_beta 51.958865
_cell_angle_gamma 90.000000
_cell_volume 3644.822301
_symmetry_space_group_name_H-M "C 2/M"
_symmetry_group_IT_number 12
_symmetry_cell_setting 'monoclinic'
loop_
_space_group_symop_operation_xyz
x,y,z
-x,y,-z
-x,-y,-z
x,-y,z
1/2+x,1/2+y,z
1/2-x,1/2+y,-z
1/2-x,1/2-y,-z
1/2+x,1/2-y,z
loop_
_atom_site_type_symbol
_atom_site_label
_atom_site_fract_x
_atom_site_fract_y
_atom_site_fract_z
Si Si1 0.525650 0.173095 0.132811
Si Si2 0.758839 0.672939 0.713871
Si Si3 0.790571 0.326395 0.834219
Si Si4 0.113893 0.825217 0.428526
Si Si5 0.618739 0.828840 0.834182
Si Si6 0.933743 0.175720 0.771230
Si Si7 0.005088 0.825598 0.400137
Si Si8 0.350006 0.171381 0.046461
O O1 0.455885 0.219673 0.143114
O O2 0.526084 0.266825 0.195669
O O3 0.525688 0.000000 0.148792
O O4 0.593535 0.216470 0.044817
O O5 0.755869 0.500000 0.704976
O O6 0.787015 0.714932 0.763471
O O7 0.810621 0.744107 0.626477
O O8 0.680434 0.736734 0.757795
O O9 0.798358 0.500000 0.840133
O O10 0.855908 0.244710 0.821196
O O11 0.719477 0.269852 0.917185
O O12 0.066338 0.765201 0.403702
O O13 0.072993 0.778872 0.520911
O O14 0.126767 0.000000 0.416040
O O15 0.615485 0.793613 0.910106
O O16 0.634724 0.000000 0.811010
O O17 0.980950 0.231194 0.679645
O O18 0.926796 0.000000 0.777576
O O19 0.010332 0.000000 0.400000
O O20 0.328513 0.000000 0.056521
#
# Coordination Sequence:
#
# PCOD8085700 Si02
#       8
#     8   8   8   8   8   8   8   8
#     4  10  21  36  53  75 100 129 168 211 254 296
#     4  10  19  30  48  78 109 131 158 205 257 297
#     4  10  20  33  49  73 105 136 165 202 250 298
#     4   9  15  29  52  75 100 130 166 204 243 292
#     4   9  18  34  56  76  96 129 170 209 249 296
#     4  11  21  34  52  73 102 138 171 201 242 301
#     4   8  16  29  49  75 100 130 168 205 238 288
#     4   9  18  34  56  77  97 125 166 214 254 294
#
# _framework density 17.559155000000001
#
# number of rings (size 3 to 8) (size 9 to 14) (size 15 to 20)
#    0.000    2.500    1.250    2.250    0.000    4.000 
#    0.000    2.500    0.000    4.500    0.000    0.000 
#    0.000    0.000    0.000    0.000    0.000    0.000 
#
# Total GULP energy -396804.292979 kJ/mol
# GULP energy per Si atom -12400.134156 kJ/mol
# Density = 1.751919 g / cm^3
# Si number density = 17.559155 Si / 1000 Ang^3
#
#
#
# Elastic Constant Matrix: (Units=GPa)
#
#
# Indices 1 2 3 4 5 6 
#
# 1 52.9474 27.6079 42.9659 -0.0010 6.6303 0.0022
# 2 27.6079 56.3108 42.2758 -0.0095 -2.4350 0.0143
# 3 42.9659 42.2758 134.3386 0.0012 -6.1399 -0.0012
# 4 -0.0010 -0.0095 0.0012 19.1367 0.0011 2.4308
# 5 6.6303 -2.4350 -6.1399 0.0011 21.0289 -0.0023
# 6 0.0022 0.0143 -0.0012 2.4308 -0.0023 25.0661
#
#
#
# Elastic Compliance Matrix: (Units=1/GPa)
#
#
# Indices 1 2 3 4 5 6 
#
# 1 0.032370 -0.010762 -0.007591 -0.000003 -0.013669 0.000002
# 2 -0.010762 0.026837 -0.004770 0.000015 0.005108 -0.000016
# 3 -0.007591 -0.004770 0.011612 -0.000004 0.005231 0.000005
# 4 -0.000003 0.000015 -0.000004 0.052907 -0.000002 -0.005131
# 5 -0.013669 0.005108 0.005231 -0.000002 0.053982 0.000004
# 6 0.000002 -0.000016 0.000005 -0.005131 0.000004 0.040392
#
#
# Mechanical properties :
#
#
# Convention : Reuss Voigt Hill
#
# Bulk Modulus (GPa) = 40.69572 52.14399 46.41985
# Shear Modulus (GPa) = 18.34613 21.76283 20.05448
#
# Velocity S-wave (km/s) = 3.23587 3.52433 3.38318
# Velocity P-wave (km/s) = 6.09818 6.80602 6.46180
#
# Compressibility (1/GPa) = 0.02457261
#
# Stress axis : x y z
#
# Youngs Moduli (GPa) = 30.89297 37.26189 86.11924
#
# Poissons Ratio (x) = 0.40103 0.65371
# Poissons Ratio (y) = 0.33248 0.41078
# Poissons Ratio (z) = 0.23450 0.17773
#
# Static dielectric constant tensor:
#      x y z
#    x 3.081200 0.000000 -0.069130 
#    y 0.000000 3.096000 0.000000 
#    z -0.069130 0.000000 3.480320 
# 
# 
# High freq. dielectric constant tensor:
#      x y z
#    x 1.655130 0.000000 -0.014220 
#    y 0.000000 1.667910 0.000000 
#    z -0.014220 0.000000 1.684220 
# 
# From -- ./inp_files/324173.got.cif
#   From: 2010.06.25/outbox.cif.g09.slc.cpg/sg12_163_cif.got.tgz:324173.got - 2010.06.28 00:19:55.
