data_PCOD8085461
_publ_section_title
;
Structure prediction by ZEFSAII (Michael W. Deem and Ramdas Pophale) SiO2 
 PCOD8085461
Probable space group: C 2/M
;
_chemical_formula_sum "Si O2"
_cell_formula_units_Z 56
_cell_length_a 20.724295
_cell_length_b 8.913165
_cell_length_c 17.957202
_cell_angle_alpha 90.000000
_cell_angle_beta 63.780826
_cell_angle_gamma 90.000000
_cell_volume 2975.749391
_symmetry_space_group_name_H-M "C 2/M"
_symmetry_group_IT_number 12
_symmetry_cell_setting 'monoclinic'
loop_
_space_group_symop_operation_xyz
x,y,z
-x,y,-z
-x,-y,-z
x,-y,z
1/2+x,1/2+y,z
1/2-x,1/2+y,-z
1/2-x,1/2-y,-z
1/2+x,1/2-y,z
loop_
_atom_site_type_symbol
_atom_site_label
_atom_site_fract_x
_atom_site_fract_y
_atom_site_fract_z
Si Si1 0.399936 0.322003 0.776223
Si Si2 0.425262 0.321804 0.505492
Si Si3 0.809022 0.821964 0.682517
Si Si4 0.579782 0.321643 0.944909
Si Si5 0.653863 0.678396 0.756181
Si Si6 0.559010 0.678541 0.668059
Si Si7 0.672709 0.677957 0.036129
O O1 0.403967 0.500000 0.771254
O O2 0.346297 0.265045 0.739386
O O3 0.479422 0.255355 0.722872
O O4 0.372057 0.265262 0.869938
O O5 0.500000 0.256055 0.500000
O O6 0.429751 0.500000 0.506223
O O7 0.358179 0.266080 0.588736
O O8 0.413868 0.265617 0.426598
O O9 0.732715 0.745046 0.714705
O O10 0.799183 0.000000 0.687041
O O11 0.576232 0.500000 0.947275
O O12 0.610323 0.263383 0.850629
O O13 0.500000 0.255953 0.000000
O O14 0.632131 0.263707 0.983345
O O15 0.659312 0.500000 0.754225
O O16 0.612645 0.738770 0.704122
O O17 0.556086 0.500000 0.672540
O O18 0.680736 0.500000 0.032177
O O19 0.750000 0.750000 0.000000
#
# Coordination Sequence:
#
# PCOD8085461 Si02
#       7
#     8   8   8   8   8   8   8
#     4   9  16  28  48  72  91 116 160 205 233 261
#     4   9  15  27  48  74  96 117 156 203 237 266
#     4  10  19  31  50  73  98 125 154 195 240 281
#     4   9  17  31  50  70  93 125 164 199 230 272
#     4  10  20  32  48  72 100 127 154 191 240 286
#     4   9  16  28  48  72  94 118 158 203 232 265
#     4  10  19  30  47  70  95 122 154 194 237 279
#
# _framework density 18.818788999999999
#
# number of rings (size 3 to 8) (size 9 to 14) (size 15 to 20)
#    0.000    2.571    1.429    1.714    0.000    4.000 
#    0.000    0.000    0.000    5.571    0.000    0.000 
#    0.000    0.000    0.000    0.000    0.000    0.000 
#
# Total GULP energy -347162.005857 kJ/mol
# GULP energy per Si atom -12398.643066 kJ/mol
# Density = 1.877596 g / cm^3
# Si number density = 18.818789 Si / 1000 Ang^3
#
#
#
# Elastic Constant Matrix: (Units=GPa)
#
#
# Indices 1 2 3 4 5 6 
#
# 1 193.8729 18.4335 104.0188 0.0000 5.6938 0.0000
# 2 18.4335 9.7046 18.2241 0.0001 -1.2341 0.0000
# 3 104.0188 18.2241 184.4559 0.0000 9.5886 0.0000
# 4 0.0000 0.0001 0.0000 12.2128 0.0000 -9.1159
# 5 5.6938 -1.2341 9.5886 0.0000 44.3615 0.0000
# 6 0.0000 0.0000 0.0000 -9.1159 0.0000 23.8296
#
#
#
# Elastic Compliance Matrix: (Units=1/GPa)
#
#
# Indices 1 2 3 4 5 6 
#
# 1 0.007896 -0.008276 -0.003611 0.000000 -0.000463 0.000000
# 2 -0.008276 0.136951 -0.009221 -0.000001 0.006865 0.000000
# 3 -0.003611 -0.009221 0.008453 0.000000 -0.001620 0.000000
# 4 0.000000 -0.000001 0.000000 0.114606 0.000000 0.043842
# 5 -0.000463 0.006865 -0.001620 0.000000 0.023143 0.000000
# 6 0.000000 0.000000 0.000000 0.043842 0.000000 0.058736
#
#
# Mechanical properties :
#
#
# Convention : Reuss Voigt Hill
#
# Bulk Modulus (GPa) = 9.00209 74.37623 41.68916
# Shear Modulus (GPa) = 11.65425 32.57126 22.11275
#
# Velocity S-wave (km/s) = 2.49125 4.16478 3.43160
# Velocity P-wave (km/s) = 3.61511 7.92056 6.15648
#
# Compressibility (1/GPa) = 0.11108535
#
# Stress axis : x y z
#
# Youngs Moduli (GPa) = 126.64855 7.30186 118.30338
#
# Poissons Ratio (x) = 0.06043 0.42719
# Poissons Ratio (y) = 1.04812 1.09083
# Poissons Ratio (z) = 0.45732 0.06733
#
# Static dielectric constant tensor:
#      x y z
#    x 3.633860 0.000000 0.154300 
#    y 0.000000 2.773160 0.000000 
#    z 0.154300 0.000000 3.675010 
# 
# 
# High freq. dielectric constant tensor:
#      x y z
#    x 1.745400 0.000000 0.003560 
#    y 0.000000 1.658270 0.000000 
#    z 0.003560 0.000000 1.752120 
# 
# From -- ./inp_files/268615.got.cif
#   From: 2010.06.25/outbox.cif.g09.slc.cpg/sg12_135_cif.got.tgz:268615.got - 2010.06.28 00:19:55.
