data_PCOD8085964
_publ_section_title
;
Structure prediction by ZEFSAII (Michael W. Deem and Ramdas Pophale) SiO2 
 PCOD8085964
Probable space group: C 2/M
;
_chemical_formula_sum "Si O2"
_cell_formula_units_Z 64
_cell_length_a 24.397461
_cell_length_b 8.756434
_cell_length_c 21.663752
_cell_angle_alpha 90.000000
_cell_angle_beta 132.312193
_cell_angle_gamma 90.000000
_cell_volume 3422.446222
_symmetry_space_group_name_H-M "C 2/M"
_symmetry_group_IT_number 12
_symmetry_cell_setting 'monoclinic'
loop_
_space_group_symop_operation_xyz
x,y,z
-x,y,-z
-x,-y,-z
x,-y,z
1/2+x,1/2+y,z
1/2-x,1/2+y,-z
1/2-x,1/2-y,-z
1/2+x,1/2-y,z
loop_
_atom_site_type_symbol
_atom_site_label
_atom_site_fract_x
_atom_site_fract_y
_atom_site_fract_z
Si Si1 0.560470 0.820223 0.091634
Si Si2 0.507977 0.176870 0.314978
Si Si3 0.424539 0.823758 0.759995
Si Si4 0.729433 0.679116 0.352020
Si Si5 0.361143 0.176178 0.268799
Si Si6 0.081103 0.830812 0.573655
Si Si7 0.226239 0.319172 0.216547
Si Si8 0.355357 0.669697 0.511794
O O1 0.540745 0.776874 0.147492
O O2 0.643168 0.761137 0.137907
O O3 0.558599 0.000000 0.080680
O O4 0.500000 0.743123 0.000000
O O5 0.513173 0.200879 0.245151
O O6 0.427840 0.243314 0.276220
O O7 0.578497 0.256040 0.399414
O O8 0.511566 0.000000 0.336641
O O9 0.353864 0.720343 0.690732
O O10 0.397801 0.000000 0.742013
O O11 0.738002 0.500000 0.348711
O O12 0.749561 0.759901 0.302208
O O13 0.780038 0.730818 0.449286
O O14 0.383163 0.203329 0.356167
O O15 0.281195 0.260736 0.203308
O O16 0.348305 0.000000 0.244109
O O17 0.122900 0.842908 0.542147
O O18 0.000000 0.768704 0.500000
O O19 0.080199 0.000000 0.604879
O O20 0.231157 0.500000 0.223174
O O21 0.339389 0.500000 0.526686
#
# Coordination Sequence:
#
# PCOD8085964 Si02
#       8
#     8   8   8   8   8   8   8   8
#     4   8  15  31  59  88 103 119 158 208 253 301
#     4  10  22  36  49  70 101 140 180 213 252 300
#     4   9  19  37  56  74 102 135 167 208 256 308
#     4  11  21  33  51  74 101 133 173 221 263 302
#     4  11  21  31  48  72 101 136 174 213 252 296
#     4  10  19  31  46  66  94 130 175 222 262 293
#     4  10  19  32  52  78 107 134 163 206 258 305
#     4  11  21  32  49  71  98 136 180 222 261 297
#
# _framework density 18.700074999999998
#
# number of rings (size 3 to 8) (size 9 to 14) (size 15 to 20)
#    0.000    2.000    2.500    3.000    0.000    2.250 
#    0.000    0.000    0.000   10.125    0.000    0.000 
#    0.000    0.000    0.000    0.000    0.000    0.625 
#
# Total GULP energy -396509.377466 kJ/mol
# GULP energy per Si atom -12390.918046 kJ/mol
# Density = 1.865751 g / cm^3
# Si number density = 18.700075 Si / 1000 Ang^3
#
#
#
# Elastic Constant Matrix: (Units=GPa)
#
#
# Indices 1 2 3 4 5 6 
#
# 1 100.6132 23.4520 60.0346 0.0000 0.6568 0.0000
# 2 23.4520 68.3558 26.7047 0.0000 -0.2341 0.0000
# 3 60.0346 26.7047 113.1892 0.0000 15.5901 0.0000
# 4 0.0000 0.0000 0.0000 12.3085 0.0000 2.7553
# 5 0.6568 -0.2341 15.5901 0.0000 19.2294 0.0000
# 6 0.0000 0.0000 0.0000 2.7553 0.0000 24.8830
#
#
#
# Elastic Compliance Matrix: (Units=1/GPa)
#
#
# Indices 1 2 3 4 5 6 
#
# 1 0.015516 -0.001914 -0.008670 0.000000 0.006476 0.000000
# 2 -0.001914 0.016587 -0.003304 0.000000 0.002946 0.000000
# 3 -0.008670 -0.003304 0.015960 0.000000 -0.012683 0.000000
# 4 0.000000 0.000000 0.000000 0.083309 0.000000 -0.009225
# 5 0.006476 0.002946 -0.012683 0.000000 0.062101 0.000000
# 6 0.000000 0.000000 0.000000 -0.009225 0.000000 0.041210
#
#
# Mechanical properties :
#
#
# Convention : Reuss Voigt Hill
#
# Bulk Modulus (GPa) = 49.29318 55.83785 52.56551
# Shear Modulus (GPa) = 18.57209 22.74866 20.66037
#
# Velocity S-wave (km/s) = 3.15486 3.49162 3.32750
# Velocity P-wave (km/s) = 6.29984 6.79557 6.55239
#
# Compressibility (1/GPa) = 0.02028678
#
# Stress axis : x y z
#
# Youngs Moduli (GPa) = 64.44856 60.28877 62.65783
#
# Poissons Ratio (x) = 0.11540 0.54325
# Poissons Ratio (y) = 0.12336 0.20701
# Poissons Ratio (z) = 0.55877 0.19919
#
# Static dielectric constant tensor:
#      x y z
#    x 3.723420 0.000000 0.215920 
#    y 0.000000 3.456100 0.000000 
#    z 0.215920 0.000000 3.413460 
# 
# 
# High freq. dielectric constant tensor:
#      x y z
#    x 1.733220 0.000000 0.015050 
#    y 0.000000 1.713310 0.000000 
#    z 0.015050 0.000000 1.689030 
# 
# From -- ./inp_files/324293.got.cif
#   From: 2010.06.25/outbox.cif.g09.slc.cpg/sg12_163_cif.got.tgz:324293.got - 2010.06.28 00:19:55.
