data_PCOD8085754
_publ_section_title
;
Structure prediction by ZEFSAII (Michael W. Deem and Ramdas Pophale) SiO2 
 PCOD8085754
Probable space group: C 2/M
;
_chemical_formula_sum "Si O2"
_cell_formula_units_Z 48
_cell_length_a 10.068607
_cell_length_b 27.436144
_cell_length_c 15.472040
_cell_angle_alpha 90.000000
_cell_angle_beta 35.692642
_cell_angle_gamma 90.000000
_cell_volume 2493.641110
_symmetry_space_group_name_H-M "C 2/M"
_symmetry_group_IT_number 12
_symmetry_cell_setting 'monoclinic'
loop_
_space_group_symop_operation_xyz
x,y,z
-x,y,-z
-x,-y,-z
x,-y,z
1/2+x,1/2+y,z
1/2-x,1/2+y,-z
1/2-x,1/2-y,-z
1/2+x,1/2-y,z
loop_
_atom_site_type_symbol
_atom_site_label
_atom_site_fract_x
_atom_site_fract_y
_atom_site_fract_z
Si Si1 0.224302 0.717901 0.330465
Si Si2 0.476602 0.140003 0.349401
Si Si3 0.260641 0.055645 0.876835
Si Si4 0.831693 0.602700 0.016420
Si Si5 0.037603 0.146688 0.680671
Si Si6 0.354791 0.178145 0.230889
O O1 0.409538 0.697839 0.300362
O O2 0.342414 0.763836 0.221194
O O3 0.000000 0.736073 0.500000
O O4 0.161006 0.675964 0.295084
O O5 0.592841 0.089508 0.262905
O O6 0.277950 0.125061 0.521379
O O7 0.365834 0.167403 0.326697
O O8 0.323677 0.064301 0.943344
O O9 0.315046 0.000000 0.824132
O O10 0.000000 0.069026 0.000000
O O11 0.926094 0.655423 0.933630
O O12 0.579743 0.610059 0.188837
O O13 0.000000 0.580889 0.000000
O O14 0.872190 0.153816 0.687004
#
# Coordination Sequence:
#
# PCOD8085754 Si02
#       6
#     8   8   8   8   8   8
#     4  10  19  30  49  77 108 142 180 216 258 307
#     4  10  20  34  55  78 106 140 176 219 259 307
#     4  10  21  39  60  79 102 135 174 217 266 316
#     4   9  20  36  54  77 107 140 173 215 265 311
#     4  10  19  33  51  74 108 140 173 217 263 305
#     4  10  19  32  51  76 107 146 180 209 254 310
#
# _framework density 19.248961000000001
#
# number of rings (size 3 to 8) (size 9 to 14) (size 15 to 20)
#    0.000    2.167    0.000    3.500    0.000    3.667 
#    0.000    8.333    0.000   19.500    0.000    0.000 
#    0.000    0.000    0.000    0.000    0.000    0.000 
#
# Total GULP energy -297617.550321 kJ/mol
# GULP energy per Si atom -12400.731263 kJ/mol
# Density = 1.920515 g / cm^3
# Si number density = 19.248961 Si / 1000 Ang^3
#
#
#
# Elastic Constant Matrix: (Units=GPa)
#
#
# Indices 1 2 3 4 5 6 
#
# 1 89.6759 30.2499 28.6402 0.0000 0.4530 0.0000
# 2 30.2499 94.8572 52.9763 0.0000 -3.7513 0.0000
# 3 28.6402 52.9763 98.1248 0.0000 -3.2278 0.0000
# 4 0.0000 0.0000 0.0000 18.5499 0.0000 1.1502
# 5 0.4530 -3.7513 -3.2278 0.0000 24.2997 0.0000
# 6 0.0000 0.0000 0.0000 1.1502 0.0000 22.0868
#
#
#
# Elastic Compliance Matrix: (Units=1/GPa)
#
#
# Indices 1 2 3 4 5 6 
#
# 1 0.012841 -0.002896 -0.002217 0.000000 -0.000981 0.000000
# 2 -0.002896 0.015784 -0.007628 0.000000 0.001477 0.000000
# 3 -0.002217 -0.007628 0.014984 0.000000 0.000854 0.000000
# 4 0.000000 0.000000 0.000000 0.054083 0.000000 -0.002816
# 5 -0.000981 0.001477 0.000854 0.000000 0.041513 0.000000
# 6 0.000000 0.000000 0.000000 -0.002816 0.000000 0.045422
#
#
# Mechanical properties :
#
#
# Convention : Reuss Voigt Hill
#
# Bulk Modulus (GPa) = 55.16120 56.26564 55.71342
# Shear Modulus (GPa) = 23.13191 24.37339 23.75265
#
# Velocity S-wave (km/s) = 3.47035 3.56226 3.51660
# Velocity P-wave (km/s) = 6.69154 6.79805 6.74500
#
# Compressibility (1/GPa) = 0.01812868
#
# Stress axis : x y z
#
# Youngs Moduli (GPa) = 77.87541 63.35514 66.73599
#
# Poissons Ratio (x) = 0.18346 0.14795
# Poissons Ratio (y) = 0.22550 0.50905
# Poissons Ratio (z) = 0.17264 0.48326
#
# Static dielectric constant tensor:
#      x y z
#    x 3.756450 0.000000 0.017080 
#    y 0.000000 3.147730 0.000000 
#    z 0.017080 0.000000 3.494590 
# 
# 
# High freq. dielectric constant tensor:
#      x y z
#    x 1.771270 0.000000 -0.000200 
#    y 0.000000 1.715990 0.000000 
#    z -0.000200 0.000000 1.745230 
# 
# From -- ./inp_files/123883.got.cif
#   From: 2010.06.25/outbox.cif.g09.slc.cpg/sg12_62_cif.got.tgz:123883.got - 2010.06.28 00:19:55.
