data_PCOD8085859
_publ_section_title
;
Structure prediction by ZEFSAII (Michael W. Deem and Ramdas Pophale) SiO2 
 PCOD8085859
Probable space group: C 2/M
;
_chemical_formula_sum "Si O2"
_cell_formula_units_Z 56
_cell_length_a 29.647701
_cell_length_b 9.307536
_cell_length_c 16.510306
_cell_angle_alpha 90.000000
_cell_angle_beta 46.383680
_cell_angle_gamma 90.000000
_cell_volume 3298.410317
_symmetry_space_group_name_H-M "C 2/M"
_symmetry_group_IT_number 12
_symmetry_cell_setting 'monoclinic'
loop_
_space_group_symop_operation_xyz
x,y,z
-x,y,-z
-x,-y,-z
x,-y,z
1/2+x,1/2+y,z
1/2-x,1/2+y,-z
1/2-x,1/2-y,-z
1/2+x,1/2-y,z
loop_
_atom_site_type_symbol
_atom_site_label
_atom_site_fract_x
_atom_site_fract_y
_atom_site_fract_z
Si Si1 0.664245 0.336107 0.568696
Si Si2 0.730012 0.666606 0.648583
Si Si3 0.760324 0.333399 0.207580
Si Si4 0.803277 0.333807 0.979804
Si Si5 0.882224 0.166423 0.636007
Si Si6 0.426755 0.830534 0.734319
Si Si7 0.046699 0.836334 0.617693
O O1 0.682744 0.500000 0.522802
O O2 0.675690 0.307376 0.649662
O O3 0.705442 0.231528 0.463134
O O4 0.591777 0.309090 0.638793
O O5 0.740933 0.500000 0.652569
O O6 0.709528 0.743285 0.756774
O O7 0.762135 0.500000 0.229368
O O8 0.689421 0.284130 0.279262
O O9 0.801384 0.299703 0.077612
O O10 0.789876 0.500000 0.980068
O O11 0.870267 0.287152 0.863265
O O12 0.750000 0.250000 0.000000
O O13 0.918266 0.259900 0.657314
O O14 0.914157 0.197415 0.511154
O O15 0.887254 0.000000 0.654920
O O16 0.489093 0.770562 0.698294
O O17 0.432650 0.000000 0.715881
O O18 0.022226 0.000000 0.646607
#
# Coordination Sequence:
#
# PCOD8085859 Si02
#       7
#     8   8   8   8   8   8   8
#     4   9  18  34  52  74 105 138 170 204 249 308
#     4  10  19  30  51  81 107 130 164 213 261 299
#     4  10  19  34  54  74 103 138 170 206 253 306
#     4  10  21  36  54  74  99 134 173 214 254 298
#     4  10  19  33  53  74  99 139 177 199 240 310
#     4  11  23  35  49  75 106 132 168 217 258 292
#     4  10  20  35  53  72 100 140 176 200 238 309
#
# _framework density 16.977875999999998
#
# number of rings (size 3 to 8) (size 9 to 14) (size 15 to 20)
#    0.000    2.000    2.857    1.286    0.000    5.143 
#    0.000    0.000    0.000    0.857    0.000    6.000 
#    0.000    0.000    0.000    0.000    0.000    0.000 
#
# Total GULP energy -347284.221401 kJ/mol
# GULP energy per Si atom -12403.007907 kJ/mol
# Density = 1.693923 g / cm^3
# Si number density = 16.977876 Si / 1000 Ang^3
#
#
#
# Elastic Constant Matrix: (Units=GPa)
#
#
# Indices 1 2 3 4 5 6 
#
# 1 117.2909 54.5001 47.5152 0.0002 3.4604 0.0001
# 2 54.5001 73.3569 38.9353 0.0024 4.0311 -0.0007
# 3 47.5152 38.9353 71.0572 0.0001 -2.4326 -0.0002
# 4 0.0002 0.0024 0.0001 25.4162 -0.0007 2.2199
# 5 3.4604 4.0311 -2.4326 -0.0007 25.9463 0.0002
# 6 0.0001 -0.0007 -0.0002 2.2199 0.0002 30.6370
#
#
#
# Elastic Compliance Matrix: (Units=1/GPa)
#
#
# Indices 1 2 3 4 5 6 
#
# 1 0.014335 -0.007718 -0.005398 0.000001 -0.001219 0.000000
# 2 -0.007718 0.023798 -0.007996 -0.000002 -0.003418 0.000001
# 3 -0.005398 -0.007996 0.022203 0.000001 0.004044 0.000000
# 4 0.000001 -0.000002 0.000001 0.039596 0.000001 -0.002869
# 5 -0.001219 -0.003418 0.004044 0.000001 0.039614 0.000000
# 6 0.000000 0.000001 0.000000 -0.002869 0.000000 0.032848
#
#
# Mechanical properties :
#
#
# Convention : Reuss Voigt Hill
#
# Bulk Modulus (GPa) = 55.21496 60.40070 57.80783
# Shear Modulus (GPa) = 22.65993 24.45020 23.55506
#
# Velocity S-wave (km/s) = 3.65728 3.79901 3.72882
# Velocity P-wave (km/s) = 7.10117 7.40923 7.25683
#
# Compressibility (1/GPa) = 0.01811103
#
# Stress axis : x y z
#
# Youngs Moduli (GPa) = 69.76043 42.02099 45.03939
#
# Poissons Ratio (x) = 0.32431 0.24314
# Poissons Ratio (y) = 0.53839 0.36014
# Poissons Ratio (z) = 0.37659 0.33600
#
# Static dielectric constant tensor:
#      x y z
#    x 3.259730 0.000000 0.068680 
#    y 0.000000 3.220350 0.000000 
#    z 0.068680 0.000000 3.154600 
# 
# 
# High freq. dielectric constant tensor:
#      x y z
#    x 1.652910 0.000000 0.009460 
#    y 0.000000 1.658560 0.000000 
#    z 0.009460 0.000000 1.637880 
# 
# From -- ./inp_files/244302.got.cif
#   From: 2010.06.25/outbox.cif.g09.slc.cpg/sg12_123_cif.got.tgz:244302.got - 2010.06.28 00:19:55.
