data_PCOD8085661
_publ_section_title
;
Structure prediction by ZEFSAII (Michael W. Deem and Ramdas Pophale) SiO2 
 PCOD8085661
Probable space group: C 2/M
;
_chemical_formula_sum "Si O2"
_cell_formula_units_Z 64
_cell_length_a 5.162012
_cell_length_b 24.230641
_cell_length_c 26.804966
_cell_angle_alpha 90.000000
_cell_angle_beta 81.696945
_cell_angle_gamma 90.000000
_cell_volume 3317.591519
_symmetry_space_group_name_H-M "C 2/M"
_symmetry_group_IT_number 12
_symmetry_cell_setting 'monoclinic'
loop_
_space_group_symop_operation_xyz
x,y,z
-x,y,-z
-x,-y,-z
x,-y,z
1/2+x,1/2+y,z
1/2-x,1/2+y,-z
1/2-x,1/2-y,-z
1/2+x,1/2-y,z
loop_
_atom_site_type_symbol
_atom_site_label
_atom_site_fract_x
_atom_site_fract_y
_atom_site_fract_z
Si Si1 0.530964 0.064212 0.444332
Si Si2 0.197746 0.060919 0.873547
Si Si3 0.433368 0.565086 0.617755
Si Si4 0.115653 0.117320 0.277392
Si Si5 0.191651 0.372088 0.887784
Si Si6 0.770313 0.773022 0.943561
Si Si7 0.227051 0.787431 0.205174
Si Si8 0.362369 0.939255 0.757011
O O1 0.500000 0.091826 0.500000
O O2 0.270999 0.076005 0.420525
O O3 0.785491 0.087002 0.408620
O O4 0.583735 0.000000 0.450478
O O5 0.403077 0.102867 0.892172
O O6 0.235302 0.057662 0.814025
O O7 0.901020 0.079893 0.889551
O O8 0.230769 0.000000 0.896415
O O9 0.434411 0.500000 0.633654
O O10 0.347537 0.605439 0.665073
O O11 0.155547 0.180741 0.259016
O O12 0.344200 0.082946 0.243597
O O13 0.821666 0.098713 0.271864
O O14 0.200018 0.337100 0.939205
O O15 0.267647 0.331990 0.839758
O O16 0.562627 0.738804 0.915264
O O17 0.750000 0.750000 0.000000
O O18 0.509231 0.759017 0.201827
O O19 0.374358 0.000000 0.731848
#
# Coordination Sequence:
#
# PCOD8085661 Si02
#       8
#     8   8   8   8   8   8   8   8
#     4   9  17  30  47  70 104 140 175 221 278 334
#     4  11  22  36  56  86 118 154 194 225 269 334
#     4  10  19  30  48  75 103 140 182 221 270 335
#     4  12  22  36  51  76 110 150 192 230 281 323
#     4  12  21  39  60  86 117 155 188 241 280 334
#     4  10  21  38  61  93 119 143 188 239 300 338
#     4  12  24  38  54  76 109 149 193 232 281 335
#     4  11  20  34  52  75 109 149 189 226 264 314
#
# _framework density 19.291105000000002
#
# number of rings (size 3 to 8) (size 9 to 14) (size 15 to 20)
#    0.000    1.125    2.500    5.625    0.000    4.500 
#    0.000    0.000    0.000    0.000    0.000   35.000 
#    0.000   10.000    0.000    0.000    0.000    0.000 
#
# Total GULP energy -396659.663233 kJ/mol
# GULP energy per Si atom -12395.614476 kJ/mol
# Density = 1.924720 g / cm^3
# Si number density = 19.291105 Si / 1000 Ang^3
#
#
#
# Elastic Constant Matrix: (Units=GPa)
#
#
# Indices 1 2 3 4 5 6 
#
# 1 104.5411 15.8772 1.1421 0.0000 14.9723 0.0000
# 2 15.8772 77.0339 27.7630 0.0000 9.2463 0.0000
# 3 1.1421 27.7630 68.6169 0.0000 5.3988 0.0000
# 4 0.0000 0.0000 0.0000 21.0120 0.0000 -1.4801
# 5 14.9723 9.2463 5.3988 0.0000 18.3291 0.0000
# 6 0.0000 0.0000 0.0000 -1.4801 0.0000 36.1823
#
#
#
# Elastic Compliance Matrix: (Units=1/GPa)
#
#
# Indices 1 2 3 4 5 6 
#
# 1 0.011025 -0.001670 0.001161 0.000000 -0.008505 0.000000
# 2 -0.001670 0.016122 -0.006104 0.000000 -0.004971 0.000000
# 3 0.001161 -0.006104 0.017256 0.000000 -0.002952 0.000000
# 4 0.000000 0.000000 0.000000 0.047729 0.000000 0.001952
# 5 -0.008505 -0.004971 -0.002952 0.000000 0.064883 0.000000
# 6 0.000000 0.000000 0.000000 0.001952 0.000000 0.027718
#
#
# Mechanical properties :
#
#
# Convention : Reuss Voigt Hill
#
# Bulk Modulus (GPa) = 32.07431 37.75074 34.91252
# Shear Modulus (GPa) = 23.99795 28.79866 26.39831
#
# Velocity S-wave (km/s) = 3.53085 3.86793 3.70323
# Velocity P-wave (km/s) = 5.76933 6.28962 6.03508
#
# Compressibility (1/GPa) = 0.03117760
#
# Stress axis : x y z
#
# Youngs Moduli (GPa) = 90.70565 62.02664 57.94938
#
# Poissons Ratio (x) = 0.10358 -0.06730
# Poissons Ratio (y) = 0.15147 0.35374
# Poissons Ratio (z) = -0.10534 0.37863
#
# Static dielectric constant tensor:
#      x y z
#    x 3.183380 0.000000 0.026850 
#    y 0.000000 3.562960 0.000000 
#    z 0.026850 0.000000 3.487360 
# 
# 
# High freq. dielectric constant tensor:
#      x y z
#    x 1.781010 0.000000 0.005350 
#    y 0.000000 1.717040 0.000000 
#    z 0.005350 0.000000 1.730590 
# 
# From -- ./inp_files/355064.got.cif
#   From: 2010.06.25/outbox.cif.g09.slc.cpg/sg12_178_cif.got.tgz:355064.got - 2010.06.28 00:19:55.
