data_PCOD8085093
_publ_section_title
;
Structure prediction by ZEFSAII (Michael W. Deem and Ramdas Pophale) SiO2 
 PCOD8085093
Probable space group: C 2/M
;
_chemical_formula_sum "Si O2"
_cell_formula_units_Z 48
_cell_length_a 9.112024
_cell_length_b 30.482267
_cell_length_c 15.497403
_cell_angle_alpha 90.000000
_cell_angle_beta 143.420110
_cell_angle_gamma 90.000000
_cell_volume 2565.227055
_symmetry_space_group_name_H-M "C 2/M"
_symmetry_group_IT_number 12
_symmetry_cell_setting 'monoclinic'
loop_
_space_group_symop_operation_xyz
x,y,z
-x,y,-z
-x,-y,-z
x,-y,z
1/2+x,1/2+y,z
1/2-x,1/2+y,-z
1/2-x,1/2-y,-z
1/2+x,1/2-y,z
loop_
_atom_site_type_symbol
_atom_site_label
_atom_site_fract_x
_atom_site_fract_y
_atom_site_fract_z
Si Si1 0.600961 0.875911 0.816831
Si Si2 0.433667 0.792167 0.824280
Si Si3 0.536202 0.621897 0.156469
Si Si4 0.610899 0.293352 0.830465
Si Si5 0.219408 0.049738 0.663712
Si Si6 0.220376 0.049715 0.860474
O O1 0.431459 0.833516 0.757436
O O2 0.696755 0.877955 0.763331
O O3 0.459018 0.920834 0.765909
O O4 0.831013 0.871563 0.987832
O O5 0.438920 0.748389 0.768933
O O6 0.188366 0.792343 0.766697
O O7 0.659747 0.792989 0.996786
O O8 0.539062 0.661886 0.225452
O O9 0.477860 0.576811 0.178406
O O10 0.128675 0.051722 0.719166
O O11 0.000000 0.067486 0.500000
O O12 0.291398 0.000000 0.671878
O O13 0.221518 0.000000 0.896983
O O14 0.500000 0.069142 0.000000
#
# Coordination Sequence:
#
# PCOD8085093 Si02
#       6
#     8   8   8   8   8   8
#     4  10  19  31  48  75 105 137 172 217 264 311
#     4   9  16  26  42  66 103 137 171 208 256 312
#     4  10  19  29  49  77 107 133 170 218 267 312
#     4   9  16  25  41  68 102 138 167 209 262 308
#     4  10  21  37  55  75 103 140 179 216 260 316
#     4  10  19  33  53  76 101 132 173 216 262 311
#
# _framework density 18.711794000000001
#
# number of rings (size 3 to 8) (size 9 to 14) (size 15 to 20)
#    0.000    2.333    1.667    2.000    2.333    4.667 
#    0.000    2.500    0.000    3.000    0.000   10.500 
#    0.000    0.000    0.000    0.000    0.000    0.000 
#
# Total GULP energy -297548.173654 kJ/mol
# GULP energy per Si atom -12397.840569 kJ/mol
# Density = 1.866920 g / cm^3
# Si number density = 18.711794 Si / 1000 Ang^3
#
#
#
# Elastic Constant Matrix: (Units=GPa)
#
#
# Indices 1 2 3 4 5 6 
#
# 1 170.1368 83.1272 7.2084 0.0000 -6.1436 0.0000
# 2 83.1272 129.7447 4.0727 0.0000 0.4327 0.0000
# 3 7.2084 4.0727 26.5476 0.0000 -9.8545 0.0000
# 4 0.0000 0.0000 0.0000 5.4549 0.0000 -8.3693
# 5 -6.1436 0.4327 -9.8545 0.0000 11.4135 0.0000
# 6 0.0000 0.0000 0.0000 -8.3693 0.0000 33.4021
#
#
#
# Elastic Compliance Matrix: (Units=1/GPa)
#
#
# Indices 1 2 3 4 5 6 
#
# 1 0.008833 -0.005692 0.000471 0.000000 0.005377 0.000000
# 2 -0.005692 0.011442 -0.002219 0.000000 -0.005414 0.000000
# 3 0.000471 -0.002219 0.055932 0.000000 0.048630 0.000000
# 4 0.000000 0.000000 0.000000 0.297810 0.000000 0.074620
# 5 0.005377 -0.005414 0.048630 0.000000 0.132702 0.000000
# 6 0.000000 0.000000 0.000000 0.074620 0.000000 0.048635
#
#
# Mechanical properties :
#
#
# Convention : Reuss Voigt Hill
#
# Bulk Modulus (GPa) = 16.30638 57.24953 36.77796
# Shear Modulus (GPa) = 8.46486 25.52215 16.99350
#
# Velocity S-wave (km/s) = 2.12923 3.69719 3.01686
# Velocity P-wave (km/s) = 3.84425 6.99196 5.64206
#
# Compressibility (1/GPa) = 0.06132569
#
# Stress axis : x y z
#
# Youngs Moduli (GPa) = 113.21389 87.39769 17.87877
#
# Poissons Ratio (x) = 0.49746 -0.00841
# Poissons Ratio (y) = 0.64440 0.03968
# Poissons Ratio (z) = -0.05328 0.19397
#
# Static dielectric constant tensor:
#      x y z
#    x 3.658320 0.000000 -0.135980 
#    y 0.000000 3.575170 0.000000 
#    z -0.135980 0.000000 2.886070 
# 
# 
# High freq. dielectric constant tensor:
#      x y z
#    x 1.733650 0.000000 -0.013870 
#    y 0.000000 1.740560 0.000000 
#    z -0.013870 0.000000 1.656530 
# 
# From -- ./inp_files/123031.got.cif
#   From: 2010.06.25/outbox.cif.g09.slc.cpg/sg12_62_cif.got.tgz:123031.got - 2010.06.28 00:19:55.
