data_PCOD8085914
_publ_section_title
;
Structure prediction by ZEFSAII (Michael W. Deem and Ramdas Pophale) SiO2 
 PCOD8085914
Probable space group: C 2/M
;
_chemical_formula_sum "Si O2"
_cell_formula_units_Z 44
_cell_length_a 5.037214
_cell_length_b 23.848169
_cell_length_c 30.802075
_cell_angle_alpha 90.000000
_cell_angle_beta 129.733232
_cell_angle_gamma 90.000000
_cell_volume 2845.562292
_symmetry_space_group_name_H-M "C 2/M"
_symmetry_group_IT_number 12
_symmetry_cell_setting 'monoclinic'
loop_
_space_group_symop_operation_xyz
x,y,z
-x,y,-z
-x,-y,-z
x,-y,z
1/2+x,1/2+y,z
1/2-x,1/2+y,-z
1/2-x,1/2-y,-z
1/2+x,1/2-y,z
loop_
_atom_site_type_symbol
_atom_site_label
_atom_site_fract_x
_atom_site_fract_y
_atom_site_fract_z
Si Si1 0.738337 0.065404 0.565471
Si Si2 0.343524 0.289061 0.702182
Si Si3 0.742875 0.714070 0.825350
Si Si4 0.664525 0.287367 0.058558
Si Si5 0.000000 0.788864 0.500000
Si Si6 0.383870 0.128025 0.602569
O O1 0.500000 0.083844 0.500000
O O2 0.551233 0.079275 0.590934
O O3 0.092024 0.099893 0.601532
O O4 0.820943 0.000000 0.571859
O O5 0.579865 0.258296 0.691420
O O6 0.571028 0.315639 0.765543
O O7 0.161451 0.342826 0.662552
O O8 0.441687 0.730833 0.827335
O O9 0.041164 0.678619 0.882734
O O10 0.360729 0.267119 0.058570
O O11 0.500000 0.321462 0.000000
O O12 0.750000 0.750000 0.500000
O O13 0.772016 0.825171 0.444339
#
# Coordination Sequence:
#
# PCOD8085914 Si02
#       6
#     8   8   8   8   4   8
#     4  11  22  38  54  68  82 101 134 177 219 258
#     4  10  19  31  44  62  88 117 143 167 196 246
#     4   8  14  23  35  50  73 105 138 167 194 225
#     4   8  12  18  29  46  67  94 132 173 200 217
#     4  12  22  32  45  66  91 112 134 162 196 238
#     4  12  21  35  50  68  86 111 137 168 212 249
#
# _framework density 15.462673000000001
#
# number of rings (size 3 to 8) (size 9 to 14) (size 15 to 20)
#    0.000    2.000    1.818    3.818    0.000    1.455 
#    0.000    0.000    0.000    0.000    0.000    0.000 
#    0.000    0.000    0.000    0.000    0.000    5.455 
#
# Total GULP energy -272573.267500 kJ/mol
# GULP energy per Si atom -12389.693977 kJ/mol
# Density = 1.542748 g / cm^3
# Si number density = 15.462673 Si / 1000 Ang^3
#
#
#
# Elastic Constant Matrix: (Units=GPa)
#
#
# Indices 1 2 3 4 5 6 
#
# 1 75.1164 13.1779 11.7401 0.0000 -0.1565 0.0000
# 2 13.1779 39.1569 26.7261 0.0000 6.8844 0.0000
# 3 11.7401 26.7261 127.3816 0.0000 22.0073 0.0000
# 4 0.0000 0.0000 0.0000 50.0823 0.0000 15.1445
# 5 -0.1565 6.8844 22.0073 0.0000 27.3127 0.0000
# 6 0.0000 0.0000 0.0000 15.1445 0.0000 30.4164
#
#
#
# Elastic Compliance Matrix: (Units=1/GPa)
#
#
# Indices 1 2 3 4 5 6 
#
# 1 0.014235 -0.004666 -0.000639 0.000000 0.001773 0.000000
# 2 -0.004666 0.031532 -0.005585 0.000000 -0.003474 0.000000
# 3 -0.000639 -0.005585 0.010268 0.000000 -0.006869 0.000000
# 4 0.000000 0.000000 0.000000 0.023506 0.000000 -0.011704
# 5 0.001773 -0.003474 -0.006869 0.000000 0.043034 0.000000
# 6 0.000000 0.000000 0.000000 -0.011704 0.000000 0.038704
#
#
# Mechanical properties :
#
#
# Convention : Reuss Voigt Hill
#
# Bulk Modulus (GPa) = 29.19434 38.32699 33.76067
# Shear Modulus (GPa) = 25.70982 34.22966 29.96974
#
# Velocity S-wave (km/s) = 4.08205 4.71010 4.40727
# Velocity P-wave (km/s) = 6.41397 7.37703 6.91229
#
# Compressibility (1/GPa) = 0.03425321
#
# Stress axis : x y z
#
# Youngs Moduli (GPa) = 70.25020 31.71413 97.38972
#
# Poissons Ratio (x) = 0.14798 0.06226
# Poissons Ratio (y) = 0.32779 0.54396
# Poissons Ratio (z) = 0.04491 0.17714
#
# Static dielectric constant tensor:
#      x y z
#    x 3.174290 0.000000 0.142130 
#    y 0.000000 2.451050 0.000000 
#    z 0.142130 0.000000 3.498990 
# 
# 
# High freq. dielectric constant tensor:
#      x y z
#    x 1.624330 0.000000 -0.000580 
#    y 0.000000 1.512090 0.000000 
#    z -0.000580 0.000000 1.611050 
# 
# From -- ./inp_files/354998.got.cif
#   From: 2010.06.25/outbox.cif.g09.slc.cpg/sg12_178_cif.got.tgz:354998.got - 2010.06.28 00:19:55.
