data_PCOD8085203
_publ_section_title
;
Structure prediction by ZEFSAII (Michael W. Deem and Ramdas Pophale) SiO2 
 PCOD8085203
Probable space group: C 2/M
;
_chemical_formula_sum "Si O2"
_cell_formula_units_Z 64
_cell_length_a 28.201726
_cell_length_b 9.491819
_cell_length_c 16.571857
_cell_angle_alpha 90.000000
_cell_angle_beta 54.268356
_cell_angle_gamma 90.000000
_cell_volume 3601.011923
_symmetry_space_group_name_H-M "C 2/M"
_symmetry_group_IT_number 12
_symmetry_cell_setting 'monoclinic'
loop_
_space_group_symop_operation_xyz
x,y,z
-x,y,-z
-x,-y,-z
x,-y,z
1/2+x,1/2+y,z
1/2-x,1/2+y,-z
1/2-x,1/2-y,-z
1/2+x,1/2-y,z
loop_
_atom_site_type_symbol
_atom_site_label
_atom_site_fract_x
_atom_site_fract_y
_atom_site_fract_z
Si Si1 0.797393 0.664011 0.219228
Si Si2 0.168136 0.163117 0.354017
Si Si3 0.405468 0.339025 0.085701
Si Si4 0.000175 0.334448 0.704368
Si Si5 0.628003 0.844260 0.533401
Si Si6 0.550020 0.665700 0.385201
Si Si7 0.991899 0.162718 0.140032
Si Si8 0.292824 0.841485 0.405187
O O1 0.812705 0.500000 0.196467
O O2 0.731698 0.695223 0.250523
O O3 0.847477 0.749144 0.122826
O O4 0.800564 0.718559 0.308164
O O5 0.165734 0.237405 0.443070
O O6 0.114085 0.211719 0.352970
O O7 0.162502 0.000000 0.379560
O O8 0.386015 0.500000 0.113413
O O9 0.437912 0.291557 0.136131
O O10 0.448272 0.319131 0.968116
O O11 0.984750 0.500000 0.728547
O O12 0.059989 0.310030 0.596555
O O13 0.003926 0.265215 0.788241
O O14 0.954130 0.253712 0.693467
O O15 0.645144 0.835897 0.610696
O O16 0.640802 0.000000 0.486268
O O17 0.500000 0.706079 0.500000
O O18 0.546813 0.500000 0.368439
O O19 0.984262 0.000000 0.175113
O O20 0.250000 0.750000 0.500000
O O21 0.267857 0.000000 0.424655
#
# Coordination Sequence:
#
# PCOD8085203 Si02
#       8
#     8   8   8   8   8   8   8   8
#     4  10  20  33  50  74 107 141 174 216 263 312
#     4  10  20  34  51  72 100 138 180 216 254 305
#     4   9  19  36  58  82 107 138 176 215 259 315
#     4  11  22  34  53  80 108 137 172 219 274 319
#     4  10  20  31  45  70 104 137 170 211 257 306
#     4  10  20  35  55  76 101 139 185 224 263 313
#     4   9  19  37  58  81 108 137 174 218 261 312
#     4  10  19  30  44  66  99 136 171 206 245 296
#
# _framework density 17.772781999999999
#
# number of rings (size 3 to 8) (size 9 to 14) (size 15 to 20)
#    0.000    2.125    2.500    1.875    0.000    4.250 
#    0.000    1.250    0.000    0.750    0.000    0.000 
#    0.000    0.000    0.000    0.000    0.000    0.000 
#
# Total GULP energy -396680.069678 kJ/mol
# GULP energy per Si atom -12396.252177 kJ/mol
# Density = 1.773233 g / cm^3
# Si number density = 17.772782 Si / 1000 Ang^3
#
#
#
# Elastic Constant Matrix: (Units=GPa)
#
#
# Indices 1 2 3 4 5 6 
#
# 1 102.0233 39.9147 29.9911 0.0000 -14.0425 0.0000
# 2 39.9147 68.0732 35.9427 0.0000 -2.2319 0.0000
# 3 29.9911 35.9427 47.3433 0.0000 -6.0199 0.0000
# 4 0.0000 0.0000 0.0000 31.0040 0.0000 -2.0315
# 5 -14.0425 -2.2319 -6.0199 0.0000 29.6453 0.0000
# 6 0.0000 0.0000 0.0000 -2.0315 0.0000 27.1151
#
#
#
# Elastic Compliance Matrix: (Units=1/GPa)
#
#
# Indices 1 2 3 4 5 6 
#
# 1 0.013997 -0.006197 -0.003468 0.000000 0.005459 0.000000
# 2 -0.006197 0.027377 -0.017419 0.000000 -0.004412 0.000000
# 3 -0.003468 -0.017419 0.037127 0.000000 0.004585 0.000000
# 4 0.000000 0.000000 0.000000 0.032413 0.000000 0.002428
# 5 0.005459 -0.004412 0.004585 0.000000 0.036917 0.000000
# 6 0.000000 0.000000 0.000000 0.002428 0.000000 0.037062
#
#
# Mechanical properties :
#
#
# Convention : Reuss Voigt Hill
#
# Bulk Modulus (GPa) = 41.09850 47.68188 44.39019
# Shear Modulus (GPa) = 20.22888 24.99230 22.61059
#
# Velocity S-wave (km/s) = 3.37737 3.75402 3.57067
# Velocity P-wave (km/s) = 6.19544 6.75848 6.48307
#
# Compressibility (1/GPa) = 0.02433179
#
# Stress axis : x y z
#
# Youngs Moduli (GPa) = 71.44352 36.52762 26.93475
#
# Poissons Ratio (x) = 0.22637 0.09341
# Poissons Ratio (y) = 0.44275 0.46918
# Poissons Ratio (z) = 0.24776 0.63628
#
# Static dielectric constant tensor:
#      x y z
#    x 3.525920 0.000000 -0.106620 
#    y 0.000000 3.301060 0.000000 
#    z -0.106620 0.000000 3.005850 
# 
# 
# High freq. dielectric constant tensor:
#      x y z
#    x 1.691030 0.000000 -0.009710 
#    y 0.000000 1.688420 0.000000 
#    z -0.009710 0.000000 1.657880 
# 
# From -- ./inp_files/249751.got.cif
#   From: 2010.06.25/outbox.cif.g09.slc.cpg/sg12_125_cif.got.tgz:249751.got - 2010.06.28 00:19:55.
