data_PCOD8085149
_publ_section_title
;
Structure prediction by ZEFSAII (Michael W. Deem and Ramdas Pophale) SiO2 
 PCOD8085149
Probable space group: C 2/M
;
_chemical_formula_sum "Si O2"
_cell_formula_units_Z 64
_cell_length_a 27.747641
_cell_length_b 9.569503
_cell_length_c 14.305657
_cell_angle_alpha 90.000000
_cell_angle_beta 106.437522
_cell_angle_gamma 90.000000
_cell_volume 3643.344352
_symmetry_space_group_name_H-M "C 2/M"
_symmetry_group_IT_number 12
_symmetry_cell_setting 'monoclinic'
loop_
_space_group_symop_operation_xyz
x,y,z
-x,y,-z
-x,-y,-z
x,-y,z
1/2+x,1/2+y,z
1/2-x,1/2+y,-z
1/2-x,1/2-y,-z
1/2+x,1/2-y,z
loop_
_atom_site_type_symbol
_atom_site_label
_atom_site_fract_x
_atom_site_fract_y
_atom_site_fract_z
Si Si1 0.893879 0.841768 0.307507
Si Si2 0.005380 0.840395 0.393839
Si Si3 0.849340 0.837739 0.761358
Si Si4 0.707762 0.338298 0.090940
Si Si5 0.909903 0.337243 0.657549
Si Si6 0.857129 0.654422 0.442897
Si Si7 0.753655 0.156935 0.591275
Si Si8 0.804422 0.836564 0.128475
O O1 0.952018 0.828088 0.310101
O O2 0.889422 0.762570 0.402718
O O3 0.855702 0.784850 0.207288
O O4 0.879481 0.000000 0.321987
O O5 0.000000 0.798577 0.500000
O O6 0.040936 0.733410 0.359227
O O7 0.025748 0.000000 0.397950
O O8 0.838855 0.805310 0.864946
O O9 0.893756 0.741216 0.744441
O O10 0.797295 0.795083 0.683826
O O11 0.863691 0.000000 0.753304
O O12 0.723827 0.500000 0.110567
O O13 0.756744 0.246854 0.142678
O O14 0.688016 0.303090 0.976729
O O15 0.920778 0.500000 0.685679
O O16 0.864857 0.318624 0.557945
O O17 0.877107 0.500000 0.429045
O O18 0.798968 0.669638 0.382834
O O19 0.750000 0.250000 0.500000
O O20 0.763047 0.000000 0.561427
O O21 0.794308 0.000000 0.139446
#
# Coordination Sequence:
#
# PCOD8085149 Si02
#       8
#     8   8   8   8   8   8   8   8
#     4  10  20  33  52  76 100 130 167 209 253 298
#     4  10  20  35  53  72  99 134 172 211 253 303
#     4  10  20  33  51  71  98 138 174 203 245 303
#     4   9  18  34  55  78 106 137 168 204 250 304
#     4  11  22  34  50  72 100 132 170 213 252 296
#     4  10  20  32  46  69 101 133 165 203 247 296
#     4  10  19  30  43  64  95 130 164 195 232 284
#     4   9  18  33  54  81 107 131 166 211 254 297
#
# _framework density 17.566279000000002
#
# number of rings (size 3 to 8) (size 9 to 14) (size 15 to 20)
#    0.000    2.125    2.500    1.125    0.000    3.750 
#    0.000    0.000    0.000    0.750    0.000    5.250 
#    0.000    0.000    0.000    0.000    0.000    0.000 
#
# Total GULP energy -396713.483145 kJ/mol
# GULP energy per Si atom -12397.296348 kJ/mol
# Density = 1.752630 g / cm^3
# Si number density = 17.566279 Si / 1000 Ang^3
#
#
#
# Elastic Constant Matrix: (Units=GPa)
#
#
# Indices 1 2 3 4 5 6 
#
# 1 89.1289 49.4931 38.6603 0.0000 -12.3473 0.0000
# 2 49.4931 76.1266 36.8413 0.0000 -15.4081 0.0000
# 3 38.6603 36.8413 65.4228 0.0000 -11.2355 0.0000
# 4 0.0000 0.0000 0.0000 20.6343 0.0000 -3.6784
# 5 -12.3473 -15.4081 -11.2355 0.0000 30.4712 0.0000
# 6 0.0000 0.0000 0.0000 -3.6784 0.0000 31.3060
#
#
#
# Elastic Compliance Matrix: (Units=1/GPa)
#
#
# Indices 1 2 3 4 5 6 
#
# 1 0.019100 -0.009427 -0.005838 0.000000 0.000820 0.000000
# 2 -0.009427 0.023703 -0.006806 0.000000 0.005657 0.000000
# 3 -0.005838 -0.006806 0.023028 0.000000 0.002684 0.000000
# 4 0.000000 0.000000 0.000000 0.049500 0.000000 0.005816
# 5 0.000820 0.005657 0.002684 0.000000 0.037000 0.000000
# 6 0.000000 0.000000 0.000000 0.005816 0.000000 0.032626
#
#
# Mechanical properties :
#
#
# Convention : Reuss Voigt Hill
#
# Bulk Modulus (GPa) = 46.10130 53.40752 49.75441
# Shear Modulus (GPa) = 21.15698 23.52788 22.34243
#
# Velocity S-wave (km/s) = 3.47422 3.66372 3.57023
# Velocity P-wave (km/s) = 6.51113 6.95461 6.73652
#
# Compressibility (1/GPa) = 0.02169136
#
# Stress axis : x y z
#
# Youngs Moduli (GPa) = 52.35606 42.18823 43.42471
#
# Poissons Ratio (x) = 0.39769 0.25349
# Poissons Ratio (y) = 0.49354 0.29555
# Poissons Ratio (z) = 0.30563 0.28714
#
# Static dielectric constant tensor:
#      x y z
#    x 3.228590 0.000000 0.046500 
#    y 0.000000 3.296690 0.000000 
#    z 0.046500 0.000000 3.361990 
# 
# 
# High freq. dielectric constant tensor:
#      x y z
#    x 1.668220 0.000000 -0.002420 
#    y 0.000000 1.681370 0.000000 
#    z -0.002420 0.000000 1.659770 
# 
# From -- ./inp_files/244108.got.cif
#   From: 2010.06.25/outbox.cif.g09.slc.cpg/sg12_123_cif.got.tgz:244108.got - 2010.06.28 00:19:55.
