data_PCOD8085778
_publ_section_title
;
Structure prediction by ZEFSAII (Michael W. Deem and Ramdas Pophale) SiO2 
 PCOD8085778
Probable space group: C 2/M
;
_chemical_formula_sum "Si O2"
_cell_formula_units_Z 64
_cell_length_a 19.423940
_cell_length_b 31.151182
_cell_length_c 9.708779
_cell_angle_alpha 90.000000
_cell_angle_beta 141.210669
_cell_angle_gamma 90.000000
_cell_volume 3680.178679
_symmetry_space_group_name_H-M "C 2/M"
_symmetry_group_IT_number 12
_symmetry_cell_setting 'monoclinic'
loop_
_space_group_symop_operation_xyz
x,y,z
-x,y,-z
-x,-y,-z
x,-y,z
1/2+x,1/2+y,z
1/2-x,1/2+y,-z
1/2-x,1/2-y,-z
1/2+x,1/2-y,z
loop_
_atom_site_type_symbol
_atom_site_label
_atom_site_fract_x
_atom_site_fract_y
_atom_site_fract_z
Si Si1 0.717409 0.807620 0.810556
Si Si2 0.640120 0.047933 0.968516
Si Si3 0.618663 0.046530 0.433705
Si Si4 0.070954 0.761225 0.238285
Si Si5 0.627310 0.897153 0.203664
Si Si6 0.869220 0.399571 0.298892
Si Si7 0.724801 0.813789 0.489150
Si Si8 0.922952 0.766731 0.266676
O O1 0.681009 0.853427 0.809696
O O2 0.726775 0.809481 0.659054
O O3 0.631151 0.772770 0.733258
O O4 0.834637 0.798688 0.063605
O O5 0.510875 0.043036 0.751212
O O6 0.681660 0.066621 0.888521
O O7 0.690305 0.000000 0.076099
O O8 0.670829 0.085570 0.125257
O O9 0.643040 0.060036 0.316999
O O10 0.668796 0.082403 0.612745
O O11 0.672307 0.000000 0.546109
O O12 0.160783 0.798759 0.401292
O O13 0.129933 0.717298 0.285409
O O14 0.999217 0.750760 0.260794
O O15 0.000000 0.777282 0.000000
O O16 0.700781 0.860217 0.387322
O O17 0.500000 0.881946 0.000000
O O18 0.000000 0.395256 0.500000
O O19 0.000000 0.790796 0.500000
#
# Coordination Sequence:
#
# PCOD8085778 Si02
#       8
#     8   8   8   8   8   8   8   8
#     4  11  22  36  57  80 105 138 184 224 261 315
#     4   9  18  30  44  71 107 143 173 206 258 316
#     4   9  16  28  47  69 101 143 175 204 256 318
#     4  11  23  38  55  76 108 146 176 221 271 313
#     4  10  19  31  49  75 107 141 175 218 256 305
#     4  10  19  30  50  74 107 140 176 217 257 306
#     4  11  22  36  55  80 106 139 186 221 260 317
#     4  11  23  39  57  76 107 142 176 221 274 316
#
# _framework density 17.390460000000001
#
# number of rings (size 3 to 8) (size 9 to 14) (size 15 to 20)
#    0.000    1.750    3.750    1.500    0.000    5.000 
#    0.000    0.000    0.000    0.000    0.000    0.000 
#    0.000   20.000    0.000    0.000    0.000    0.000 
#
# Total GULP energy -396510.756016 kJ/mol
# GULP energy per Si atom -12390.961126 kJ/mol
# Density = 1.735088 g / cm^3
# Si number density = 17.390460 Si / 1000 Ang^3
#
#
#
# Elastic Constant Matrix: (Units=GPa)
#
#
# Indices 1 2 3 4 5 6 
#
# 1 63.9254 19.6667 32.8020 0.0000 -8.5090 0.0000
# 2 19.6667 112.8593 45.9159 0.0000 -3.3076 0.0000
# 3 32.8020 45.9159 93.3613 0.0000 -9.3778 0.0000
# 4 0.0000 0.0000 0.0000 26.8535 0.0000 -6.0847
# 5 -8.5090 -3.3076 -9.3778 0.0000 24.2802 0.0000
# 6 0.0000 0.0000 0.0000 -6.0847 0.0000 -19.9968
#
#
#
# Elastic Compliance Matrix: (Units=1/GPa)
#
#
# Indices 1 2 3 4 5 6 
#
# 1 0.019580 -0.000830 -0.006027 0.000000 0.004421 0.000000
# 2 -0.000830 0.011121 -0.005259 0.000000 -0.000807 0.000000
# 3 -0.006027 -0.005259 0.015741 0.000000 0.003251 0.000000
# 4 0.000000 0.000000 0.000000 0.034837 0.000000 -0.010600
# 5 0.004421 -0.000807 0.003251 0.000000 0.043881 0.000000
# 6 0.000000 0.000000 0.000000 -0.010600 0.000000 -0.046783
#
#
# Mechanical properties :
#
#
# Convention : Reuss Voigt Hill
#
# Bulk Modulus (GPa) = 45.02408 51.87949 48.45179
# Shear Modulus (GPa) = 45.44906 17.67814 31.56360
#
# Velocity S-wave (km/s) = 5.11773 3.19179 4.26490
# Velocity P-wave (km/s) = 7.80179 6.59395 7.22316
#
# Compressibility (1/GPa) = 0.02221034
#
# Stress axis : x y z
#
# Youngs Moduli (GPa) = 51.07336 89.91888 63.52648
#
# Poissons Ratio (x) = 0.07467 0.38286
# Poissons Ratio (y) = 0.04241 0.33407
# Poissons Ratio (z) = 0.30781 0.47286
#
# Static dielectric constant tensor:
#      x y z
#    x 3.251420 0.000000 -0.242560 
#    y 0.000000 3.233730 0.000000 
#    z -0.242560 0.000000 3.235230 
# 
# 
# High freq. dielectric constant tensor:
#      x y z
#    x 1.657740 0.000000 -0.035860 
#    y 0.000000 1.669110 0.000000 
#    z -0.035860 0.000000 1.656760 
# 
# From -- ./inp_files/80779.got.cif
#   From: 2010.06.25/outbox.cif.g09.slc.cpg/sg12_41_cif.got.tgz:80779.got - 2010.06.28 00:19:55.
