data_PCOD8085041
_publ_section_title
;
Structure prediction by ZEFSAII (Michael W. Deem and Ramdas Pophale) SiO2 
 PCOD8085041
Probable space group: C 2/M
;
_chemical_formula_sum "Si O2"
_cell_formula_units_Z 64
_cell_length_a 23.668967
_cell_length_b 9.112610
_cell_length_c 21.619034
_cell_angle_alpha 90.000000
_cell_angle_beta 52.452501
_cell_angle_gamma 90.000000
_cell_volume 3696.992116
_symmetry_space_group_name_H-M "C 2/M"
_symmetry_group_IT_number 12
_symmetry_cell_setting 'monoclinic'
loop_
_space_group_symop_operation_xyz
x,y,z
-x,y,-z
-x,-y,-z
x,-y,z
1/2+x,1/2+y,z
1/2-x,1/2+y,-z
1/2-x,1/2-y,-z
1/2+x,1/2-y,z
loop_
_atom_site_type_symbol
_atom_site_label
_atom_site_fract_x
_atom_site_fract_y
_atom_site_fract_z
Si Si1 0.372571 0.330328 0.313447
Si Si2 0.816011 0.329564 0.713644
Si Si3 0.926895 0.171734 0.405783
Si Si4 0.469993 0.169130 0.082299
Si Si5 0.921459 0.328979 0.532268
Si Si6 0.820384 0.673573 0.236620
Si Si7 0.431526 0.167928 0.730336
Si Si8 0.009166 0.333631 0.185166
O O1 0.358430 0.500000 0.308558
O O2 0.369103 0.297535 0.389506
O O3 0.316913 0.236956 0.309363
O O4 0.452071 0.287914 0.240899
O O5 0.794789 0.500000 0.727346
O O6 0.866618 0.289601 0.622709
O O7 0.745102 0.233378 0.759351
O O8 0.857011 0.284126 0.749455
O O9 0.895721 0.242255 0.488772
O O10 0.003801 0.238900 0.339485
O O11 0.938177 0.000000 0.407608
O O12 0.393044 0.230876 0.155148
O O13 0.527715 0.190605 0.100039
O O14 0.458162 0.000000 0.074200
O O15 0.500000 0.248272 0.000000
O O16 0.921660 0.500000 0.516242
O O17 0.000000 0.276346 0.500000
O O18 0.816414 0.500000 0.243079
O O19 0.425585 0.183967 0.809627
O O20 0.447068 0.000000 0.700356
O O21 0.976978 0.500000 0.213135
#
# Coordination Sequence:
#
# PCOD8085041 Si02
#       8
#     8   8   8   8   8   8   8   8
#     4   9  17  30  47  67  94 125 155 192 241 287
#     4  10  20  33  49  67  93 129 160 195 241 283
#     4  10  19  29  46  72  96 120 155 204 249 278
#     4   8  14  27  49  76 100 120 149 192 237 278
#     4  10  19  33  49  67  92 126 165 199 238 285
#     4  10  20  33  50  72  95 123 160 196 232 282
#     4   9  16  29  47  67  93 126 164 198 232 279
#     4   8  14  25  46  73  95 120 158 198 229 268
#
# _framework density 17.31137
#
# number of rings (size 3 to 8) (size 9 to 14) (size 15 to 20)
#    0.000    2.750    1.250    1.875    0.000    2.750 
#    0.000    0.625    0.000   10.125    0.000    0.000 
#    0.000    0.000    0.000    0.000    0.000    0.500 
#
# Total GULP energy -396488.903297 kJ/mol
# GULP energy per Si atom -12390.278228 kJ/mol
# Density = 1.727197 g / cm^3
# Si number density = 17.311370 Si / 1000 Ang^3
#
#
#
# Elastic Constant Matrix: (Units=GPa)
#
#
# Indices 1 2 3 4 5 6 
#
# 1 143.8931 42.7007 58.0514 0.0001 21.2526 -0.0004
# 2 42.7007 53.3821 26.4790 -0.0017 6.7678 0.0002
# 3 58.0514 26.4790 72.9730 -0.0008 19.7340 0.0003
# 4 0.0001 -0.0017 -0.0008 10.1308 0.0006 -1.6413
# 5 21.2526 6.7678 19.7340 0.0006 27.3888 -0.0001
# 6 -0.0004 0.0002 0.0003 -1.6413 -0.0001 26.8262
#
#
#
# Elastic Compliance Matrix: (Units=1/GPa)
#
#
# Indices 1 2 3 4 5 6 
#
# 1 0.011693 -0.005807 -0.006371 -0.000001 -0.003048 0.000000
# 2 -0.005807 0.025732 -0.005237 0.000004 0.001921 0.000000
# 3 -0.006371 -0.005237 0.023580 0.000002 -0.010752 0.000000
# 4 -0.000001 0.000004 0.000002 0.099697 -0.000003 0.006100
# 5 -0.003048 0.001921 -0.010752 -0.000003 0.046149 0.000000
# 6 0.000000 0.000000 0.000000 0.006100 0.000000 0.037650
#
#
# Mechanical properties :
#
#
# Convention : Reuss Voigt Hill
#
# Bulk Modulus (GPa) = 38.20361 58.30118 48.25239
# Shear Modulus (GPa) = 17.35772 22.40363 19.88068
#
# Velocity S-wave (km/s) = 3.16994 3.60134 3.39251
# Velocity P-wave (km/s) = 5.95940 7.14451 6.57869
#
# Compressibility (1/GPa) = 0.02617554
#
# Stress axis : x y z
#
# Youngs Moduli (GPa) = 85.51954 38.86197 42.40934
#
# Poissons Ratio (x) = 0.22567 0.27018
# Poissons Ratio (y) = 0.49661 0.22210
# Poissons Ratio (z) = 0.54482 0.20352
#
# Static dielectric constant tensor:
#      x y z
#    x 3.565100 0.000000 0.421420 
#    y 0.000000 3.108790 0.000000 
#    z 0.421420 0.000000 3.102880 
# 
# 
# High freq. dielectric constant tensor:
#      x y z
#    x 1.677100 0.000000 0.032250 
#    y 0.000000 1.658940 0.000000 
#    z 0.032250 0.000000 1.625280 
# 
# From -- ./inp_files/323676.got.cif
#   From: 2010.06.25/outbox.cif.g09.slc.cpg/sg12_162_cif.got.tgz:323676.got - 2010.06.28 00:19:55.
