data_PCOD8085185
_publ_section_title
;
Structure prediction by ZEFSAII (Michael W. Deem and Ramdas Pophale) SiO2 
 PCOD8085185
Probable space group: C 2/M
;
_chemical_formula_sum "Si O2"
_cell_formula_units_Z 48
_cell_length_a 27.041962
_cell_length_b 9.455748
_cell_length_c 11.744309
_cell_angle_alpha 90.000000
_cell_angle_beta 71.553950
_cell_angle_gamma 90.000000
_cell_volume 2848.752729
_symmetry_space_group_name_H-M "C 2/M"
_symmetry_group_IT_number 12
_symmetry_cell_setting 'monoclinic'
loop_
_space_group_symop_operation_xyz
x,y,z
-x,y,-z
-x,-y,-z
x,-y,z
1/2+x,1/2+y,z
1/2-x,1/2+y,-z
1/2-x,1/2-y,-z
1/2+x,1/2-y,z
loop_
_atom_site_type_symbol
_atom_site_label
_atom_site_fract_x
_atom_site_fract_y
_atom_site_fract_z
Si Si1 0.148709 0.839319 0.254173
Si Si2 0.700693 0.663663 0.991868
Si Si3 0.375784 0.165698 0.389223
Si Si4 0.673130 0.337711 0.760099
Si Si5 0.558755 0.334350 0.483875
Si Si6 0.211510 0.658435 0.370252
O O1 0.092658 0.794670 0.346695
O O2 0.195769 0.754611 0.276119
O O3 0.159742 0.000000 0.279195
O O4 0.152304 0.816481 0.115430
O O5 0.717770 0.500000 0.970267
O O6 0.680599 0.716728 0.883981
O O7 0.750000 0.750000 0.000000
O O8 0.369661 0.238557 0.269979
O O9 0.422457 0.241702 0.422867
O O10 0.321428 0.194638 0.493618
O O11 0.388431 0.000000 0.365845
O O12 0.653537 0.500000 0.772133
O O13 0.727299 0.322226 0.651302
O O14 0.500000 0.290325 0.500000
O O15 0.563332 0.500000 0.511752
O O16 0.199012 0.500000 0.339671
#
# Coordination Sequence:
#
# PCOD8085185 Si02
#       6
#     8   8   8   8   8   8
#     4   9  17  29  47  72  96 121 158 197 231 275
#     4  10  19  30  46  68  97 131 163 193 224 270
#     4  10  20  31  46  70  96 122 157 198 237 279
#     4  10  19  30  44  64  96 133 161 187 226 277
#     4   9  18  34  55  74  93 119 152 196 248 291
#     4   9  17  29  44  65  95 128 158 190 230 275
#
# _framework density 16.849478000000001
#
# number of rings (size 3 to 8) (size 9 to 14) (size 15 to 20)
#    0.000    2.500    1.667    1.000    0.000    2.333 
#    0.000    0.000    0.000    1.000    0.000    7.000 
#    0.000    0.000    0.000    0.000    0.000    0.000 
#
# Total GULP energy -297508.951387 kJ/mol
# GULP energy per Si atom -12396.206308 kJ/mol
# Density = 1.681113 g / cm^3
# Si number density = 16.849478 Si / 1000 Ang^3
#
#
#
# Elastic Constant Matrix: (Units=GPa)
#
#
# Indices 1 2 3 4 5 6 
#
# 1 91.2436 52.1677 55.1595 0.0000 16.8913 0.0000
# 2 52.1677 74.1809 47.1868 0.0000 19.2782 0.0000
# 3 55.1595 47.1868 95.5872 0.0000 23.9073 0.0000
# 4 0.0000 0.0000 0.0000 20.1462 0.0000 5.8064
# 5 16.8913 19.2782 23.9073 0.0000 22.9958 0.0000
# 6 0.0000 0.0000 0.0000 5.8064 0.0000 24.5211
#
#
#
# Elastic Compliance Matrix: (Units=1/GPa)
#
#
# Indices 1 2 3 4 5 6 
#
# 1 0.021199 -0.010500 -0.007239 0.000000 0.000757 0.000000
# 2 -0.010500 0.026208 -0.004476 0.000000 -0.009605 0.000000
# 3 -0.007239 -0.004476 0.019704 0.000000 -0.011415 0.000000
# 4 0.000000 0.000000 0.000000 0.053273 0.000000 -0.012615
# 5 0.000757 -0.009605 -0.011415 0.000000 0.062849 0.000000
# 6 0.000000 0.000000 0.000000 -0.012615 0.000000 0.043768
#
#
# Mechanical properties :
#
#
# Convention : Reuss Voigt Hill
#
# Bulk Modulus (GPa) = 44.09174 63.33774 53.71474
# Shear Modulus (GPa) = 17.92161 20.63248 19.27705
#
# Velocity S-wave (km/s) = 3.26487 3.50311 3.38609
# Velocity P-wave (km/s) = 6.35904 7.35080 6.87283
#
# Compressibility (1/GPa) = 0.02267999
#
# Stress axis : x y z
#
# Youngs Moduli (GPa) = 47.17160 38.15574 50.75198
#
# Poissons Ratio (x) = 0.40065 0.36740
# Poissons Ratio (y) = 0.49532 0.22718
# Poissons Ratio (z) = 0.34148 0.17079
#
# Static dielectric constant tensor:
#      x y z
#    x 2.885190 0.000000 -0.040910 
#    y 0.000000 3.194390 0.000000 
#    z -0.040910 0.000000 3.266640 
# 
# 
# High freq. dielectric constant tensor:
#      x y z
#    x 1.614020 0.000000 0.006960 
#    y 0.000000 1.653230 0.000000 
#    z 0.006960 0.000000 1.647060 
# 
# From -- ./inp_files/172136.got.cif
#   From: 2010.06.25/outbox.cif.g09.slc.cpg/sg12_87_cif.got.tgz:172136.got - 2010.06.28 00:19:55.
