data_PCOD8085363
_publ_section_title
;
Structure prediction by ZEFSAII (Michael W. Deem and Ramdas Pophale) SiO2 
 PCOD8085363
Probable space group: C 2/M
;
_chemical_formula_sum "Si O2"
_cell_formula_units_Z 48
_cell_length_a 19.195843
_cell_length_b 9.680851
_cell_length_c 29.193039
_cell_angle_alpha 90.000000
_cell_angle_beta 31.425462
_cell_angle_gamma 90.000000
_cell_volume 2828.536643
_symmetry_space_group_name_H-M "C 2/M"
_symmetry_group_IT_number 12
_symmetry_cell_setting 'monoclinic'
loop_
_space_group_symop_operation_xyz
x,y,z
-x,y,-z
-x,-y,-z
x,-y,z
1/2+x,1/2+y,z
1/2-x,1/2+y,-z
1/2-x,1/2-y,-z
1/2+x,1/2-y,z
loop_
_atom_site_type_symbol
_atom_site_label
_atom_site_fract_x
_atom_site_fract_y
_atom_site_fract_z
Si Si1 0.797113 0.156893 0.237933
Si Si2 0.125151 0.158236 0.461280
Si Si3 0.444237 0.343452 0.643140
Si Si4 0.388572 0.339406 0.776306
Si Si5 0.626798 0.659218 0.706082
Si Si6 0.137035 0.838939 0.899986
O O1 0.667721 0.249973 0.317428
O O2 0.892119 0.180379 0.228627
O O3 0.875412 0.193939 0.147288
O O4 0.745865 0.000000 0.264571
O O5 0.250664 0.253991 0.381846
O O6 0.000000 0.201478 0.500000
O O7 0.082863 0.179033 0.538286
O O8 0.165898 0.000000 0.428464
O O9 0.394218 0.500000 0.664880
O O10 0.461868 0.308006 0.686797
O O11 0.348882 0.500000 0.802937
O O12 0.489660 0.292464 0.759366
O O13 0.255821 0.248528 0.855928
O O14 0.655865 0.500000 0.677453
O O15 0.165305 0.000000 0.893465
O O16 0.000000 0.790567 0.000000
#
# Coordination Sequence:
#
# PCOD8085363 Si02
#       6
#     8   8   8   8   8   8
#     4   9  17  30  49  70  93 123 157 192 233 279
#     4  10  19  30  46  69  96 127 165 201 231 268
#     4   9  17  31  48  66  92 127 164 198 229 268
#     4   9  19  34  50  70  98 127 155 191 237 283
#     4  10  20  32  47  70  99 128 157 194 237 278
#     4   9  18  34  55  75  93 118 155 195 234 282
#
# _framework density 16.969906000000002
#
# number of rings (size 3 to 8) (size 9 to 14) (size 15 to 20)
#    0.000    2.667    1.667    0.000    0.000    2.667 
#    0.000    0.833    0.000    0.000    0.000    0.000 
#    0.000    0.000    0.000    0.000    0.000    0.000 
#
# Total GULP energy -297560.195059 kJ/mol
# GULP energy per Si atom -12398.341461 kJ/mol
# Density = 1.693128 g / cm^3
# Si number density = 16.969906 Si / 1000 Ang^3
#
#
#
# Elastic Constant Matrix: (Units=GPa)
#
#
# Indices 1 2 3 4 5 6 
#
# 1 127.3492 51.7533 65.0303 0.0002 -13.2996 -0.0001
# 2 51.7533 63.8808 57.2903 0.0001 -9.0921 -0.0001
# 3 65.0303 57.2903 119.7010 0.0005 -5.4319 0.0000
# 4 0.0002 0.0001 0.0005 28.6479 0.0001 -3.7349
# 5 -13.2996 -9.0921 -5.4319 0.0001 20.3810 0.0000
# 6 -0.0001 -0.0001 0.0000 -3.7349 0.0000 22.6563
#
#
#
# Elastic Compliance Matrix: (Units=1/GPa)
#
#
# Indices 1 2 3 4 5 6 
#
# 1 0.012820 -0.006451 -0.003673 0.000000 0.004509 0.000000
# 2 -0.006451 0.032343 -0.011652 0.000000 0.007113 0.000000
# 3 -0.003673 -0.011652 0.015773 0.000000 -0.003391 0.000000
# 4 0.000000 0.000000 0.000000 0.035673 0.000000 0.005881
# 5 0.004509 0.007113 -0.003391 0.000000 0.054277 0.000000
# 6 0.000000 0.000000 0.000000 0.005881 0.000000 0.045107
#
#
# Mechanical properties :
#
#
# Convention : Reuss Voigt Hill
#
# Bulk Modulus (GPa) = 57.52472 73.23099 65.37785
# Shear Modulus (GPa) = 20.37983 23.46085 21.92034
#
# Velocity S-wave (km/s) = 3.46922 3.72223 3.59795
# Velocity P-wave (km/s) = 7.07241 7.85624 7.47460
#
# Compressibility (1/GPa) = 0.01738383
#
# Stress axis : x y z
#
# Youngs Moduli (GPa) = 78.00048 30.91872 63.40069
#
# Poissons Ratio (x) = 0.19945 0.23287
# Poissons Ratio (y) = 0.50315 0.73877
# Poissons Ratio (z) = 0.28650 0.36028
#
# Static dielectric constant tensor:
#      x y z
#    x 3.344820 0.000000 0.209530 
#    y 0.000000 3.200320 0.000000 
#    z 0.209530 0.000000 3.016810 
# 
# 
# High freq. dielectric constant tensor:
#      x y z
#    x 1.655910 0.000000 0.016720 
#    y 0.000000 1.656660 0.000000 
#    z 0.016720 0.000000 1.632740 
# 
# From -- ./inp_files/230362.got.cif
#   From: 2010.06.25/outbox.cif.g09.slc.cpg/sg12_116_cif.got.tgz:230362.got - 2010.06.28 00:19:55.
