data_PCOD8085541
_publ_section_title
;
Structure prediction by ZEFSAII (Michael W. Deem and Ramdas Pophale) SiO2 
 PCOD8085541
Probable space group: C 2/M
;
_chemical_formula_sum "Si O2"
_cell_formula_units_Z 64
_cell_length_a 28.758092
_cell_length_b 13.794459
_cell_length_c 12.800795
_cell_angle_alpha 90.000000
_cell_angle_beta 135.091338
_cell_angle_gamma 90.000000
_cell_volume 3585.033773
_symmetry_space_group_name_H-M "C 2/M"
_symmetry_group_IT_number 12
_symmetry_cell_setting 'monoclinic'
loop_
_space_group_symop_operation_xyz
x,y,z
-x,y,-z
-x,-y,-z
x,-y,z
1/2+x,1/2+y,z
1/2-x,1/2+y,-z
1/2-x,1/2-y,-z
1/2+x,1/2-y,z
loop_
_atom_site_type_symbol
_atom_site_label
_atom_site_fract_x
_atom_site_fract_y
_atom_site_fract_z
Si Si1 0.576603 0.799534 0.652746
Si Si2 0.842895 0.801687 0.698266
Si Si3 0.203847 0.611566 0.471662
Si Si4 0.571416 0.396452 0.570056
Si Si5 0.558681 0.385382 0.308265
Si Si6 0.960312 0.385165 0.197917
Si Si7 0.954283 0.233765 0.023699
Si Si8 0.102674 0.611122 0.488522
O O1 0.500000 0.801419 0.500000
O O2 0.603475 0.688055 0.692713
O O3 0.585754 0.851312 0.778447
O O4 0.618278 0.854074 0.630406
O O5 0.822200 0.688077 0.655727
O O6 0.780441 0.870608 0.615772
O O7 0.880242 0.836149 0.653519
O O8 0.888100 0.814344 0.872455
O O9 0.192462 0.500000 0.416274
O O10 0.165402 0.633220 0.517526
O O11 0.500000 0.417320 0.500000
O O12 0.610477 0.500000 0.638990
O O13 0.567317 0.359537 0.443800
O O14 0.558480 0.500000 0.288520
O O15 0.489454 0.343966 0.155175
O O16 0.954154 0.500000 0.172782
O O17 0.934415 0.331504 0.053493
O O18 0.035208 0.345063 0.332327
O O19 0.000000 0.265327 0.000000
O O20 0.085663 0.500000 0.470033
#
# Coordination Sequence:
#
# PCOD8085541 Si02
#       8
#     8   8   8   8   8   8   8   8
#     4   9  15  26  44  67  98 124 151 190 234 282
#     4  10  21  34  49  70  94 124 166 200 236 283
#     4  10  20  34  51  69  92 122 158 202 243 283
#     4   9  16  25  41  66  95 126 155 186 231 281
#     4  10  19  32  50  72 100 131 161 196 238 285
#     4  10  19  30  47  73 101 128 157 191 238 293
#     4  10  20  32  47  69  97 128 160 196 238 282
#     4   9  16  27  46  71  95 120 152 191 236 280
#
# _framework density 17.851994000000001
#
# number of rings (size 3 to 8) (size 9 to 14) (size 15 to 20)
#    0.000    2.375    0.000    5.250    0.000    5.000 
#    0.000    0.000    0.000    0.750    0.000    0.000 
#    0.000    8.000    0.000    0.000    0.000    0.000 
#
# Total GULP energy -396603.256808 kJ/mol
# GULP energy per Si atom -12393.851775 kJ/mol
# Density = 1.781136 g / cm^3
# Si number density = 17.851994 Si / 1000 Ang^3
#
#
#
# Elastic Constant Matrix: (Units=GPa)
#
#
# Indices 1 2 3 4 5 6 
#
# 1 72.2325 26.8700 24.4321 0.0000 -3.1871 0.0000
# 2 26.8700 83.2828 25.2399 0.0000 -5.0044 0.0000
# 3 24.4321 25.2399 40.1381 0.0000 1.2630 0.0000
# 4 0.0000 0.0000 0.0000 19.8105 0.0000 -6.0041
# 5 -3.1871 -5.0044 1.2630 0.0000 22.9098 0.0000
# 6 0.0000 0.0000 0.0000 -6.0041 0.0000 28.9846
#
#
#
# Elastic Compliance Matrix: (Units=1/GPa)
#
#
# Indices 1 2 3 4 5 6 
#
# 1 0.018181 -0.002896 -0.009321 0.000000 0.002410 0.000000
# 2 -0.002896 0.015626 -0.008172 0.000000 0.003461 0.000000
# 3 -0.009321 -0.008172 0.035886 0.000000 -0.005060 0.000000
# 4 0.000000 0.000000 0.000000 0.053860 0.000000 0.011157
# 5 0.002410 0.003461 -0.005060 0.000000 0.045020 0.000000
# 6 0.000000 0.000000 0.000000 0.011157 0.000000 0.036812
#
#
# Mechanical properties :
#
#
# Convention : Reuss Voigt Hill
#
# Bulk Modulus (GPa) = 34.58565 38.74859 36.66712
# Shear Modulus (GPa) = 19.54635 22.28175 20.91405
#
# Velocity S-wave (km/s) = 3.31253 3.53673 3.42647
# Velocity P-wave (km/s) = 5.83491 6.19924 6.01983
#
# Compressibility (1/GPa) = 0.02891372
#
# Stress axis : x y z
#
# Youngs Moduli (GPa) = 55.00338 63.99463 27.86590
#
# Poissons Ratio (x) = 0.18532 0.25975
# Poissons Ratio (y) = 0.15929 0.22773
# Poissons Ratio (z) = 0.51271 0.52299
#
# Static dielectric constant tensor:
#      x y z
#    x 3.344990 0.000000 -0.161240 
#    y 0.000000 3.617440 0.000000 
#    z -0.161240 0.000000 2.955060 
# 
# 
# High freq. dielectric constant tensor:
#      x y z
#    x 1.688610 0.000000 -0.024810 
#    y 0.000000 1.714600 0.000000 
#    z -0.024810 0.000000 1.634800 
# 
# From -- ./inp_files/189469.got.cif
#   From: 2010.06.25/outbox.cif.g09.slc.cpg/sg12_95_cif.got.tgz:189469.got - 2010.06.28 00:19:55.
