data_PCOD8085979
_publ_section_title
;
Structure prediction by ZEFSAII (Michael W. Deem and Ramdas Pophale) SiO2 
 PCOD8085979
Probable space group: C 2/M
;
_chemical_formula_sum "Si O2"
_cell_formula_units_Z 36
_cell_length_a 5.066663
_cell_length_b 23.806692
_cell_length_c 18.150356
_cell_angle_alpha 90.000000
_cell_angle_beta 91.392426
_cell_angle_gamma 90.000000
_cell_volume 2188.658275
_symmetry_space_group_name_H-M "C 2/M"
_symmetry_group_IT_number 12
_symmetry_cell_setting 'monoclinic'
loop_
_space_group_symop_operation_xyz
x,y,z
-x,y,-z
-x,-y,-z
x,-y,z
1/2+x,1/2+y,z
1/2-x,1/2+y,-z
1/2-x,1/2-y,-z
1/2+x,1/2-y,z
loop_
_atom_site_type_symbol
_atom_site_label
_atom_site_fract_x
_atom_site_fract_y
_atom_site_fract_z
Si Si1 0.000000 0.288660 0.500000
Si Si2 0.476532 0.565631 0.414618
Si Si3 0.973678 0.288954 0.764001
Si Si4 0.527184 0.872039 0.633825
Si Si5 0.933482 0.285935 0.075099
O O1 0.750000 0.250000 0.500000
O O2 0.003365 0.325033 0.427328
O O3 0.500000 0.584466 0.500000
O O4 0.530381 0.500000 0.406922
O O5 0.688055 0.599207 0.367801
O O6 0.189732 0.579860 0.380855
O O7 0.696765 0.257626 0.749919
O O8 0.999607 0.315648 0.846699
O O9 0.993612 0.342841 0.712231
O O10 0.126705 0.231272 0.072405
O O11 0.000000 0.321509 0.000000
#
# Coordination Sequence:
#
# PCOD8085979 Si02
#       5
#     4   8   8   8   8
#     4  12  22  32  45  66  95 126 154 176 210 274
#     4  11  22  38  54  68  85 114 160 210 250 274
#     4  10  19  31  46  69 101 131 154 184 222 272
#     4  12  21  35  50  70  93 123 157 191 236 279
#     4   8  14  25  42  63  90 125 158 183 213 255
#
# _framework density 16.448432
#
# number of rings (size 3 to 8) (size 9 to 14) (size 15 to 20)
#    0.000    1.556    2.222    4.667    0.000    1.778 
#    0.000    0.000    0.000    0.000    0.000    0.000 
#    0.000    5.333    0.000    0.000    0.000    0.000 
#
# Total GULP energy -223118.924584 kJ/mol
# GULP energy per Si atom -12395.495810 kJ/mol
# Density = 1.641099 g / cm^3
# Si number density = 16.448432 Si / 1000 Ang^3
#
#
#
# Elastic Constant Matrix: (Units=GPa)
#
#
# Indices 1 2 3 4 5 6 
#
# 1 82.8806 15.3757 9.8665 0.0000 -5.3179 0.0000
# 2 15.3757 52.4141 35.5999 0.0000 -5.4628 0.0000
# 3 9.8665 35.5999 132.5182 0.0000 -8.1317 0.0000
# 4 0.0000 0.0000 0.0000 28.5754 0.0000 -3.2586
# 5 -5.3179 -5.4628 -8.1317 0.0000 22.8425 0.0000
# 6 0.0000 0.0000 0.0000 -3.2586 0.0000 30.8428
#
#
#
# Elastic Compliance Matrix: (Units=1/GPa)
#
#
# Indices 1 2 3 4 5 6 
#
# 1 0.012864 -0.003654 0.000157 0.000000 0.002177 0.000000
# 2 -0.003654 0.024640 -0.006173 0.000000 0.002845 0.000000
# 3 0.000157 -0.006173 0.009308 0.000000 0.001874 0.000000
# 4 0.000000 0.000000 0.000000 0.035422 0.000000 0.003742
# 5 0.002177 0.002845 0.001874 0.000000 0.045632 0.000000
# 6 0.000000 0.000000 0.000000 0.003742 0.000000 0.032818
#
#
# Mechanical properties :
#
#
# Convention : Reuss Voigt Hill
#
# Bulk Modulus (GPa) = 36.39867 43.27746 39.83806
# Shear Modulus (GPa) = 26.42992 30.25018 28.34005
#
# Velocity S-wave (km/s) = 4.01288 4.29312 4.15536
# Velocity P-wave (km/s) = 6.60666 7.13741 6.87716
#
# Compressibility (1/GPa) = 0.02747353
#
# Stress axis : x y z
#
# Youngs Moduli (GPa) = 77.73425 40.58511 107.43876
#
# Poissons Ratio (x) = 0.14829 -0.01690
# Poissons Ratio (y) = 0.28402 0.66318
# Poissons Ratio (z) = -0.01223 0.25052
#
# Static dielectric constant tensor:
#      x y z
#    x 3.272770 0.000000 -0.093490 
#    y 0.000000 2.755250 0.000000 
#    z -0.093490 0.000000 3.474380 
# 
# 
# High freq. dielectric constant tensor:
#      x y z
#    x 1.662710 0.000000 -0.002740 
#    y 0.000000 1.581050 0.000000 
#    z -0.002740 0.000000 1.640060 
# 
# From -- ./inp_files/252617.got.cif
#   From: 2010.06.25/outbox.cif.g09.slc.cpg/sg12_127_cif.got.tgz:252617.got - 2010.06.28 00:19:55.
