data_PCOD8085686
_publ_section_title
;
Structure prediction by ZEFSAII (Michael W. Deem and Ramdas Pophale) SiO2 
 PCOD8085686
Probable space group: C 2/M
;
_chemical_formula_sum "Si O2"
_cell_formula_units_Z 56
_cell_length_a 30.008207
_cell_length_b 8.811960
_cell_length_c 12.680322
_cell_angle_alpha 90.000000
_cell_angle_beta 106.016976
_cell_angle_gamma 90.000000
_cell_volume 3222.905453
_symmetry_space_group_name_H-M "C 2/M"
_symmetry_group_IT_number 12
_symmetry_cell_setting 'monoclinic'
loop_
_space_group_symop_operation_xyz
x,y,z
-x,y,-z
-x,-y,-z
x,-y,z
1/2+x,1/2+y,z
1/2-x,1/2+y,-z
1/2-x,1/2-y,-z
1/2+x,1/2-y,z
loop_
_atom_site_type_symbol
_atom_site_label
_atom_site_fract_x
_atom_site_fract_y
_atom_site_fract_z
Si Si1 0.198500 0.175415 0.067456
Si Si2 0.302207 0.824060 0.154981
Si Si3 0.895723 0.822474 0.897860
Si Si4 0.952856 0.179136 0.740029
Si Si5 0.612138 0.320681 0.698274
Si Si6 0.049080 0.679311 0.486848
Si Si7 0.056282 0.821158 0.863040
O O1 0.248671 0.211239 0.150175
O O2 0.159204 0.212125 0.128854
O O3 0.195452 0.000000 0.028977
O O4 0.188592 0.277039 0.959336
O O5 0.334352 0.729208 0.255391
O O6 0.314015 0.000000 0.175567
O O7 0.915108 0.759529 0.799872
O O8 0.906437 0.000000 0.905063
O O9 0.922707 0.750083 0.015811
O O10 0.944071 0.269158 0.627922
O O11 0.002708 0.222759 0.820061
O O12 0.949135 0.000000 0.714821
O O13 0.608778 0.500000 0.686400
O O14 0.591275 0.248931 0.579675
O O15 0.583745 0.255629 0.780104
O O16 0.051437 0.500000 0.495864
O O17 0.000000 0.740403 0.500000
O O18 0.063882 0.000000 0.868943
#
# Coordination Sequence:
#
# PCOD8085686 Si02
#       7
#     8   8   8   8   8   8   8
#     4   9  17  31  50  74 105 139 172 207 250 303
#     4  10  19  30  48  76 107 136 169 210 258 303
#     4   9  16  29  51  78 105 134 170 210 249 294
#     4  10  19  32  53  77 101 134 176 211 246 298
#     4  11  20  33  55  76 101 134 173 214 253 300
#     4  11  23  37  52  72 103 137 170 211 257 301
#     4   9  16  27  48  77 104 130 162 206 247 291
#
# _framework density 17.375626
#
# number of rings (size 3 to 8) (size 9 to 14) (size 15 to 20)
#    0.000    2.143    2.857    1.714    0.000    2.857 
#    0.000    0.714    0.000    1.714    0.000    0.000 
#    0.000    0.000    0.000    0.000    0.000    0.000 
#
# Total GULP energy -347194.202978 kJ/mol
# GULP energy per Si atom -12399.792964 kJ/mol
# Density = 1.733608 g / cm^3
# Si number density = 17.375626 Si / 1000 Ang^3
#
#
#
# Elastic Constant Matrix: (Units=GPa)
#
#
# Indices 1 2 3 4 5 6 
#
# 1 125.2766 28.3645 63.2637 0.0000 1.1378 0.0000
# 2 28.3645 43.3504 31.1724 0.0000 3.4151 0.0000
# 3 63.2637 31.1724 108.2457 0.0000 -2.5045 0.0000
# 4 0.0000 0.0000 0.0000 21.6557 0.0000 4.3443
# 5 1.1378 3.4151 -2.5045 0.0000 28.5332 0.0000
# 6 0.0000 0.0000 0.0000 4.3443 0.0000 19.2513
#
#
#
# Elastic Compliance Matrix: (Units=1/GPa)
#
#
# Indices 1 2 3 4 5 6 
#
# 1 0.011732 -0.003393 -0.005893 0.000000 -0.000579 0.000000
# 2 -0.003393 0.030591 -0.006922 0.000000 -0.004134 0.000000
# 3 -0.005893 -0.006922 0.014730 0.000000 0.002356 0.000000
# 4 0.000000 0.000000 0.000000 0.048367 0.000000 -0.010915
# 5 -0.000579 -0.004134 0.002356 0.000000 0.035772 0.000000
# 6 0.000000 0.000000 0.000000 -0.010915 0.000000 0.054408
#
#
# Mechanical properties :
#
#
# Convention : Reuss Voigt Hill
#
# Bulk Modulus (GPa) = 40.58939 58.05266 49.32103
# Shear Modulus (GPa) = 21.16606 24.15952 22.66279
#
# Velocity S-wave (km/s) = 3.49398 3.73289 3.61541
# Velocity P-wave (km/s) = 6.29983 7.21541 6.77311
#
# Compressibility (1/GPa) = 0.02463698
#
# Stress axis : x y z
#
# Youngs Moduli (GPa) = 85.23956 32.68914 67.88787
#
# Poissons Ratio (x) = 0.11092 0.40005
# Poissons Ratio (y) = 0.28923 0.46993
# Poissons Ratio (z) = 0.50230 0.22628
#
# Static dielectric constant tensor:
#      x y z
#    x 3.411360 0.000000 0.046260 
#    y 0.000000 3.003550 0.000000 
#    z 0.046260 0.000000 3.176780 
# 
# 
# High freq. dielectric constant tensor:
#      x y z
#    x 1.673340 0.000000 0.009870 
#    y 0.000000 1.647940 0.000000 
#    z 0.009870 0.000000 1.656520 
# 
# From -- ./inp_files/186789.got.cif
#   From: 2010.06.25/outbox.cif.g09.slc.cpg/sg12_94_cif.got.tgz:186789.got - 2010.06.28 00:19:55.
