data_PCOD8085050
_publ_section_title
;
Structure prediction by ZEFSAII (Michael W. Deem and Ramdas Pophale) SiO2 
 PCOD8085050
Probable space group: C 2/M
;
_chemical_formula_sum "Si O2"
_cell_formula_units_Z 64
_cell_length_a 28.920390
_cell_length_b 9.342371
_cell_length_c 14.622098
_cell_angle_alpha 90.000000
_cell_angle_beta 103.120974
_cell_angle_gamma 90.000000
_cell_volume 3847.531284
_symmetry_space_group_name_H-M "C 2/M"
_symmetry_group_IT_number 12
_symmetry_cell_setting 'monoclinic'
loop_
_space_group_symop_operation_xyz
x,y,z
-x,y,-z
-x,-y,-z
x,-y,z
1/2+x,1/2+y,z
1/2-x,1/2+y,-z
1/2-x,1/2-y,-z
1/2+x,1/2-y,z
loop_
_atom_site_type_symbol
_atom_site_label
_atom_site_fract_x
_atom_site_fract_y
_atom_site_fract_z
Si Si1 0.566802 0.669388 0.355003
Si Si2 0.383960 0.832033 0.152810
Si Si3 0.624547 0.160839 0.235233
Si Si4 0.681367 0.167146 0.706525
Si Si5 0.774402 0.662657 0.779030
Si Si6 0.850262 0.333207 0.946291
Si Si7 0.894042 0.166431 0.433856
Si Si8 0.540657 0.666299 0.707000
O O1 0.568025 0.500000 0.352031
O O2 0.598157 0.727291 0.286597
O O3 0.588009 0.723321 0.460464
O O4 0.512982 0.724145 0.321105
O O5 0.342729 0.799536 0.207085
O O6 0.432334 0.753814 0.202499
O O7 0.395075 0.000000 0.151784
O O8 0.366865 0.761356 0.048664
O O9 0.681939 0.170197 0.274374
O O10 0.613685 0.197957 0.122724
O O11 0.607126 0.000000 0.250547
O O12 0.734349 0.227417 0.731339
O O13 0.652436 0.243660 0.612878
O O14 0.683262 0.000000 0.685639
O O15 0.754274 0.500000 0.773825
O O16 0.796673 0.708902 0.888639
O O17 0.849490 0.500000 0.966461
O O18 0.936217 0.194610 0.381278
O O19 0.879927 0.000000 0.430172
O O20 0.542956 0.500000 0.734172
#
# Coordination Sequence:
#
# PCOD8085050 Si02
#       8
#     8   8   8   8   8   8   8   8
#     4  10  19  32  52  73  92 120 158 199 240 277
#     4   9  17  31  49  71  99 127 156 191 231 277
#     4   8  17  33  51  69  91 124 163 198 229 270
#     4  10  19  29  46  75 103 122 149 196 242 274
#     4   8  16  32  51  67  92 129 163 190 226 278
#     4   7  14  31  51  67  92 128 162 192 223 271
#     4   9  18  33  51  69  94 128 158 185 229 291
#     4   9  18  32  49  72  99 123 152 191 235 285
#
# _framework density 16.634042000000001
#
# number of rings (size 3 to 8) (size 9 to 14) (size 15 to 20)
#    0.750    2.500    0.000    0.750    0.000    4.000 
#    0.000    2.500    0.000    7.500    0.000    0.000 
#    0.000    0.000    0.000    0.000    0.000    0.000 
#
# Total GULP energy -396491.335108 kJ/mol
# GULP energy per Si atom -12390.354222 kJ/mol
# Density = 1.659618 g / cm^3
# Si number density = 16.634042 Si / 1000 Ang^3
#
#
#
# Elastic Constant Matrix: (Units=GPa)
#
#
# Indices 1 2 3 4 5 6 
#
# 1 70.0962 25.5709 31.7779 0.0000 10.3394 0.0000
# 2 25.5709 35.3217 14.4389 0.0000 6.5037 0.0000
# 3 31.7779 14.4389 35.7086 0.0000 8.4023 0.0000
# 4 0.0000 0.0000 0.0000 24.0438 0.0000 0.4216
# 5 10.3394 6.5037 8.4023 0.0000 18.7126 0.0000
# 6 0.0000 0.0000 0.0000 0.4216 0.0000 29.2242
#
#
#
# Elastic Compliance Matrix: (Units=1/GPa)
#
#
# Indices 1 2 3 4 5 6 
#
# 1 0.027635 -0.011654 -0.019277 0.000000 -0.002563 0.000000
# 2 -0.011654 0.039509 -0.004348 0.000000 -0.005340 0.000000
# 3 -0.019277 -0.004348 0.049261 0.000000 -0.009956 0.000000
# 4 0.000000 0.000000 0.000000 0.041601 0.000000 -0.000600
# 5 -0.002563 -0.005340 -0.009956 0.000000 0.061183 0.000000
# 6 0.000000 0.000000 0.000000 -0.000600 0.000000 0.034227
#
#
# Mechanical properties :
#
#
# Convention : Reuss Voigt Hill
#
# Bulk Modulus (GPa) = 21.81236 31.63356 26.72296
# Shear Modulus (GPa) = 14.73817 19.01871 16.87844
#
# Velocity S-wave (km/s) = 2.97985 3.38503 3.18888
# Velocity P-wave (km/s) = 4.99809 5.85974 5.44598
#
# Compressibility (1/GPa) = 0.04584558
#
# Stress axis : x y z
#
# Youngs Moduli (GPa) = 36.18625 25.31100 20.30014
#
# Poissons Ratio (x) = 0.29497 0.39134
# Poissons Ratio (y) = 0.42171 0.08826
# Poissons Ratio (z) = 0.69758 0.11005
#
# Static dielectric constant tensor:
#      x y z
#    x 2.959420 0.000000 0.133520 
#    y 0.000000 2.923910 0.000000 
#    z 0.133520 0.000000 3.261010 
# 
# 
# High freq. dielectric constant tensor:
#      x y z
#    x 1.627940 0.000000 0.008610 
#    y 0.000000 1.627230 0.000000 
#    z 0.008610 0.000000 1.636310 
# 
# From -- ./inp_files/248457.got.cif
#   From: 2010.06.25/outbox.cif.g09.slc.cpg/sg12_125_cif.got.tgz:248457.got - 2010.06.28 00:19:55.
