data_PCOD8085288
_publ_section_title
;
Structure prediction by ZEFSAII (Michael W. Deem and Ramdas Pophale) SiO2 
 PCOD8085288
Probable space group: C 2/M
;
_chemical_formula_sum "Si O2"
_cell_formula_units_Z 56
_cell_length_a 32.691882
_cell_length_b 9.565267
_cell_length_c 23.484481
_cell_angle_alpha 90.000000
_cell_angle_beta 157.032827
_cell_angle_gamma 90.000000
_cell_volume 2865.558887
_symmetry_space_group_name_H-M "C 2/M"
_symmetry_group_IT_number 12
_symmetry_cell_setting 'monoclinic'
loop_
_space_group_symop_operation_xyz
x,y,z
-x,y,-z
-x,-y,-z
x,-y,z
1/2+x,1/2+y,z
1/2-x,1/2+y,-z
1/2-x,1/2-y,-z
1/2+x,1/2-y,z
loop_
_atom_site_type_symbol
_atom_site_label
_atom_site_fract_x
_atom_site_fract_y
_atom_site_fract_z
Si Si1 0.818475 0.663354 0.901502
Si Si2 0.652954 0.157666 0.359585
Si Si3 0.278094 0.844807 0.673004
Si Si4 0.045602 0.840429 0.387797
Si Si5 0.087472 0.165957 0.569467
Si Si6 0.398643 0.663350 0.907959
Si Si7 0.545650 0.161060 0.822365
O O1 0.834454 0.500000 0.907077
O O2 0.701068 0.716858 0.737454
O O3 0.901618 0.754432 0.971480
O O4 0.846292 0.687671 0.004139
O O5 0.750000 0.250000 0.500000
O O6 0.642053 0.168861 0.277261
O O7 0.546612 0.207606 0.252771
O O8 0.679239 0.000000 0.411887
O O9 0.157273 0.826071 0.498557
O O10 0.300174 0.726262 0.747558
O O11 0.289335 0.000000 0.715596
O O12 0.060400 0.781717 0.471014
O O13 0.959788 0.751637 0.242470
O O14 0.005742 0.000000 0.337862
O O15 0.000000 0.227406 0.500000
O O16 0.086603 0.000000 0.569066
O O17 0.382125 0.500000 0.898031
O O18 0.500000 0.694298 0.000000
O O19 0.535333 0.000000 0.791069
#
# Coordination Sequence:
#
# PCOD8085288 Si02
#       7
#     8   8   8   8   8   8   8
#     4  10  20  38  60  82 111 148 191 232 278 338
#     4  10  19  30  45  70 104 144 187 226 266 314
#     4  10  19  33  52  75 103 144 195 234 269 323
#     4  10  19  34  57  82 107 141 183 229 277 327
#     4   9  18  36  63  89 108 136 186 240 286 337
#     4  11  23  35  50  78 114 150 187 231 282 327
#     4  10  21  34  52  79 112 150 183 224 279 329
#
# _framework density 19.542437
#
# number of rings (size 3 to 8) (size 9 to 14) (size 15 to 20)
#    0.000    2.000    2.857    1.286    0.000    4.000 
#    0.000    0.714    0.000    1.714    0.000    0.000 
#    0.000    0.000    0.000    0.000    0.000    0.000 
#
# Total GULP energy -347068.463026 kJ/mol
# GULP energy per Si atom -12395.302251 kJ/mol
# Density = 1.949796 g / cm^3
# Si number density = 19.542437 Si / 1000 Ang^3
#
#
#
# Elastic Constant Matrix: (Units=GPa)
#
#
# Indices 1 2 3 4 5 6 
#
# 1 92.8264 33.2440 52.2170 0.0000 -10.3130 0.0000
# 2 33.2440 67.9676 50.5929 0.0000 -11.4309 0.0000
# 3 52.2170 50.5929 115.1742 0.0000 -26.5633 0.0000
# 4 0.0000 0.0000 0.0000 27.2118 0.0000 -9.6525
# 5 -10.3130 -11.4309 -26.5633 0.0000 30.1884 0.0000
# 6 0.0000 0.0000 0.0000 -9.6525 0.0000 18.7420
#
#
#
# Elastic Compliance Matrix: (Units=1/GPa)
#
#
# Indices 1 2 3 4 5 6 
#
# 1 0.014989 -0.003372 -0.005556 0.000000 -0.001045 0.000000
# 2 -0.003372 0.022621 -0.008404 0.000000 0.000019 0.000000
# 3 -0.005556 -0.008404 0.017215 0.000000 0.010068 0.000000
# 4 0.000000 0.000000 0.000000 0.044963 0.000000 0.023157
# 5 -0.001045 0.000019 0.010068 0.000000 0.041634 0.000000
# 6 0.000000 0.000000 0.000000 0.023157 0.000000 0.065282
#
#
# Mechanical properties :
#
#
# Convention : Reuss Voigt Hill
#
# Bulk Modulus (GPa) = 49.59624 60.89734 55.24679
# Shear Modulus (GPa) = 20.15424 24.55607 22.35515
#
# Velocity S-wave (km/s) = 3.21488 3.54863 3.38587
# Velocity P-wave (km/s) = 6.26214 6.92962 6.60432
#
# Compressibility (1/GPa) = 0.02016282
#
# Stress axis : x y z
#
# Youngs Moduli (GPa) = 66.71352 44.20742 58.09000
#
# Poissons Ratio (x) = 0.14906 0.32272
# Poissons Ratio (y) = 0.22495 0.48816
# Poissons Ratio (z) = 0.37063 0.37150
#
# Static dielectric constant tensor:
#      x y z
#    x 3.628630 0.000000 -0.075310 
#    y 0.000000 2.988450 0.000000 
#    z -0.075310 0.000000 3.558050 
# 
# 
# High freq. dielectric constant tensor:
#      x y z
#    x 1.745930 0.000000 -0.014810 
#    y 0.000000 1.735770 0.000000 
#    z -0.014810 0.000000 1.754850 
# 
# From -- ./inp_files/329680.got.cif
#   From: 2010.06.25/outbox.cif.g09.slc.cpg/sg12_165_cif.got.tgz:329680.got - 2010.06.28 00:19:55.
