data_PCOD8085726
_publ_section_title
;
Structure prediction by ZEFSAII (Michael W. Deem and Ramdas Pophale) SiO2 
 PCOD8085726
Probable space group: C 2/M
;
_chemical_formula_sum "Si O2"
_cell_formula_units_Z 56
_cell_length_a 16.071173
_cell_length_b 22.271739
_cell_length_c 12.090044
_cell_angle_alpha 90.000000
_cell_angle_beta 46.680155
_cell_angle_gamma 90.000000
_cell_volume 3148.354162
_symmetry_space_group_name_H-M "C 2/M"
_symmetry_group_IT_number 12
_symmetry_cell_setting 'monoclinic'
loop_
_space_group_symop_operation_xyz
x,y,z
-x,y,-z
-x,-y,-z
x,-y,z
1/2+x,1/2+y,z
1/2-x,1/2+y,-z
1/2-x,1/2-y,-z
1/2+x,1/2-y,z
loop_
_atom_site_type_symbol
_atom_site_label
_atom_site_fract_x
_atom_site_fract_y
_atom_site_fract_z
Si Si1 0.244984 0.811993 0.374069
Si Si2 0.584121 0.737728 0.085622
Si Si3 0.658901 0.128355 0.365693
Si Si4 0.518202 0.133374 0.862379
Si Si5 0.645946 0.682107 0.690110
Si Si6 0.177984 0.252462 0.237198
Si Si7 0.973874 0.430423 0.686382
O O1 0.346959 0.860078 0.282643
O O2 0.291302 0.745148 0.351183
O O3 0.155773 0.832688 0.550036
O O4 0.185027 0.807455 0.307730
O O5 0.544747 0.802982 0.083248
O O6 0.485885 0.688011 0.151214
O O7 0.604376 0.735827 0.198138
O O8 0.696697 0.722158 0.913439
O O9 0.788373 0.131586 0.296230
O O10 0.618580 0.193715 0.358591
O O11 0.643446 0.082427 0.275987
O O12 0.575070 0.108920 0.540797
O O13 0.460354 0.089278 0.825753
O O14 0.500000 0.104579 0.000000
O O15 0.005044 0.500000 0.650775
#
# Coordination Sequence:
#
# PCOD8085726 Si02
#       7
#     8   8   8   8   8   8   8
#     4   9  17  28  44  72 101 140 174 199 253 321
#     4  10  20  31  46  78 114 147 173 205 253 334
#     4  10  19  33  53  73 104 137 171 224 267 315
#     4  11  19  34  53  71 110 144 172 220 266 316
#     4   9  18  28  46  71 104 140 171 204 259 321
#     4  10  19  30  49  75 111 148 175 201 264 326
#     4  11  23  37  54  78 102 138 187 232 276 312
#
# _framework density 17.787071000000001
#
# number of rings (size 3 to 8) (size 9 to 14) (size 15 to 20)
#    0.000    2.000    4.286    0.857    2.000    0.857 
#    0.000    0.000    0.000    0.000    0.000    8.000 
#    0.000    1.143    0.000    0.000    0.000    0.000 
#
# Total GULP energy -347010.007860 kJ/mol
# GULP energy per Si atom -12393.214566 kJ/mol
# Density = 1.774659 g / cm^3
# Si number density = 17.787071 Si / 1000 Ang^3
#
#
#
# Elastic Constant Matrix: (Units=GPa)
#
#
# Indices 1 2 3 4 5 6 
#
# 1 111.1231 31.7786 46.4498 0.0000 18.5150 0.0000
# 2 31.7786 52.7348 30.4420 0.0000 -0.1145 0.0000
# 3 46.4498 30.4420 77.0960 0.0000 12.3481 0.0000
# 4 0.0000 0.0000 0.0000 8.5307 0.0000 -0.9706
# 5 18.5150 -0.1145 12.3481 0.0000 39.1693 0.0000
# 6 0.0000 0.0000 0.0000 -0.9706 0.0000 11.5610
#
#
#
# Elastic Compliance Matrix: (Units=1/GPa)
#
#
# Indices 1 2 3 4 5 6 
#
# 1 0.013463 -0.005017 -0.005380 0.000000 -0.004682 0.000000
# 2 -0.005017 0.026842 -0.008392 0.000000 0.005096 0.000000
# 3 -0.005380 -0.008392 0.020140 0.000000 -0.003830 0.000000
# 4 0.000000 0.000000 0.000000 0.118354 0.000000 0.009937
# 5 -0.004682 0.005096 -0.003830 0.000000 0.028966 0.000000
# 6 0.000000 0.000000 0.000000 0.009937 0.000000 0.087332
#
#
# Mechanical properties :
#
#
# Convention : Reuss Voigt Hill
#
# Bulk Modulus (GPa) = 43.73453 50.92163 47.32808
# Shear Modulus (GPa) = 14.69303 20.67109 17.68206
#
# Velocity S-wave (km/s) = 2.87723 3.41272 3.15635
# Velocity P-wave (km/s) = 5.97320 6.64977 6.32055
#
# Compressibility (1/GPa) = 0.02286523
#
# Stress axis : x y z
#
# Youngs Moduli (GPa) = 74.27778 37.25549 49.65352
#
# Poissons Ratio (x) = 0.18692 0.26715
# Poissons Ratio (y) = 0.37267 0.41669
# Poissons Ratio (z) = 0.39964 0.31265
#
# Static dielectric constant tensor:
#      x y z
#    x 3.742060 0.000000 0.261870 
#    y 0.000000 2.765440 0.000000 
#    z 0.261870 0.000000 3.361450 
# 
# 
# High freq. dielectric constant tensor:
#      x y z
#    x 1.702520 0.000000 0.024460 
#    y 0.000000 1.614160 0.000000 
#    z 0.024460 0.000000 1.689350 
# 
# From -- ./inp_files/160252.got.cif
#   From: 2010.06.25/outbox.cif.g09.slc.cpg/sg12_81_cif.got.tgz:160252.got - 2010.06.28 00:19:55.
