data_PCOD8085219
_publ_section_title
;
Structure prediction by ZEFSAII (Michael W. Deem and Ramdas Pophale) SiO2 
 PCOD8085219
Probable space group: C 2/M
;
_chemical_formula_sum "Si O2"
_cell_formula_units_Z 56
_cell_length_a 23.715267
_cell_length_b 9.218552
_cell_length_c 18.844369
_cell_angle_alpha 90.000000
_cell_angle_beta 128.781996
_cell_angle_gamma 90.000000
_cell_volume 3211.499428
_symmetry_space_group_name_H-M "C 2/M"
_symmetry_group_IT_number 12
_symmetry_cell_setting 'monoclinic'
loop_
_space_group_symop_operation_xyz
x,y,z
-x,y,-z
-x,-y,-z
x,-y,z
1/2+x,1/2+y,z
1/2-x,1/2+y,-z
1/2-x,1/2-y,-z
1/2+x,1/2-y,z
loop_
_atom_site_type_symbol
_atom_site_label
_atom_site_fract_x
_atom_site_fract_y
_atom_site_fract_z
Si Si1 0.907452 0.671563 0.222655
Si Si2 0.503660 0.169520 0.169189
Si Si3 0.220233 0.336020 0.714253
Si Si4 0.124758 0.833440 0.194370
Si Si5 0.771373 0.833670 0.138827
Si Si6 0.114109 0.667500 0.039520
Si Si7 0.936528 0.333262 0.403939
O O1 0.897518 0.500000 0.212128
O O2 0.967189 0.723527 0.213417
O O3 0.829123 0.739182 0.139875
O O4 0.930801 0.729557 0.319192
O O5 0.579353 0.252125 0.219088
O O6 0.519910 0.000000 0.185513
O O7 0.452461 0.208983 0.062879
O O8 0.222254 0.500000 0.749338
O O9 0.289597 0.318119 0.717225
O O10 0.226388 0.213086 0.777716
O O11 0.140852 0.315223 0.615772
O O12 0.110087 0.767753 0.105234
O O13 0.100691 0.000000 0.173502
O O14 0.687466 0.808291 0.050611
O O15 0.794328 0.000000 0.149388
O O16 0.109731 0.500000 0.061074
O O17 0.958370 0.500000 0.412416
O O18 0.000000 0.255144 0.500000
#
# Coordination Sequence:
#
# PCOD8085219 Si02
#       7
#     8   8   8   8   8   8   8
#     4   9  18  31  45  64  90 117 144 176 219 265
#     4  10  20  32  44  59  86 123 154 181 215 256
#     4   8  15  28  45  66  90 113 139 175 218 258
#     4  10  19  30  45  65  88 115 150 188 219 248
#     4   9  16  27  44  64  86 113 145 180 217 258
#     4   9  18  31  45  62  85 116 153 187 218 252
#     4   8  13  25  49  74  88 103 136 179 216 257
#
# _framework density 17.437338
#
# number of rings (size 3 to 8) (size 9 to 14) (size 15 to 20)
#    0.000    3.000    0.000    2.143    0.000    4.571 
#    0.000    0.000    0.000    7.714    0.000    0.000 
#    0.000    0.000    0.000    0.000    0.000    1.286 
#
# Total GULP energy -346889.424018 kJ/mol
# GULP energy per Si atom -12388.908001 kJ/mol
# Density = 1.739765 g / cm^3
# Si number density = 17.437338 Si / 1000 Ang^3
#
#
#
# Elastic Constant Matrix: (Units=GPa)
#
#
# Indices 1 2 3 4 5 6 
#
# 1 152.2098 43.4707 37.0262 0.0000 22.1589 0.0000
# 2 43.4707 47.7282 16.3916 0.0000 7.7886 0.0000
# 3 37.0262 16.3916 36.4429 0.0000 21.1938 0.0000
# 4 0.0000 0.0000 0.0000 9.3551 0.0000 4.5163
# 5 22.1589 7.7886 21.1938 0.0000 23.4025 0.0000
# 6 0.0000 0.0000 0.0000 4.5163 0.0000 30.3686
#
#
#
# Elastic Compliance Matrix: (Units=1/GPa)
#
#
# Indices 1 2 3 4 5 6 
#
# 1 0.010365 -0.006960 -0.006422 0.000000 -0.001682 0.000000
# 2 -0.006960 0.029624 -0.009194 0.000000 0.005058 0.000000
# 3 -0.006422 -0.009194 0.069265 0.000000 -0.053587 0.000000
# 4 0.000000 0.000000 0.000000 0.115162 0.000000 -0.017127
# 5 -0.001682 0.005058 -0.053587 0.000000 0.091169 0.000000
# 6 0.000000 0.000000 0.000000 -0.017127 0.000000 0.035476
#
#
# Mechanical properties :
#
#
# Convention : Reuss Voigt Hill
#
# Bulk Modulus (GPa) = 15.60064 47.79533 31.69799
# Shear Modulus (GPa) = 11.97378 21.92473 16.94926
#
# Velocity S-wave (km/s) = 2.62329 3.54975 3.12109
# Velocity P-wave (km/s) = 4.25930 6.65359 5.58623
#
# Compressibility (1/GPa) = 0.06409993
#
# Stress axis : x y z
#
# Youngs Moduli (GPa) = 96.48134 33.75691 14.43739
#
# Poissons Ratio (x) = 0.23495 0.09272
# Poissons Ratio (y) = 0.67153 0.13274
# Poissons Ratio (z) = 0.61961 0.31037
#
# Static dielectric constant tensor:
#      x y z
#    x 3.509530 0.000000 0.373510 
#    y 0.000000 3.118180 0.000000 
#    z 0.373510 0.000000 3.192280 
# 
# 
# High freq. dielectric constant tensor:
#      x y z
#    x 1.679080 0.000000 0.032200 
#    y 0.000000 1.659770 0.000000 
#    z 0.032200 0.000000 1.632390 
# 
# From -- ./inp_files/287904.got.cif
#   From: 2010.06.25/outbox.cif.g09.slc.cpg/sg12_144_cif.got.tgz:287904.got - 2010.06.28 00:19:55.
