data_PCOD8085664
_publ_section_title
;
Structure prediction by ZEFSAII (Michael W. Deem and Ramdas Pophale) SiO2 
 PCOD8085664
Probable space group: C 2/M
;
_chemical_formula_sum "Si O2"
_cell_formula_units_Z 64
_cell_length_a 20.022457
_cell_length_b 8.854655
_cell_length_c 25.756606
_cell_angle_alpha 90.000000
_cell_angle_beta 128.725381
_cell_angle_gamma 90.000000
_cell_volume 3562.522631
_symmetry_space_group_name_H-M "C 2/M"
_symmetry_group_IT_number 12
_symmetry_cell_setting 'monoclinic'
loop_
_space_group_symop_operation_xyz
x,y,z
-x,y,-z
-x,-y,-z
x,-y,z
1/2+x,1/2+y,z
1/2-x,1/2+y,-z
1/2-x,1/2-y,-z
1/2+x,1/2-y,z
loop_
_atom_site_type_symbol
_atom_site_label
_atom_site_fract_x
_atom_site_fract_y
_atom_site_fract_z
Si Si1 0.006224 0.324450 0.341383
Si Si2 0.070799 0.820644 0.074048
Si Si3 0.202457 0.823618 0.322826
Si Si4 0.682357 0.678879 0.428732
Si Si5 0.950240 0.176588 0.821001
Si Si6 0.253593 0.175219 0.839419
Si Si7 0.172524 0.674293 0.702866
Si Si8 0.424986 0.674430 0.204857
O O1 0.030261 0.500000 0.353215
O O2 0.087548 0.229314 0.399853
O O3 0.928380 0.288727 0.343380
O O4 0.978182 0.277324 0.270145
O O5 0.049534 0.753574 0.121068
O O6 0.163774 0.765169 0.100659
O O7 0.070059 0.000000 0.073227
O O8 0.000000 0.756445 0.000000
O O9 0.202355 0.755445 0.380703
O O10 0.126159 0.752283 0.250916
O O11 0.293305 0.791567 0.338632
O O12 0.184347 0.000000 0.320001
O O13 0.689869 0.500000 0.435201
O O14 0.750000 0.750000 0.500000
O O15 0.040977 0.208448 0.836685
O O16 0.932743 0.000000 0.818621
O O17 0.226528 0.225110 0.768765
O O18 0.175923 0.211177 0.841539
O O19 0.276217 0.000000 0.849241
O O20 0.189451 0.500000 0.726308
O O21 0.442229 0.500000 0.228658
#
# Coordination Sequence:
#
# PCOD8085664 Si02
#       8
#     8   8   8   8   8   8   8   8
#     4  10  19  31  51  79 107 132 163 209 257 296
#     4  10  20  34  53  74  99 134 173 211 251 298
#     4   9  16  30  55  78  96 129 173 212 244 287
#     4  11  22  37  55  75 103 137 171 206 251 304
#     4   9  15  29  53  76  97 127 173 213 242 290
#     4  10  19  30  48  75 105 134 164 205 258 305
#     4   9  17  32  54  78 102 130 170 213 246 290
#     4   9  17  31  51  74 100 134 171 206 248 300
#
# _framework density 17.964797000000001
#
# number of rings (size 3 to 8) (size 9 to 14) (size 15 to 20)
#    0.000    2.375    2.500    1.125    0.000    1.250 
#    0.000    4.375    0.000    3.750    0.000    0.000 
#    0.000    0.000    0.000    0.000    0.000    0.000 
#
# Total GULP energy -396716.065925 kJ/mol
# GULP energy per Si atom -12397.377060 kJ/mol
# Density = 1.792391 g / cm^3
# Si number density = 17.964797 Si / 1000 Ang^3
#
#
#
# Elastic Constant Matrix: (Units=GPa)
#
#
# Indices 1 2 3 4 5 6 
#
# 1 143.1309 27.0810 77.3527 0.0000 6.8539 0.0000
# 2 27.0810 36.1742 29.7963 0.0000 3.9247 0.0000
# 3 77.3527 29.7963 130.7197 0.0000 4.6985 0.0000
# 4 0.0000 0.0000 0.0000 22.5476 0.0000 6.5793
# 5 6.8539 3.9247 4.6985 0.0000 27.1333 0.0000
# 6 0.0000 0.0000 0.0000 6.5793 0.0000 24.8536
#
#
#
# Elastic Compliance Matrix: (Units=1/GPa)
#
#
# Indices 1 2 3 4 5 6 
#
# 1 0.010644 -0.003301 -0.005501 0.000000 -0.001259 0.000000
# 2 -0.003301 0.035411 -0.006002 0.000000 -0.003249 0.000000
# 3 -0.005501 -0.006002 0.012268 0.000000 0.000133 0.000000
# 4 0.000000 0.000000 0.000000 0.048063 0.000000 -0.012723
# 5 -0.001259 -0.003249 0.000133 0.000000 0.037620 0.000000
# 6 0.000000 0.000000 0.000000 -0.012723 0.000000 0.043604
#
#
# Mechanical properties :
#
#
# Convention : Reuss Voigt Hill
#
# Bulk Modulus (GPa) = 34.82291 64.27611 49.54951
# Shear Modulus (GPa) = 22.04681 26.62655 24.33668
#
# Velocity S-wave (km/s) = 3.50697 3.85405 3.68460
# Velocity P-wave (km/s) = 5.98536 7.46066 6.76336
#
# Compressibility (1/GPa) = 0.02871673
#
# Stress axis : x y z
#
# Youngs Moduli (GPa) = 93.94585 28.23980 81.51011
#
# Poissons Ratio (x) = 0.09322 0.44840
# Poissons Ratio (y) = 0.31011 0.48918
# Poissons Ratio (z) = 0.51681 0.16948
#
# Static dielectric constant tensor:
#      x y z
#    x 3.671670 0.000000 0.013190 
#    y 0.000000 3.114710 0.000000 
#    z 0.013190 0.000000 3.196370 
# 
# 
# High freq. dielectric constant tensor:
#      x y z
#    x 1.713150 0.000000 0.007810 
#    y 0.000000 1.672080 0.000000 
#    z 0.007810 0.000000 1.664790 
# 
# From -- ./inp_files/365236.got.cif
#   From: 2010.06.25/outbox.cif.g09.slc.cpg/sg12_183_cif.got.tgz:365236.got - 2010.06.28 00:19:55.
