data_PCOD8085446
_publ_section_title
;
Structure prediction by ZEFSAII (Michael W. Deem and Ramdas Pophale) SiO2 
 PCOD8085446
Probable space group: C 2/M
;
_chemical_formula_sum "Si O2"
_cell_formula_units_Z 64
_cell_length_a 25.336838
_cell_length_b 9.111957
_cell_length_c 15.385723
_cell_angle_alpha 90.000000
_cell_angle_beta 108.857030
_cell_angle_gamma 90.000000
_cell_volume 3361.427007
_symmetry_space_group_name_H-M "C 2/M"
_symmetry_group_IT_number 12
_symmetry_cell_setting 'monoclinic'
loop_
_space_group_symop_operation_xyz
x,y,z
-x,y,-z
-x,-y,-z
x,-y,z
1/2+x,1/2+y,z
1/2-x,1/2+y,-z
1/2-x,1/2-y,-z
1/2+x,1/2-y,z
loop_
_atom_site_type_symbol
_atom_site_label
_atom_site_fract_x
_atom_site_fract_y
_atom_site_fract_z
Si Si1 0.739879 0.165612 0.736051
Si Si2 0.735405 0.656939 0.572655
Si Si3 0.360722 0.330308 0.824952
Si Si4 0.414956 0.823996 0.692830
Si Si5 0.062441 0.331166 0.000233
Si Si6 0.114186 0.326032 0.679238
Si Si7 0.540061 0.173607 0.797439
Si Si8 0.605815 0.336671 0.499989
O O1 0.760139 0.263625 0.668039
O O2 0.795660 0.181642 0.824726
O O3 0.678948 0.215690 0.738619
O O4 0.732751 0.000000 0.699033
O O5 0.765598 0.500000 0.580974
O O6 0.750000 0.750000 0.500000
O O7 0.670386 0.637034 0.545076
O O8 0.375887 0.500000 0.815963
O O9 0.372404 0.243098 0.740991
O O10 0.396964 0.268681 0.922446
O O11 0.476567 0.774064 0.754626
O O12 0.405935 0.758525 0.591935
O O13 0.408167 0.000000 0.685953
O O14 0.081896 0.500000 0.018904
O O15 0.065203 0.273104 0.902628
O O16 0.000000 0.314054 0.000000
O O17 0.107311 0.500000 0.664043
O O18 0.077659 0.263266 0.739276
O O19 0.088977 0.251776 0.578573
O O20 0.541720 0.000000 0.795998
O O21 0.577303 0.500000 0.480456
#
# Coordination Sequence:
#
# PCOD8085446 Si02
#       8
#     8   8   8   8   8   8   8   8
#     4   9  19  34  52  74 104 139 176 217 261 313
#     4  10  19  30  47  70 101 138 179 221 263 311
#     4  11  22  35  53  83 116 141 171 219 275 327
#     4  11  21  35  55  81 109 142 184 226 267 317
#     4  10  19  37  60  82 109 139 176 221 267 319
#     4   9  18  37  60  77 100 144 190 222 259 310
#     4   9  19  36  59  82 103 134 183 232 265 307
#     4  10  21  35  49  75 112 145 177 221 270 317
#
# _framework density 19.039532999999999
#
# number of rings (size 3 to 8) (size 9 to 14) (size 15 to 20)
#    0.000    2.125    1.250    2.250    0.000    6.250 
#    0.000    5.000    0.000    0.000    0.000    0.000 
#    0.000    0.000    0.000    0.000    0.000    0.000 
#
# Total GULP energy -396451.926001 kJ/mol
# GULP energy per Si atom -12389.122688 kJ/mol
# Density = 1.899620 g / cm^3
# Si number density = 19.039533 Si / 1000 Ang^3
#
#
#
# Elastic Constant Matrix: (Units=GPa)
#
#
# Indices 1 2 3 4 5 6 
#
# 1 74.0799 21.3750 34.1403 0.0000 -0.4523 0.0000
# 2 21.3750 71.3554 32.0018 0.0000 3.4588 0.0000
# 3 34.1403 32.0018 114.9690 0.0000 -6.0919 0.0000
# 4 0.0000 0.0000 0.0000 30.1154 0.0000 2.7918
# 5 -0.4523 3.4588 -6.0919 0.0000 31.4195 0.0000
# 6 0.0000 0.0000 0.0000 2.7918 0.0000 17.8037
#
#
#
# Elastic Compliance Matrix: (Units=1/GPa)
#
#
# Indices 1 2 3 4 5 6 
#
# 1 0.016213 -0.003066 -0.003972 0.000000 -0.000199 0.000000
# 2 -0.003066 0.016815 -0.003911 0.000000 -0.002654 0.000000
# 3 -0.003972 -0.003911 0.011100 0.000000 0.002525 0.000000
# 4 0.000000 0.000000 0.000000 0.033695 0.000000 -0.005284
# 5 -0.000199 -0.002654 0.002525 0.000000 0.032606 0.000000
# 6 0.000000 0.000000 0.000000 -0.005284 0.000000 0.056997
#
#
# Mechanical properties :
#
#
# Convention : Reuss Voigt Hill
#
# Bulk Modulus (GPa) = 44.98130 48.38203 46.68166
# Shear Modulus (GPa) = 25.41517 27.39351 26.40434
#
# Velocity S-wave (km/s) = 3.65754 3.79723 3.72804
# Velocity P-wave (km/s) = 6.44308 6.68519 6.56525
#
# Compressibility (1/GPa) = 0.02223146
#
# Stress axis : x y z
#
# Youngs Moduli (GPa) = 61.68021 59.46973 90.09205
#
# Poissons Ratio (x) = 0.18232 0.35781
# Poissons Ratio (y) = 0.18910 0.35233
# Poissons Ratio (z) = 0.24497 0.23257
#
# Static dielectric constant tensor:
#      x y z
#    x 3.559520 0.000000 0.035800 
#    y 0.000000 3.759970 0.000000 
#    z 0.035800 0.000000 3.526690 
# 
# 
# High freq. dielectric constant tensor:
#      x y z
#    x 1.738310 0.000000 0.008850 
#    y 0.000000 1.737050 0.000000 
#    z 0.008850 0.000000 1.732260 
# 
# From -- ./inp_files/244267.got.cif
#   From: 2010.06.25/outbox.cif.g09.slc.cpg/sg12_123_cif.got.tgz:244267.got - 2010.06.28 00:19:55.
