data_PCOD8085364
_publ_section_title
;
Structure prediction by ZEFSAII (Michael W. Deem and Ramdas Pophale) SiO2 
 PCOD8085364
Probable space group: C 2/M
;
_chemical_formula_sum "Si O2"
_cell_formula_units_Z 48
_cell_length_a 20.371819
_cell_length_b 9.244891
_cell_length_c 30.673307
_cell_angle_alpha 90.000000
_cell_angle_beta 151.390610
_cell_angle_gamma 90.000000
_cell_volume 2766.169348
_symmetry_space_group_name_H-M "C 2/M"
_symmetry_group_IT_number 12
_symmetry_cell_setting 'monoclinic'
loop_
_space_group_symop_operation_xyz
x,y,z
-x,y,-z
-x,-y,-z
x,-y,z
1/2+x,1/2+y,z
1/2-x,1/2+y,-z
1/2-x,1/2-y,-z
1/2+x,1/2-y,z
loop_
_atom_site_type_symbol
_atom_site_label
_atom_site_fract_x
_atom_site_fract_y
_atom_site_fract_z
Si Si1 0.225527 0.833338 0.529996
Si Si2 0.003531 0.665748 0.552715
Si Si3 0.435917 0.833230 0.727625
Si Si4 0.424265 0.339550 0.067667
Si Si5 0.311713 0.338126 0.099666
Si Si6 0.811883 0.832951 0.734033
O O1 0.250000 0.750000 0.500000
O O2 0.094129 0.770487 0.477819
O O3 0.361777 0.816016 0.638234
O O4 0.195271 0.000000 0.502092
O O5 0.955713 0.500000 0.531378
O O6 0.000000 0.707569 0.500000
O O7 0.157415 0.689620 0.660545
O O8 0.582592 0.753872 0.809590
O O9 0.338274 0.764323 0.707192
O O10 0.461374 0.000000 0.754731
O O11 0.412538 0.500000 0.040694
O O12 0.363386 0.337833 0.080569
O O13 0.583867 0.291682 0.165656
O O14 0.340372 0.232056 0.987357
O O15 0.301844 0.500000 0.112803
O O16 0.837499 0.000000 0.735031
#
# Coordination Sequence:
#
# PCOD8085364 Si02
#       6
#     8   8   8   8   8   8
#     4  11  24  38  53  74 102 136 174 215 256 302
#     4  10  19  33  55  78 103 135 170 209 254 304
#     4  10  19  30  46  69  96 128 166 208 251 295
#     4   8  14  24  38  61  95 127 159 197 238 289
#     4   9  16  25  40  62  91 127 163 198 245 298
#     4   9  17  29  47  72  99 132 166 199 246 299
#
# _framework density 17.352516000000001
#
# number of rings (size 3 to 8) (size 9 to 14) (size 15 to 20)
#    0.000    2.500    1.667    2.500    0.000    7.000 
#    0.000    0.000    0.000    0.000    0.000    1.167 
#    0.000    9.333    0.000    0.000    0.000    0.000 
#
# Total GULP energy -297550.279616 kJ/mol
# GULP energy per Si atom -12397.928317 kJ/mol
# Density = 1.731302 g / cm^3
# Si number density = 17.352516 Si / 1000 Ang^3
#
#
#
# Elastic Constant Matrix: (Units=GPa)
#
#
# Indices 1 2 3 4 5 6 
#
# 1 58.8598 51.8535 42.3567 0.0000 2.5286 0.0000
# 2 51.8535 139.2304 74.7507 -0.0002 2.0104 0.0000
# 3 42.3567 74.7507 129.9544 -0.0004 19.6975 0.0000
# 4 0.0000 -0.0002 -0.0004 32.3889 0.0000 3.1188
# 5 2.5286 2.0104 19.6975 0.0000 16.0851 0.0000
# 6 0.0000 0.0000 0.0000 3.1188 0.0000 21.6455
#
#
#
# Elastic Compliance Matrix: (Units=1/GPa)
#
#
# Indices 1 2 3 4 5 6 
#
# 1 0.026970 -0.007441 -0.004922 0.000000 0.002718 0.000000
# 2 -0.007441 0.013213 -0.006265 0.000000 0.007190 0.000000
# 3 -0.004922 -0.006265 0.015554 0.000000 -0.017490 0.000000
# 4 0.000000 0.000000 0.000000 0.031309 0.000000 -0.004511
# 5 0.002718 0.007190 -0.017490 0.000000 0.082262 0.000000
# 6 0.000000 0.000000 0.000000 -0.004511 0.000000 0.046849
#
#
# Mechanical properties :
#
#
# Convention : Reuss Voigt Hill
#
# Bulk Modulus (GPa) = 54.10983 73.99628 64.05305
# Shear Modulus (GPa) = 19.26225 24.62947 21.94586
#
# Velocity S-wave (km/s) = 3.33536 3.77153 3.56013
# Velocity P-wave (km/s) = 6.78847 7.85503 7.34114
#
# Compressibility (1/GPa) = 0.01848093
#
# Stress axis : x y z
#
# Youngs Moduli (GPa) = 37.07781 75.68122 64.29164
#
# Poissons Ratio (x) = 0.56314 0.31647
# Poissons Ratio (y) = 0.27590 0.40278
# Poissons Ratio (z) = 0.18251 0.47414
#
# Static dielectric constant tensor:
#      x y z
#    x 2.916050 0.000000 0.279970 
#    y 0.000000 3.417000 0.000000 
#    z 0.279970 0.000000 3.650520 
# 
# 
# High freq. dielectric constant tensor:
#      x y z
#    x 1.600300 0.000000 0.018690 
#    y 0.000000 1.680620 0.000000 
#    z 0.018690 0.000000 1.689920 
# 
# From -- ./inp_files/319583.got.cif
#   From: 2010.06.25/outbox.cif.g09.slc.cpg/sg12_160_cif.got.tgz:319583.got - 2010.06.28 00:19:55.
