data_PCOD8085938
_publ_section_title
;
Structure prediction by ZEFSAII (Michael W. Deem and Ramdas Pophale) SiO2 
 PCOD8085938
Probable space group: C 2/M
;
_chemical_formula_sum "Si O2"
_cell_formula_units_Z 64
_cell_length_a 24.273211
_cell_length_b 9.023195
_cell_length_c 27.413898
_cell_angle_alpha 90.000000
_cell_angle_beta 138.029663
_cell_angle_gamma 90.000000
_cell_volume 4015.313138
_symmetry_space_group_name_H-M "C 2/M"
_symmetry_group_IT_number 12
_symmetry_cell_setting 'monoclinic'
loop_
_space_group_symop_operation_xyz
x,y,z
-x,y,-z
-x,-y,-z
x,-y,z
1/2+x,1/2+y,z
1/2-x,1/2+y,-z
1/2-x,1/2-y,-z
1/2+x,1/2-y,z
loop_
_atom_site_type_symbol
_atom_site_label
_atom_site_fract_x
_atom_site_fract_y
_atom_site_fract_z
Si Si1 0.167618 0.164107 0.155285
Si Si2 0.493243 0.333545 0.883956
Si Si3 0.160022 0.171544 0.385830
Si Si4 0.897797 0.675620 0.741370
Si Si5 0.081307 0.666005 0.020769
Si Si6 0.414765 0.828084 0.467696
Si Si7 0.249288 0.327918 0.696047
Si Si8 0.667403 0.328218 0.501340
O O1 0.086241 0.166945 0.134435
O O2 0.158235 0.272054 0.102866
O O3 0.242183 0.212123 0.240544
O O4 0.182284 0.000000 0.143775
O O5 0.518593 0.500000 0.886027
O O6 0.473855 0.240361 0.822518
O O7 0.568828 0.260256 0.963292
O O8 0.096177 0.261776 0.309859
O O9 0.251725 0.231059 0.437001
O O10 0.133162 0.194406 0.424097
O O11 0.159469 0.000000 0.370228
O O12 0.903936 0.500000 0.745652
O O13 0.809667 0.725906 0.704347
O O14 0.102981 0.500000 0.019399
O O15 0.000000 0.672188 0.000000
O O16 0.500000 0.776971 0.500000
O O17 0.343703 0.796807 0.381246
O O18 0.402108 0.729517 0.507547
O O19 0.417065 0.000000 0.484517
O O20 0.274930 0.500000 0.705086
O O21 0.688614 0.500000 0.525028
#
# Coordination Sequence:
#
# PCOD8085938 Si02
#       8
#     8   8   8   8   8   8   8   8
#     4   8  14  23  35  49  68 100 137 170 206 247
#     4   9  16  25  36  50  74 107 138 167 204 248
#     4  10  19  31  46  63  87 113 141 178 221 266
#     4  11  19  26  40  62  84 108 141 177 215 252
#     4   9  15  22  32  49  72  98 132 172 207 241
#     4  10  20  33  49  66  87 117 148 181 223 268
#     4   9  17  29  42  57  80 109 142 178 215 258
#     4  10  20  32  47  67  85 109 143 182 223 261
#
# _framework density 15.938981
#
# number of rings (size 3 to 8) (size 9 to 14) (size 15 to 20)
#    0.000    2.500    1.250    3.375    0.000    6.250 
#    0.000    0.000    0.000    0.000    0.000    0.000 
#    0.000    0.000    0.000    1.125    0.000   13.125 
#
# Total GULP energy -396719.256897 kJ/mol
# GULP energy per Si atom -12397.476778 kJ/mol
# Density = 1.590270 g / cm^3
# Si number density = 15.938981 Si / 1000 Ang^3
#
#
#
# Elastic Constant Matrix: (Units=GPa)
#
#
# Indices 1 2 3 4 5 6 
#
# 1 47.8419 28.0888 34.1513 0.0000 -7.9140 0.0000
# 2 28.0888 124.7616 65.7007 0.0001 -17.9524 0.0000
# 3 34.1513 65.7007 127.5928 0.0000 -25.6041 0.0000
# 4 0.0000 0.0001 0.0000 27.0123 0.0000 -7.4168
# 5 -7.9140 -17.9524 -25.6041 0.0000 14.9116 0.0000
# 6 0.0000 0.0000 0.0000 -7.4168 0.0000 14.7502
#
#
#
# Elastic Compliance Matrix: (Units=1/GPa)
#
#
# Indices 1 2 3 4 5 6 
#
# 1 0.026695 -0.003009 -0.005309 0.000000 0.001430 0.000000
# 2 -0.003009 0.011625 -0.004108 0.000000 0.005345 0.000000
# 3 -0.005309 -0.004108 0.014976 0.000000 0.017951 0.000000
# 4 0.000000 0.000000 0.000000 0.042950 0.000000 0.021596
# 5 0.001430 0.005345 0.017951 0.000000 0.105079 0.000000
# 6 0.000000 0.000000 0.000000 0.021596 0.000000 0.078655
#
#
# Mechanical properties :
#
#
# Convention : Reuss Voigt Hill
#
# Bulk Modulus (GPa) = 35.15613 61.78642 48.47128
# Shear Modulus (GPa) = 15.90770 22.81852 19.36311
#
# Velocity S-wave (km/s) = 3.16260 3.78778 3.48922
# Velocity P-wave (km/s) = 5.95320 7.61434 6.83443
#
# Compressibility (1/GPa) = 0.02844454
#
# Stress axis : x y z
#
# Youngs Moduli (GPa) = 37.46049 86.02023 66.77280
#
# Poissons Ratio (x) = 0.25880 0.35450
# Poissons Ratio (y) = 0.11270 0.27432
# Poissons Ratio (z) = 0.19888 0.35339
#
# Static dielectric constant tensor:
#      x y z
#    x 2.459240 0.000000 -0.274170 
#    y 0.000000 3.139250 0.000000 
#    z -0.274170 0.000000 3.359440 
# 
# 
# High freq. dielectric constant tensor:
#      x y z
#    x 1.529650 0.000000 -0.030430 
#    y 0.000000 1.624610 0.000000 
#    z -0.030430 0.000000 1.625910 
# 
# From -- ./inp_files/294542.got.cif
#   From: 2010.06.25/outbox.cif.g09.slc.cpg/sg12_148_cif.got.tgz:294542.got - 2010.06.28 00:19:55.
