data_PCOD8085865
_publ_section_title
;
Structure prediction by ZEFSAII (Michael W. Deem and Ramdas Pophale) SiO2 
 PCOD8085865
Probable space group: C 2/M
;
_chemical_formula_sum "Si O2"
_cell_formula_units_Z 64
_cell_length_a 18.763565
_cell_length_b 19.788885
_cell_length_c 29.187320
_cell_angle_alpha 90.000000
_cell_angle_beta 160.607729
_cell_angle_gamma 90.000000
_cell_volume 3598.432128
_symmetry_space_group_name_H-M "C 2/M"
_symmetry_group_IT_number 12
_symmetry_cell_setting 'monoclinic'
loop_
_space_group_symop_operation_xyz
x,y,z
-x,y,-z
-x,-y,-z
x,-y,z
1/2+x,1/2+y,z
1/2-x,1/2+y,-z
1/2-x,1/2-y,-z
1/2+x,1/2-y,z
loop_
_atom_site_type_symbol
_atom_site_label
_atom_site_fract_x
_atom_site_fract_y
_atom_site_fract_z
Si Si1 0.060548 0.718523 0.825250
Si Si2 0.968264 0.924152 0.319607
Si Si3 0.749941 0.320259 0.154244
Si Si4 0.658887 0.924032 0.058076
Si Si5 0.122201 0.578311 0.380867
Si Si6 0.629366 0.324590 0.534197
Si Si7 0.365572 0.172583 0.037596
Si Si8 0.701662 0.292203 0.739844
O O1 0.202217 0.706133 0.866949
O O2 0.094005 0.658528 0.883708
O O3 0.811697 0.727345 0.661643
O O4 0.141547 0.787729 0.897086
O O5 0.223367 0.912339 0.480926
O O6 0.901686 0.918223 0.225614
O O7 0.826650 0.869922 0.261409
O O8 0.909337 0.000000 0.301905
O O9 0.817238 0.261534 0.230603
O O10 0.895194 0.385802 0.253533
O O11 0.500000 0.340070 0.000000
O O12 0.580689 0.000000 0.004105
O O13 0.500000 0.889479 0.000000
O O14 0.650151 0.894165 0.002159
O O15 0.077279 0.500000 0.342587
O O16 0.249065 0.611575 0.415062
O O17 0.500000 0.351595 0.500000
O O18 0.482333 0.281482 0.410088
O O19 0.565083 0.217609 0.140652
#
# Coordination Sequence:
#
# PCOD8085865 Si02
#       8
#     8   8   8   8   8   8   8   8
#     4  10  22  35  52  78 110 146 180 230 272 330
#     4   9  18  32  52  82 116 141 178 224 271 333
#     4  11  22  37  58  82 108 143 194 237 276 321
#     4  10  19  30  51  82 111 145 183 217 270 339
#     4   9  21  38  55  79 109 145 191 232 274 326
#     4  10  20  36  55  82 116 141 177 225 283 342
#     4  11  20  33  52  77 113 147 178 221 282 328
#     4  11  20  32  58  81 109 151 184 224 278 331
#
# _framework density 17.785523000000001
#
# number of rings (size 3 to 8) (size 9 to 14) (size 15 to 20)
#    0.000    1.875    3.750    0.750    0.000    6.000 
#    0.000    2.500    0.000    0.000    0.000    0.000 
#    0.000    4.000    0.000    0.000    0.000    0.000 
#
# Total GULP energy -396470.596901 kJ/mol
# GULP energy per Si atom -12389.706153 kJ/mol
# Density = 1.774504 g / cm^3
# Si number density = 17.785523 Si / 1000 Ang^3
#
#
#
# Elastic Constant Matrix: (Units=GPa)
#
#
# Indices 1 2 3 4 5 6 
#
# 1 104.9773 35.9076 49.8107 0.0090 -14.0090 -0.0034
# 2 35.9076 76.2697 52.3081 0.0491 -1.1805 0.0037
# 3 49.8107 52.3081 147.6226 0.1074 -8.1934 0.0042
# 4 0.0090 0.0491 0.1074 26.1037 0.0087 -3.6651
# 5 -14.0090 -1.1805 -8.1934 0.0087 32.7580 -0.0031
# 6 -0.0034 0.0037 0.0042 -3.6651 -0.0031 19.0425
#
#
#
# Elastic Compliance Matrix: (Units=1/GPa)
#
#
# Indices 1 2 3 4 5 6 
#
# 1 0.012806 -0.004189 -0.002577 0.000013 0.004681 0.000007
# 2 -0.004189 0.018719 -0.005355 -0.000012 -0.002457 -0.000006
# 3 -0.002577 -0.005355 0.009603 -0.000030 0.001107 -0.000007
# 4 0.000013 -0.000012 -0.000030 0.039373 -0.000012 0.007578
# 5 0.004681 -0.002457 0.001107 -0.000012 0.032717 0.000004
# 6 0.000007 -0.000006 -0.000007 0.007578 0.000004 0.053973
#
#
# Mechanical properties :
#
#
# Convention : Reuss Voigt Hill
#
# Bulk Modulus (GPa) = 59.22735 67.21361 63.22048
# Shear Modulus (GPa) = 25.37280 28.30372 26.83826
#
# Velocity S-wave (km/s) = 3.78113 3.99355 3.88879
# Velocity P-wave (km/s) = 7.24125 7.69011 7.46906
#
# Compressibility (1/GPa) = 0.01688409
#
# Stress axis : x y z
#
# Youngs Moduli (GPa) = 78.08704 53.42265 104.13867
#
# Poissons Ratio (x) = 0.22381 0.26834
# Poissons Ratio (y) = 0.32714 0.55771
# Poissons Ratio (z) = 0.20121 0.28610
#
# Static dielectric constant tensor:
#      x y z
#    x 3.320210 -0.000020 -0.219600 
#    y -0.000020 3.064740 -0.000210 
#    z -0.219600 -0.000210 3.761120 
# 
# 
# High freq. dielectric constant tensor:
#      x y z
#    x 1.668560 0.000000 -0.017180 
#    y 0.000000 1.656740 -0.000020 
#    z -0.017180 -0.000020 1.717830 
# 
# From -- ./inp_files/364796.got.cif
#   From: 2010.06.25/outbox.cif.g09.slc.cpg/sg12_183_cif.got.tgz:364796.got - 2010.06.28 00:19:55.
