data_PCOD8085930
_publ_section_title
;
Structure prediction by ZEFSAII (Michael W. Deem and Ramdas Pophale) SiO2 
 PCOD8085930
Probable space group: C 2/M
;
_chemical_formula_sum "Si O2"
_cell_formula_units_Z 48
_cell_length_a 26.628112
_cell_length_b 9.281008
_cell_length_c 11.748052
_cell_angle_alpha 90.000000
_cell_angle_beta 75.702132
_cell_angle_gamma 90.000000
_cell_volume 2813.431390
_symmetry_space_group_name_H-M "C 2/M"
_symmetry_group_IT_number 12
_symmetry_cell_setting 'monoclinic'
loop_
_space_group_symop_operation_xyz
x,y,z
-x,y,-z
-x,-y,-z
x,-y,z
1/2+x,1/2+y,z
1/2-x,1/2+y,-z
1/2-x,1/2-y,-z
1/2+x,1/2-y,z
loop_
_atom_site_type_symbol
_atom_site_label
_atom_site_fract_x
_atom_site_fract_y
_atom_site_fract_z
Si Si1 0.126422 0.340012 0.751614
Si Si2 0.695807 0.827919 0.503900
Si Si3 0.181837 0.832740 0.287860
Si Si4 0.942085 0.170324 0.052417
Si Si5 0.142874 0.165662 0.075777
Si Si6 0.785696 0.659930 0.110072
O O1 0.103732 0.500000 0.744642
O O2 0.153413 0.283191 0.621629
O O3 0.079690 0.236756 0.817770
O O4 0.168730 0.342207 0.825186
O O5 0.750000 0.750000 0.500000
O O6 0.671093 0.770460 0.400287
O O7 0.704682 0.000000 0.496094
O O8 0.137398 0.811322 0.215483
O O9 0.235484 0.780157 0.202079
O O10 0.185002 0.000000 0.325391
O O11 0.941423 0.000000 0.067546
O O12 0.908078 0.221848 0.962027
O O13 0.000000 0.228140 0.000000
O O14 0.151125 0.000000 0.041422
O O15 0.196209 0.241397 0.005190
O O16 0.774314 0.500000 0.069291
#
# Coordination Sequence:
#
# PCOD8085930 Si02
#       6
#     8   8   8   8   8   8
#     4   9  18  32  48  70  98 126 160 200 239 282
#     4  11  21  33  49  70 100 135 169 200 233 281
#     4  10  19  31  45  66  99 133 164 197 236 284
#     4   9  18  33  53  76  98 121 157 206 253 294
#     4   9  18  30  46  69  96 126 160 200 246 292
#     4   9  16  28  44  64  96 128 156 196 237 281
#
# _framework density 17.061017
#
# number of rings (size 3 to 8) (size 9 to 14) (size 15 to 20)
#    0.000    2.500    1.667    1.000    0.000    3.000 
#    0.000    0.000    0.000    1.000    0.000    7.000 
#    0.000    0.000    0.000    0.000    0.000    0.000 
#
# Total GULP energy -297486.556406 kJ/mol
# GULP energy per Si atom -12395.273184 kJ/mol
# Density = 1.702219 g / cm^3
# Si number density = 17.061017 Si / 1000 Ang^3
#
#
#
# Elastic Constant Matrix: (Units=GPa)
#
#
# Indices 1 2 3 4 5 6 
#
# 1 70.5850 26.9102 44.3265 0.0000 -16.6093 0.0000
# 2 26.9102 53.4654 50.0172 0.0000 -6.0581 0.0000
# 3 44.3265 50.0172 123.7578 0.0000 -8.0321 0.0000
# 4 0.0000 0.0000 0.0000 33.3057 0.0000 -1.0598
# 5 -16.6093 -6.0581 -8.0321 0.0000 20.9361 0.0000
# 6 0.0000 0.0000 0.0000 -1.0598 0.0000 17.7368
#
#
#
# Elastic Compliance Matrix: (Units=1/GPa)
#
#
# Indices 1 2 3 4 5 6 
#
# 1 0.022761 -0.004920 -0.005214 0.000000 0.014633 0.000000
# 2 -0.004920 0.031493 -0.010899 0.000000 0.001028 0.000000
# 3 -0.005214 -0.010899 0.014234 0.000000 -0.001829 0.000000
# 4 0.000000 0.000000 0.000000 0.030082 0.000000 0.001798
# 5 0.014633 0.001028 -0.001829 0.000000 0.058969 0.000000
# 6 0.000000 0.000000 0.000000 0.001798 0.000000 0.056487
#
#
# Mechanical properties :
#
#
# Convention : Reuss Voigt Hill
#
# Bulk Modulus (GPa) = 37.84860 54.47955 46.16408
# Shear Modulus (GPa) = 18.87517 22.83268 20.85393
#
# Velocity S-wave (km/s) = 3.32977 3.66224 3.49995
# Velocity P-wave (km/s) = 6.08404 7.06287 6.59165
#
# Compressibility (1/GPa) = 0.02642105
#
# Stress axis : x y z
#
# Youngs Moduli (GPa) = 43.93545 31.75357 70.25485
#
# Poissons Ratio (x) = 0.15623 0.36631
# Poissons Ratio (y) = 0.21617 0.76570
# Poissons Ratio (z) = 0.22908 0.34608
#
# Static dielectric constant tensor:
#      x y z
#    x 3.138430 0.000000 0.106640 
#    y 0.000000 3.354190 0.000000 
#    z 0.106640 0.000000 3.296210 
# 
# 
# High freq. dielectric constant tensor:
#      x y z
#    x 1.631980 0.000000 0.011850 
#    y 0.000000 1.655570 0.000000 
#    z 0.011850 0.000000 1.654670 
# 
# From -- ./inp_files/172140.got.cif
#   From: 2010.06.25/outbox.cif.g09.slc.cpg/sg12_87_cif.got.tgz:172140.got - 2010.06.28 00:19:55.
