data_PCOD8085564
_publ_section_title
;
Structure prediction by ZEFSAII (Michael W. Deem and Ramdas Pophale) SiO2 
 PCOD8085564
Probable space group: C 2/M
;
_chemical_formula_sum "Si O2"
_cell_formula_units_Z 64
_cell_length_a 24.830912
_cell_length_b 9.104857
_cell_length_c 23.575271
_cell_angle_alpha 90.000000
_cell_angle_beta 134.183235
_cell_angle_gamma 90.000000
_cell_volume 3822.179162
_symmetry_space_group_name_H-M "C 2/M"
_symmetry_group_IT_number 12
_symmetry_cell_setting 'monoclinic'
loop_
_space_group_symop_operation_xyz
x,y,z
-x,y,-z
-x,-y,-z
x,-y,z
1/2+x,1/2+y,z
1/2-x,1/2+y,-z
1/2-x,1/2-y,-z
1/2+x,1/2-y,z
loop_
_atom_site_type_symbol
_atom_site_label
_atom_site_fract_x
_atom_site_fract_y
_atom_site_fract_z
Si Si1 0.056821 0.830183 0.309074
Si Si2 0.653686 0.826095 0.578014
Si Si3 0.529096 0.670815 0.417458
Si Si4 0.856617 0.828480 0.313596
Si Si5 0.227028 0.169499 0.426584
Si Si6 0.698374 0.167095 0.832184
Si Si7 0.689261 0.330301 0.993051
Si Si8 0.420637 0.828294 0.157448
O O1 0.052298 0.781531 0.371318
O O2 0.140408 0.800930 0.347593
O O3 0.003056 0.731388 0.231342
O O4 0.032783 0.000000 0.285724
O O5 0.575680 0.764888 0.496549
O O6 0.670766 0.757592 0.651423
O O7 0.722175 0.775679 0.588139
O O8 0.647651 0.000000 0.579107
O O9 0.546148 0.500000 0.441021
O O10 0.442630 0.709302 0.363434
O O11 0.806070 0.775927 0.223967
O O12 0.843838 0.000000 0.313714
O O13 0.250000 0.250000 0.500000
O O14 0.241502 0.000000 0.449460
O O15 0.781808 0.184295 0.920786
O O16 0.634290 0.209506 0.830647
O O17 0.685565 0.000000 0.802384
O O18 0.684286 0.500000 0.971412
O O19 0.750000 0.250000 0.000000
O O20 0.609493 0.251955 0.922024
O O21 0.424581 0.000000 0.147916
#
# Coordination Sequence:
#
# PCOD8085564 Si02
#       8
#     8   8   8   8   8   8   8   8
#     4  10  19  33  52  73  99 132 166 207 252 297
#     4  11  23  36  51  72  97 130 169 211 252 294
#     4  10  20  34  51  72  98 131 168 205 248 298
#     4  11  22  34  50  72  99 134 170 203 244 297
#     4  10  21  36  54  73  95 127 168 210 256 299
#     4   9  18  31  47  70 101 133 164 200 241 289
#     4   9  17  29  46  70 101 136 167 200 244 295
#     4  10  19  30  47  74 104 133 166 204 246 297
#
# _framework density 16.744374000000001
#
# number of rings (size 3 to 8) (size 9 to 14) (size 15 to 20)
#    0.000    2.000    2.500    2.625    0.000    6.500 
#    0.000    0.000    0.000    0.000    0.000    0.875 
#    0.000    7.000    0.000    0.000    0.000    0.000 
#
# Total GULP energy -396836.745271 kJ/mol
# GULP energy per Si atom -12401.148290 kJ/mol
# Density = 1.670626 g / cm^3
# Si number density = 16.744374 Si / 1000 Ang^3
#
#
#
# Elastic Constant Matrix: (Units=GPa)
#
#
# Indices 1 2 3 4 5 6 
#
# 1 64.3490 34.0579 36.3184 0.0000 -9.8266 0.0000
# 2 34.0579 86.7658 60.9829 0.0000 -2.4034 0.0000
# 3 36.3184 60.9829 118.7086 0.0000 -1.0739 0.0000
# 4 0.0000 0.0000 0.0000 35.7369 0.0000 -0.6175
# 5 -9.8266 -2.4034 -1.0739 0.0000 15.0636 0.0000
# 6 0.0000 0.0000 0.0000 -0.6175 0.0000 20.5340
#
#
#
# Elastic Compliance Matrix: (Units=1/GPa)
#
#
# Indices 1 2 3 4 5 6 
#
# 1 0.022948 -0.005916 -0.003858 0.000000 0.013751 0.000000
# 2 -0.005916 0.019638 -0.008290 0.000000 -0.001317 0.000000
# 3 -0.003858 -0.008290 0.013837 0.000000 -0.002853 0.000000
# 4 0.000000 0.000000 0.000000 0.027997 0.000000 0.000842
# 5 0.013751 -0.001317 -0.002853 0.000000 0.074942 0.000000
# 6 0.000000 0.000000 0.000000 0.000842 0.000000 0.048725
#
#
# Mechanical properties :
#
#
# Convention : Reuss Voigt Hill
#
# Bulk Modulus (GPa) = 49.27014 59.17130 54.22072
# Shear Modulus (GPa) = 19.92192 23.49785 21.70988
#
# Velocity S-wave (km/s) = 3.45304 3.75017 3.60467
# Velocity P-wave (km/s) = 6.73697 7.35978 7.05525
#
# Compressibility (1/GPa) = 0.02029627
#
# Stress axis : x y z
#
# Youngs Moduli (GPa) = 43.57611 50.92257 72.26862
#
# Poissons Ratio (x) = 0.30124 0.27878
# Poissons Ratio (y) = 0.25778 0.59913
# Poissons Ratio (z) = 0.16810 0.42216
#
# Static dielectric constant tensor:
#      x y z
#    x 2.959670 0.000000 -0.190610 
#    y 0.000000 3.227730 0.000000 
#    z -0.190610 0.000000 1.279960 
# 
# 
# High freq. dielectric constant tensor:
#      x y z
#    x 1.607470 0.000000 0.005750 
#    y 0.000000 1.655850 0.000000 
#    z 0.005750 0.000000 1.650240 
# 
# From -- ./inp_files/324233.got.cif
#   From: 2010.06.25/outbox.cif.g09.slc.cpg/sg12_163_cif.got.tgz:324233.got - 2010.06.28 00:19:55.
