data_PCOD8085114
_publ_section_title
;
Structure prediction by ZEFSAII (Michael W. Deem and Ramdas Pophale) SiO2 
 PCOD8085114
Probable space group: C 2/M
;
_chemical_formula_sum "Si O2"
_cell_formula_units_Z 64
_cell_length_a 25.033537
_cell_length_b 9.098147
_cell_length_c 17.684664
_cell_angle_alpha 90.000000
_cell_angle_beta 96.136294
_cell_angle_gamma 90.000000
_cell_volume 4004.760071
_symmetry_space_group_name_H-M "C 2/M"
_symmetry_group_IT_number 12
_symmetry_cell_setting 'monoclinic'
loop_
_space_group_symop_operation_xyz
x,y,z
-x,y,-z
-x,-y,-z
x,-y,z
1/2+x,1/2+y,z
1/2-x,1/2+y,-z
1/2-x,1/2-y,-z
1/2+x,1/2-y,z
loop_
_atom_site_type_symbol
_atom_site_label
_atom_site_fract_x
_atom_site_fract_y
_atom_site_fract_z
Si Si1 0.648298 0.671922 0.593855
Si Si2 0.876960 0.326929 0.566858
Si Si3 0.555881 0.833933 0.161785
Si Si4 0.577414 0.670498 0.723169
Si Si5 0.452674 0.328347 0.689402
Si Si6 0.571583 0.165393 0.871137
Si Si7 0.063942 0.833844 0.016358
Si Si8 0.762305 0.667415 0.576919
O O1 0.637211 0.500000 0.575080
O O2 0.630897 0.766612 0.518943
O O3 0.613825 0.726400 0.659676
O O4 0.711878 0.698190 0.625507
O O5 0.889731 0.500000 0.565232
O O6 0.926655 0.242924 0.611446
O O7 0.823460 0.292782 0.610984
O O8 0.572090 0.747556 0.239924
O O9 0.492322 0.834193 0.142645
O O10 0.582524 0.752661 0.094204
O O11 0.578199 0.000000 0.169867
O O12 0.586835 0.500000 0.742286
O O13 0.515906 0.701688 0.692533
O O14 0.595585 0.759184 0.800064
O O15 0.439399 0.500000 0.691116
O O16 0.593862 0.000000 0.880392
O O17 0.590381 0.254956 0.947847
O O18 0.085686 0.000000 0.024062
O O19 0.000000 0.833292 0.000000
O O20 0.762582 0.500000 0.552579
O O21 0.750000 0.750000 0.500000
#
# Coordination Sequence:
#
# PCOD8085114 Si02
#       8
#     8   8   8   8   8   8   8   8
#     4   9  17  31  48  63  80 106 139 175 213 251
#     4  10  19  30  44  63  84 107 137 174 213 251
#     4   9  16  26  39  56  79 107 139 174 209 243
#     4   9  18  30  43  59  82 112 144 174 205 245
#     4  10  19  30  42  58  83 115 145 171 203 246
#     4   9  16  25  38  56  80 109 139 171 207 244
#     4   9  15  23  37  56  78 106 140 173 204 242
#     4   8  15  28  46  64  80  99 129 171 216 254
#
# _framework density 15.980981
#
# number of rings (size 3 to 8) (size 9 to 14) (size 15 to 20)
#    0.000    2.875    0.000    1.875    0.000    6.500 
#    0.000    2.500    0.000    0.000    0.000    0.000 
#    0.000    1.000    0.000    2.750    0.000    4.000 
#
# Total GULP energy -396549.603152 kJ/mol
# GULP energy per Si atom -12392.175098 kJ/mol
# Density = 1.594461 g / cm^3
# Si number density = 15.980981 Si / 1000 Ang^3
#
#
#
# Elastic Constant Matrix: (Units=GPa)
#
#
# Indices 1 2 3 4 5 6 
#
# 1 50.7388 32.6885 40.4565 0.0000 -17.0339 0.0000
# 2 32.6885 101.0673 50.3679 0.0000 -16.1236 0.0000
# 3 40.4565 50.3679 95.3680 0.0000 -28.5638 0.0000
# 4 0.0000 0.0000 0.0000 29.3945 0.0000 -1.7589
# 5 -17.0339 -16.1236 -28.5638 0.0000 10.9417 0.0000
# 6 0.0000 0.0000 0.0000 -1.7589 0.0000 13.6874
#
#
#
# Elastic Compliance Matrix: (Units=1/GPa)
#
#
# Indices 1 2 3 4 5 6 
#
# 1 0.044828 -0.005562 0.010857 0.000000 0.089933 0.000000
# 2 -0.005562 0.014201 -0.006723 0.000000 -0.005284 0.000000
# 3 0.010857 -0.006723 0.052843 0.000000 0.144943 0.000000
# 4 0.000000 0.000000 0.000000 0.034284 0.000000 0.004406
# 5 0.089933 -0.005284 0.144943 0.000000 0.601992 0.000000
# 6 0.000000 0.000000 0.000000 0.004406 0.000000 0.073626
#
#
# Mechanical properties :
#
#
# Convention : Reuss Voigt Hill
#
# Bulk Modulus (GPa) = 9.17305 54.91111 32.04208
# Shear Modulus (GPa) = 5.80742 19.04881 12.42811
#
# Velocity S-wave (km/s) = 1.90836 3.45623 2.79172
# Velocity P-wave (km/s) = 3.25703 7.09664 5.52135
#
# Compressibility (1/GPa) = 0.10901497
#
# Stress axis : x y z
#
# Youngs Moduli (GPa) = 22.30771 70.41759 18.92413
#
# Poissons Ratio (x) = 0.39167 -0.20546
# Poissons Ratio (y) = 0.12408 0.12723
# Poissons Ratio (z) = -0.24220 0.47342
#
# Static dielectric constant tensor:
#      x y z
#    x 3.067910 0.000000 -0.176700 
#    y 0.000000 3.162210 0.000000 
#    z -0.176700 0.000000 2.963960 
# 
# 
# High freq. dielectric constant tensor:
#      x y z
#    x 1.567940 0.000000 -0.014450 
#    y 0.000000 1.630100 0.000000 
#    z -0.014450 0.000000 1.601720 
# 
# From -- ./inp_files/248513.got.cif
#   From: 2010.06.25/outbox.cif.g09.slc.cpg/sg12_125_cif.got.tgz:248513.got - 2010.06.28 00:19:55.
