data_PCOD8085575
_publ_section_title
;
Structure prediction by ZEFSAII (Michael W. Deem and Ramdas Pophale) SiO2 
 PCOD8085575
Probable space group: C 2/M
;
_chemical_formula_sum "Si O2"
_cell_formula_units_Z 64
_cell_length_a 24.333789
_cell_length_b 8.923412
_cell_length_c 22.072400
_cell_angle_alpha 90.000000
_cell_angle_beta 45.932126
_cell_angle_gamma 90.000000
_cell_volume 3443.712745
_symmetry_space_group_name_H-M "C 2/M"
_symmetry_group_IT_number 12
_symmetry_cell_setting 'monoclinic'
loop_
_space_group_symop_operation_xyz
x,y,z
-x,y,-z
-x,-y,-z
x,-y,z
1/2+x,1/2+y,z
1/2-x,1/2+y,-z
1/2-x,1/2-y,-z
1/2+x,1/2-y,z
loop_
_atom_site_type_symbol
_atom_site_label
_atom_site_fract_x
_atom_site_fract_y
_atom_site_fract_z
Si Si1 0.222124 0.177336 0.723063
Si Si2 0.789156 0.822963 0.128741
Si Si3 0.458558 0.322024 0.973098
Si Si4 0.297942 0.323310 0.909347
Si Si5 0.467591 0.677327 0.753377
Si Si6 0.065794 0.821543 0.786267
Si Si7 0.513997 0.322112 0.394583
Si Si8 0.378183 0.322916 0.582392
O O1 0.215690 0.228518 0.797785
O O2 0.149438 0.239600 0.740605
O O3 0.297152 0.244663 0.634800
O O4 0.225515 0.000000 0.716440
O O5 0.870626 0.772592 0.039175
O O6 0.726716 0.734865 0.137780
O O7 0.775913 0.000000 0.132315
O O8 0.463690 0.500000 0.971638
O O9 0.500000 0.253534 0.000000
O O10 0.502301 0.258357 0.881248
O O11 0.285956 0.500000 0.922516
O O12 0.387285 0.278929 0.846572
O O13 0.250000 0.250000 0.000000
O O14 0.471131 0.500000 0.743700
O O15 0.538443 0.733525 0.740769
O O16 0.476491 0.749389 0.679587
O O17 0.066675 0.000000 0.789018
O O18 0.517397 0.500000 0.390113
O O19 0.432595 0.273068 0.485100
O O20 0.583260 0.266244 0.384380
O O21 0.366226 0.500000 0.592475
#
# Coordination Sequence:
#
# PCOD8085575 Si02
#       8
#     8   8   8   8   8   8   8   8
#     4  10  19  30  47  75 104 126 155 200 253 296
#     4  10  19  31  50  75 100 128 165 209 252 292
#     4   9  14  25  45  68  93 125 167 205 234 278
#     4  11  22  35  52  76 103 132 165 205 250 295
#     4   9  17  30  50  73  95 124 169 210 240 282
#     4   9  16  27  44  68  96 127 162 204 242 280
#     4   8  15  30  51  73  93 122 165 207 241 285
#     4   9  17  31  52  73  96 125 160 202 249 296
#
# _framework density 18.584593000000002
#
# number of rings (size 3 to 8) (size 9 to 14) (size 15 to 20)
#    0.000    2.625    1.250    2.625    0.000    3.500 
#    0.000    1.875    0.000    5.625    0.000    0.000 
#    0.000    0.000    0.000    0.000    0.000    0.000 
#
# Total GULP energy -396660.325948 kJ/mol
# GULP energy per Si atom -12395.635186 kJ/mol
# Density = 1.854229 g / cm^3
# Si number density = 18.584593 Si / 1000 Ang^3
#
#
#
# Elastic Constant Matrix: (Units=GPa)
#
#
# Indices 1 2 3 4 5 6 
#
# 1 144.0142 23.6962 66.9436 0.0001 -2.9334 0.0002
# 2 23.6962 22.0814 19.1277 0.0011 -2.3334 -0.0022
# 3 66.9436 19.1277 123.8495 -0.0001 -2.5218 0.0006
# 4 0.0001 0.0011 -0.0001 22.5107 0.0000 -4.7144
# 5 -2.9334 -2.3334 -2.5218 0.0000 35.6130 0.0001
# 6 0.0002 -0.0022 0.0006 -4.7144 0.0001 19.3435
#
#
#
# Elastic Compliance Matrix: (Units=1/GPa)
#
#
# Indices 1 2 3 4 5 6 
#
# 1 0.010152 -0.007083 -0.004392 0.000000 0.000061 -0.000001
# 2 -0.007083 0.057516 -0.004997 -0.000001 0.002831 0.000006
# 3 -0.004392 -0.004997 0.011222 0.000000 0.000105 -0.000001
# 4 0.000000 -0.000001 0.000000 0.046813 0.000000 0.011409
# 5 0.000061 0.002831 0.000105 0.000000 0.028278 0.000000
# 6 -0.000001 0.000006 -0.000001 0.011409 0.000000 0.054478
#
#
# Mechanical properties :
#
#
# Convention : Reuss Voigt Hill
#
# Bulk Modulus (GPa) = 21.76482 56.60889 39.18686
# Shear Modulus (GPa) = 19.47666 27.50530 23.49098
#
# Velocity S-wave (km/s) = 3.24080 3.85126 3.55914
# Velocity P-wave (km/s) = 5.07349 7.09242 6.16615
#
# Compressibility (1/GPa) = 0.04594570
#
# Stress axis : x y z
#
# Youngs Moduli (GPa) = 98.50062 17.38659 89.10847
#
# Poissons Ratio (x) = 0.12316 0.39139
# Poissons Ratio (y) = 0.69772 0.44523
# Poissons Ratio (z) = 0.43264 0.08687
#
# Static dielectric constant tensor:
#      x y z
#    x 3.706160 0.000000 0.055330 
#    y 0.000000 2.845240 0.000000 
#    z 0.055330 0.000000 3.593680 
# 
# 
# High freq. dielectric constant tensor:
#      x y z
#    x 1.730450 0.000000 -0.002590 
#    y 0.000000 1.661540 0.000000 
#    z -0.002590 0.000000 1.724250 
# 
# From -- ./inp_files/320959.got.cif
#   From: 2010.06.25/outbox.cif.g09.slc.cpg/sg12_161_cif.got.tgz:320959.got - 2010.06.28 00:19:55.
