data_PCOD8085187
_publ_section_title
;
Structure prediction by ZEFSAII (Michael W. Deem and Ramdas Pophale) SiO2 
 PCOD8085187
Probable space group: C 2/M
;
_chemical_formula_sum "Si O2"
_cell_formula_units_Z 64
_cell_length_a 28.101146
_cell_length_b 8.998364
_cell_length_c 26.537618
_cell_angle_alpha 90.000000
_cell_angle_beta 146.375131
_cell_angle_gamma 90.000000
_cell_volume 3715.913853
_symmetry_space_group_name_H-M "C 2/M"
_symmetry_group_IT_number 12
_symmetry_cell_setting 'monoclinic'
loop_
_space_group_symop_operation_xyz
x,y,z
-x,y,-z
-x,-y,-z
x,-y,z
1/2+x,1/2+y,z
1/2-x,1/2+y,-z
1/2-x,1/2-y,-z
1/2+x,1/2-y,z
loop_
_atom_site_type_symbol
_atom_site_label
_atom_site_fract_x
_atom_site_fract_y
_atom_site_fract_z
Si Si1 0.002838 0.665273 0.943050
Si Si2 0.670542 0.670162 0.101355
Si Si3 0.169706 0.175303 0.213780
Si Si4 0.677179 0.329570 0.465667
Si Si5 0.279329 0.825117 0.646734
Si Si6 0.067812 0.174672 0.280770
Si Si7 0.748925 0.669148 0.070224
Si Si8 0.112109 0.671953 0.883660
O O1 0.996262 0.500000 0.913324
O O2 0.925226 0.767097 0.855116
O O3 0.000000 0.654906 0.000000
O O4 0.092608 0.739646 0.007137
O O5 0.640115 0.500000 0.079560
O O6 0.695579 0.726070 0.179638
O O7 0.749710 0.688773 0.131987
O O8 0.234641 0.251485 0.310629
O O9 0.173639 0.000000 0.223786
O O10 0.698497 0.500000 0.477432
O O11 0.750000 0.250000 0.500000
O O12 0.690768 0.289899 0.536977
O O13 0.587079 0.292861 0.357920
O O14 0.362342 0.755525 0.692505
O O15 0.294514 0.000000 0.666618
O O16 0.973739 0.233930 0.185791
O O17 0.071235 0.000000 0.271770
O O18 0.722458 0.500000 0.032734
O O19 0.844035 0.702421 0.132426
O O20 0.679979 0.780750 0.985865
O O21 0.088859 0.500000 0.870385
#
# Coordination Sequence:
#
# PCOD8085187 Si02
#       8
#     8   8   8   8   8   8   8   8
#     4   9  17  28  41  59  85 116 151 190 224 258
#     4   9  18  32  48  63  85 120 158 192 228 270
#     4  10  19  30  44  65  91 121 155 188 225 273
#     4   8  16  30  47  67  91 120 151 184 224 271
#     4  10  19  31  47  69  97 124 153 189 225 268
#     4  10  19  32  50  70  94 124 154 185 228 279
#     4   9  19  35  51  66  90 123 157 195 235 271
#     4  10  20  33  49  71  94 118 153 195 235 275
#
# _framework density 17.223220000000001
#
# number of rings (size 3 to 8) (size 9 to 14) (size 15 to 20)
#    0.000    2.625    0.000    1.875    1.750    4.000 
#    0.000    0.000    0.000    0.000    0.000    0.875 
#    0.000    7.000    0.000    0.000    0.000    0.000 
#
# Total GULP energy -396449.780153 kJ/mol
# GULP energy per Si atom -12389.055630 kJ/mol
# Density = 1.718402 g / cm^3
# Si number density = 17.223220 Si / 1000 Ang^3
#
#
#
# Elastic Constant Matrix: (Units=GPa)
#
#
# Indices 1 2 3 4 5 6 
#
# 1 78.1277 20.0135 12.7428 0.0000 -13.6029 0.0000
# 2 20.0135 67.5673 16.6838 -0.0002 -9.5656 -0.0004
# 3 12.7428 16.6838 41.5664 0.0000 -15.0669 0.0000
# 4 0.0000 -0.0002 0.0000 19.6219 0.0000 -5.4816
# 5 -13.6029 -9.5656 -15.0669 0.0000 23.5120 0.0000
# 6 0.0000 -0.0004 0.0000 -5.4816 0.0000 19.3423
#
#
#
# Elastic Compliance Matrix: (Units=1/GPa)
#
#
# Indices 1 2 3 4 5 6 
#
# 1 0.014953 -0.003267 -0.000806 0.000000 0.006805 0.000000
# 2 -0.003267 0.017329 -0.005319 0.000000 0.001752 0.000000
# 3 -0.000806 -0.005319 0.033198 0.000000 0.018643 0.000000
# 4 0.000000 0.000000 0.000000 0.055345 0.000000 0.015685
# 5 0.006805 0.001752 0.018643 0.000000 0.059129 0.000000
# 6 0.000000 0.000000 0.000000 0.015685 0.000000 0.056145
#
#
# Mechanical properties :
#
#
# Convention : Reuss Voigt Hill
#
# Bulk Modulus (GPa) = 21.41505 31.79351 26.60428
# Shear Modulus (GPa) = 18.48792 21.68334 20.08563
#
# Velocity S-wave (km/s) = 3.27988 3.55203 3.41866
# Velocity P-wave (km/s) = 5.17729 5.94326 5.57345
#
# Compressibility (1/GPa) = 0.04669614
#
# Stress axis : x y z
#
# Youngs Moduli (GPa) = 66.87757 57.70675 30.12248
#
# Poissons Ratio (x) = 0.18850 0.02428
# Poissons Ratio (y) = 0.21846 0.16023
# Poissons Ratio (z) = 0.05391 0.30695
#
# Static dielectric constant tensor:
#      x y z
#    x 3.248820 0.000000 -0.359460 
#    y 0.000000 3.334100 0.000000 
#    z -0.359460 0.000000 3.429170 
# 
# 
# High freq. dielectric constant tensor:
#      x y z
#    x 1.646530 0.000000 -0.030340 
#    y 0.000000 1.678710 0.000000 
#    z -0.030340 0.000000 1.636450 
# 
# From -- ./inp_files/384586.got.cif
#   From: 2010.06.25/outbox.cif.g09.slc.cpg/sg12_193_cif.got.tgz:384586.got - 2010.06.28 00:19:55.
