data_PCOD8085184
_publ_section_title
;
Structure prediction by ZEFSAII (Michael W. Deem and Ramdas Pophale) SiO2 
 PCOD8085184
Probable space group: C 2/M
;
_chemical_formula_sum "Si O2"
_cell_formula_units_Z 56
_cell_length_a 28.399253
_cell_length_b 9.166397
_cell_length_c 14.170068
_cell_angle_alpha 90.000000
_cell_angle_beta 60.975932
_cell_angle_gamma 90.000000
_cell_volume 3225.489249
_symmetry_space_group_name_H-M "C 2/M"
_symmetry_group_IT_number 12
_symmetry_cell_setting 'monoclinic'
loop_
_space_group_symop_operation_xyz
x,y,z
-x,y,-z
-x,-y,-z
x,-y,z
1/2+x,1/2+y,z
1/2-x,1/2+y,-z
1/2-x,1/2-y,-z
1/2+x,1/2-y,z
loop_
_atom_site_type_symbol
_atom_site_label
_atom_site_fract_x
_atom_site_fract_y
_atom_site_fract_z
Si Si1 0.561869 0.827826 0.748828
Si Si2 0.826348 0.828114 0.861770
Si Si3 0.071329 0.827406 0.349871
Si Si4 0.451978 0.672373 0.419959
Si Si5 0.118173 0.333002 0.882593
Si Si6 0.209983 0.333215 0.922718
Si Si7 0.469241 0.661673 0.932951
O O1 0.579821 0.756363 0.632439
O O2 0.605619 0.784141 0.787181
O O3 0.503538 0.760801 0.829060
O O4 0.556667 0.000000 0.742773
O O5 0.878352 0.761328 0.757446
O O6 0.772583 0.787079 0.854021
O O7 0.833045 0.000000 0.866517
O O8 0.821919 0.761479 0.969746
O O9 0.074406 0.775830 0.455821
O O10 0.014871 0.779590 0.358195
O O11 0.074313 0.000000 0.347554
O O12 0.445817 0.500000 0.410454
O O13 0.099002 0.500000 0.912490
O O14 0.181318 0.313669 0.847930
O O15 0.087144 0.238591 0.991019
O O16 0.206054 0.500000 0.960602
O O17 0.459707 0.500000 0.897552
O O18 0.500000 0.644732 0.000000
#
# Coordination Sequence:
#
# PCOD8085184 Si02
#       7
#     8   8   8   8   8   8   8
#     4  10  19  30  44  64  93 125 153 184 226 275
#     4   9  17  31  50  70  91 118 154 192 232 273
#     4   8  16  31  50  69  90 118 150 191 236 274
#     4   9  17  31  49  69  92 118 153 190 229 276
#     4   9  18  31  44  62  93 127 153 183 226 274
#     4   9  18  31  47  69  94 121 154 188 225 273
#     4   9  17  28  42  62  87 118 155 188 219 261
#
# _framework density 17.361708
#
# number of rings (size 3 to 8) (size 9 to 14) (size 15 to 20)
#    0.000    3.000    0.000    1.714    2.000    2.857 
#    0.000    2.143    0.000    0.857    0.000    0.000 
#    0.000    0.000    0.000    0.000    0.000    0.429 
#
# Total GULP energy -346999.404780 kJ/mol
# GULP energy per Si atom -12392.835885 kJ/mol
# Density = 1.732219 g / cm^3
# Si number density = 17.361708 Si / 1000 Ang^3
#
#
#
# Elastic Constant Matrix: (Units=GPa)
#
#
# Indices 1 2 3 4 5 6 
#
# 1 95.7692 23.3601 45.5529 0.0000 9.4713 0.0000
# 2 23.3601 49.8774 23.2314 0.0000 6.7067 0.0000
# 3 45.5529 23.2314 88.9862 0.0000 0.9585 0.0000
# 4 0.0000 0.0000 0.0000 21.7776 0.0000 4.1311
# 5 9.4713 6.7067 0.9585 0.0000 28.3416 0.0000
# 6 0.0000 0.0000 0.0000 4.1311 0.0000 17.9878
#
#
#
# Elastic Compliance Matrix: (Units=1/GPa)
#
#
# Indices 1 2 3 4 5 6 
#
# 1 0.014813 -0.003296 -0.006680 0.000000 -0.003944 0.000000
# 2 -0.003296 0.024351 -0.004622 0.000000 -0.004505 0.000000
# 3 -0.006680 -0.004622 0.015834 0.000000 0.002791 0.000000
# 4 0.000000 0.000000 0.000000 0.048010 0.000000 -0.011026
# 5 -0.003944 -0.004505 0.002791 0.000000 0.037574 0.000000
# 6 0.000000 0.000000 0.000000 -0.011026 0.000000 0.058125
#
#
# Mechanical properties :
#
#
# Convention : Reuss Voigt Hill
#
# Bulk Modulus (GPa) = 38.75529 46.54684 42.65107
# Shear Modulus (GPa) = 21.14132 23.12064 22.13098
#
# Velocity S-wave (km/s) = 3.49334 3.65321 3.57417
# Velocity P-wave (km/s) = 6.21627 6.68303 6.45387
#
# Compressibility (1/GPa) = 0.02580293
#
# Stress axis : x y z
#
# Youngs Moduli (GPa) = 67.50717 41.06588 63.15615
#
# Poissons Ratio (x) = 0.13535 0.42189
# Poissons Ratio (y) = 0.22250 0.29188
# Poissons Ratio (z) = 0.45095 0.18979
#
# Static dielectric constant tensor:
#      x y z
#    x 3.338090 0.000000 -0.011330 
#    y 0.000000 3.141820 0.000000 
#    z -0.011330 0.000000 3.259160 
# 
# 
# High freq. dielectric constant tensor:
#      x y z
#    x 1.667550 0.000000 0.015750 
#    y 0.000000 1.657200 0.000000 
#    z 0.015750 0.000000 1.645520 
# 
# From -- ./inp_files/244284.got.cif
#   From: 2010.06.25/outbox.cif.g09.slc.cpg/sg12_123_cif.got.tgz:244284.got - 2010.06.28 00:19:55.
