data_PCOD8085171
_publ_section_title
;
Structure prediction by ZEFSAII (Michael W. Deem and Ramdas Pophale) SiO2 
 PCOD8085171
Probable space group: C 2/M
;
_chemical_formula_sum "Si O2"
_cell_formula_units_Z 56
_cell_length_a 28.074495
_cell_length_b 9.023688
_cell_length_c 14.373170
_cell_angle_alpha 90.000000
_cell_angle_beta 60.857124
_cell_angle_gamma 90.000000
_cell_volume 3180.283029
_symmetry_space_group_name_H-M "C 2/M"
_symmetry_group_IT_number 12
_symmetry_cell_setting 'monoclinic'
loop_
_space_group_symop_operation_xyz
x,y,z
-x,y,-z
-x,-y,-z
x,-y,z
1/2+x,1/2+y,z
1/2-x,1/2+y,-z
1/2-x,1/2-y,-z
1/2+x,1/2-y,z
loop_
_atom_site_type_symbol
_atom_site_label
_atom_site_fract_x
_atom_site_fract_y
_atom_site_fract_z
Si Si1 0.561082 0.326419 0.760046
Si Si2 0.826382 0.826820 0.868156
Si Si3 0.073581 0.176057 0.347809
Si Si4 0.453050 0.674172 0.428278
Si Si5 0.127420 0.175007 0.873967
Si Si6 0.207973 0.328088 0.914241
Si Si7 0.466023 0.835274 0.939231
O O1 0.549580 0.500000 0.784324
O O2 0.579212 0.287268 0.636806
O O3 0.607415 0.275589 0.789557
O O4 0.503688 0.243940 0.827488
O O5 0.877304 0.760136 0.761656
O O6 0.772461 0.799478 0.857674
O O7 0.832943 0.000000 0.885954
O O8 0.822641 0.738518 0.967407
O O9 0.079057 0.234142 0.450189
O O10 0.015388 0.234245 0.364789
O O11 0.078450 0.000000 0.339719
O O12 0.458508 0.500000 0.435417
O O13 0.185885 0.248265 0.841284
O O14 0.131621 0.000000 0.877711
O O15 0.086680 0.234750 0.992236
O O16 0.193684 0.500000 0.921898
O O17 0.448927 0.000000 0.921511
O O18 0.500000 0.847978 0.000000
#
# Coordination Sequence:
#
# PCOD8085171 Si02
#       7
#     8   8   8   8   8   8   8
#     4   9  17  28  44  68  94 122 155 190 227 272
#     4   9  18  32  50  71  93 120 154 192 234 279
#     4   8  14  26  46  71  95 118 147 188 234 276
#     4   8  14  25  44  72  98 117 147 188 229 276
#     4  10  19  30  44  63  91 125 160 193 226 270
#     4  10  20  32  46  68  95 122 157 194 232 278
#     4   9  17  28  41  61  91 124 154 184 224 273
#
# _framework density 17.608495999999999
#
# number of rings (size 3 to 8) (size 9 to 14) (size 15 to 20)
#    0.000    3.000    0.000    2.143    2.000    2.857 
#    0.000    0.000    0.000    1.714    0.000    2.000 
#    0.000    0.000    0.000    0.000    0.000    0.857 
#
# Total GULP energy -346973.276027 kJ/mol
# GULP energy per Si atom -12391.902715 kJ/mol
# Density = 1.756842 g / cm^3
# Si number density = 17.608496 Si / 1000 Ang^3
#
#
#
# Elastic Constant Matrix: (Units=GPa)
#
#
# Indices 1 2 3 4 5 6 
#
# 1 87.6232 28.5620 37.9567 0.0000 11.7310 0.0000
# 2 28.5620 50.8513 18.1043 0.0000 6.5257 0.0000
# 3 37.9567 18.1043 88.6789 0.0000 2.4172 0.0000
# 4 0.0000 0.0000 0.0000 9.5115 0.0000 -0.0462
# 5 11.7310 6.5257 2.4172 0.0000 27.7875 0.0000
# 6 0.0000 0.0000 0.0000 -0.0462 0.0000 24.8579
#
#
#
# Elastic Compliance Matrix: (Units=1/GPa)
#
#
# Indices 1 2 3 4 5 6 
#
# 1 0.016724 -0.006744 -0.005645 0.000000 -0.004985 0.000000
# 2 -0.006744 0.024533 -0.002048 0.000000 -0.002736 0.000000
# 3 -0.005645 -0.002048 0.014066 0.000000 0.001641 0.000000
# 4 0.000000 0.000000 0.000000 0.105137 0.000000 0.000195
# 5 -0.004985 -0.002736 0.001641 0.000000 0.038592 0.000000
# 6 0.000000 0.000000 0.000000 0.000195 0.000000 0.040229
#
#
# Mechanical properties :
#
#
# Convention : Reuss Voigt Hill
#
# Bulk Modulus (GPa) = 37.80752 44.04438 40.92595
# Shear Modulus (GPa) = 18.05247 21.93340 19.99293
#
# Velocity S-wave (km/s) = 3.20537 3.53316 3.37325
# Velocity P-wave (km/s) = 5.93439 6.45846 6.20196
#
# Compressibility (1/GPa) = 0.02644976
#
# Stress axis : x y z
#
# Youngs Moduli (GPa) = 59.79560 40.76144 71.09170
#
# Poissons Ratio (x) = 0.27488 0.40135
# Poissons Ratio (y) = 0.40324 0.14556
# Poissons Ratio (z) = 0.33758 0.08346
#
# Static dielectric constant tensor:
#      x y z
#    x 3.371180 0.000000 0.095390 
#    y 0.000000 3.108910 0.000000 
#    z 0.095390 0.000000 3.335440 
# 
# 
# High freq. dielectric constant tensor:
#      x y z
#    x 1.677040 0.000000 0.016410 
#    y 0.000000 1.656540 0.000000 
#    z 0.016410 0.000000 1.658870 
# 
# From -- ./inp_files/248140.got.cif
#   From: 2010.06.25/outbox.cif.g09.slc.cpg/sg12_125_cif.got.tgz:248140.got - 2010.06.28 00:19:55.
