data_PCOD8085456
_publ_section_title
;
Structure prediction by ZEFSAII (Michael W. Deem and Ramdas Pophale) SiO2 
 PCOD8085456
Probable space group: C 2/M
;
_chemical_formula_sum "Si O2"
_cell_formula_units_Z 64
_cell_length_a 31.052801
_cell_length_b 9.685160
_cell_length_c 14.334448
_cell_angle_alpha 90.000000
_cell_angle_beta 117.491383
_cell_angle_gamma 90.000000
_cell_volume 3824.295763
_symmetry_space_group_name_H-M "C 2/M"
_symmetry_group_IT_number 12
_symmetry_cell_setting 'monoclinic'
loop_
_space_group_symop_operation_xyz
x,y,z
-x,y,-z
-x,-y,-z
x,-y,z
1/2+x,1/2+y,z
1/2-x,1/2+y,-z
1/2-x,1/2-y,-z
1/2+x,1/2-y,z
loop_
_atom_site_type_symbol
_atom_site_label
_atom_site_fract_x
_atom_site_fract_y
_atom_site_fract_z
Si Si1 0.273348 0.841958 0.665162
Si Si2 0.556449 0.340734 0.950452
Si Si3 0.817150 0.658647 0.422196
Si Si4 0.943551 0.159266 0.837554
Si Si5 0.130177 0.340847 0.915994
Si Si6 0.817150 0.341353 0.212105
Si Si7 0.273348 0.841958 0.881535
Si Si8 0.630177 0.159153 0.344360
O O1 0.228169 0.749000 0.588790
O O2 0.284916 0.820703 0.784916
O O3 0.320721 0.792993 0.657383
O O4 0.260303 0.000000 0.628530
O O5 0.569860 0.500000 0.947815
O O6 0.500000 0.315041 0.875019
O O7 0.585515 0.249649 0.905815
O O8 0.569572 0.297472 0.069572
O O9 0.800159 0.500000 0.410325
O O10 0.833539 0.699157 0.333539
O O11 0.862391 0.683210 0.537140
O O12 0.914485 0.250351 0.734784
O O13 0.930140 0.000000 0.808095
O O14 0.118551 0.500000 0.927281
O O15 0.137609 0.316790 0.812358
O O16 0.179279 0.292993 0.015940
O O17 0.800159 0.500000 0.189993
O O18 0.771831 0.251000 0.132453
O O19 0.260303 0.000000 0.892076
O O20 0.618551 0.000000 0.309821
#
# Coordination Sequence:
#
# PCOD8085456 Si02
#       8
#     8   8   8   8   8   8   8   8
#     4   9  17  28  42  64  94 123 153 191 231 270
#     4   9  19  35  52  71  95 119 144 180 228 280
#     4   9  18  31  45  64  93 127 161 194 225 261
#     4   9  19  35  52  71  95 119 144 180 228 280
#     4  10  19  30  47  70  94 122 156 192 229 269
#     4   9  18  31  45  64  93 127 161 194 225 261
#     4   9  17  28  42  64  94 123 153 191 231 270
#     4  10  19  30  47  70  94 122 156 192 229 269
#
# _framework density 16.735106999999999
#
# number of rings (size 3 to 8) (size 9 to 14) (size 15 to 20)
#    0.000    2.750    0.000    2.250    0.000    4.000 
#    0.000    3.750    0.000    0.750    0.000    5.250 
#    0.000    0.000    0.000    0.000    0.000    0.000 
#
# Total GULP energy -396800.077855 kJ/mol
# GULP energy per Si atom -12400.002433 kJ/mol
# Density = 1.669702 g / cm^3
# Si number density = 16.735107 Si / 1000 Ang^3
#
#
#
# Elastic Constant Matrix: (Units=GPa)
#
#
# Indices 1 2 3 4 5 6 
#
# 1 91.5095 51.2026 44.5434 0.0000 -7.5877 0.0000
# 2 51.2026 68.1577 45.9480 0.0000 4.5507 0.0000
# 3 44.5434 45.9480 94.5884 0.0000 4.9213 0.0000
# 4 0.0000 0.0000 0.0000 26.5466 0.0000 4.9129
# 5 -7.5877 4.5507 4.9213 0.0000 17.0307 0.0000
# 6 0.0000 0.0000 0.0000 4.9129 0.0000 32.2195
#
#
#
# Elastic Compliance Matrix: (Units=1/GPa)
#
#
# Indices 1 2 3 4 5 6 
#
# 1 0.022827 -0.015452 -0.004048 0.000000 0.015469 0.000000
# 2 -0.015452 0.032409 -0.007775 0.000000 -0.013298 0.000000
# 3 -0.004048 -0.007775 0.016489 0.000000 -0.004491 0.000000
# 4 0.000000 0.000000 0.000000 0.038763 0.000000 -0.005911
# 5 0.015469 -0.013298 -0.004491 0.000000 0.070460 0.000000
# 6 0.000000 0.000000 0.000000 -0.005911 0.000000 0.031938
#
#
# Mechanical properties :
#
#
# Convention : Reuss Voigt Hill
#
# Bulk Modulus (GPa) = 58.22535 59.73819 58.98177
# Shear Modulus (GPa) = 18.30409 22.66347 20.48378
#
# Velocity S-wave (km/s) = 3.31078 3.68400 3.50237
# Velocity P-wave (km/s) = 7.03441 7.33959 7.18862
#
# Compressibility (1/GPa) = 0.01717465
#
# Stress axis : x y z
#
# Youngs Moduli (GPa) = 43.80768 30.85535 60.64660
#
# Poissons Ratio (x) = 0.47678 0.24552
# Poissons Ratio (y) = 0.67692 0.47152
# Poissons Ratio (z) = 0.17735 0.23989
#
# Static dielectric constant tensor:
#      x y z
#    x 2.976120 0.000000 -0.202430 
#    y 0.000000 3.143110 0.000000 
#    z -0.202430 0.000000 3.209860 
# 
# 
# High freq. dielectric constant tensor:
#      x y z
#    x 1.624930 0.000000 -0.015450 
#    y 0.000000 1.645690 0.000000 
#    z -0.015450 0.000000 1.642780 
# 
# From -- ./inp_files/111270.got.cif
#   From: 2010.06.25/outbox.cif.g09.slc.cpg/sg12_56_cif.got.tgz:111270.got - 2010.06.28 00:19:55.
