data_PCOD8085313
_publ_section_title
;
Structure prediction by ZEFSAII (Michael W. Deem and Ramdas Pophale) SiO2 
 PCOD8085313
Probable space group: C 2/M
;
_chemical_formula_sum "Si O2"
_cell_formula_units_Z 64
_cell_length_a 20.786370
_cell_length_b 17.511851
_cell_length_c 21.530678
_cell_angle_alpha 90.000000
_cell_angle_beta 29.258764
_cell_angle_gamma 90.000000
_cell_volume 3830.534283
_symmetry_space_group_name_H-M "C 2/M"
_symmetry_group_IT_number 12
_symmetry_cell_setting 'monoclinic'
loop_
_space_group_symop_operation_xyz
x,y,z
-x,y,-z
-x,-y,-z
x,-y,z
1/2+x,1/2+y,z
1/2-x,1/2+y,-z
1/2-x,1/2-y,-z
1/2+x,1/2-y,z
loop_
_atom_site_type_symbol
_atom_site_label
_atom_site_fract_x
_atom_site_fract_y
_atom_site_fract_z
Si Si1 0.080417 0.086633 0.084076
Si Si2 0.553976 0.271356 0.023700
Si Si3 0.055160 0.915116 0.390319
Si Si4 0.802517 0.171072 0.828682
Si Si5 0.668438 0.086185 0.049497
Si Si6 0.424763 0.813460 0.241596
Si Si7 0.556690 0.671045 0.692739
Si Si8 0.297467 0.414945 0.528235
O O1 0.051836 0.142066 0.050387
O O2 0.991136 0.107849 0.218072
O O3 0.048597 0.000000 0.090416
O O4 0.231652 0.095344 0.977445
O O5 0.457508 0.217691 0.145473
O O6 0.500000 0.270070 0.000000
O O7 0.704057 0.241887 0.901987
O O8 0.169044 0.863896 0.263602
O O9 0.000000 0.876727 0.500000
O O10 0.938686 0.922632 0.439785
O O11 0.111456 0.000000 0.358162
O O12 0.937628 0.197991 0.747784
O O13 0.735986 0.106245 0.927046
O O14 0.549558 0.142603 0.164769
O O15 0.616097 0.000000 0.088343
O O16 0.389050 0.744762 0.317585
O O17 0.302141 0.871245 0.341762
O O18 0.680754 0.633804 0.552765
O O19 0.242720 0.500000 0.559470
#
# Coordination Sequence:
#
# PCOD8085313 Si02
#       8
#     8   8   8   8   8   8   8   8
#     4   9  17  31  51  71  91 115 151 193 231 273
#     4  10  21  32  45  67  94 126 155 185 227 271
#     4   9  18  30  45  63  85 120 158 186 211 250
#     4   9  17  30  48  64  91 119 153 188 221 264
#     4   9  16  28  48  71  93 119 148 183 231 275
#     4  10  19  30  46  67  99 121 148 185 230 274
#     4   9  17  31  49  71  89 118 150 190 232 273
#     4  10  19  30  46  68  93 119 150 187 227 270
#
# _framework density 16.707851999999999
#
# number of rings (size 3 to 8) (size 9 to 14) (size 15 to 20)
#    0.000    2.625    0.000    2.250    1.750    6.250 
#    0.000    0.000    0.000    2.250    0.000    0.000 
#    0.000    0.500    0.000    1.625    0.000    0.000 
#
# Total GULP energy -396725.378511 kJ/mol
# GULP energy per Si atom -12397.668078 kJ/mol
# Density = 1.666982 g / cm^3
# Si number density = 16.707852 Si / 1000 Ang^3
#
#
#
# Elastic Constant Matrix: (Units=GPa)
#
#
# Indices 1 2 3 4 5 6 
#
# 1 62.6899 33.9245 22.2257 -0.0052 14.9919 0.0014
# 2 33.9245 106.2686 46.0592 -0.0110 7.7668 0.0046
# 3 22.2257 46.0592 82.4224 -0.0089 12.7579 0.0045
# 4 -0.0052 -0.0110 -0.0089 22.3600 0.0047 0.3719
# 5 14.9919 7.7668 12.7579 0.0047 22.6337 -0.0020
# 6 0.0014 0.0046 0.0045 0.3719 -0.0020 17.5580
#
#
#
# Elastic Compliance Matrix: (Units=1/GPa)
#
#
# Indices 1 2 3 4 5 6 
#
# 1 0.022380 -0.005879 -0.000841 0.000005 -0.012333 -0.000001
# 2 -0.005879 0.013965 -0.006661 0.000002 0.002856 -0.000001
# 3 -0.000841 -0.006661 0.017137 0.000005 -0.006817 -0.000003
# 4 0.000005 0.000002 0.000005 0.044738 -0.000016 -0.000948
# 5 -0.012333 0.002856 -0.006817 -0.000016 0.055213 0.000009
# 6 -0.000001 -0.000001 -0.000003 -0.000948 0.000009 0.056974
#
#
# Mechanical properties :
#
#
# Convention : Reuss Voigt Hill
#
# Bulk Modulus (GPa) = 37.42349 50.64442 44.03396
# Shear Modulus (GPa) = 20.31896 22.45510 21.38703
#
# Velocity S-wave (km/s) = 3.49109 3.67002 3.58167
# Velocity P-wave (km/s) = 6.22075 6.95243 6.59674
#
# Compressibility (1/GPa) = 0.02672118
#
# Stress axis : x y z
#
# Youngs Moduli (GPa) = 44.68228 71.60773 58.35433
#
# Poissons Ratio (x) = 0.42096 0.04907
# Poissons Ratio (y) = 0.26267 0.38868
# Poissons Ratio (z) = 0.03757 0.47696
#
# Static dielectric constant tensor:
#      x y z
#    x 2.866590 0.000000 0.098540 
#    y 0.000000 3.216420 0.000000 
#    z 0.098540 0.000000 3.153560 
# 
# 
# High freq. dielectric constant tensor:
#      x y z
#    x 1.615150 0.000000 0.007610 
#    y 0.000000 1.645280 0.000000 
#    z 0.007610 0.000000 1.643320 
# 
# From -- ./inp_files/167275.got.cif
#   From: 2010.06.25/outbox.cif.g09.slc.cpg/sg12_84_cif.got.tgz:167275.got - 2010.06.28 00:19:55.
