data_PCOD8085104
_publ_section_title
;
Structure prediction by ZEFSAII (Michael W. Deem and Ramdas Pophale) SiO2 
 PCOD8085104
Probable space group: C 2/M
;
_chemical_formula_sum "Si O2"
_cell_formula_units_Z 44
_cell_length_a 8.366586
_cell_length_b 22.965805
_cell_length_c 12.470448
_cell_angle_alpha 90.000000
_cell_angle_beta 81.824070
_cell_angle_gamma 90.000000
_cell_volume 2371.784794
_symmetry_space_group_name_H-M "C 2/M"
_symmetry_group_IT_number 12
_symmetry_cell_setting 'monoclinic'
loop_
_space_group_symop_operation_xyz
x,y,z
-x,y,-z
-x,-y,-z
x,-y,z
1/2+x,1/2+y,z
1/2-x,1/2+y,-z
1/2-x,1/2-y,-z
1/2+x,1/2-y,z
loop_
_atom_site_type_symbol
_atom_site_label
_atom_site_fract_x
_atom_site_fract_y
_atom_site_fract_z
Si Si1 0.669967 0.500000 0.926039
Si Si2 0.878478 0.903658 0.607611
Si Si3 0.682623 0.000000 0.517582
Si Si4 0.073553 0.717774 0.108804
Si Si5 0.808864 0.878592 0.002884
Si Si6 0.074028 0.000000 0.694773
Si Si7 0.746595 0.675016 0.203964
O O1 0.761289 0.440777 0.950553
O O2 0.650999 0.500000 0.802174
O O3 0.500000 0.500000 0.000000
O O4 0.727417 0.941487 0.578888
O O5 0.816045 0.845566 0.673492
O O6 0.000000 0.885716 0.500000
O O7 0.969706 0.942119 0.687332
O O8 0.500000 0.000000 0.500000
O O9 0.780937 0.000000 0.400420
O O10 0.217899 0.671972 0.077474
O O11 0.141863 0.772317 0.166451
O O12 0.934282 0.691733 0.197802
O O13 0.000000 0.736575 0.000000
O O14 0.766591 0.876873 0.881095
O O15 0.000000 0.872131 0.000000
#
# Coordination Sequence:
#
# PCOD8085104 Si02
#       7
#     4   8   4   8   8   4   8
#     4  10  19  29  50  84 110 134 167 210 258 305
#     4   9  19  36  56  77 102 138 178 216 261 312
#     4   9  19  36  56  80 105 135 175 216 260 318
#     4  10  21  35  52  76 105 143 180 209 256 317
#     4  10  19  33  53  80 111 141 173 209 254 316
#     4   9  18  33  54  76 107 143 171 202 260 321
#     4  11  20  35  55  75 104 141 178 220 258 304
#
# _framework density 18.55143
#
# number of rings (size 3 to 8) (size 9 to 14) (size 15 to 20)
#    0.000    2.182    0.000    7.091    0.000    2.182 
#    0.000    7.727    0.000    0.000    0.000    0.000 
#    0.000    0.000    0.000    0.000    0.000    0.000 
#
# Total GULP energy -272705.512770 kJ/mol
# GULP energy per Si atom -12395.705126 kJ/mol
# Density = 1.850921 g / cm^3
# Si number density = 18.551430 Si / 1000 Ang^3
#
#
#
# Elastic Constant Matrix: (Units=GPa)
#
#
# Indices 1 2 3 4 5 6 
#
# 1 112.2040 57.6390 31.8053 0.0000 -5.5930 0.0000
# 2 57.6390 131.5632 75.5947 0.0000 -0.5339 0.0000
# 3 31.8053 75.5947 100.0227 0.0000 -4.7212 0.0000
# 4 0.0000 0.0000 0.0000 35.7277 0.0000 -6.3021
# 5 -5.5930 -0.5339 -4.7212 0.0000 24.1010 0.0000
# 6 0.0000 0.0000 0.0000 -6.3021 0.0000 12.3289
#
#
#
# Elastic Compliance Matrix: (Units=1/GPa)
#
#
# Indices 1 2 3 4 5 6 
#
# 1 0.011673 -0.005379 0.000480 0.000000 0.002684 0.000000
# 2 -0.005379 0.015984 -0.010509 0.000000 -0.002953 0.000000
# 3 0.000480 -0.010509 0.017948 0.000000 0.003395 0.000000
# 4 0.000000 0.000000 0.000000 0.030763 0.000000 0.015725
# 5 0.002684 -0.002953 0.003395 0.000000 0.042715 0.000000
# 6 0.000000 0.000000 0.000000 0.015725 0.000000 0.089148
#
#
# Mechanical properties :
#
#
# Convention : Reuss Voigt Hill
#
# Bulk Modulus (GPa) = 67.61859 74.87420 71.24640
# Shear Modulus (GPa) = 20.49370 26.34825 23.42098
#
# Velocity S-wave (km/s) = 3.32730 3.77275 3.55701
# Velocity P-wave (km/s) = 7.16168 7.70884 7.44029
#
# Compressibility (1/GPa) = 0.01478883
#
# Stress axis : x y z
#
# Youngs Moduli (GPa) = 85.66565 62.56189 55.71676
#
# Poissons Ratio (x) = 0.33654 -0.02676
# Poissons Ratio (y) = 0.46082 0.58555
# Poissons Ratio (z) = -0.04115 0.65748
#
# Static dielectric constant tensor:
#      x y z
#    x 3.531830 0.000000 -0.229700 
#    y 0.000000 3.761560 0.000000 
#    z -0.229700 0.000000 3.448440 
# 
# 
# High freq. dielectric constant tensor:
#      x y z
#    x 1.716170 0.000000 -0.007580 
#    y 0.000000 1.720090 0.000000 
#    z -0.007580 0.000000 1.706990 
# 
# From -- ./inp_files/120783.got.cif
#   From: 2010.06.25/outbox.cif.g09.slc.cpg/sg12_61_cif.got.tgz:120783.got - 2010.06.28 00:19:55.
