data_PCOD8085448
_publ_section_title
;
Structure prediction by ZEFSAII (Michael W. Deem and Ramdas Pophale) SiO2 
 PCOD8085448
Probable space group: C 2/M
;
_chemical_formula_sum "Si O2"
_cell_formula_units_Z 56
_cell_length_a 19.701520
_cell_length_b 28.691195
_cell_length_c 10.147818
_cell_angle_alpha 90.000000
_cell_angle_beta 38.254420
_cell_angle_gamma 90.000000
_cell_volume 3551.567680
_symmetry_space_group_name_H-M "C 2/M"
_symmetry_group_IT_number 12
_symmetry_cell_setting 'monoclinic'
loop_
_space_group_symop_operation_xyz
x,y,z
-x,y,-z
-x,-y,-z
x,-y,z
1/2+x,1/2+y,z
1/2-x,1/2+y,-z
1/2-x,1/2-y,-z
1/2+x,1/2-y,z
loop_
_atom_site_type_symbol
_atom_site_label
_atom_site_fract_x
_atom_site_fract_y
_atom_site_fract_z
Si Si1 0.750691 0.811481 0.865139
Si Si2 0.621080 0.000000 0.476857
Si Si3 0.629113 0.715506 0.572946
Si Si4 0.374666 0.279300 0.924427
Si Si5 0.865360 0.399484 0.852088
Si Si6 0.621972 0.899067 0.478107
Si Si7 0.245223 0.689199 0.368102
Si Si8 0.366630 0.000000 0.847518
O O1 0.805785 0.812342 0.638335
O O2 0.843476 0.795942 0.826429
O O3 0.648095 0.775884 0.026511
O O4 0.707188 0.862719 0.959642
O O5 0.664085 0.049828 0.468079
O O6 0.492588 0.000000 0.692697
O O7 0.651176 0.000000 0.279638
O O8 0.500451 0.709139 0.754650
O O9 0.662565 0.692826 0.660652
O O10 0.655916 0.770308 0.525489
O O11 0.301416 0.307108 0.140496
O O12 0.851112 0.393060 0.717329
O O13 0.818914 0.450476 0.971361
O O14 0.992210 0.393632 0.697742
O O15 0.683778 0.860223 0.469566
#
# Coordination Sequence:
#
# PCOD8085448 Si02
#       8
#     8   4   8   8   8   8   8   4
#     4  10  19  30  47  70  90 116 154 184 227 267
#     4   7  12  22  40  69  94 112 141 186 229 265
#     4  10  21  32  44  64  96 123 150 188 219 265
#     4  10  19  32  46  66  90 120 155 189 218 258
#     4   9  15  26  45  71  96 117 145 187 227 270
#     4   9  15  26  46  70  95 118 147 186 226 268
#     4  10  19  32  47  66  89 125 157 176 224 274
#     4   7  12  22  40  67  96 116 137 178 235 275
#
# _framework density 15.767683999999999
#
# number of rings (size 3 to 8) (size 9 to 14) (size 15 to 20)
#    0.000    2.714    1.429    3.429    0.000    0.000 
#    0.000    2.143    0.000    0.857    0.000    9.000 
#    0.000    0.000    0.000    0.000    0.000    0.000 
#
# Total GULP energy -346973.051023 kJ/mol
# GULP energy per Si atom -12391.894679 kJ/mol
# Density = 1.573180 g / cm^3
# Si number density = 15.767684 Si / 1000 Ang^3
#
#
#
# Elastic Constant Matrix: (Units=GPa)
#
#
# Indices 1 2 3 4 5 6 
#
# 1 42.7547 24.6796 10.3654 0.0000 -5.2262 0.0000
# 2 24.6796 131.8059 26.9785 0.0000 -11.8627 0.0000
# 3 10.3654 26.9785 16.7272 0.0000 -4.9048 0.0000
# 4 0.0000 0.0000 0.0000 18.7260 0.0000 -1.0305
# 5 -5.2262 -11.8627 -4.9048 0.0000 21.9448 0.0000
# 6 0.0000 0.0000 0.0000 -1.0305 0.0000 18.7847
#
#
#
# Elastic Compliance Matrix: (Units=1/GPa)
#
#
# Indices 1 2 3 4 5 6 
#
# 1 0.028210 -0.002430 -0.012817 0.000000 0.002540 0.000000
# 2 -0.002430 0.011634 -0.016676 0.000000 0.001983 0.000000
# 3 -0.012817 -0.016676 0.097471 0.000000 0.009718 0.000000
# 4 0.000000 0.000000 0.000000 0.053563 0.000000 0.002938
# 5 0.002540 0.001983 0.009718 0.000000 0.049418 0.000000
# 6 0.000000 0.000000 0.000000 0.002938 0.000000 0.053396
#
#
# Mechanical properties :
#
#
# Convention : Reuss Voigt Hill
#
# Bulk Modulus (GPa) = 13.61126 35.03722 24.32424
# Shear Modulus (GPa) = 13.08804 20.50872 16.79838
#
# Velocity S-wave (km/s) = 2.88419 3.61041 3.26754
# Velocity P-wave (km/s) = 4.44326 6.29676 5.44939
#
# Compressibility (1/GPa) = 0.07346856
#
# Stress axis : x y z
#
# Youngs Moduli (GPa) = 35.44871 85.95675 10.25941
#
# Poissons Ratio (x) = 0.20888 0.13149
# Poissons Ratio (y) = 0.08614 0.17109
# Poissons Ratio (z) = 0.45434 1.43344
#
# Static dielectric constant tensor:
#      x y z
#    x 2.812240 0.000000 0.067410 
#    y 0.000000 3.281710 0.000000 
#    z 0.067410 0.000000 2.719850 
# 
# 
# High freq. dielectric constant tensor:
#      x y z
#    x 1.585040 0.000000 0.002860 
#    y 0.000000 1.610150 0.000000 
#    z 0.002860 0.000000 1.580040 
# 
# From -- ./inp_files/66879.got.cif
#   From: 2010.06.25/outbox.cif.g09.slc.cpg/sg12_34_cif.got.tgz:66879.got - 2010.06.28 00:19:55.
