data_PCOD8085181
_publ_section_title
;
Structure prediction by ZEFSAII (Michael W. Deem and Ramdas Pophale) SiO2 
 PCOD8085181
Probable space group: C 2/M
;
_chemical_formula_sum "Si O2"
_cell_formula_units_Z 64
_cell_length_a 22.676188
_cell_length_b 9.060124
_cell_length_c 23.133613
_cell_angle_alpha 90.000000
_cell_angle_beta 125.981946
_cell_angle_gamma 90.000000
_cell_volume 3845.959383
_symmetry_space_group_name_H-M "C 2/M"
_symmetry_group_IT_number 12
_symmetry_cell_setting 'monoclinic'
loop_
_space_group_symop_operation_xyz
x,y,z
-x,y,-z
-x,-y,-z
x,-y,z
1/2+x,1/2+y,z
1/2-x,1/2+y,-z
1/2-x,1/2-y,-z
1/2+x,1/2-y,z
loop_
_atom_site_type_symbol
_atom_site_label
_atom_site_fract_x
_atom_site_fract_y
_atom_site_fract_z
Si Si1 0.583988 0.667061 0.372147
Si Si2 0.984836 0.326283 0.231141
Si Si3 0.423562 0.673581 0.931616
Si Si4 0.297033 0.663662 0.659583
Si Si5 0.103683 0.328346 0.204225
Si Si6 0.690643 0.826811 0.505225
Si Si7 0.658458 0.671187 0.891894
Si Si8 0.695914 0.329635 0.043504
O O1 0.562490 0.500000 0.376075
O O2 0.513650 0.750793 0.306413
O O3 0.647138 0.671520 0.361190
O O4 0.612545 0.751166 0.446519
O O5 0.981684 0.500000 0.239515
O O6 0.905173 0.265415 0.172992
O O7 0.036693 0.285516 0.207155
O O8 0.428115 0.500000 0.924335
O O9 0.406439 0.746765 0.861303
O O10 0.360980 0.717408 0.940492
O O11 0.500000 0.734330 0.000000
O O12 0.298466 0.500000 0.687866
O O13 0.320076 0.778475 0.722411
O O14 0.216261 0.697681 0.586885
O O15 0.108160 0.500000 0.194598
O O16 0.750000 0.750000 0.500000
O O17 0.686899 0.000000 0.488057
O O18 0.647572 0.500000 0.870485
O O19 0.734108 0.726460 0.908254
O O20 0.657651 0.698824 0.960018
O O21 0.719918 0.500000 0.062781
#
# Coordination Sequence:
#
# PCOD8085181 Si02
#       8
#     8   8   8   8   8   8   8   8
#     4   9  16  25  38  58  84 115 150 186 223 266
#     4  10  19  30  44  64  92 123 153 187 228 272
#     4  10  20  34  51  68  90 121 152 183 222 271
#     4   8  15  26  39  55  80 116 152 183 218 265
#     4  10  20  30  43  65  91 119 152 191 229 265
#     4   9  15  23  36  55  80 113 150 185 222 264
#     4  10  19  32  51  70  89 115 149 189 228 269
#     4   9  19  34  50  69  91 117 149 184 226 273
#
# _framework density 16.640841000000002
#
# number of rings (size 3 to 8) (size 9 to 14) (size 15 to 20)
#    0.000    2.625    0.000    3.375    0.000    7.250 
#    0.000    0.000    0.000    0.000    0.000    0.000 
#    0.000    1.000    0.000   10.500    0.000    7.625 
#
# Total GULP energy -396710.594356 kJ/mol
# GULP energy per Si atom -12397.206074 kJ/mol
# Density = 1.660297 g / cm^3
# Si number density = 16.640841 Si / 1000 Ang^3
#
#
#
# Elastic Constant Matrix: (Units=GPa)
#
#
# Indices 1 2 3 4 5 6 
#
# 1 48.3238 34.6036 42.3995 0.0000 5.3182 0.0000
# 2 34.6036 83.4809 56.9751 0.0000 8.6931 0.0000
# 3 42.3995 56.9751 134.2422 0.0000 15.0087 0.0000
# 4 0.0000 0.0000 0.0000 34.3838 0.0000 2.5550
# 5 5.3182 8.6931 15.0087 0.0000 15.0864 0.0000
# 6 0.0000 0.0000 0.0000 2.5550 0.0000 17.5479
#
#
#
# Elastic Compliance Matrix: (Units=1/GPa)
#
#
# Indices 1 2 3 4 5 6 
#
# 1 0.033025 -0.009257 -0.006522 0.000000 0.000181 0.000000
# 2 -0.009257 0.019573 -0.005049 0.000000 -0.002992 0.000000
# 3 -0.006522 -0.005049 0.012455 0.000000 -0.007183 0.000000
# 4 0.000000 0.000000 0.000000 0.029402 0.000000 -0.004281
# 5 0.000181 -0.002992 -0.007183 0.000000 0.075091 0.000000
# 6 0.000000 0.000000 0.000000 -0.004281 0.000000 0.057610
#
#
# Mechanical properties :
#
#
# Convention : Reuss Voigt Hill
#
# Bulk Modulus (GPa) = 42.73946 59.33371 51.03658
# Shear Modulus (GPa) = 18.07590 22.20819 20.14204
#
# Velocity S-wave (km/s) = 3.29939 3.65713 3.48285
# Velocity P-wave (km/s) = 6.34459 7.31885 6.84907
#
# Compressibility (1/GPa) = 0.02339758
#
# Stress axis : x y z
#
# Youngs Moduli (GPa) = 30.28015 51.08994 80.28763
#
# Poissons Ratio (x) = 0.47292 0.52366
# Poissons Ratio (y) = 0.28029 0.40538
# Poissons Ratio (z) = 0.19749 0.25796
#
# Static dielectric constant tensor:
#      x y z
#    x 2.715940 0.000000 0.208200 
#    y 0.000000 3.243580 0.000000 
#    z 0.208200 0.000000 3.712580 
# 
# 
# High freq. dielectric constant tensor:
#      x y z
#    x 1.578220 0.000000 0.015450 
#    y 0.000000 1.653470 0.000000 
#    z 0.015450 0.000000 1.655990 
# 
# From -- ./inp_files/323793.got.cif
#   From: 2010.06.25/outbox.cif.g09.slc.cpg/sg12_162_cif.got.tgz:323793.got - 2010.06.28 00:19:55.
