data_PCOD8085771
_publ_section_title
;
Structure prediction by ZEFSAII (Michael W. Deem and Ramdas Pophale) SiO2 
 PCOD8085771
Probable space group: C 2/M
;
_chemical_formula_sum "Si O2"
_cell_formula_units_Z 64
_cell_length_a 24.062060
_cell_length_b 8.767010
_cell_length_c 21.501223
_cell_angle_alpha 90.000000
_cell_angle_beta 128.653131
_cell_angle_gamma 90.000000
_cell_volume 3542.142527
_symmetry_space_group_name_H-M "C 2/M"
_symmetry_group_IT_number 12
_symmetry_cell_setting 'monoclinic'
loop_
_space_group_symop_operation_xyz
x,y,z
-x,y,-z
-x,-y,-z
x,-y,z
1/2+x,1/2+y,z
1/2-x,1/2+y,-z
1/2-x,1/2-y,-z
1/2+x,1/2-y,z
loop_
_atom_site_type_symbol
_atom_site_label
_atom_site_fract_x
_atom_site_fract_y
_atom_site_fract_z
Si Si1 0.226388 0.319435 0.632783
Si Si2 0.515395 0.680267 0.787630
Si Si3 0.889128 0.819303 0.532163
Si Si4 0.696349 0.680440 0.739691
Si Si5 0.357050 0.822190 0.063229
Si Si6 0.860121 0.819689 0.650052
Si Si7 0.249272 0.677888 0.900800
Si Si8 0.043537 0.180221 0.669537
O O1 0.228720 0.500000 0.635828
O O2 0.152843 0.263993 0.551677
O O3 0.234291 0.257448 0.707766
O O4 0.292313 0.251780 0.638841
O O5 0.527081 0.500000 0.803245
O O6 0.561563 0.767845 0.871668
O O7 0.432360 0.725728 0.737139
O O8 0.540733 0.741307 0.738020
O O9 0.861112 0.759734 0.579652
O O10 0.972168 0.771533 0.582616
O O11 0.879277 0.000000 0.518190
O O12 0.698879 0.500000 0.733718
O O13 0.738363 0.727353 0.830598
O O14 0.614580 0.741539 0.685709
O O15 0.314032 0.781960 0.095866
O O16 0.353675 0.000000 0.045285
O O17 0.324001 0.729774 0.982600
O O18 0.855902 0.000000 0.643582
O O19 0.251992 0.500000 0.886788
O O20 0.045724 0.000000 0.675525
#
# Coordination Sequence:
#
# PCOD8085771 Si02
#       8
#     8   8   8   8   8   8   8   8
#     4  11  22  35  49  73 104 137 171 211 258 305
#     4   9  15  30  54  77  99 131 170 211 252 297
#     4   9  17  34  56  76  95 126 172 220 258 300
#     4  11  21  35  53  73 100 138 175 210 249 302
#     4  10  19  30  49  80 111 135 162 201 250 301
#     4   8  17  33  55  76  99 131 173 215 255 302
#     4  10  20  33  50  75 107 140 168 201 244 298
#     4   8  16  30  51  74  98 128 168 210 253 300
#
# _framework density 18.068161
#
# number of rings (size 3 to 8) (size 9 to 14) (size 15 to 20)
#    0.000    2.500    1.250    3.375    0.000    1.500 
#    0.000    8.125    0.000    0.750    0.000    5.250 
#    0.000    0.000    0.000    0.000    0.000    0.000 
#
# Total GULP energy -396753.142249 kJ/mol
# GULP energy per Si atom -12398.535695 kJ/mol
# Density = 1.802704 g / cm^3
# Si number density = 18.068161 Si / 1000 Ang^3
#
#
#
# Elastic Constant Matrix: (Units=GPa)
#
#
# Indices 1 2 3 4 5 6 
#
# 1 52.7125 16.0350 30.8924 0.0000 -6.4171 0.0000
# 2 16.0350 44.1633 22.5419 0.0000 -0.4801 0.0000
# 3 30.8924 22.5419 108.2172 0.0000 5.7577 0.0000
# 4 0.0000 0.0000 0.0000 33.7532 0.0000 -0.4230
# 5 -6.4171 -0.4801 5.7577 0.0000 22.8985 0.0000
# 6 0.0000 0.0000 0.0000 -0.4230 0.0000 20.0356
#
#
#
# Elastic Compliance Matrix: (Units=1/GPa)
#
#
# Indices 1 2 3 4 5 6 
#
# 1 0.025668 -0.005872 -0.006568 0.000000 0.008722 0.000000
# 2 -0.005872 0.026761 -0.003892 0.000000 -0.000106 0.000000
# 3 -0.006568 -0.003892 0.012192 0.000000 -0.004988 0.000000
# 4 0.000000 0.000000 0.000000 0.029635 0.000000 0.000626
# 5 0.008722 -0.000106 -0.004988 0.000000 0.047367 0.000000
# 6 0.000000 0.000000 0.000000 0.000626 0.000000 0.049924
#
#
# Mechanical properties :
#
#
# Convention : Reuss Voigt Hill
#
# Bulk Modulus (GPa) = 31.29382 38.22570 34.75976
# Shear Modulus (GPa) = 21.28883 24.37905 22.83394
#
# Velocity S-wave (km/s) = 3.43629 3.67724 3.55881
# Velocity P-wave (km/s) = 5.75340 6.26353 6.01388
#
# Compressibility (1/GPa) = 0.03195519
#
# Stress axis : x y z
#
# Youngs Moduli (GPa) = 38.95856 37.36784 82.02192
#
# Poissons Ratio (x) = 0.21944 0.53874
# Poissons Ratio (y) = 0.22878 0.31926
# Poissons Ratio (z) = 0.25589 0.14545
#
# Static dielectric constant tensor:
#      x y z
#    x 3.477380 0.000000 0.194360 
#    y 0.000000 3.058260 0.000000 
#    z 0.194360 0.000000 3.345830 
# 
# 
# High freq. dielectric constant tensor:
#      x y z
#    x 1.676220 0.000000 0.013880 
#    y 0.000000 1.680870 0.000000 
#    z 0.013880 0.000000 1.704940 
# 
# From -- ./inp_files/324083.got.cif
#   From: 2010.06.25/outbox.cif.g09.slc.cpg/sg12_163_cif.got.tgz:324083.got - 2010.06.28 00:19:55.
