data_PCOD8085631
_publ_section_title
;
Structure prediction by ZEFSAII (Michael W. Deem and Ramdas Pophale) SiO2 
 PCOD8085631
Probable space group: C 2/M
;
_chemical_formula_sum "Si O2"
_cell_formula_units_Z 56
_cell_length_a 17.650236
_cell_length_b 9.538536
_cell_length_c 17.681716
_cell_angle_alpha 90.000000
_cell_angle_beta 86.952689
_cell_angle_gamma 90.000000
_cell_volume 2972.638610
_symmetry_space_group_name_H-M "C 2/M"
_symmetry_group_IT_number 12
_symmetry_cell_setting 'monoclinic'
loop_
_space_group_symop_operation_xyz
x,y,z
-x,y,-z
-x,-y,-z
x,-y,z
1/2+x,1/2+y,z
1/2-x,1/2+y,-z
1/2-x,1/2-y,-z
1/2+x,1/2-y,z
loop_
_atom_site_type_symbol
_atom_site_label
_atom_site_fract_x
_atom_site_fract_y
_atom_site_fract_z
Si Si1 0.323637 0.660169 0.163597
Si Si2 0.935813 0.337917 0.732604
Si Si3 0.598497 0.657909 0.568731
Si Si4 0.155328 0.337607 0.117019
Si Si5 0.080879 0.156878 0.403730
Si Si6 0.112562 0.336017 0.707213
Si Si7 0.413626 0.337594 0.010127
O O1 0.329851 0.500000 0.192366
O O2 0.241666 0.690864 0.133904
O O3 0.336224 0.765435 0.231762
O O4 0.386302 0.690112 0.096606
O O5 0.918370 0.500000 0.719995
O O6 0.899168 0.285363 0.812543
O O7 0.894537 0.258722 0.665447
O O8 0.025004 0.306274 0.731536
O O9 0.628000 0.500000 0.583438
O O10 0.619219 0.703226 0.481456
O O11 0.508774 0.661764 0.582309
O O12 0.635404 0.766898 0.625611
O O13 0.140481 0.500000 0.099678
O O14 0.138353 0.250023 0.043415
O O15 0.107330 0.000000 0.381578
O O16 0.130837 0.500000 0.702121
O O17 0.405724 0.500000 0.988121
O O18 0.500000 0.285691 0.000000
#
# Coordination Sequence:
#
# PCOD8085631 Si02
#       7
#     8   8   8   8   8   8   8
#     4  10  21  36  52  71  99 133 165 199 242 291
#     4   9  18  31  47  71 101 129 161 203 247 290
#     4   8  14  26  44  68  99 130 161 200 245 292
#     4  10  21  36  53  73  99 133 167 197 239 293
#     4   8  14  25  44  70  97 128 164 200 243 292
#     4  10  19  30  48  74 100 128 164 204 246 290
#     4  10  21  36  55  79 102 125 159 203 247 288
#
# _framework density 18.838481999999999
#
# number of rings (size 3 to 8) (size 9 to 14) (size 15 to 20)
#    0.000    2.714    0.000    2.571    0.000    3.143 
#    0.000    2.857    0.000    0.857    0.000    0.000 
#    0.000    0.000    0.000    0.000    0.000    0.000 
#
# Total GULP energy -347188.671272 kJ/mol
# GULP energy per Si atom -12399.595403 kJ/mol
# Density = 1.879560 g / cm^3
# Si number density = 18.838482 Si / 1000 Ang^3
#
#
#
# Elastic Constant Matrix: (Units=GPa)
#
#
# Indices 1 2 3 4 5 6 
#
# 1 37.9637 25.3984 19.0816 0.0000 12.2836 0.0000
# 2 25.3984 92.0955 62.9730 0.0000 23.5188 0.0000
# 3 19.0816 62.9730 97.3649 0.0000 30.4249 0.0000
# 4 0.0000 0.0000 0.0000 40.7544 0.0000 8.4611
# 5 12.2836 23.5188 30.4249 0.0000 18.8219 0.0000
# 6 0.0000 0.0000 0.0000 8.4611 0.0000 19.0224
#
#
#
# Elastic Compliance Matrix: (Units=1/GPa)
#
#
# Indices 1 2 3 4 5 6 
#
# 1 0.036048 -0.007567 0.004499 0.000000 -0.021342 0.000000
# 2 -0.007567 0.021676 -0.011348 0.000000 -0.003803 0.000000
# 3 0.004499 -0.011348 0.026703 0.000000 -0.031921 0.000000
# 4 0.000000 0.000000 0.000000 0.027034 0.000000 -0.012025
# 5 -0.021342 -0.003803 -0.031921 0.000000 0.123408 0.000000
# 6 0.000000 0.000000 0.000000 -0.012025 0.000000 0.057918
#
#
# Mechanical properties :
#
#
# Convention : Reuss Voigt Hill
#
# Bulk Modulus (GPa) = 17.98769 49.14779 33.56774
# Shear Modulus (GPa) = 14.69930 23.71781 19.20856
#
# Velocity S-wave (km/s) = 2.79638 3.55210 3.19665
# Velocity P-wave (km/s) = 4.47163 6.55507 5.61090
#
# Compressibility (1/GPa) = 0.05559358
#
# Stress axis : x y z
#
# Youngs Moduli (GPa) = 27.74089 46.13412 37.44831
#
# Poissons Ratio (x) = 0.34911 -0.16847
# Poissons Ratio (y) = 0.20992 0.42497
# Poissons Ratio (z) = -0.12480 0.52353
#
# Static dielectric constant tensor:
#      x y z
#    x 3.142600 0.000000 -0.048800 
#    y 0.000000 3.463800 0.000000 
#    z -0.048800 0.000000 3.663550 
# 
# 
# High freq. dielectric constant tensor:
#      x y z
#    x 1.701230 0.000000 0.002410 
#    y 0.000000 1.728470 0.000000 
#    z 0.002410 0.000000 1.742210 
# 
# From -- ./inp_files/280335.got.cif
#   From: 2010.06.25/outbox.cif.g09.slc.cpg/sg12_141_cif.got.tgz:280335.got - 2010.06.28 00:19:55.
