data_PCOD8085518
_publ_section_title
;
Structure prediction by ZEFSAII (Michael W. Deem and Ramdas Pophale) SiO2 
 PCOD8085518
Probable space group: C 2/M
;
_chemical_formula_sum "Si O2"
_cell_formula_units_Z 48
_cell_length_a 19.439501
_cell_length_b 8.904243
_cell_length_c 27.919517
_cell_angle_alpha 90.000000
_cell_angle_beta 33.554774
_cell_angle_gamma 90.000000
_cell_volume 2671.198311
_symmetry_space_group_name_H-M "C 2/M"
_symmetry_group_IT_number 12
_symmetry_cell_setting 'monoclinic'
loop_
_space_group_symop_operation_xyz
x,y,z
-x,y,-z
-x,-y,-z
x,-y,z
1/2+x,1/2+y,z
1/2-x,1/2+y,-z
1/2-x,1/2-y,-z
1/2+x,1/2-y,z
loop_
_atom_site_type_symbol
_atom_site_label
_atom_site_fract_x
_atom_site_fract_y
_atom_site_fract_z
Si Si1 0.620533 0.176304 0.281815
Si Si2 0.131371 0.821360 0.593211
Si Si3 0.846553 0.822939 0.214357
Si Si4 0.805156 0.172714 0.855929
Si Si5 0.070148 0.175305 0.733590
Si Si6 0.031809 0.673315 0.034736
O O1 0.492072 0.266164 0.362754
O O2 0.710113 0.220587 0.274183
O O3 0.693017 0.222338 0.191705
O O4 0.591745 0.000000 0.297512
O O5 0.250000 0.750000 0.500000
O O6 0.125910 0.761483 0.651356
O O7 0.138021 0.000000 0.586371
O O8 0.863457 0.753556 0.258137
O O9 0.956427 0.764689 0.117293
O O10 0.863237 0.000000 0.206082
O O11 0.922395 0.210979 0.821843
O O12 0.813733 0.000000 0.832972
O O13 0.678844 0.200008 0.958760
O O14 0.095575 0.000000 0.718907
O O15 0.993990 0.500000 0.061646
O O16 0.000000 0.731325 0.000000
#
# Coordination Sequence:
#
# PCOD8085518 Si02
#       6
#     8   8   8   8   8   8
#     4  10  19  31  51  77 103 131 168 209 251 299
#     4  10  20  37  61  81 101 129 164 204 248 304
#     4  10  20  33  50  74 104 136 171 212 254 298
#     4   9  17  32  51  69  97 140 181 214 250 299
#     4   8  17  34  53  73 100 134 168 206 256 304
#     4  10  19  30  47  72 103 138 179 217 254 298
#
# _framework density 17.969463000000001
#
# number of rings (size 3 to 8) (size 9 to 14) (size 15 to 20)
#    0.000    2.500    1.667    2.000    0.000    2.333 
#    0.000    5.000    0.000    5.000    0.000    0.000 
#    0.000    0.000    0.000    0.000    0.000    0.000 
#
# Total GULP energy -297516.544765 kJ/mol
# GULP energy per Si atom -12396.522699 kJ/mol
# Density = 1.792856 g / cm^3
# Si number density = 17.969463 Si / 1000 Ang^3
#
#
#
# Elastic Constant Matrix: (Units=GPa)
#
#
# Indices 1 2 3 4 5 6 
#
# 1 154.2371 36.8569 75.8646 -0.0003 -9.3800 0.0006
# 2 36.8569 45.0988 38.0558 -0.0009 -7.7487 0.0018
# 3 75.8646 38.0558 140.0952 0.0002 -8.0094 -0.0001
# 4 -0.0003 -0.0009 0.0002 31.6333 0.0001 -1.5940
# 5 -9.3800 -7.7487 -8.0094 0.0001 19.3476 -0.0002
# 6 0.0006 0.0018 -0.0001 -1.5940 -0.0002 18.8077
#
#
#
# Elastic Compliance Matrix: (Units=1/GPa)
#
#
# Indices 1 2 3 4 5 6 
#
# 1 0.009503 -0.004236 -0.003922 0.000000 0.001287 0.000000
# 2 -0.004236 0.032084 -0.005945 0.000001 0.008335 -0.000003
# 3 -0.003922 -0.005945 0.010890 0.000000 0.000226 0.000001
# 4 0.000000 0.000001 0.000000 0.031748 0.000000 0.002691
# 5 0.001287 0.008335 0.000226 0.000000 0.055742 0.000000
# 6 0.000000 -0.000003 0.000001 0.002691 0.000000 0.053398
#
#
# Mechanical properties :
#
#
# Convention : Reuss Voigt Hill
#
# Bulk Modulus (GPa) = 41.20122 71.22064 56.21093
# Shear Modulus (GPa) = 21.77134 26.53464 24.15299
#
# Velocity S-wave (km/s) = 3.48454 3.84689 3.67019
# Velocity P-wave (km/s) = 6.25841 7.71050 7.02209
#
# Compressibility (1/GPa) = 0.02427112
#
# Stress axis : x y z
#
# Youngs Moduli (GPa) = 105.22915 31.16823 91.83038
#
# Poissons Ratio (x) = 0.13202 0.36015
# Poissons Ratio (y) = 0.44573 0.54594
# Poissons Ratio (z) = 0.41270 0.18530
#
# Static dielectric constant tensor:
#      x y z
#    x 3.709790 0.000000 -0.126180 
#    y 0.000000 3.174560 0.000000 
#    z -0.126180 0.000000 3.293350 
# 
# 
# High freq. dielectric constant tensor:
#      x y z
#    x 1.692940 0.000000 -0.015490 
#    y 0.000000 1.680200 0.000000 
#    z -0.015490 0.000000 1.689490 
# 
# From -- ./inp_files/221613.got.cif
#   From: 2010.06.25/outbox.cif.g09.slc.cpg/sg12_111_cif.got.tgz:221613.got - 2010.06.28 00:19:55.
