data_PCOD8085237
_publ_section_title
;
Structure prediction by ZEFSAII (Michael W. Deem and Ramdas Pophale) SiO2 
 PCOD8085237
Probable space group: C 2/M
;
_chemical_formula_sum "Si O2"
_cell_formula_units_Z 40
_cell_length_a 22.862252
_cell_length_b 9.148122
_cell_length_c 28.845049
_cell_angle_alpha 90.000000
_cell_angle_beta 157.479410
_cell_angle_gamma 90.000000
_cell_volume 2310.673005
_symmetry_space_group_name_H-M "C 2/M"
_symmetry_group_IT_number 12
_symmetry_cell_setting 'monoclinic'
loop_
_space_group_symop_operation_xyz
x,y,z
-x,y,-z
-x,-y,-z
x,-y,z
1/2+x,1/2+y,z
1/2-x,1/2+y,-z
1/2-x,1/2-y,-z
1/2+x,1/2-y,z
loop_
_atom_site_type_symbol
_atom_site_label
_atom_site_fract_x
_atom_site_fract_y
_atom_site_fract_z
Si Si1 0.789053 0.327206 0.384210
Si Si2 0.715548 0.330046 0.043864
Si Si3 0.012237 0.670340 0.823700
Si Si4 0.668933 0.326355 0.113599
Si Si5 0.621103 0.826831 0.651460
O O1 0.762825 0.500000 0.369187
O O2 0.649542 0.243793 0.306294
O O3 0.800002 0.276657 0.338621
O O4 0.944172 0.277391 0.523877
O O5 0.670375 0.500000 0.007134
O O6 0.879253 0.298607 0.140776
O O7 0.724027 0.277177 0.103128
O O8 0.583021 0.240390 0.921654
O O9 0.989819 0.500000 0.816225
O O10 0.668124 0.500000 0.117215
O O11 0.786259 0.259481 0.237320
O O12 0.500000 0.264352 0.000000
O O13 0.625174 0.000000 0.655784
#
# Coordination Sequence:
#
# PCOD8085237 Si02
#       5
#     8   8   8   8   8
#     4   9  16  29  49  69  90 117 150 185 220 261
#     4   9  18  31  47  67  90 117 150 186 222 264
#     4  10  19  30  45  66  92 120 150 184 222 264
#     4   9  15  25  46  72  91 109 142 189 230 259
#     4   8  15  27  46  72  93 112 147 190 223 257
#
# _framework density 17.310973000000001
#
# number of rings (size 3 to 8) (size 9 to 14) (size 15 to 20)
#    0.000    3.000    0.000    3.000    0.000    4.000 
#    0.000    3.000    0.000    6.600    0.000    0.000 
#    0.000    0.000    0.000    0.000    0.000    0.000 
#
# Total GULP energy -247954.887226 kJ/mol
# GULP energy per Si atom -12397.744361 kJ/mol
# Density = 1.727157 g / cm^3
# Si number density = 17.310973 Si / 1000 Ang^3
#
#
#
# Elastic Constant Matrix: (Units=GPa)
#
#
# Indices 1 2 3 4 5 6 
#
# 1 109.8684 26.2247 81.2203 -0.0012 -7.8915 0.0002
# 2 26.2247 37.8297 36.6078 -0.0077 6.3939 0.0006
# 3 81.2203 36.6078 157.0616 -0.0156 0.7929 0.0011
# 4 -0.0012 -0.0077 -0.0156 22.5558 -0.0001 7.1229
# 5 -7.8915 6.3939 0.7929 -0.0001 32.8574 0.0008
# 6 0.0002 0.0006 0.0011 7.1229 0.0008 17.8041
#
#
#
# Elastic Compliance Matrix: (Units=1/GPa)
#
#
# Indices 1 2 3 4 5 6 
#
# 1 0.015879 -0.005004 -0.007070 -0.000007 0.004958 0.000003
# 2 -0.005004 0.037134 -0.006026 0.000009 -0.008283 -0.000004
# 3 -0.007070 -0.006026 0.011432 0.000006 -0.000801 -0.000003
# 4 -0.000007 0.000009 0.000006 0.050746 -0.000003 -0.020302
# 5 0.004958 -0.008283 -0.000801 -0.000003 0.033256 0.000000
# 6 0.000003 -0.000004 -0.000003 -0.020302 0.000000 0.064289
#
#
# Mechanical properties :
#
#
# Convention : Reuss Voigt Hill
#
# Bulk Modulus (GPa) = 35.40442 65.87392 50.63917
# Shear Modulus (GPa) = 19.35354 25.35722 22.35538
#
# Velocity S-wave (km/s) = 3.34727 3.83143 3.59750
# Velocity P-wave (km/s) = 5.95276 7.59665 6.82438
#
# Compressibility (1/GPa) = 0.02824506
#
# Stress axis : x y z
#
# Youngs Moduli (GPa) = 62.97667 26.92936 87.47736
#
# Poissons Ratio (x) = 0.13476 0.61847
# Poissons Ratio (y) = 0.31514 0.52711
# Poissons Ratio (z) = 0.44525 0.16227
#
# Static dielectric constant tensor:
#      x y z
#    x 3.278860 0.000000 -0.080030 
#    y 0.000000 2.819840 0.000000 
#    z -0.080030 0.000000 3.500530 
# 
# 
# High freq. dielectric constant tensor:
#      x y z
#    x 1.663090 0.000000 0.007840 
#    y 0.000000 1.624960 0.000000 
#    z 0.007840 0.000000 1.675880 
# 
# From -- ./inp_files/162359.got.cif
#   From: 2010.06.25/outbox.cif.g09.slc.cpg/sg12_82_cif.got.tgz:162359.got - 2010.06.28 00:19:55.
