data_PCOD8085737
_publ_section_title
;
Structure prediction by ZEFSAII (Michael W. Deem and Ramdas Pophale) SiO2 
 PCOD8085737
Probable space group: C 2/M
;
_chemical_formula_sum "Si O2"
_cell_formula_units_Z 64
_cell_length_a 30.175802
_cell_length_b 8.576169
_cell_length_c 16.381044
_cell_angle_alpha 90.000000
_cell_angle_beta 132.212651
_cell_angle_gamma 90.000000
_cell_volume 3139.861035
_symmetry_space_group_name_H-M "C 2/M"
_symmetry_group_IT_number 12
_symmetry_cell_setting 'monoclinic'
loop_
_space_group_symop_operation_xyz
x,y,z
-x,y,-z
-x,-y,-z
x,-y,z
1/2+x,1/2+y,z
1/2-x,1/2+y,-z
1/2-x,1/2-y,-z
1/2+x,1/2-y,z
loop_
_atom_site_type_symbol
_atom_site_label
_atom_site_fract_x
_atom_site_fract_y
_atom_site_fract_z
Si Si1 0.696774 0.684795 0.207099
Si Si2 0.689275 0.172661 0.945214
Si Si3 0.675668 0.683691 0.648532
Si Si4 0.196471 0.678720 0.382839
Si Si5 0.892179 0.822479 0.033846
Si Si6 0.889491 0.322036 0.580082
Si Si7 0.598640 0.171889 0.691517
Si Si8 0.017593 0.816700 0.725259
O O1 0.701938 0.500000 0.201686
O O2 0.757676 0.758385 0.244437
O O3 0.687209 0.725655 0.289081
O O4 0.636561 0.748982 0.085167
O O5 0.660347 0.302326 0.966484
O O6 0.654435 0.153801 0.818812
O O7 0.695334 0.000000 0.993797
O O8 0.750000 0.250000 0.000000
O O9 0.676865 0.500000 0.640903
O O10 0.661577 0.760883 0.543915
O O11 0.622044 0.727764 0.644025
O O12 0.211601 0.500000 0.380150
O O13 0.250000 0.750000 0.500000
O O14 0.135571 0.691709 0.359314
O O15 0.950144 0.745226 0.151924
O O16 0.908214 0.000000 0.035979
O O17 0.905604 0.500000 0.578704
O O18 0.947943 0.217029 0.644256
O O19 0.543403 0.248649 0.672312
O O20 0.578258 0.000000 0.635679
O O21 0.029645 0.000000 0.737831
#
# Coordination Sequence:
#
# PCOD8085737 Si02
#       8
#     8   8   8   8   8   8   8   8
#     4  11  22  38  61  90 124 157 193 242 300 356
#     4  10  19  30  49  76 109 151 195 240 289 343
#     4  12  24  37  58  89 121 155 200 248 297 351
#     4  11  23  40  64  91 120 153 193 240 299 358
#     4   9  20  37  57  82 115 155 194 238 290 344
#     4  11  24  42  63  87 117 155 195 242 301 357
#     4  10  21  37  55  80 117 158 198 242 294 347
#     4  10  21  40  63  87 117 156 204 247 287 344
#
# _framework density 20.383068999999999
#
# number of rings (size 3 to 8) (size 9 to 14) (size 15 to 20)
#    0.000    1.500    1.250    4.125    0.000    8.000 
#    0.000    3.125    0.000    3.750    0.000    0.000 
#    0.000    0.000    0.000    0.000    0.000    0.000 
#
# Total GULP energy -396558.975829 kJ/mol
# GULP energy per Si atom -12392.467995 kJ/mol
# Density = 2.033668 g / cm^3
# Si number density = 20.383069 Si / 1000 Ang^3
#
#
#
# Elastic Constant Matrix: (Units=GPa)
#
#
# Indices 1 2 3 4 5 6 
#
# 1 78.7632 20.5628 14.8302 0.0000 -1.4941 0.0000
# 2 20.5628 60.1383 11.6960 0.0000 -0.3729 0.0000
# 3 14.8302 11.6960 65.3244 0.0000 -13.9324 0.0000
# 4 0.0000 0.0000 0.0000 21.0676 0.0000 -2.2875
# 5 -1.4941 -0.3729 -13.9324 0.0000 28.4656 0.0000
# 6 0.0000 0.0000 0.0000 -2.2875 0.0000 33.8625
#
#
#
# Elastic Compliance Matrix: (Units=1/GPa)
#
#
# Indices 1 2 3 4 5 6 
#
# 1 0.014320 -0.004397 -0.002586 0.000000 -0.000572 0.000000
# 2 -0.004397 0.018631 -0.002607 0.000000 -0.001263 0.000000
# 3 -0.002586 -0.002607 0.018229 0.000000 0.008752 0.000000
# 4 0.000000 0.000000 0.000000 0.047817 0.000000 0.003230
# 5 -0.000572 -0.001263 0.008752 0.000000 0.039367 0.000000
# 6 0.000000 0.000000 0.000000 0.003230 0.000000 0.029749
#
#
# Mechanical properties :
#
#
# Convention : Reuss Voigt Hill
#
# Bulk Modulus (GPa) = 31.24938 33.15600 32.20269
# Shear Modulus (GPa) = 25.25766 27.15492 26.20629
#
# Velocity S-wave (km/s) = 3.52397 3.65393 3.58954
# Velocity P-wave (km/s) = 5.64997 5.83981 5.74567
#
# Compressibility (1/GPa) = 0.03200064
#
# Stress axis : x y z
#
# Youngs Moduli (GPa) = 69.83113 53.67402 54.85876
#
# Poissons Ratio (x) = 0.23601 0.14185
# Poissons Ratio (y) = 0.30706 0.14301
# Poissons Ratio (z) = 0.18056 0.13992
#
# Static dielectric constant tensor:
#      x y z
#    x 3.752560 0.000000 0.010180 
#    y 0.000000 3.738130 0.000000 
#    z 0.010180 0.000000 4.002580 
# 
# 
# High freq. dielectric constant tensor:
#      x y z
#    x 1.783460 0.000000 -0.000640 
#    y 0.000000 1.801270 0.000000 
#    z -0.000640 0.000000 1.802210 
# 
# From -- ./inp_files/249912.got.cif
#   From: 2010.06.25/outbox.cif.g09.slc.cpg/sg12_125_cif.got.tgz:249912.got - 2010.06.28 00:19:55.
