data_PCOD8085660
_publ_section_title
;
Structure prediction by ZEFSAII (Michael W. Deem and Ramdas Pophale) SiO2 
 PCOD8085660
Probable space group: C 2/M
;
_chemical_formula_sum "Si O2"
_cell_formula_units_Z 64
_cell_length_a 5.073912
_cell_length_b 24.116209
_cell_length_c 28.829212
_cell_angle_alpha 90.000000
_cell_angle_beta 78.612053
_cell_angle_gamma 90.000000
_cell_volume 3458.194256
_symmetry_space_group_name_H-M "C 2/M"
_symmetry_group_IT_number 12
_symmetry_cell_setting 'monoclinic'
loop_
_space_group_symop_operation_xyz
x,y,z
-x,y,-z
-x,-y,-z
x,-y,z
1/2+x,1/2+y,z
1/2-x,1/2+y,-z
1/2-x,1/2-y,-z
1/2+x,1/2-y,z
loop_
_atom_site_type_symbol
_atom_site_label
_atom_site_fract_x
_atom_site_fract_y
_atom_site_fract_z
Si Si1 0.575377 0.064290 0.447898
Si Si2 0.075705 0.062013 0.851731
Si Si3 0.345528 0.565093 0.611421
Si Si4 0.293522 0.117628 0.290870
Si Si5 0.051448 0.368742 0.865083
Si Si6 0.584961 0.785738 0.946289
Si Si7 0.324358 0.787091 0.223512
Si Si8 0.165205 0.938667 0.743743
O O1 0.500000 0.092357 0.500000
O O2 0.395371 0.087847 0.412257
O O3 0.885427 0.074752 0.426926
O O4 0.500739 0.000000 0.453659
O O5 0.259639 0.102338 0.876115
O O6 0.212701 0.060174 0.796699
O O7 0.774631 0.083867 0.857515
O O8 0.066547 0.000000 0.873313
O O9 0.314203 0.500000 0.627105
O O10 0.357665 0.605505 0.655610
O O11 0.303493 0.181734 0.274076
O O12 0.597413 0.096895 0.287011
O O13 0.128358 0.085822 0.256644
O O14 0.075198 0.336542 0.912081
O O15 0.079092 0.328588 0.819953
O O16 0.387772 0.737030 0.936155
O O17 0.500000 0.807373 0.000000
O O18 0.534055 0.736836 0.220148
O O19 0.181796 0.000000 0.721482
#
# Coordination Sequence:
#
# PCOD8085660 Si02
#       8
#     8   8   8   8   8   8   8   8
#     4   9  17  30  47  70 104 140 172 210 257 314
#     4  11  22  36  56  83 112 144 188 225 261 321
#     4  10  19  30  48  75 103 138 176 211 260 319
#     4  12  22  36  51  76 110 143 181 228 265 321
#     4  12  21  39  60  83 111 147 186 226 277 330
#     4  10  21  38  61  90 116 142 183 238 293 336
#     4  12  24  38  54  76 106 142 185 225 270 325
#     4  11  20  34  52  75 106 143 179 219 264 306
#
# _framework density 18.506768999999998
#
# number of rings (size 3 to 8) (size 9 to 14) (size 15 to 20)
#    0.000    1.125    2.500    5.625    0.000    4.500 
#    0.000    0.000    0.000    2.250    0.000    0.000 
#    0.000   10.000    0.000    0.000    0.000    0.000 
#
# Total GULP energy -396867.925438 kJ/mol
# GULP energy per Si atom -12402.122670 kJ/mol
# Density = 1.846465 g / cm^3
# Si number density = 18.506769 Si / 1000 Ang^3
#
#
#
# Elastic Constant Matrix: (Units=GPa)
#
#
# Indices 1 2 3 4 5 6 
#
# 1 79.4522 15.4449 8.4191 0.0000 9.8930 0.0000
# 2 15.4449 75.0082 34.4030 0.0000 2.6266 0.0000
# 3 8.4191 34.4030 81.6003 0.0000 4.9704 0.0000
# 4 0.0000 0.0000 0.0000 22.0550 0.0000 6.1049
# 5 9.8930 2.6266 4.9704 0.0000 25.7537 0.0000
# 6 0.0000 0.0000 0.0000 6.1049 0.0000 29.0707
#
#
#
# Elastic Compliance Matrix: (Units=1/GPa)
#
#
# Indices 1 2 3 4 5 6 
#
# 1 0.013724 -0.002654 0.000008 0.000000 -0.005003 0.000000
# 2 -0.002654 0.017044 -0.006950 0.000000 0.000623 0.000000
# 3 0.000008 -0.006950 0.015321 0.000000 -0.002251 0.000000
# 4 0.000000 0.000000 0.000000 0.048139 0.000000 -0.010109
# 5 -0.005003 0.000623 -0.002251 0.000000 0.041122 0.000000
# 6 0.000000 0.000000 0.000000 -0.010109 0.000000 0.036522
#
#
# Mechanical properties :
#
#
# Convention : Reuss Voigt Hill
#
# Bulk Modulus (GPa) = 37.17915 39.17719 38.17817
# Shear Modulus (GPa) = 24.99599 27.22879 26.11239
#
# Velocity S-wave (km/s) = 3.67909 3.83990 3.76036
# Velocity P-wave (km/s) = 6.17906 6.39334 6.28711
#
# Compressibility (1/GPa) = 0.02689680
#
# Stress axis : x y z
#
# Youngs Moduli (GPa) = 72.86362 58.67068 65.26850
#
# Poissons Ratio (x) = 0.15573 -0.00051
# Poissons Ratio (y) = 0.19341 0.45362
# Poissons Ratio (z) = -0.00057 0.40776
#
# Static dielectric constant tensor:
#      x y z
#    x 3.499370 0.000000 0.088890 
#    y 0.000000 3.231450 0.000000 
#    z 0.088890 0.000000 3.403840 
# 
# 
# High freq. dielectric constant tensor:
#      x y z
#    x 1.740490 0.000000 0.007460 
#    y 0.000000 1.682970 0.000000 
#    z 0.007460 0.000000 1.707350 
# 
# From -- ./inp_files/355063.got.cif
#   From: 2010.06.25/outbox.cif.g09.slc.cpg/sg12_178_cif.got.tgz:355063.got - 2010.06.28 00:19:55.
