data_PCOD8085779
_publ_section_title
;
Structure prediction by ZEFSAII (Michael W. Deem and Ramdas Pophale) SiO2 
 PCOD8085779
Probable space group: C 2/M
;
_chemical_formula_sum "Si O2"
_cell_formula_units_Z 56
_cell_length_a 17.876305
_cell_length_b 12.931317
_cell_length_c 17.402917
_cell_angle_alpha 90.000000
_cell_angle_beta 56.841292
_cell_angle_gamma 90.000000
_cell_volume 3367.831584
_symmetry_space_group_name_H-M "C 2/M"
_symmetry_group_IT_number 12
_symmetry_cell_setting 'monoclinic'
loop_
_space_group_symop_operation_xyz
x,y,z
-x,y,-z
-x,-y,-z
x,-y,z
1/2+x,1/2+y,z
1/2-x,1/2+y,-z
1/2-x,1/2-y,-z
1/2+x,1/2-y,z
loop_
_atom_site_type_symbol
_atom_site_label
_atom_site_fract_x
_atom_site_fract_y
_atom_site_fract_z
Si Si1 0.839910 0.117421 0.429552
Si Si2 0.472208 0.876844 0.895411
Si Si3 0.303172 0.182496 0.370478
Si Si4 0.007931 0.615628 0.712102
Si Si5 0.864373 0.621816 0.096585
Si Si6 0.508403 0.713750 0.405301
Si Si7 0.300179 0.378565 0.716689
O O1 0.751432 0.137646 0.527647
O O2 0.836327 0.198569 0.361624
O O3 0.927952 0.136085 0.431504
O O4 0.841191 0.000000 0.397590
O O5 0.456487 0.837225 0.816336
O O6 0.565925 0.834457 0.878735
O O7 0.475737 0.000000 0.888862
O O8 0.391231 0.837406 0.996173
O O9 0.389489 0.109950 0.317001
O O10 0.241880 0.181221 0.330763
O O11 0.974890 0.500000 0.710675
O O12 0.996813 0.681933 0.641408
O O13 0.876991 0.500000 0.088768
O O14 0.761753 0.650675 0.174808
O O15 0.500000 0.742152 0.500000
O O16 0.599280 0.658222 0.328826
O O17 0.298691 0.500000 0.700559
#
# Coordination Sequence:
#
# PCOD8085779 Si02
#       7
#     8   8   8   8   8   8   8
#     4  10  20  34  48  66  95 128 158 199 239 272
#     4   8  13  25  46  72  94 116 147 191 246 288
#     4  10  19  30  50  74  89 117 167 197 232 285
#     4  10  19  33  50  68  96 128 156 199 245 278
#     4   8  14  24  45  74  96 113 146 194 243 286
#     4  11  23  33  44  68  97 131 169 192 225 288
#     4  11  19  31  49  70  98 127 155 198 241 275
#
# _framework density 16.62791
#
# number of rings (size 3 to 8) (size 9 to 14) (size 15 to 20)
#    0.000    2.286    2.857    2.571    0.000    0.857 
#    0.000    1.429    0.000    0.000    0.000    0.000 
#    0.000   10.286    0.000    0.000    0.000    0.000 
#
# Total GULP energy -346946.404015 kJ/mol
# GULP energy per Si atom -12390.943001 kJ/mol
# Density = 1.659006 g / cm^3
# Si number density = 16.627910 Si / 1000 Ang^3
#
#
#
# Elastic Constant Matrix: (Units=GPa)
#
#
# Indices 1 2 3 4 5 6 
#
# 1 54.4578 23.5886 23.1330 0.0000 -4.2196 0.0000
# 2 23.5886 72.4635 27.3153 0.0000 7.1329 0.0000
# 3 23.1330 27.3153 102.2530 0.0000 -4.1687 0.0000
# 4 0.0000 0.0000 0.0000 15.0341 0.0000 -1.3332
# 5 -4.2196 7.1329 -4.1687 0.0000 19.5595 0.0000
# 6 0.0000 0.0000 0.0000 -1.3332 0.0000 13.6985
#
#
#
# Elastic Compliance Matrix: (Units=1/GPa)
#
#
# Indices 1 2 3 4 5 6 
#
# 1 0.023290 -0.007102 -0.003088 0.000000 0.006956 0.000000
# 2 -0.007102 0.018384 -0.003672 0.000000 -0.009019 0.000000
# 3 -0.003088 -0.003672 0.011587 0.000000 0.003142 0.000000
# 4 0.000000 0.000000 0.000000 0.067094 0.000000 0.006530
# 5 0.006956 -0.009019 0.003142 0.000000 0.056586 0.000000
# 6 0.000000 0.000000 0.000000 0.006530 0.000000 0.073636
#
#
# Mechanical properties :
#
#
# Convention : Reuss Voigt Hill
#
# Bulk Modulus (GPa) = 39.15917 41.91647 40.53782
# Shear Modulus (GPa) = 17.43293 20.00092 18.71693
#
# Velocity S-wave (km/s) = 3.24143 3.47198 3.35869
# Velocity P-wave (km/s) = 6.13275 6.42931 6.28278
#
# Compressibility (1/GPa) = 0.02553680
#
# Stress axis : x y z
#
# Youngs Moduli (GPa) = 42.93703 54.39558 86.30127
#
# Poissons Ratio (x) = 0.38632 0.26651
# Poissons Ratio (y) = 0.30494 0.31689
# Poissons Ratio (z) = 0.13260 0.19974
#
# Static dielectric constant tensor:
#      x y z
#    x 3.039740 0.000000 -0.161070 
#    y 0.000000 2.860060 0.000000 
#    z -0.161070 0.000000 3.580230 
# 
# 
# High freq. dielectric constant tensor:
#      x y z
#    x 1.622570 0.000000 -0.010690 
#    y 0.000000 1.602640 0.000000 
#    z -0.010690 0.000000 1.653480 
# 
# From -- ./inp_files/276371.got.cif
#   From: 2010.06.25/outbox.cif.g09.slc.cpg/sg12_139_cif.got.tgz:276371.got - 2010.06.28 00:19:55.
