data_PCOD8085426
_publ_section_title
;
Structure prediction by ZEFSAII (Michael W. Deem and Ramdas Pophale) SiO2 
 PCOD8085426
Probable space group: C 2/M
;
_chemical_formula_sum "Si O2"
_cell_formula_units_Z 56
_cell_length_a 35.814261
_cell_length_b 7.856584
_cell_length_c 15.087153
_cell_angle_alpha 90.000000
_cell_angle_beta 130.850041
_cell_angle_gamma 90.000000
_cell_volume 3211.163318
_symmetry_space_group_name_H-M "C 2/M"
_symmetry_group_IT_number 12
_symmetry_cell_setting 'monoclinic'
loop_
_space_group_symop_operation_xyz
x,y,z
-x,y,-z
-x,-y,-z
x,-y,z
1/2+x,1/2+y,z
1/2-x,1/2+y,-z
1/2-x,1/2-y,-z
1/2+x,1/2-y,z
loop_
_atom_site_type_symbol
_atom_site_label
_atom_site_fract_x
_atom_site_fract_y
_atom_site_fract_z
Si Si1 0.635048 0.299600 0.351194
Si Si2 0.315816 0.697903 0.045553
Si Si3 0.805989 0.193559 0.732840
Si Si4 0.064781 0.500000 0.189742
Si Si5 0.212545 0.306382 0.817445
Si Si6 0.801201 0.810463 0.393332
Si Si7 0.112817 0.800690 0.999732
Si Si8 0.451762 0.000000 0.042893
O O1 0.617833 0.500000 0.328201
O O2 0.675917 0.277874 0.338335
O O3 0.589271 0.175857 0.260770
O O4 0.661151 0.219633 0.479871
O O5 0.306718 0.500000 0.047456
O O6 0.323490 0.783114 0.153949
O O7 0.363748 0.731585 0.060680
O O8 0.266428 0.775595 0.922495
O O9 0.755875 0.292900 0.671085
O O10 0.793479 0.000000 0.735649
O O11 0.847696 0.256292 0.865452
O O12 0.065244 0.500000 0.084709
O O13 0.010172 0.500000 0.144352
O O14 0.220464 0.500000 0.804745
O O15 0.187757 0.226645 0.692148
O O16 0.816551 0.000000 0.436703
O O17 0.097048 0.000000 0.986911
O O18 0.066918 0.673189 0.938283
#
# Coordination Sequence:
#
# PCOD8085426 Si02
#       8
#     8   8   8   4   8   8   8   4
#     4  10  23  39  54  78 110 147 187 228 277 324
#     4   9  18  32  48  71 108 148 181 221 266 322
#     4  10  19  33  50  76 111 147 183 219 260 322
#     4  11  24  40  60  81 109 145 185 246 278 325
#     4  10  19  30  46  74 108 146 186 217 262 317
#     4  11  22  32  50  77 109 152 190 218 263 327
#     4  10  20  35  55  80 113 145 180 227 275 326
#     4  11  24  38  60  87 103 141 199 226 291 333
#
# _framework density 17.439162
#
# number of rings (size 3 to 8) (size 9 to 14) (size 15 to 20)
#    0.000    1.857    2.857    1.286    5.000    1.143 
#    0.000    1.429    0.000    0.000    0.000    2.000 
#    0.000    4.571    0.000    0.000    0.000    0.000 
#
# Total GULP energy -347053.560408 kJ/mol
# GULP energy per Si atom -12394.770015 kJ/mol
# Density = 1.739947 g / cm^3
# Si number density = 17.439162 Si / 1000 Ang^3
#
#
#
# Elastic Constant Matrix: (Units=GPa)
#
#
# Indices 1 2 3 4 5 6 
#
# 1 95.6090 40.5081 50.0361 0.0000 -2.2817 0.0000
# 2 40.5081 75.0755 32.0302 0.0000 6.6919 -0.0003
# 3 50.0361 32.0302 83.8950 0.0000 -11.2030 0.0000
# 4 0.0000 0.0000 0.0000 19.7542 0.0000 -3.3402
# 5 -2.2817 6.6919 -11.2030 0.0000 19.5749 0.0000
# 6 0.0000 -0.0003 0.0000 -3.3402 0.0000 21.5953
#
#
#
# Elastic Compliance Matrix: (Units=1/GPa)
#
#
# Indices 1 2 3 4 5 6 
#
# 1 0.017109 -0.005704 -0.008120 0.000000 -0.000703 0.000000
# 2 -0.005704 0.019698 -0.005529 0.000000 -0.010563 0.000000
# 3 -0.008120 -0.005529 0.020572 0.000000 0.012717 0.000000
# 4 0.000000 0.000000 0.000000 0.051982 0.000000 0.008040
# 5 -0.000703 -0.010563 0.012717 0.000000 0.061893 0.000000
# 6 0.000000 0.000000 0.000000 0.008040 0.000000 0.047550
#
#
# Mechanical properties :
#
#
# Convention : Reuss Voigt Hill
#
# Bulk Modulus (GPa) = 53.55586 55.52538 54.54062
# Shear Modulus (GPa) = 18.95847 20.98521 19.97184
#
# Velocity S-wave (km/s) = 3.30073 3.47268 3.38779
# Velocity P-wave (km/s) = 6.73076 6.92733 6.82976
#
# Compressibility (1/GPa) = 0.01867209
#
# Stress axis : x y z
#
# Youngs Moduli (GPa) = 58.44918 50.76589 48.61073
#
# Poissons Ratio (x) = 0.28959 0.39472
# Poissons Ratio (y) = 0.33342 0.26877
# Poissons Ratio (z) = 0.47460 0.28068
#
# Static dielectric constant tensor:
#      x y z
#    x 3.137790 0.000000 -0.259270 
#    y 0.000000 3.321340 0.000000 
#    z -0.259270 0.000000 3.121050 
# 
# 
# High freq. dielectric constant tensor:
#      x y z
#    x 1.658340 0.000000 -0.028550 
#    y 0.000000 1.682380 0.000000 
#    z -0.028550 0.000000 1.648450 
# 
# From -- ./inp_files/249324.got.cif
#   From: 2010.06.25/outbox.cif.g09.slc.cpg/sg12_125_cif.got.tgz:249324.got - 2010.06.28 00:19:55.
