data_PCOD8085504
_publ_section_title
;
Structure prediction by ZEFSAII (Michael W. Deem and Ramdas Pophale) SiO2 
 PCOD8085504
Probable space group: C 2/M
;
_chemical_formula_sum "Si O2"
_cell_formula_units_Z 64
_cell_length_a 22.605518
_cell_length_b 8.779704
_cell_length_c 24.381244
_cell_angle_alpha 90.000000
_cell_angle_beta 46.016270
_cell_angle_gamma 90.000000
_cell_volume 3481.796205
_symmetry_space_group_name_H-M "C 2/M"
_symmetry_group_IT_number 12
_symmetry_cell_setting 'monoclinic'
loop_
_space_group_symop_operation_xyz
x,y,z
-x,y,-z
-x,-y,-z
x,-y,z
1/2+x,1/2+y,z
1/2-x,1/2+y,-z
1/2-x,1/2-y,-z
1/2+x,1/2-y,z
loop_
_atom_site_type_symbol
_atom_site_label
_atom_site_fract_x
_atom_site_fract_y
_atom_site_fract_z
Si Si1 0.839028 0.820902 0.456884
Si Si2 0.095993 0.674199 0.292506
Si Si3 0.005505 0.820406 0.155342
Si Si4 0.316057 0.319815 0.995736
Si Si5 0.729205 0.680716 0.856121
Si Si6 0.457683 0.173128 0.297172
Si Si7 0.436810 0.319861 0.085340
Si Si8 0.523268 0.320047 0.546366
O O1 0.750000 0.750000 0.500000
O O2 0.894569 0.781961 0.368984
O O3 0.889739 0.763309 0.480028
O O4 0.826152 0.000000 0.469803
O O5 0.101489 0.500000 0.309728
O O6 0.185292 0.747005 0.222271
O O7 0.046822 0.684240 0.267364
O O8 0.053190 0.772035 0.367107
O O9 0.965581 0.728485 0.230320
O O10 0.955549 0.768404 0.134399
O O11 0.000226 0.000000 0.170702
O O12 0.097455 0.765534 0.083950
O O13 0.312548 0.500000 0.999504
O O14 0.296519 0.253364 0.068278
O O15 0.250000 0.250000 0.000000
O O16 0.738596 0.500000 0.853610
O O17 0.656319 0.734380 0.863463
O O18 0.424401 0.000000 0.320092
O O19 0.444217 0.500000 0.074499
O O20 0.500000 0.247747 0.000000
O O21 0.500000 0.256234 0.500000
O O22 0.528049 0.500000 0.540678
#
# Coordination Sequence:
#
# PCOD8085504 Si02
#       8
#     8   8   8   8   8   8   8   8
#     4  10  20  37  61  86 113 145 181 219 263 320
#     4   9  18  32  52  77 103 134 173 216 257 303
#     4  10  19  31  50  75 100 131 175 220 261 311
#     4  10  19  30  47  71  98 130 168 212 258 308
#     4   9  16  29  48  70  99 131 168 211 258 306
#     4  10  20  35  54  76 107 143 174 213 265 313
#     4   9  15  28  49  71  97 133 173 215 260 307
#     4   9  19  37  59  81 109 144 174 209 265 326
#
# _framework density 18.381318
#
# number of rings (size 3 to 8) (size 9 to 14) (size 15 to 20)
#    0.000    2.500    1.250    1.500    0.000    2.750 
#    2.250    0.625    0.000    1.125    0.000    0.000 
#    0.000    0.000    0.000    0.000    0.000    0.000 
#
# Total GULP energy -396507.452939 kJ/mol
# GULP energy per Si atom -12390.857904 kJ/mol
# Density = 1.833948 g / cm^3
# Si number density = 18.381318 Si / 1000 Ang^3
#
#
#
# Elastic Constant Matrix: (Units=GPa)
#
#
# Indices 1 2 3 4 5 6 
#
# 1 157.9789 23.8730 73.8550 -0.0003 2.3071 0.0003
# 2 23.8730 19.9036 16.6940 0.0007 -0.3107 0.0003
# 3 73.8550 16.6940 106.9156 -0.0001 4.2915 0.0000
# 4 -0.0003 0.0007 -0.0001 24.1136 0.0006 1.3597
# 5 2.3071 -0.3107 4.2915 0.0006 29.0908 -0.0007
# 6 0.0003 0.0003 0.0000 1.3597 -0.0007 20.6314
#
#
#
# Elastic Compliance Matrix: (Units=1/GPa)
#
#
# Indices 1 2 3 4 5 6 
#
# 1 0.010188 -0.007270 -0.005902 0.000000 -0.000015 0.000000
# 2 -0.007270 0.063113 -0.004912 -0.000002 0.001975 0.000000
# 3 -0.005902 -0.004912 0.014265 0.000000 -0.001689 0.000000
# 4 0.000000 -0.000002 0.000000 0.041625 -0.000001 -0.002743
# 5 -0.000015 0.001975 -0.001689 -0.000001 0.034646 0.000001
# 6 0.000000 0.000000 0.000000 -0.002743 0.000001 0.048651
#
#
# Mechanical properties :
#
#
# Convention : Reuss Voigt Hill
#
# Bulk Modulus (GPa) = 19.45599 57.07135 38.26367
# Shear Modulus (GPa) = 18.81204 26.12558 22.46881
#
# Velocity S-wave (km/s) = 3.20258 3.77412 3.50004
# Velocity P-wave (km/s) = 4.92778 7.07870 6.09881
#
# Compressibility (1/GPa) = 0.05139806
#
# Stress axis : x y z
#
# Youngs Moduli (GPa) = 98.15608 15.84469 70.10271
#
# Poissons Ratio (x) = 0.11519 0.41373
# Poissons Ratio (y) = 0.71357 0.34434
# Poissons Ratio (z) = 0.57930 0.07783
#
# Static dielectric constant tensor:
#      x y z
#    x -28.535770 -0.000460 41.302820 
#    y -0.000460 3.081600 0.000590 
#    z 41.302820 0.000590 -49.397780 
# 
# 
# High freq. dielectric constant tensor:
#      x y z
#    x 1.724480 0.000000 -0.001500 
#    y 0.000000 1.679740 0.000000 
#    z -0.001500 0.000000 1.712160 
# 
# From -- ./inp_files/345940.got.cif
#   From: 2010.06.25/outbox.cif.g09.slc.cpg/sg12_173_cif.got.tgz:345940.got - 2010.06.28 00:19:55.
