data_PCOD8085376
_publ_section_title
;
Structure prediction by ZEFSAII (Michael W. Deem and Ramdas Pophale) SiO2 
 PCOD8085376
Probable space group: C 2/M
;
_chemical_formula_sum "Si O2"
_cell_formula_units_Z 44
_cell_length_a 4.980341
_cell_length_b 37.456285
_cell_length_c 15.786017
_cell_angle_alpha 90.000000
_cell_angle_beta 125.025412
_cell_angle_gamma 90.000000
_cell_volume 2411.492573
_symmetry_space_group_name_H-M "C 2/M"
_symmetry_group_IT_number 12
_symmetry_cell_setting 'monoclinic'
loop_
_space_group_symop_operation_xyz
x,y,z
-x,y,-z
-x,-y,-z
x,-y,z
1/2+x,1/2+y,z
1/2-x,1/2+y,-z
1/2-x,1/2-y,-z
1/2+x,1/2-y,z
loop_
_atom_site_type_symbol
_atom_site_label
_atom_site_fract_x
_atom_site_fract_y
_atom_site_fract_z
Si Si1 0.110308 0.570231 0.317665
Si Si2 0.687226 0.649236 0.811640
Si Si3 0.197470 0.108113 0.116641
Si Si4 0.233168 0.889984 0.385072
Si Si5 0.379113 0.000000 0.575784
Si Si6 0.291920 0.227210 0.879171
O O1 0.504836 0.576822 0.378196
O O2 0.016091 0.533712 0.348342
O O3 0.921208 0.575080 0.193258
O O4 0.960120 0.601048 0.347151
O O5 0.557448 0.623097 0.861210
O O6 0.508902 0.641351 0.689304
O O7 0.626967 0.690543 0.819892
O O8 0.072325 0.641035 0.870708
O O9 0.000000 0.093107 0.000000
O O10 0.500000 0.876224 0.500000
O O11 0.500000 0.000000 0.500000
O O12 0.000000 0.000000 0.500000
O O13 0.517820 0.243079 0.846546
O O14 0.500000 0.218436 0.000000
#
# Coordination Sequence:
#
# PCOD8085376 Si02
#       6
#     8   8   8   8   4   8
#     4  10  21  33  50  77 100 128 165 201 246 296
#     4  10  20  32  51  75  98 130 167 202 244 294
#     4  10  19  33  52  73 100 130 165 205 243 288
#     4  10  19  34  53  73  99 127 164 209 247 283
#     4  12  22  34  53  74 103 134 162 202 251 294
#     4  10  19  30  46  69  98 128 158 197 245 293
#
# _framework density 18.245961999999999
#
# number of rings (size 3 to 8) (size 9 to 14) (size 15 to 20)
#    0.000    1.818    0.000    6.000    0.000    1.455 
#    0.000    0.455    0.000    1.091    0.000    8.909 
#    0.000    0.000    0.000    0.000    0.000    0.000 
#
# Total GULP energy -272666.126345 kJ/mol
# GULP energy per Si atom -12393.914834 kJ/mol
# Density = 1.820443 g / cm^3
# Si number density = 18.245962 Si / 1000 Ang^3
#
#
#
# Elastic Constant Matrix: (Units=GPa)
#
#
# Indices 1 2 3 4 5 6 
#
# 1 92.0950 9.2429 30.3974 0.0000 0.3420 0.0000
# 2 9.2429 86.0826 46.9551 0.0000 -5.2678 0.0000
# 3 30.3974 46.9551 132.9327 0.0000 3.0220 0.0000
# 4 0.0000 0.0000 0.0000 19.0138 0.0000 -0.0245
# 5 0.3420 -5.2678 3.0220 0.0000 22.5298 0.0000
# 6 0.0000 0.0000 0.0000 -0.0245 0.0000 17.4604
#
#
#
# Elastic Compliance Matrix: (Units=1/GPa)
#
#
# Indices 1 2 3 4 5 6 
#
# 1 0.011751 0.000276 -0.002791 0.000000 0.000261 0.000000
# 2 0.000276 0.014775 -0.005377 0.000000 0.004172 0.000000
# 3 -0.002791 -0.005377 0.010118 0.000000 -0.002572 0.000000
# 4 0.000000 0.000000 0.000000 0.052593 0.000000 0.000074
# 5 0.000261 0.004172 -0.002572 0.000000 0.045702 0.000000
# 6 0.000000 0.000000 0.000000 0.000074 0.000000 0.057273
#
#
# Mechanical properties :
#
#
# Convention : Reuss Voigt Hill
#
# Bulk Modulus (GPa) = 47.93374 53.81123 50.87249
# Shear Modulus (GPa) = 23.26129 26.76844 25.01487
#
# Velocity S-wave (km/s) = 3.57441 3.83441 3.70669
# Velocity P-wave (km/s) = 6.58507 7.01141 6.80158
#
# Compressibility (1/GPa) = 0.02086213
#
# Stress axis : x y z
#
# Youngs Moduli (GPa) = 85.10116 67.68020 98.82888
#
# Poissons Ratio (x) = -0.01871 0.27579
# Poissons Ratio (y) = -0.02352 0.53141
# Poissons Ratio (z) = 0.23748 0.36392
#
# Static dielectric constant tensor:
#      x y z
#    x 3.583900 0.000000 -0.014320 
#    y 0.000000 2.595140 0.000000 
#    z -0.014320 0.000000 3.657540 
# 
# 
# High freq. dielectric constant tensor:
#      x y z
#    x 1.732830 0.000000 0.000760 
#    y 0.000000 1.672100 0.000000 
#    z 0.000760 0.000000 1.700950 
# 
# From -- ./inp_files/253942.got.cif
#   From: 2010.06.25/outbox.cif.g09.slc.cpg/sg12_127_cif.got.tgz:253942.got - 2010.06.28 00:19:55.
