data_PCOD8085900
_publ_section_title
;
Structure prediction by ZEFSAII (Michael W. Deem and Ramdas Pophale) SiO2 
 PCOD8085900
Probable space group: C 2/M
;
_chemical_formula_sum "Si O2"
_cell_formula_units_Z 64
_cell_length_a 19.980319
_cell_length_b 9.075097
_cell_length_c 18.606145
_cell_angle_alpha 90.000000
_cell_angle_beta 86.828798
_cell_angle_gamma 90.000000
_cell_volume 3368.562019
_symmetry_space_group_name_H-M "C 2/M"
_symmetry_group_IT_number 12
_symmetry_cell_setting 'monoclinic'
loop_
_space_group_symop_operation_xyz
x,y,z
-x,y,-z
-x,-y,-z
x,-y,z
1/2+x,1/2+y,z
1/2-x,1/2+y,-z
1/2-x,1/2-y,-z
1/2+x,1/2-y,z
loop_
_atom_site_type_symbol
_atom_site_label
_atom_site_fract_x
_atom_site_fract_y
_atom_site_fract_z
Si Si1 0.224787 0.669294 0.695522
Si Si2 0.108373 0.670479 0.812870
Si Si3 0.942635 0.327571 0.446372
Si Si4 0.000949 0.674129 0.291083
Si Si5 0.133713 0.169648 0.243064
Si Si6 0.193982 0.175367 0.551752
Si Si7 0.169259 0.169956 0.933133
Si Si8 0.192448 0.829992 0.090944
O O1 0.216411 0.500000 0.669986
O O2 0.176619 0.699938 0.765479
O O3 0.299902 0.703377 0.715527
O O4 0.204984 0.778705 0.633350
O O5 0.098385 0.500000 0.830237
O O6 0.111835 0.753407 0.888936
O O7 0.045299 0.732016 0.771457
O O8 0.923568 0.500000 0.447147
O O9 0.877752 0.233100 0.471665
O O10 0.000000 0.292292 0.500000
O O11 0.967866 0.273488 0.367243
O O12 0.005505 0.500000 0.290188
O O13 0.075238 0.735468 0.280749
O O14 0.143853 0.214862 0.159094
O O15 0.113349 0.000000 0.250113
O O16 0.250000 0.250000 0.500000
O O17 0.197591 0.000000 0.543696
O O18 0.241645 0.232583 0.909350
O O19 0.169793 0.000000 0.913200
O O20 0.153203 0.196425 0.018390
O O21 0.215342 0.000000 0.097739
#
# Coordination Sequence:
#
# PCOD8085900 Si02
#       8
#     8   8   8   8   8   8   8   8
#     4  10  20  39  63  85 114 154 196 239 290 344
#     4  10  19  37  60  80 113 155 190 230 289 349
#     4  10  22  43  66  87 117 157 195 236 292 350
#     4  10  22  39  59  84 116 153 191 234 286 347
#     4  10  21  37  59  84 115 153 191 237 290 344
#     4  12  26  42  63  91 123 155 194 243 288 342
#     4  10  19  30  54  86 113 144 194 246 283 335
#     4   9  18  35  53  78 116 156 189 230 294 347
#
# _framework density 18.999203999999999
#
# number of rings (size 3 to 8) (size 9 to 14) (size 15 to 20)
#    0.000    1.875    2.500    1.500    1.750    3.250 
#    0.000    0.625    0.000    3.750    0.000    0.000 
#    0.000    0.000    0.000    0.000    0.000    0.000 
#
# Total GULP energy -396883.652712 kJ/mol
# GULP energy per Si atom -12402.614147 kJ/mol
# Density = 1.895596 g / cm^3
# Si number density = 18.999204 Si / 1000 Ang^3
#
#
#
# Elastic Constant Matrix: (Units=GPa)
#
#
# Indices 1 2 3 4 5 6 
#
# 1 111.6174 42.8922 36.0491 0.0000 5.7316 0.0000
# 2 42.8922 76.9056 45.6915 0.0000 5.5871 0.0000
# 3 36.0491 45.6915 90.6734 0.0000 17.3370 0.0000
# 4 0.0000 0.0000 0.0000 29.5959 0.0000 1.6200
# 5 5.7316 5.5871 17.3370 0.0000 31.2841 0.0000
# 6 0.0000 0.0000 0.0000 1.6200 0.0000 33.8907
#
#
#
# Elastic Compliance Matrix: (Units=1/GPa)
#
#
# Indices 1 2 3 4 5 6 
#
# 1 0.011637 -0.005347 -0.001909 0.000000 -0.000119 0.000000
# 2 -0.005347 0.021139 -0.008939 0.000000 0.002158 0.000000
# 3 -0.001909 -0.008939 0.017807 0.000000 -0.007922 0.000000
# 4 0.000000 0.000000 0.000000 0.033877 0.000000 -0.001619
# 5 -0.000119 0.002158 -0.007922 0.000000 0.035992 0.000000
# 6 0.000000 0.000000 0.000000 -0.001619 0.000000 0.029584
#
#
# Mechanical properties :
#
#
# Convention : Reuss Voigt Hill
#
# Bulk Modulus (GPa) = 54.96937 58.71802 56.84370
# Shear Modulus (GPa) = 26.52648 29.25837 27.89242
#
# Velocity S-wave (km/s) = 3.74061 3.92851 3.83571
# Velocity P-wave (km/s) = 6.90301 7.17985 7.04279
#
# Compressibility (1/GPa) = 0.01819195
#
# Stress axis : x y z
#
# Youngs Moduli (GPa) = 85.93508 47.30500 56.15796
#
# Poissons Ratio (x) = 0.25295 0.10721
# Poissons Ratio (y) = 0.45951 0.50201
# Poissons Ratio (z) = 0.16406 0.42287
#
# Static dielectric constant tensor:
#      x y z
#    x 3.381760 0.000000 0.134740 
#    y 0.000000 3.406800 0.000000 
#    z 0.134740 0.000000 3.759340 
# 
# 
# High freq. dielectric constant tensor:
#      x y z
#    x 1.730240 0.000000 0.011450 
#    y 0.000000 1.730260 0.000000 
#    z 0.011450 0.000000 1.750010 
# 
# From -- ./inp_files/281372.got.cif
#   From: 2010.06.25/outbox.cif.g09.slc.cpg/sg12_141_cif.got.tgz:281372.got - 2010.06.28 00:19:55.
