data_PCOD8085961
_publ_section_title
;
Structure prediction by ZEFSAII (Michael W. Deem and Ramdas Pophale) SiO2 
 PCOD8085961
Probable space group: C 2/M
;
_chemical_formula_sum "Si O2"
_cell_formula_units_Z 48
_cell_length_a 23.621524
_cell_length_b 8.822787
_cell_length_c 25.258462
_cell_angle_alpha 90.000000
_cell_angle_beta 144.038459
_cell_angle_gamma 90.000000
_cell_volume 3091.275971
_symmetry_space_group_name_H-M "C 2/M"
_symmetry_group_IT_number 12
_symmetry_cell_setting 'monoclinic'
loop_
_space_group_symop_operation_xyz
x,y,z
-x,y,-z
-x,-y,-z
x,-y,z
1/2+x,1/2+y,z
1/2-x,1/2+y,-z
1/2-x,1/2-y,-z
1/2+x,1/2-y,z
loop_
_atom_site_type_symbol
_atom_site_label
_atom_site_fract_x
_atom_site_fract_y
_atom_site_fract_z
Si Si1 0.721943 0.180805 0.922779
Si Si2 0.878268 0.820593 0.957824
Si Si3 0.519641 0.679212 0.765069
Si Si4 0.836323 0.671949 0.595555
Si Si5 0.405030 0.678731 0.862200
Si Si6 0.896854 0.328647 0.752271
O O1 0.797974 0.242401 0.936891
O O2 0.619060 0.240371 0.825279
O O3 0.722113 0.000000 0.926806
O O4 0.750000 0.250000 0.000000
O O5 0.856631 0.767708 0.880839
O O6 0.879012 0.000000 0.958832
O O7 0.984029 0.764811 0.055088
O O8 0.531383 0.500000 0.770776
O O9 0.437132 0.738173 0.661494
O O10 0.489056 0.729578 0.801715
O O11 0.847237 0.500000 0.583408
O O12 0.750000 0.750000 0.500000
O O13 0.816451 0.675587 0.644298
O O14 0.396018 0.500000 0.848333
O O15 0.352955 0.758836 0.772882
O O16 0.931701 0.500000 0.788570
#
# Coordination Sequence:
#
# PCOD8085961 Si02
#       6
#     8   8   8   8   8   8
#     4  11  20  31  45  66  96 129 163 197 235 280
#     4   8  17  29  44  64  89 122 160 198 231 271
#     4  10  19  31  46  66  93 126 159 192 233 279
#     4   9  18  31  48  72  99 122 151 190 239 289
#     4   9  15  29  48  65  86 120 162 196 231 277
#     4   9  18  29  44  68  95 118 146 190 237 278
#
# _framework density 15.527569
#
# number of rings (size 3 to 8) (size 9 to 14) (size 15 to 20)
#    1.000    1.667    0.000    4.500    0.000    1.333 
#    0.000    4.167    0.000    0.000    0.000    1.167 
#    0.000    9.333    0.000    0.000    0.000    0.000 
#
# Total GULP energy -297335.969132 kJ/mol
# GULP energy per Si atom -12388.998714 kJ/mol
# Density = 1.549223 g / cm^3
# Si number density = 15.527569 Si / 1000 Ang^3
#
#
#
# Elastic Constant Matrix: (Units=GPa)
#
#
# Indices 1 2 3 4 5 6 
#
# 1 108.4473 37.5812 49.7734 0.0000 -6.4033 0.0000
# 2 37.5812 88.0999 36.4727 0.0000 -2.0136 0.0000
# 3 49.7734 36.4727 88.1653 0.0000 1.4233 0.0000
# 4 0.0000 0.0000 0.0000 27.9835 0.0000 -1.2074
# 5 -6.4033 -2.0136 1.4233 0.0000 20.7758 0.0000
# 6 0.0000 0.0000 0.0000 -1.2074 0.0000 20.1962
#
#
#
# Elastic Compliance Matrix: (Units=1/GPa)
#
#
# Indices 1 2 3 4 5 6 
#
# 1 0.013462 -0.002979 -0.006437 0.000000 0.004301 0.000000
# 2 -0.002979 0.014417 -0.004295 0.000000 0.000773 0.000000
# 3 -0.006437 -0.004295 0.016810 0.000000 -0.003552 0.000000
# 4 0.000000 0.000000 0.000000 0.035828 0.000000 0.002142
# 5 0.004301 0.000773 -0.003552 0.000000 0.049777 0.000000
# 6 0.000000 0.000000 0.000000 0.002142 0.000000 0.049642
#
#
# Mechanical properties :
#
#
# Convention : Reuss Voigt Hill
#
# Bulk Modulus (GPa) = 57.91185 59.15189 58.53187
# Shear Modulus (GPa) = 23.46169 24.51680 23.98925
#
# Velocity S-wave (km/s) = 3.89134 3.97787 3.93484
# Velocity P-wave (km/s) = 7.58730 7.69905 7.64338
#
# Compressibility (1/GPa) = 0.01726762
#
# Stress axis : x y z
#
# Youngs Moduli (GPa) = 74.28490 69.36092 59.48799
#
# Poissons Ratio (x) = 0.20665 0.38290
# Poissons Ratio (y) = 0.22132 0.25548
# Poissons Ratio (z) = 0.47815 0.29789
#
# Static dielectric constant tensor:
#      x y z
#    x 3.071190 0.000000 -0.090640 
#    y 0.000000 2.890400 0.000000 
#    z -0.090640 0.000000 2.820710 
# 
# 
# High freq. dielectric constant tensor:
#      x y z
#    x 1.572350 0.000000 -0.013430 
#    y 0.000000 1.598850 0.000000 
#    z -0.013430 0.000000 1.574960 
# 
# From -- ./inp_files/348352.got.cif
#   From: 2010.06.25/outbox.cif.g09.slc.cpg/sg12_175_cif.got.tgz:348352.got - 2010.06.28 00:19:55.
