data_PCOD8085761
_publ_section_title
;
Structure prediction by ZEFSAII (Michael W. Deem and Ramdas Pophale) SiO2 
 PCOD8085761
Probable space group: C 2/M
;
_chemical_formula_sum "Si O2"
_cell_formula_units_Z 56
_cell_length_a 30.689996
_cell_length_b 9.194885
_cell_length_c 18.858371
_cell_angle_alpha 90.000000
_cell_angle_beta 37.616105
_cell_angle_gamma 90.000000
_cell_volume 3248.171507
_symmetry_space_group_name_H-M "C 2/M"
_symmetry_group_IT_number 12
_symmetry_cell_setting 'monoclinic'
loop_
_space_group_symop_operation_xyz
x,y,z
-x,y,-z
-x,-y,-z
x,-y,z
1/2+x,1/2+y,z
1/2-x,1/2+y,-z
1/2-x,1/2-y,-z
1/2+x,1/2-y,z
loop_
_atom_site_type_symbol
_atom_site_label
_atom_site_fract_x
_atom_site_fract_y
_atom_site_fract_z
Si Si1 0.691823 0.333450 0.282666
Si Si2 0.561009 0.840025 0.863008
Si Si3 0.535687 0.330331 0.108759
Si Si4 0.462776 0.330020 0.727901
Si Si5 0.808532 0.833912 0.881297
Si Si6 0.846386 0.329183 0.131961
Si Si7 0.549781 0.172200 0.501142
O O1 0.669828 0.500000 0.327644
O O2 0.708182 0.313430 0.179180
O O3 0.763625 0.287480 0.231157
O O4 0.629870 0.226231 0.386367
O O5 0.537649 0.728287 0.832097
O O6 0.631314 0.787636 0.815775
O O7 0.573309 0.000000 0.813178
O O8 0.500000 0.849852 0.000000
O O9 0.541868 0.500000 0.084894
O O10 0.529777 0.296008 0.199061
O O11 0.606233 0.254978 0.986878
O O12 0.472477 0.500000 0.698386
O O13 0.386544 0.271801 0.798896
O O14 0.522828 0.241250 0.608952
O O15 0.804756 0.000000 0.910712
O O16 0.750000 0.750000 0.000000
O O17 0.859089 0.500000 0.101561
O O18 0.500000 0.224000 0.500000
O O19 0.549833 0.000000 0.508227
#
# Coordination Sequence:
#
# PCOD8085761 Si02
#       7
#     8   8   8   8   8   8   8
#     4  10  20  35  55  74  98 135 172 206 249 303
#     4   8  15  29  48  71 103 137 168 204 247 301
#     4  10  19  30  49  78 107 135 169 208 251 298
#     4  10  21  36  52  72 101 136 171 207 249 300
#     4  10  20  32  49  73 101 133 163 197 247 298
#     4   9  18  32  51  77 105 136 171 204 249 305
#     4  11  23  37  54  76  98 128 173 218 255 293
#
# _framework density 17.240468
#
# number of rings (size 3 to 8) (size 9 to 14) (size 15 to 20)
#    0.000    2.286    1.429    2.571    0.000    6.000 
#    0.000    0.000    0.000    0.857    0.000    0.000 
#    0.000    0.000    0.000    0.000    0.000    0.000 
#
# Total GULP energy -347203.699766 kJ/mol
# GULP energy per Si atom -12400.132134 kJ/mol
# Density = 1.720123 g / cm^3
# Si number density = 17.240468 Si / 1000 Ang^3
#
#
#
# Elastic Constant Matrix: (Units=GPa)
#
#
# Indices 1 2 3 4 5 6 
#
# 1 127.7934 41.3842 36.4019 -0.0007 -19.4762 -0.0014
# 2 41.3842 69.1516 43.1925 -0.0029 -3.9394 0.0019
# 3 36.4019 43.1925 78.0957 -0.0100 -14.7857 0.0031
# 4 -0.0007 -0.0029 -0.0100 30.9159 0.0007 0.7983
# 5 -19.4762 -3.9394 -14.7857 0.0007 18.7833 -0.0007
# 6 -0.0014 0.0019 0.0031 0.7983 -0.0007 27.7873
#
#
#
# Elastic Compliance Matrix: (Units=1/GPa)
#
#
# Indices 1 2 3 4 5 6 
#
# 1 0.011465 -0.006387 0.000218 -0.000001 0.010720 0.000001
# 2 -0.006387 0.026213 -0.013789 -0.000002 -0.011979 -0.000001
# 3 0.000218 -0.013789 0.023297 0.000006 0.015673 -0.000001
# 4 -0.000001 -0.000002 0.000006 0.032370 0.000002 -0.000930
# 5 0.010720 -0.011979 0.015673 0.000002 0.074179 0.000001
# 6 0.000001 -0.000001 -0.000001 -0.000930 0.000001 0.036014
#
#
# Mechanical properties :
#
#
# Convention : Reuss Voigt Hill
#
# Bulk Modulus (GPa) = 47.48402 57.44423 52.46413
# Shear Modulus (GPa) = 19.96216 25.76810 22.86513
#
# Velocity S-wave (km/s) = 3.40644 3.87024 3.64572
# Velocity P-wave (km/s) = 6.56306 7.30503 6.94396
#
# Compressibility (1/GPa) = 0.02105972
#
# Stress axis : x y z
#
# Youngs Moduli (GPa) = 87.22110 38.14853 42.92445
#
# Poissons Ratio (x) = 0.24364 -0.00935
# Poissons Ratio (y) = 0.55706 0.59188
# Poissons Ratio (z) = -0.01900 0.52602
#
# Static dielectric constant tensor:
#      x y z
#    x 3.781070 -0.000020 -0.144810 
#    y -0.000020 3.209410 0.000020 
#    z -0.144810 0.000020 2.949220 
# 
# 
# High freq. dielectric constant tensor:
#      x y z
#    x 1.677340 0.000000 -0.004630 
#    y 0.000000 1.665020 0.000000 
#    z -0.004630 0.000000 1.638890 
# 
# From -- ./inp_files/280926.got.cif
#   From: 2010.06.25/outbox.cif.g09.slc.cpg/sg12_141_cif.got.tgz:280926.got - 2010.06.28 00:19:55.
