data_PCOD8085278
_publ_section_title
;
Structure prediction by ZEFSAII (Michael W. Deem and Ramdas Pophale) SiO2 
 PCOD8085278
Probable space group: C 2/M
;
_chemical_formula_sum "Si O2"
_cell_formula_units_Z 56
_cell_length_a 30.786191
_cell_length_b 9.094368
_cell_length_c 19.402781
_cell_angle_alpha 90.000000
_cell_angle_beta 142.737045
_cell_angle_gamma 90.000000
_cell_volume 3289.182197
_symmetry_space_group_name_H-M "C 2/M"
_symmetry_group_IT_number 12
_symmetry_cell_setting 'monoclinic'
loop_
_space_group_symop_operation_xyz
x,y,z
-x,y,-z
-x,-y,-z
x,-y,z
1/2+x,1/2+y,z
1/2-x,1/2+y,-z
1/2-x,1/2-y,-z
1/2+x,1/2-y,z
loop_
_atom_site_type_symbol
_atom_site_label
_atom_site_fract_x
_atom_site_fract_y
_atom_site_fract_z
Si Si1 0.650197 0.173167 0.126697
Si Si2 0.431615 0.334559 0.864954
Si Si3 0.966831 0.171752 0.259788
Si Si4 0.047523 0.174812 0.496905
Si Si5 0.517058 0.173039 0.863186
Si Si6 0.810509 0.828883 0.118672
Si Si7 0.301624 0.325343 0.261916
O O1 0.632655 0.253518 0.176281
O O2 0.727735 0.233691 0.201225
O O3 0.650273 0.000000 0.140992
O O4 0.592808 0.213322 0.994773
O O5 0.407891 0.500000 0.815835
O O6 0.450788 0.246295 0.820034
O O7 0.500000 0.335661 0.000000
O O8 0.984988 0.266047 0.216135
O O9 0.885806 0.204152 0.178606
O O10 0.017593 0.228736 0.385724
O O11 0.979097 0.000000 0.259407
O O12 0.129764 0.229629 0.607594
O O13 0.000000 0.239203 0.500000
O O14 0.042491 0.000000 0.493897
O O15 0.504518 0.000000 0.846451
O O16 0.810341 0.764399 0.195651
O O17 0.792688 0.000000 0.097495
O O18 0.750000 0.750000 0.000000
O O19 0.300035 0.500000 0.258174
#
# Coordination Sequence:
#
# PCOD8085278 Si02
#       7
#     8   8   8   8   8   8   8
#     4   9  17  29  47  72  99 128 159 192 237 292
#     4   9  17  30  49  72  98 126 157 196 238 284
#     4  10  19  30  48  72  96 124 163 207 241 275
#     4   9  15  28  49  71  92 122 167 210 241 272
#     4  10  19  31  48  71 101 132 158 189 237 296
#     4  10  19  30  45  68  98 129 159 194 237 284
#     4   9  16  28  47  69  95 126 162 200 236 281
#
# _framework density 17.025507000000001
#
# number of rings (size 3 to 8) (size 9 to 14) (size 15 to 20)
#    0.000    2.571    1.429    1.714    0.000    4.000 
#    0.000    0.714    0.000    3.000    0.000    0.000 
#    0.000    0.000    0.000    0.000    0.000    0.000 
#
# Total GULP energy -347166.658064 kJ/mol
# GULP energy per Si atom -12398.809217 kJ/mol
# Density = 1.698676 g / cm^3
# Si number density = 17.025507 Si / 1000 Ang^3
#
#
#
# Elastic Constant Matrix: (Units=GPa)
#
#
# Indices 1 2 3 4 5 6 
#
# 1 142.7118 51.0851 62.5505 0.0000 -17.3218 0.0000
# 2 51.0851 49.8167 34.7466 0.0000 -12.6645 0.0000
# 3 62.5505 34.7466 117.1517 0.0000 -10.7110 0.0000
# 4 0.0000 0.0000 0.0000 16.3648 0.0000 -5.2108
# 5 -17.3218 -12.6645 -10.7110 0.0000 12.3765 0.0000
# 6 0.0000 0.0000 0.0000 -5.2108 0.0000 27.5273
#
#
#
# Elastic Compliance Matrix: (Units=1/GPa)
#
#
# Indices 1 2 3 4 5 6 
#
# 1 0.012353 -0.008938 -0.003475 0.000000 0.005135 0.000000
# 2 -0.008938 0.038100 -0.004460 0.000000 0.022617 0.000000
# 3 -0.003475 -0.004460 0.011785 0.000000 0.000771 0.000000
# 4 0.000000 0.000000 0.000000 0.065026 0.000000 0.012309
# 5 0.005135 0.022617 0.000771 0.000000 0.111796 0.000000
# 6 0.000000 0.000000 0.000000 0.012309 0.000000 0.038658
#
#
# Mechanical properties :
#
#
# Convention : Reuss Voigt Hill
#
# Bulk Modulus (GPa) = 35.09880 67.38272 51.24076
# Shear Modulus (GPa) = 15.57818 22.00693 18.79256
#
# Velocity S-wave (km/s) = 3.02816 3.59916 3.32594
# Velocity P-wave (km/s) = 5.73468 7.54555 6.70156
#
# Compressibility (1/GPa) = 0.02849101
#
# Stress axis : x y z
#
# Youngs Moduli (GPa) = 80.95126 26.24673 84.85549
#
# Poissons Ratio (x) = 0.23460 0.29488
# Poissons Ratio (y) = 0.72357 0.37846
# Poissons Ratio (z) = 0.28131 0.11706
#
# Static dielectric constant tensor:
#      x y z
#    x 3.340910 0.000000 0.036350 
#    y 0.000000 2.953380 0.000000 
#    z 0.036350 0.000000 3.158520 
# 
# 
# High freq. dielectric constant tensor:
#      x y z
#    x 1.665790 0.000000 -0.002280 
#    y 0.000000 1.629730 0.000000 
#    z -0.002280 0.000000 1.638370 
# 
# From -- ./inp_files/281687.got.cif
#   From: 2010.06.25/outbox.cif.g09.slc.cpg/sg12_141_cif.got.tgz:281687.got - 2010.06.28 00:19:55.
