data_PCOD8085497
_publ_section_title
;
Structure prediction by ZEFSAII (Michael W. Deem and Ramdas Pophale) SiO2 
 PCOD8085497
Probable space group: C 2/M
;
_chemical_formula_sum "Si O2"
_cell_formula_units_Z 40
_cell_length_a 19.250180
_cell_length_b 9.297016
_cell_length_c 12.837689
_cell_angle_alpha 90.000000
_cell_angle_beta 90.466078
_cell_angle_gamma 90.000000
_cell_volume 2297.475318
_symmetry_space_group_name_H-M "C 2/M"
_symmetry_group_IT_number 12
_symmetry_cell_setting 'monoclinic'
loop_
_space_group_symop_operation_xyz
x,y,z
-x,y,-z
-x,-y,-z
x,-y,z
1/2+x,1/2+y,z
1/2-x,1/2+y,-z
1/2-x,1/2-y,-z
1/2+x,1/2-y,z
loop_
_atom_site_type_symbol
_atom_site_label
_atom_site_fract_x
_atom_site_fract_y
_atom_site_fract_z
Si Si1 0.066847 0.830359 0.278682
Si Si2 0.833189 0.831724 0.904708
Si Si3 0.575812 0.168966 0.702211
Si Si4 0.825447 0.666725 0.107209
Si Si5 0.917481 0.158325 0.494749
O O1 0.117820 0.779140 0.188123
O O2 0.105700 0.794451 0.388969
O O3 0.995530 0.744112 0.265828
O O4 0.049829 0.000000 0.273075
O O5 0.754456 0.789558 0.874403
O O6 0.841305 0.000000 0.923907
O O7 0.857081 0.753232 0.010349
O O8 0.632568 0.207321 0.789302
O O9 0.606232 0.228256 0.592970
O O10 0.562984 0.000000 0.690572
O O11 0.832685 0.500000 0.079888
O O12 0.000000 0.150997 0.500000
O O13 0.887445 0.000000 0.466502
#
# Coordination Sequence:
#
# PCOD8085497 Si02
#       5
#     8   8   8   8   8
#     4   9  18  32  50  71  93 120 156 195 229 265
#     4   9  18  34  53  68  88 123 161 192 226 273
#     4  10  19  30  47  71  98 124 150 187 233 278
#     4   9  19  34  49  68  95 124 153 189 234 276
#     4   8  15  29  47  67  93 123 154 188 226 269
#
# _framework density 17.410416000000001
#
# number of rings (size 3 to 8) (size 9 to 14) (size 15 to 20)
#    0.000    3.000    0.000    1.800    0.000    6.800 
#    0.000    5.000    0.000    0.000    0.000    0.000 
#    0.000    0.000    0.000    0.000    0.000    0.000 
#
# Total GULP energy -247943.811590 kJ/mol
# GULP energy per Si atom -12397.190579 kJ/mol
# Density = 1.737079 g / cm^3
# Si number density = 17.410416 Si / 1000 Ang^3
#
#
#
# Elastic Constant Matrix: (Units=GPa)
#
#
# Indices 1 2 3 4 5 6 
#
# 1 44.0707 31.8610 37.2002 0.0000 13.1338 0.0000
# 2 31.8610 63.2042 52.6199 0.0000 11.6061 0.0000
# 3 37.2002 52.6199 114.6209 0.0000 21.4893 0.0000
# 4 0.0000 0.0000 0.0000 34.1836 0.0000 3.6906
# 5 13.1338 11.6061 21.4893 0.0000 17.9145 0.0000
# 6 0.0000 0.0000 0.0000 3.6906 0.0000 18.3703
#
#
#
# Elastic Compliance Matrix: (Units=1/GPa)
#
#
# Indices 1 2 3 4 5 6 
#
# 1 0.041306 -0.014905 -0.003479 0.000000 -0.016454 0.000000
# 2 -0.014905 0.031132 -0.009962 0.000000 0.002708 0.000000
# 3 -0.003479 -0.009962 0.016435 0.000000 -0.010710 0.000000
# 4 0.000000 0.000000 0.000000 0.029902 0.000000 -0.006007
# 5 -0.016454 0.002708 -0.010710 0.000000 0.078976 0.000000
# 6 0.000000 0.000000 0.000000 -0.006007 0.000000 0.055643
#
#
# Mechanical properties :
#
#
# Convention : Reuss Voigt Hill
#
# Bulk Modulus (GPa) = 31.07395 51.69535 41.38465
# Shear Modulus (GPa) = 15.58544 20.77466 18.18005
#
# Velocity S-wave (km/s) = 2.99520 3.45807 3.23492
# Velocity P-wave (km/s) = 5.46336 6.76025 6.14611
#
# Compressibility (1/GPa) = 0.03218129
#
# Stress axis : x y z
#
# Youngs Moduli (GPa) = 24.20951 32.12145 60.84645
#
# Poissons Ratio (x) = 0.47876 0.21166
# Poissons Ratio (y) = 0.36083 0.60618
# Poissons Ratio (z) = 0.08422 0.32001
#
# Static dielectric constant tensor:
#      x y z
#    x 3.021490 0.000000 -0.117080 
#    y 0.000000 3.225660 0.000000 
#    z -0.117080 0.000000 3.697390 
# 
# 
# High freq. dielectric constant tensor:
#      x y z
#    x 1.641530 0.000000 -0.002560 
#    y 0.000000 1.670700 0.000000 
#    z -0.002560 0.000000 1.687290 
# 
# From -- ./inp_files/151858.got.cif
#   From: 2010.06.25/outbox.cif.g09.slc.cpg/sg12_76_cif.got.tgz:151858.got - 2010.06.28 00:19:55.
