data_PCOD8085295
_publ_section_title
;
Structure prediction by ZEFSAII (Michael W. Deem and Ramdas Pophale) SiO2 
 PCOD8085295
Probable space group: C 2/M
;
_chemical_formula_sum "Si O2"
_cell_formula_units_Z 40
_cell_length_a 17.171414
_cell_length_b 14.114543
_cell_length_c 12.454241
_cell_angle_alpha 90.000000
_cell_angle_beta 121.335914
_cell_angle_gamma 90.000000
_cell_volume 2578.194375
_symmetry_space_group_name_H-M "C 2/M"
_symmetry_group_IT_number 12
_symmetry_cell_setting 'monoclinic'
loop_
_space_group_symop_operation_xyz
x,y,z
-x,y,-z
-x,-y,-z
x,-y,z
1/2+x,1/2+y,z
1/2-x,1/2+y,-z
1/2-x,1/2-y,-z
1/2+x,1/2-y,z
loop_
_atom_site_type_symbol
_atom_site_label
_atom_site_fract_x
_atom_site_fract_y
_atom_site_fract_z
Si Si1 0.927677 0.108563 0.727550
Si Si2 0.134876 0.892723 0.923309
Si Si3 0.394750 0.265458 0.901416
Si Si4 0.749901 0.610345 0.798442
Si Si5 0.904360 0.888081 0.471232
O O1 0.882184 0.174540 0.784077
O O2 0.886855 0.137895 0.582917
O O3 0.036269 0.122799 0.799432
O O4 0.903978 0.000000 0.738883
O O5 0.210608 0.871307 0.888659
O O6 0.143244 0.000000 0.972009
O O7 0.150979 0.824063 0.034989
O O8 0.344326 0.165750 0.852630
O O9 0.500000 0.244503 0.000000
O O10 0.770663 0.500000 0.794018
O O11 0.678779 0.651164 0.659693
O O12 0.000000 0.842866 0.500000
O O13 0.909992 0.000000 0.458254
#
# Coordination Sequence:
#
# PCOD8085295 Si02
#       5
#     8   8   8   8   8
#     4   9  16  28  47  69  91 111 136 180 231 264
#     4   9  16  29  48  67  87 112 144 183 223 257
#     4  10  20  30  42  65  95 120 144 174 213 260
#     4  10  19  30  46  65  87 119 152 178 208 254
#     4   9  15  27  47  68  87 108 140 183 226 260
#
# _framework density 15.514734000000001
#
# number of rings (size 3 to 8) (size 9 to 14) (size 15 to 20)
#    0.000    2.600    2.000    1.200    0.000    3.600 
#    0.000    0.000    0.000    0.000    0.000    0.000 
#    0.000    2.400    0.000    0.000    0.000    0.000 
#
# Total GULP energy -247987.366451 kJ/mol
# GULP energy per Si atom -12399.368323 kJ/mol
# Density = 1.547942 g / cm^3
# Si number density = 15.514734 Si / 1000 Ang^3
#
#
#
# Elastic Constant Matrix: (Units=GPa)
#
#
# Indices 1 2 3 4 5 6 
#
# 1 72.5340 48.4271 42.1890 0.0000 -5.7778 0.0000
# 2 48.4271 69.5713 42.5856 0.0000 -0.8354 0.0000
# 3 42.1890 42.5856 89.4836 0.0000 -7.2695 0.0000
# 4 0.0000 0.0000 0.0000 13.6235 0.0000 6.0965
# 5 -5.7778 -0.8354 -7.2695 0.0000 16.9375 0.0000
# 6 0.0000 0.0000 0.0000 6.0965 0.0000 23.0120
#
#
#
# Elastic Compliance Matrix: (Units=1/GPa)
#
#
# Indices 1 2 3 4 5 6 
#
# 1 0.028230 -0.016589 -0.004868 0.000000 0.006722 0.000000
# 2 -0.016589 0.030206 -0.007141 0.000000 -0.007234 0.000000
# 3 -0.004868 -0.007141 0.017309 0.000000 0.005416 0.000000
# 4 0.000000 0.000000 0.000000 0.083275 0.000000 -0.022062
# 5 0.006722 -0.007234 0.005416 0.000000 0.063302 0.000000
# 6 0.000000 0.000000 0.000000 -0.022062 0.000000 0.049300
#
#
# Mechanical properties :
#
#
# Convention : Reuss Voigt Hill
#
# Bulk Modulus (GPa) = 53.91914 55.33248 54.62581
# Shear Modulus (GPa) = 14.92530 17.27373 16.09952
#
# Velocity S-wave (km/s) = 3.10499 3.34035 3.22482
# Velocity P-wave (km/s) = 6.90533 7.11471 7.01080
#
# Compressibility (1/GPa) = 0.01854629
#
# Stress axis : x y z
#
# Youngs Moduli (GPa) = 35.42379 33.10639 57.77289
#
# Poissons Ratio (x) = 0.54921 0.28126
# Poissons Ratio (y) = 0.58766 0.41257
# Poissons Ratio (z) = 0.17246 0.23642
#
# Static dielectric constant tensor:
#      x y z
#    x 2.825390 0.000000 -0.135340 
#    y 0.000000 2.683980 0.000000 
#    z -0.135340 0.000000 3.031670 
# 
# 
# High freq. dielectric constant tensor:
#      x y z
#    x 1.586430 0.000000 -0.016020 
#    y 0.000000 1.565120 0.000000 
#    z -0.016020 0.000000 1.598860 
# 
# From -- ./inp_files/130852.got.cif
#   From: 2010.06.25/outbox.cif.g09.slc.cpg/sg12_66_cif.got.tgz:130852.got - 2010.06.28 00:19:55.
