data_PCOD8085926
_publ_section_title
;
Structure prediction by ZEFSAII (Michael W. Deem and Ramdas Pophale) SiO2 
 PCOD8085926
Probable space group: C 2/M
;
_chemical_formula_sum "Si O2"
_cell_formula_units_Z 48
_cell_length_a 24.606823
_cell_length_b 8.929132
_cell_length_c 14.312661
_cell_angle_alpha 90.000000
_cell_angle_beta 69.153068
_cell_angle_gamma 90.000000
_cell_volume 2938.870888
_symmetry_space_group_name_H-M "C 2/M"
_symmetry_group_IT_number 12
_symmetry_cell_setting 'monoclinic'
loop_
_space_group_symop_operation_xyz
x,y,z
-x,y,-z
-x,-y,-z
x,-y,z
1/2+x,1/2+y,z
1/2-x,1/2+y,-z
1/2-x,1/2-y,-z
1/2+x,1/2-y,z
loop_
_atom_site_type_symbol
_atom_site_label
_atom_site_fract_x
_atom_site_fract_y
_atom_site_fract_z
Si Si1 0.713049 0.178674 0.940906
Si Si2 0.735765 0.677540 0.730819
Si Si3 0.796403 0.824963 0.538123
Si Si4 0.625950 0.328240 0.672703
Si Si5 0.582938 0.822831 0.006656
Si Si6 0.965617 0.323272 0.158722
O O1 0.736391 0.242555 0.829684
O O2 0.718734 0.000000 0.937893
O O3 0.750000 0.250000 0.000000
O O4 0.646515 0.232902 0.998156
O O5 0.741317 0.500000 0.739258
O O6 0.792540 0.740347 0.640093
O O7 0.678220 0.726134 0.708702
O O8 0.750000 0.750000 0.500000
O O9 0.858079 0.802972 0.446679
O O10 0.782362 0.000000 0.559623
O O11 0.614040 0.500000 0.700959
O O12 0.566205 0.241662 0.730670
O O13 0.533349 0.770590 0.111168
O O14 0.581632 0.000000 0.000890
O O15 0.567507 0.761118 0.913055
O O16 0.961883 0.500000 0.167216
#
# Coordination Sequence:
#
# PCOD8085926 Si02
#       6
#     8   8   8   8   8   8
#     4  11  21  34  50  68  92 125 160 196 233 271
#     4  10  19  31  45  65  93 123 158 195 231 276
#     4   9  17  28  42  63  93 125 155 188 229 279
#     4   9  17  27  41  67  98 122 148 185 231 277
#     4   8  16  29  45  66  90 119 156 192 226 271
#     4   9  15  27  47  67  89 121 156 186 225 277
#
# _framework density 16.332802999999998
#
# number of rings (size 3 to 8) (size 9 to 14) (size 15 to 20)
#    0.000    2.667    1.667    3.500    0.000    3.333 
#    0.000    3.333    0.000    0.000    0.000    1.167 
#    0.000    9.333    0.000    0.000    0.000    0.000 
#
# Total GULP energy -297394.414371 kJ/mol
# GULP energy per Si atom -12391.433932 kJ/mol
# Density = 1.629563 g / cm^3
# Si number density = 16.332803 Si / 1000 Ang^3
#
#
#
# Elastic Constant Matrix: (Units=GPa)
#
#
# Indices 1 2 3 4 5 6 
#
# 1 81.2249 32.2837 61.7861 0.0000 -11.2611 0.0000
# 2 32.2837 63.7826 52.2303 0.0000 -7.7961 0.0000
# 3 61.7861 52.2303 142.2447 0.0000 -22.9686 0.0000
# 4 0.0000 0.0000 0.0000 32.1009 0.0000 -2.2801
# 5 -11.2611 -7.7961 -22.9686 0.0000 24.2970 0.0000
# 6 0.0000 0.0000 0.0000 -2.2801 0.0000 18.0542
#
#
#
# Elastic Compliance Matrix: (Units=1/GPa)
#
#
# Indices 1 2 3 4 5 6 
#
# 1 0.019148 -0.004139 -0.006584 0.000000 0.001323 0.000000
# 2 -0.004139 0.023324 -0.006925 0.000000 -0.000981 0.000000
# 3 -0.006584 -0.006925 0.013667 0.000000 0.007647 0.000000
# 4 0.000000 0.000000 0.000000 0.031434 0.000000 0.003970
# 5 0.001323 -0.000981 0.007647 0.000000 0.048684 0.000000
# 6 0.000000 0.000000 0.000000 0.003970 0.000000 0.055890
#
#
# Mechanical properties :
#
#
# Convention : Reuss Voigt Hill
#
# Bulk Modulus (GPa) = 47.97464 64.42807 56.20136
# Shear Modulus (GPa) = 21.33188 24.28723 22.80955
#
# Velocity S-wave (km/s) = 3.61789 3.86037 3.74110
# Velocity P-wave (km/s) = 6.84756 7.70731 7.29012
#
# Compressibility (1/GPa) = 0.02084434
#
# Stress axis : x y z
#
# Youngs Moduli (GPa) = 52.22425 42.87466 73.16650
#
# Poissons Ratio (x) = 0.17744 0.48173
# Poissons Ratio (y) = 0.21614 0.50667
# Poissons Ratio (z) = 0.34385 0.29690
#
# Static dielectric constant tensor:
#      x y z
#    x 2.941110 0.000000 -0.371450 
#    y 0.000000 3.054110 0.000000 
#    z -0.371450 0.000000 3.422660 
# 
# 
# High freq. dielectric constant tensor:
#      x y z
#    x 1.578000 0.000000 -0.031180 
#    y 0.000000 1.625350 0.000000 
#    z -0.031180 0.000000 1.635480 
# 
# From -- ./inp_files/236602.got.cif
#   From: 2010.06.25/outbox.cif.g09.slc.cpg/sg12_119_cif.got.tgz:236602.got - 2010.06.28 00:19:55.
