data_PCOD8085304
_publ_section_title
;
Structure prediction by ZEFSAII (Michael W. Deem and Ramdas Pophale) SiO2 
 PCOD8085304
Probable space group: C 2/M
;
_chemical_formula_sum "Si O2"
_cell_formula_units_Z 64
_cell_length_a 22.640925
_cell_length_b 9.320608
_cell_length_c 22.888739
_cell_angle_alpha 90.000000
_cell_angle_beta 130.296416
_cell_angle_gamma 90.000000
_cell_volume 3683.994946
_symmetry_space_group_name_H-M "C 2/M"
_symmetry_group_IT_number 12
_symmetry_cell_setting 'monoclinic'
loop_
_space_group_symop_operation_xyz
x,y,z
-x,y,-z
-x,-y,-z
x,-y,z
1/2+x,1/2+y,z
1/2-x,1/2+y,-z
1/2-x,1/2-y,-z
1/2+x,1/2-y,z
loop_
_atom_site_type_symbol
_atom_site_label
_atom_site_fract_x
_atom_site_fract_y
_atom_site_fract_z
Si Si1 0.314771 0.830895 0.765552
Si Si2 0.990391 0.665505 0.427948
Si Si3 0.112852 0.341851 0.307794
Si Si4 0.324438 0.832846 0.266449
Si Si5 0.114091 0.161835 0.797608
Si Si6 0.553829 0.339499 0.367521
Si Si7 0.553795 0.160252 0.857636
Si Si8 0.524506 0.170745 0.078348
O O1 0.328672 0.795131 0.706153
O O2 0.242769 0.737034 0.738763
O O3 0.388813 0.779165 0.850631
O O4 0.298758 0.000000 0.764417
O O5 0.014192 0.500000 0.437500
O O6 0.902568 0.691046 0.352554
O O7 0.000000 0.721222 0.500000
O O8 0.049551 0.753944 0.425476
O O9 0.135246 0.500000 0.345283
O O10 0.116776 0.232623 0.364624
O O11 0.027135 0.348331 0.227322
O O12 0.328847 0.753588 0.206827
O O13 0.307841 0.000000 0.244761
O O14 0.112065 0.234627 0.860457
O O15 0.029192 0.161037 0.716091
O O16 0.146275 0.000000 0.824201
O O17 0.582075 0.500000 0.398956
O O18 0.537423 0.222567 0.912254
O O19 0.590158 0.000000 0.883373
O O20 0.522753 0.000000 0.077077
O O21 0.500000 0.235350 0.000000
#
# Coordination Sequence:
#
# PCOD8085304 Si02
#       8
#     8   8   8   8   8   8   8   8
#     4   9  17  29  46  68  93 120 149 181 218 261
#     4   9  18  32  48  65  87 117 149 179 217 267
#     4   8  14  25  41  61  86 116 146 176 213 257
#     4  10  19  30  46  67  90 116 146 182 222 263
#     4   9  16  26  41  62  88 115 144 180 221 262
#     4   9  16  25  41  66  90 111 140 182 224 256
#     4   8  13  23  41  64  87 111 144 183 217 252
#     4   8  14  26  46  70  93 119 150 181 216 261
#
# _framework density 17.372446
#
# number of rings (size 3 to 8) (size 9 to 14) (size 15 to 20)
#    0.000    3.250    0.000    2.625    0.000    4.250 
#    0.000    1.875    0.000    3.000    0.000    0.000 
#    0.000    0.000    0.000    0.000    0.000    0.000 
#
# Total GULP energy -396652.192883 kJ/mol
# GULP energy per Si atom -12395.381028 kJ/mol
# Density = 1.733291 g / cm^3
# Si number density = 17.372446 Si / 1000 Ang^3
#
#
#
# Elastic Constant Matrix: (Units=GPa)
#
#
# Indices 1 2 3 4 5 6 
#
# 1 140.6839 80.8429 40.1689 0.0000 -33.9969 0.0000
# 2 80.8429 112.5636 33.3367 0.0000 -22.0678 0.0000
# 3 40.1689 33.3367 49.3333 0.0000 -28.1036 0.0000
# 4 0.0000 0.0000 0.0000 10.7634 0.0000 -3.3752
# 5 -33.9969 -22.0678 -28.1036 0.0000 29.2054 0.0000
# 6 0.0000 0.0000 0.0000 -3.3752 0.0000 33.8846
#
#
#
# Elastic Compliance Matrix: (Units=1/GPa)
#
#
# Indices 1 2 3 4 5 6 
#
# 1 0.014415 -0.008248 -0.000343 0.000000 0.010217 0.000000
# 2 -0.008248 0.015915 -0.005882 0.000000 -0.003236 0.000000
# 3 -0.000343 -0.005882 0.048171 0.000000 0.041510 0.000000
# 4 0.000000 0.000000 0.000000 0.095903 0.000000 0.009553
# 5 0.010217 -0.003236 0.041510 0.000000 0.083633 0.000000
# 6 0.000000 0.000000 0.000000 0.009553 0.000000 0.030463
#
#
# Mechanical properties :
#
#
# Convention : Reuss Voigt Hill
#
# Bulk Modulus (GPa) = 20.17946 67.91974 44.04960
# Shear Modulus (GPa) = 14.97162 24.65285 19.81223
#
# Velocity S-wave (km/s) = 2.93883 3.77115 3.38070
# Velocity P-wave (km/s) = 4.81214 7.62517 6.37573
#
# Compressibility (1/GPa) = 0.04955535
#
# Stress axis : x y z
#
# Youngs Moduli (GPa) = 69.37320 62.83287 20.75924
#
# Poissons Ratio (x) = 0.51825 0.00712
# Poissons Ratio (y) = 0.57219 0.12211
# Poissons Ratio (z) = 0.02379 0.36959
#
# Static dielectric constant tensor:
#      x y z
#    x 3.340840 0.000000 -0.398890 
#    y 0.000000 3.294770 0.000000 
#    z -0.398890 0.000000 2.989250 
# 
# 
# High freq. dielectric constant tensor:
#      x y z
#    x 1.673820 0.000000 -0.031900 
#    y 0.000000 1.662890 0.000000 
#    z -0.031900 0.000000 1.622560 
# 
# From -- ./inp_files/348599.got.cif
#   From: 2010.06.25/outbox.cif.g09.slc.cpg/sg12_175_cif.got.tgz:348599.got - 2010.06.28 00:19:55.
