data_PCOD8085309
_publ_section_title
;
Structure prediction by ZEFSAII (Michael W. Deem and Ramdas Pophale) SiO2 
 PCOD8085309
Probable space group: C 2/M
;
_chemical_formula_sum "Si O2"
_cell_formula_units_Z 64
_cell_length_a 23.078760
_cell_length_b 9.720967
_cell_length_c 29.375465
_cell_angle_alpha 90.000000
_cell_angle_beta 34.440515
_cell_angle_gamma 90.000000
_cell_volume 3727.159167
_symmetry_space_group_name_H-M "C 2/M"
_symmetry_group_IT_number 12
_symmetry_cell_setting 'monoclinic'
loop_
_space_group_symop_operation_xyz
x,y,z
-x,y,-z
-x,-y,-z
x,-y,z
1/2+x,1/2+y,z
1/2-x,1/2+y,-z
1/2-x,1/2-y,-z
1/2+x,1/2-y,z
loop_
_atom_site_type_symbol
_atom_site_label
_atom_site_fract_x
_atom_site_fract_y
_atom_site_fract_z
Si Si1 0.658353 0.153841 0.071595
Si Si2 0.948463 0.659303 0.163875
Si Si3 0.908509 0.663138 0.090712
Si Si4 0.859599 0.336323 0.313947
Si Si5 0.137305 0.836583 0.446752
Si Si6 0.177354 0.837195 0.228743
Si Si7 0.441693 0.159326 0.766672
Si Si8 0.920229 0.163099 0.614611
O O1 0.569279 0.179485 0.092724
O O2 0.619576 0.181939 0.147307
O O3 0.699954 0.000000 0.040365
O O4 0.750000 0.250000 0.000000
O O5 0.918003 0.500000 0.181458
O O6 0.918124 0.727720 0.135259
O O7 0.888415 0.726525 0.245567
O O8 0.921225 0.500000 0.085310
O O9 0.796568 0.701483 0.143405
O O10 0.000000 0.724329 0.000000
O O11 0.869162 0.500000 0.303727
O O12 0.744016 0.286331 0.400722
O O13 0.940475 0.291260 0.300527
O O14 0.131181 0.781433 0.398629
O O15 0.039117 0.784360 0.539279
O O16 0.136337 0.000000 0.445732
O O17 0.106680 0.757229 0.239394
O O18 0.143308 0.784648 0.300845
O O19 0.159317 0.000000 0.234501
O O20 0.436991 0.000000 0.753939
O O21 0.919197 0.000000 0.614799
#
# Coordination Sequence:
#
# PCOD8085309 Si02
#       8
#     8   8   8   8   8   8   8   8
#     4   9  18  30  47  66  85 111 145 187 225 258
#     4   8  14  25  40  60  85 108 140 184 220 253
#     4   9  17  26  39  63  89 112 141 180 224 267
#     4   8  13  24  42  60  80 115 154 182 213 258
#     4   8  12  21  41  66  94 118 141 182 232 272
#     4  10  19  30  46  67  93 120 147 183 227 270
#     4   9  19  33  45  63  90 122 156 183 214 263
#     4   8  14  23  38  68  98 116 139 182 236 273
#
# _framework density 17.171256
#
# number of rings (size 3 to 8) (size 9 to 14) (size 15 to 20)
#    0.000    3.375    0.000    3.000    1.750    3.500 
#    0.000    0.625    0.000    1.125    0.000    6.125 
#    0.000    0.000    0.000    0.000    0.000    0.000 
#
# Total GULP energy -396455.450278 kJ/mol
# GULP energy per Si atom -12389.232821 kJ/mol
# Density = 1.713217 g / cm^3
# Si number density = 17.171256 Si / 1000 Ang^3
#
#
#
# Elastic Constant Matrix: (Units=GPa)
#
#
# Indices 1 2 3 4 5 6 
#
# 1 108.0942 23.7809 55.1067 0.0088 -7.6563 -0.0235
# 2 23.7809 22.0172 21.0662 0.0114 -5.0490 -0.0233
# 3 55.1067 21.0662 105.3118 0.0014 -22.8908 -0.0050
# 4 0.0088 0.0114 0.0014 10.8219 0.0030 -0.5467
# 5 -7.6563 -5.0490 -22.8908 0.0030 19.9014 -0.0015
# 6 -0.0235 -0.0233 -0.0050 -0.5467 -0.0015 21.3946
#
#
#
# Elastic Compliance Matrix: (Units=1/GPa)
#
#
# Indices 1 2 3 4 5 6 
#
# 1 0.014564 -0.010557 -0.006498 0.000001 -0.004549 0.000003
# 2 -0.010557 0.063868 -0.006150 -0.000056 0.005068 0.000056
# 3 -0.006498 -0.006150 0.017659 0.000005 0.016251 -0.000008
# 4 0.000001 -0.000056 0.000005 0.092525 -0.000022 0.002364
# 5 -0.004549 0.005068 0.016251 -0.000022 0.068475 0.000009
# 6 0.000003 0.000056 -0.000008 0.002364 0.000009 0.046801
#
#
# Mechanical properties :
#
#
# Convention : Reuss Voigt Hill
#
# Bulk Modulus (GPa) = 20.12865 48.37010 34.24937
# Shear Modulus (GPa) = 13.62906 19.45485 16.54196
#
# Velocity S-wave (km/s) = 2.82035 3.36964 3.10716
# Velocity P-wave (km/s) = 4.72796 6.58557 5.73251
#
# Compressibility (1/GPa) = 0.04968042
#
# Stress axis : x y z
#
# Youngs Moduli (GPa) = 68.66131 15.65722 56.62976
#
# Poissons Ratio (x) = 0.16529 0.36799
# Poissons Ratio (y) = 0.72483 0.34830
# Poissons Ratio (z) = 0.44618 0.09630
#
# Static dielectric constant tensor:
#      x y z
#    x 3.590400 -0.000030 -0.196750 
#    y -0.000030 2.555240 0.000010 
#    z -0.196750 0.000010 3.480830 
# 
# 
# High freq. dielectric constant tensor:
#      x y z
#    x 1.668510 0.000000 -0.012620 
#    y 0.000000 1.583140 0.000000 
#    z -0.012620 0.000000 1.669210 
# 
# From -- ./inp_files/365720.got.cif
#   From: 2010.06.25/outbox.cif.g09.slc.cpg/sg12_183_cif.got.tgz:365720.got - 2010.06.28 00:19:55.
