data_PCOD8085128
_publ_section_title
;
Structure prediction by ZEFSAII (Michael W. Deem and Ramdas Pophale) SiO2 
 PCOD8085128
Probable space group: C 2/M
;
_chemical_formula_sum "Si O2"
_cell_formula_units_Z 64
_cell_length_a 24.934837
_cell_length_b 9.043114
_cell_length_c 17.730836
_cell_angle_alpha 90.000000
_cell_angle_beta 95.523612
_cell_angle_gamma 90.000000
_cell_volume 3979.536196
_symmetry_space_group_name_H-M "C 2/M"
_symmetry_group_IT_number 12
_symmetry_cell_setting 'monoclinic'
loop_
_space_group_symop_operation_xyz
x,y,z
-x,y,-z
-x,-y,-z
x,-y,z
1/2+x,1/2+y,z
1/2-x,1/2+y,-z
1/2-x,1/2-y,-z
1/2+x,1/2-y,z
loop_
_atom_site_type_symbol
_atom_site_label
_atom_site_fract_x
_atom_site_fract_y
_atom_site_fract_z
Si Si1 0.308624 0.831784 0.165015
Si Si2 0.882020 0.673110 0.425750
Si Si3 0.806874 0.825642 0.019324
Si Si4 0.700966 0.675822 0.685993
Si Si5 0.676150 0.173594 0.286753
Si Si6 0.092453 0.327165 0.398709
Si Si7 0.012699 0.833374 0.589500
Si Si8 0.680368 0.335902 0.141631
O O1 0.335312 0.750376 0.095700
O O2 0.326024 0.744097 0.242480
O O3 0.244677 0.824889 0.148436
O O4 0.329782 0.000000 0.172180
O O5 0.877982 0.500000 0.407611
O O6 0.828812 0.756708 0.390326
O O7 0.885657 0.705592 0.514948
O O8 0.933614 0.738465 0.388606
O O9 0.799022 0.000000 0.032991
O O10 0.750000 0.750000 0.000000
O O11 0.840759 0.798187 0.946170
O O12 0.694933 0.500000 0.686868
O O13 0.763169 0.726699 0.687628
O O14 0.636858 0.234389 0.346382
O O15 0.656251 0.228531 0.201903
O O16 0.673573 0.000000 0.284598
O O17 0.080837 0.500000 0.386429
O O18 0.037112 0.241447 0.373774
O O19 0.000000 0.833194 0.500000
O O20 0.021236 0.000000 0.620749
O O21 0.662120 0.500000 0.161860
#
# Coordination Sequence:
#
# PCOD8085128 Si02
#       8
#     8   8   8   8   8   8   8   8
#     4   9  16  26  39  56  79 109 144 178 214 256
#     4  10  19  31  47  64  85 114 145 180 221 262
#     4   9  15  23  36  55  78 106 141 178 214 252
#     4  10  19  30  43  61  88 119 149 181 215 254
#     4   9  18  30  43  60  86 119 150 179 213 255
#     4   9  18  32  47  64  86 113 145 180 220 262
#     4   9  17  30  48  68  85 103 135 180 225 264
#     4   8  15  25  37  55  80 109 141 176 212 251
#
# _framework density 16.082274999999999
#
# number of rings (size 3 to 8) (size 9 to 14) (size 15 to 20)
#    0.000    2.875    0.000    2.625    0.000    7.000 
#    0.000    0.000    0.000    0.000    0.000    0.000 
#    0.000    1.000    0.000   10.500    0.000    8.250 
#
# Total GULP energy -396633.166852 kJ/mol
# GULP energy per Si atom -12394.786464 kJ/mol
# Density = 1.604567 g / cm^3
# Si number density = 16.082275 Si / 1000 Ang^3
#
#
#
# Elastic Constant Matrix: (Units=GPa)
#
#
# Indices 1 2 3 4 5 6 
#
# 1 65.3362 33.4017 41.0397 0.0000 -16.7295 0.0000
# 2 33.4017 78.0183 36.0455 0.0000 -11.7275 0.0000
# 3 41.0397 36.0455 77.6823 0.0000 -22.7793 0.0000
# 4 0.0000 0.0000 0.0000 29.8113 0.0000 0.7149
# 5 -16.7295 -11.7275 -22.7793 0.0000 9.7629 0.0000
# 6 0.0000 0.0000 0.0000 0.7149 0.0000 19.5250
#
#
#
# Elastic Compliance Matrix: (Units=1/GPa)
#
#
# Indices 1 2 3 4 5 6 
#
# 1 0.029500 -0.006106 -0.000251 0.000000 0.042630 0.000000
# 2 -0.006106 0.017695 -0.005763 0.000000 -0.002654 0.000000
# 3 -0.000251 -0.005763 0.042822 0.000000 0.092561 0.000000
# 4 0.000000 0.000000 0.000000 0.033574 0.000000 -0.001229
# 5 0.042630 -0.002654 0.092561 0.000000 0.388257 0.000000
# 6 0.000000 0.000000 0.000000 -0.001229 0.000000 0.051261
#
#
# Mechanical properties :
#
#
# Convention : Reuss Voigt Hill
#
# Bulk Modulus (GPa) = 15.20283 49.11228 32.15756
# Shear Modulus (GPa) = 8.20646 19.18985 13.69816
#
# Velocity S-wave (km/s) = 2.26139 3.45806 2.92165
# Velocity P-wave (km/s) = 4.03636 6.82266 5.60539
#
# Compressibility (1/GPa) = 0.06577722
#
# Stress axis : x y z
#
# Youngs Moduli (GPa) = 33.89814 56.51195 23.35243
#
# Poissons Ratio (x) = 0.34505 0.00586
# Poissons Ratio (y) = 0.20697 0.13459
# Poissons Ratio (z) = 0.00851 0.32570
#
# Static dielectric constant tensor:
#      x y z
#    x 2.798570 0.000000 -0.202520 
#    y 0.000000 3.166800 0.000000 
#    z -0.202520 0.000000 3.478980 
# 
# 
# High freq. dielectric constant tensor:
#      x y z
#    x 1.565270 0.000000 -0.012560 
#    y 0.000000 1.631040 0.000000 
#    z -0.012560 0.000000 1.613800 
# 
# From -- ./inp_files/287741.got.cif
#   From: 2010.06.25/outbox.cif.g09.slc.cpg/sg12_144_cif.got.tgz:287741.got - 2010.06.28 00:19:55.
