data_PCOD8085802
_publ_section_title
;
Structure prediction by ZEFSAII (Michael W. Deem and Ramdas Pophale) SiO2 
 PCOD8085802
Probable space group: C 2/M
;
_chemical_formula_sum "Si O2"
_cell_formula_units_Z 56
_cell_length_a 20.233898
_cell_length_b 14.026088
_cell_length_c 12.624015
_cell_angle_alpha 90.000000
_cell_angle_beta 63.738716
_cell_angle_gamma 90.000000
_cell_volume 3212.937316
_symmetry_space_group_name_H-M "C 2/M"
_symmetry_group_IT_number 12
_symmetry_cell_setting 'monoclinic'
loop_
_space_group_symop_operation_xyz
x,y,z
-x,y,-z
-x,-y,-z
x,-y,z
1/2+x,1/2+y,z
1/2-x,1/2+y,-z
1/2-x,1/2-y,-z
1/2+x,1/2-y,z
loop_
_atom_site_type_symbol
_atom_site_label
_atom_site_fract_x
_atom_site_fract_y
_atom_site_fract_z
Si Si1 0.644503 0.232881 0.005710
Si Si2 0.788841 0.111533 0.903504
Si Si3 0.365830 0.207304 0.220706
Si Si4 0.009384 0.392487 0.169370
Si Si5 0.211242 0.891326 0.338528
Si Si6 0.163975 0.240788 0.540853
Si Si7 0.449488 0.891890 0.441652
O O1 0.654023 0.330637 0.064020
O O2 0.569863 0.183334 0.093075
O O3 0.708406 0.155690 0.980779
O O4 0.641912 0.264041 0.883881
O O5 0.814402 0.125320 0.764113
O O6 0.787763 0.000000 0.935983
O O7 0.434178 0.135193 0.162678
O O8 0.294346 0.143898 0.294665
O O9 0.374355 0.278927 0.316449
O O10 0.031195 0.500000 0.119783
O O11 0.999267 0.386139 0.302061
O O12 0.153721 0.841556 0.460366
O O13 0.209620 0.000000 0.371901
O O14 0.250000 0.250000 0.500000
O O15 0.126921 0.334873 0.516735
O O16 0.500000 0.849659 0.500000
O O17 0.425980 0.000000 0.484344
#
# Coordination Sequence:
#
# PCOD8085802 Si02
#       7
#     8   8   8   8   8   8   8
#     4  10  19  31  52  74 102 132 167 205 248 303
#     4   9  19  34  50  72 100 131 168 210 251 293
#     4   9  18  32  47  75 106 132 161 206 257 299
#     4  10  19  30  50  78 104 131 164 204 254 308
#     4   9  17  31  53  74  97 131 171 210 249 294
#     4   9  18  31  51  73 101 136 174 207 250 304
#     4   9  19  34  51  76 109 139 167 210 268 316
#
# _framework density 17.429534
#
# number of rings (size 3 to 8) (size 9 to 14) (size 15 to 20)
#    0.000    2.714    0.000    1.286    2.000    5.714 
#    0.000    0.714    0.000    5.571    0.000    0.000 
#    0.000    0.000    0.000    0.000    0.000    0.000 
#
# Total GULP energy -347017.103383 kJ/mol
# GULP energy per Si atom -12393.467978 kJ/mol
# Density = 1.738986 g / cm^3
# Si number density = 17.429534 Si / 1000 Ang^3
#
#
#
# Elastic Constant Matrix: (Units=GPa)
#
#
# Indices 1 2 3 4 5 6 
#
# 1 84.8232 42.8429 47.2138 0.0000 12.0905 0.0000
# 2 42.8429 107.5719 70.2772 0.0000 7.1377 0.0000
# 3 47.2138 70.2772 94.6887 0.0000 12.6956 0.0000
# 4 0.0000 0.0000 0.0000 28.0784 0.0000 -0.5240
# 5 12.0905 7.1377 12.6956 0.0000 26.7050 0.0000
# 6 0.0000 0.0000 0.0000 -0.5240 0.0000 25.2738
#
#
#
# Elastic Compliance Matrix: (Units=1/GPa)
#
#
# Indices 1 2 3 4 5 6 
#
# 1 0.017036 -0.002570 -0.006030 0.000000 -0.004160 0.000000
# 2 -0.002570 0.018502 -0.012757 0.000000 0.002283 0.000000
# 3 -0.006030 -0.012757 0.023725 0.000000 -0.005139 0.000000
# 4 0.000000 0.000000 0.000000 0.035628 0.000000 0.000739
# 5 -0.004160 0.002283 -0.005139 0.000000 0.041163 0.000000
# 6 0.000000 0.000000 0.000000 0.000739 0.000000 0.039582
#
#
# Mechanical properties :
#
#
# Convention : Reuss Voigt Hill
#
# Bulk Modulus (GPa) = 60.42184 67.52795 63.97489
# Shear Modulus (GPa) = 22.33480 24.46142 23.39811
#
# Velocity S-wave (km/s) = 3.58360 3.75032 3.66791
# Velocity P-wave (km/s) = 7.20170 7.58820 7.39747
#
# Compressibility (1/GPa) = 0.01655031
#
# Stress axis : x y z
#
# Youngs Moduli (GPa) = 58.69817 54.04710 42.15035
#
# Poissons Ratio (x) = 0.13890 0.25415
# Poissons Ratio (y) = 0.15085 0.53771
# Poissons Ratio (z) = 0.35392 0.68948
#
# Static dielectric constant tensor:
#      x y z
#    x 3.238670 0.000000 0.253740 
#    y 0.000000 3.187140 0.000000 
#    z 0.253740 0.000000 3.645640 
# 
# 
# High freq. dielectric constant tensor:
#      x y z
#    x 1.665170 0.000000 0.015970 
#    y 0.000000 1.647150 0.000000 
#    z 0.015970 0.000000 1.686320 
# 
# From -- ./inp_files/166666.got.cif
#   From: 2010.06.25/outbox.cif.g09.slc.cpg/sg12_84_cif.got.tgz:166666.got - 2010.06.28 00:19:55.
