data_PCOD8085329
_publ_section_title
;
Structure prediction by ZEFSAII (Michael W. Deem and Ramdas Pophale) SiO2 
 PCOD8085329
Probable space group: C 2/M
;
_chemical_formula_sum "Si O2"
_cell_formula_units_Z 64
_cell_length_a 19.056863
_cell_length_b 9.231140
_cell_length_c 22.807612
_cell_angle_alpha 90.000000
_cell_angle_beta 64.060062
_cell_angle_gamma 90.000000
_cell_volume 3608.016404
_symmetry_space_group_name_H-M "C 2/M"
_symmetry_group_IT_number 12
_symmetry_cell_setting 'monoclinic'
loop_
_space_group_symop_operation_xyz
x,y,z
-x,y,-z
-x,-y,-z
x,-y,z
1/2+x,1/2+y,z
1/2-x,1/2+y,-z
1/2-x,1/2-y,-z
1/2+x,1/2-y,z
loop_
_atom_site_type_symbol
_atom_site_label
_atom_site_fract_x
_atom_site_fract_y
_atom_site_fract_z
Si Si1 0.795752 0.339898 0.563922
Si Si2 0.132994 0.161632 0.556294
Si Si3 0.303586 0.670493 0.294478
Si Si4 0.093574 0.666027 0.195145
Si Si5 0.066066 0.669046 0.683860
Si Si6 0.861872 0.836539 0.928859
Si Si7 0.737642 0.331387 0.821703
Si Si8 0.814028 0.336322 0.052142
O O1 0.833424 0.500000 0.551114
O O2 0.858173 0.231663 0.511722
O O3 0.716670 0.343172 0.555795
O O4 0.772360 0.289763 0.638160
O O5 0.075110 0.257360 0.616987
O O6 0.098622 0.000000 0.561891
O O7 0.322206 0.500000 0.294520
O O8 0.378299 0.760096 0.287915
O O9 0.284868 0.715870 0.235323
O O10 0.096084 0.500000 0.173224
O O11 0.084404 0.762731 0.140229
O O12 0.171717 0.706766 0.201881
O O13 0.022402 0.696003 0.264504
O O14 0.086669 0.500000 0.670822
O O15 0.773145 0.833888 0.940346
O O16 0.891270 0.000000 0.928291
O O17 0.870143 0.748778 0.986592
O O18 0.721542 0.500000 0.838736
O O19 0.683094 0.241917 0.885998
O O20 0.844821 0.500000 0.047658
#
# Coordination Sequence:
#
# PCOD8085329 Si02
#       8
#     8   8   8   8   8   8   8   8
#     4   8  14  25  41  63  88 112 144 186 228 265
#     4   9  16  26  42  64  88 115 149 188 226 262
#     4   9  18  31  48  69  92 120 151 186 226 267
#     4   9  18  31  47  68  93 121 151 185 225 267
#     4  10  19  30  46  68  94 122 150 183 225 271
#     4   9  16  26  43  66  90 118 151 187 225 263
#     4   9  17  31  49  68  92 120 152 187 223 266
#     4   9  16  26  42  66  93 118 148 186 226 266
#
# _framework density 17.73828
#
# number of rings (size 3 to 8) (size 9 to 14) (size 15 to 20)
#    0.000    3.000    0.000    2.250    0.000    7.500 
#    0.000    0.000    0.000    1.500    0.000   10.500 
#    0.000    0.000    0.000    0.000    0.000    0.000 
#
# Total GULP energy -396731.707103 kJ/mol
# GULP energy per Si atom -12397.865847 kJ/mol
# Density = 1.769791 g / cm^3
# Si number density = 17.738280 Si / 1000 Ang^3
#
#
#
# Elastic Constant Matrix: (Units=GPa)
#
#
# Indices 1 2 3 4 5 6 
#
# 1 13.4962 5.1047 -6.3739 0.0000 0.2981 0.0002
# 2 5.1047 85.5187 18.5617 0.0000 -1.2336 0.0003
# 3 -6.3739 18.5617 36.6636 0.0001 4.7778 0.0000
# 4 0.0000 0.0000 0.0001 37.1963 0.0000 0.4211
# 5 0.2981 -1.2336 4.7778 0.0000 22.1337 0.0000
# 6 0.0002 0.0003 0.0000 0.4211 0.0000 14.5743
#
#
#
# Elastic Compliance Matrix: (Units=1/GPa)
#
#
# Indices 1 2 3 4 5 6 
#
# 1 0.087976 -0.009932 0.021144 0.000000 -0.006302 -0.000001
# 2 -0.009932 0.014366 -0.009385 0.000000 0.002960 0.000000
# 3 0.021144 -0.009385 0.036844 0.000000 -0.008761 0.000000
# 4 0.000000 0.000000 0.000000 0.026893 0.000000 -0.000777
# 5 -0.006302 0.002960 -0.008761 0.000000 0.047321 0.000000
# 6 -0.000001 0.000000 0.000000 -0.000777 0.000000 0.068636
#
#
# Mechanical properties :
#
#
# Convention : Reuss Voigt Hill
#
# Bulk Modulus (GPa) = 7.00085 18.91817 12.95951
# Shear Modulus (GPa) = 15.33760 22.67326 19.00543
#
# Velocity S-wave (km/s) = 2.94370 3.57909 3.27683
# Velocity P-wave (km/s) = 3.93817 5.26955 4.65174
#
# Compressibility (1/GPa) = 0.14283984
#
# Stress axis : x y z
#
# Youngs Moduli (GPa) = 11.36673 69.60896 27.14141
#
# Poissons Ratio (x) = 0.69132 -0.57387
# Poissons Ratio (y) = 0.11289 0.25473
# Poissons Ratio (z) = -0.24034 0.65331
#
# Static dielectric constant tensor:
#      x y z
#    x 2.721530 0.000000 0.078970 
#    y 0.000000 3.479410 0.000000 
#    z 0.078970 0.000000 3.524890 
# 
# 
# High freq. dielectric constant tensor:
#      x y z
#    x 1.618440 0.000000 0.004360 
#    y 0.000000 1.695040 0.000000 
#    z 0.004360 0.000000 1.701930 
# 
# From -- ./inp_files/345561.got.cif
#   From: 2010.06.25/outbox.cif.g09.slc.cpg/sg12_173_cif.got.tgz:345561.got - 2010.06.28 00:19:55.
