data_PCOD8085244
_publ_section_title
;
Structure prediction by ZEFSAII (Michael W. Deem and Ramdas Pophale) SiO2 
 PCOD8085244
Probable space group: C 2/M
;
_chemical_formula_sum "Si O2"
_cell_formula_units_Z 56
_cell_length_a 27.121151
_cell_length_b 8.727687
_cell_length_c 15.972579
_cell_angle_alpha 90.000000
_cell_angle_beta 64.893782
_cell_angle_gamma 90.000000
_cell_volume 3423.589564
_symmetry_space_group_name_H-M "C 2/M"
_symmetry_group_IT_number 12
_symmetry_cell_setting 'monoclinic'
loop_
_space_group_symop_operation_xyz
x,y,z
-x,y,-z
-x,-y,-z
x,-y,z
1/2+x,1/2+y,z
1/2-x,1/2+y,-z
1/2-x,1/2-y,-z
1/2+x,1/2-y,z
loop_
_atom_site_type_symbol
_atom_site_label
_atom_site_fract_x
_atom_site_fract_y
_atom_site_fract_z
Si Si1 0.921183 0.678677 0.044081
Si Si2 0.007799 0.679122 0.691940
Si Si3 0.685955 0.823595 0.971413
Si Si4 0.557346 0.671886 0.504532
Si Si5 0.896701 0.321405 0.682418
Si Si6 0.191233 0.176726 0.141818
Si Si7 0.010686 0.179927 0.867423
O O1 0.931264 0.500000 0.053660
O O2 0.858398 0.713056 0.067673
O O3 0.936567 0.773316 0.115919
O O4 0.958100 0.730246 0.939310
O O5 0.011665 0.500000 0.708803
O O6 0.947804 0.727070 0.703315
O O7 0.053229 0.724055 0.590460
O O8 0.021266 0.775046 0.764581
O O9 0.745009 0.787267 0.890276
O O10 0.682382 0.000000 0.003489
O O11 0.673813 0.719312 0.060382
O O12 0.500000 0.675286 0.500000
O O13 0.574033 0.500000 0.518156
O O14 0.602116 0.738434 0.408498
O O15 0.898600 0.500000 0.662892
O O16 0.841163 0.277296 0.768207
O O17 0.177114 0.000000 0.167215
O O18 0.000483 0.000000 0.882919
#
# Coordination Sequence:
#
# PCOD8085244 Si02
#       7
#     8   8   8   8   8   8   8
#     4  10  19  33  49  64  88 121 154 187 225 268
#     4  10  19  31  46  65  92 124 154 183 220 267
#     4   9  19  33  47  65  90 120 153 188 225 267
#     4   9  17  29  45  66  91 118 149 186 226 264
#     4  10  19  30  45  66  93 124 154 183 219 267
#     4  10  19  30  46  68  92 119 152 188 225 264
#     4  11  21  31  45  68  93 117 151 189 226 267
#
# _framework density 16.357101
#
# number of rings (size 3 to 8) (size 9 to 14) (size 15 to 20)
#    0.000    2.143    0.000    5.143    0.000    8.571 
#    0.000    0.000    0.000    0.000    0.000    1.000 
#    0.000    0.000    0.000    0.000    0.000    0.000 
#
# Total GULP energy -347265.879641 kJ/mol
# GULP energy per Si atom -12402.352844 kJ/mol
# Density = 1.631987 g / cm^3
# Si number density = 16.357101 Si / 1000 Ang^3
#
#
#
# Elastic Constant Matrix: (Units=GPa)
#
#
# Indices 1 2 3 4 5 6 
#
# 1 76.3377 22.4492 36.6585 0.0000 0.0110 0.0000
# 2 22.4492 60.8468 24.5894 0.0000 2.3027 0.0000
# 3 36.6585 24.5894 98.7351 0.0000 0.0981 0.0000
# 4 0.0000 0.0000 0.0000 33.3842 0.0000 1.0413
# 5 0.0110 2.3027 0.0981 0.0000 19.4939 0.0000
# 6 0.0000 0.0000 0.0000 1.0413 0.0000 20.5734
#
#
#
# Elastic Compliance Matrix: (Units=1/GPa)
#
#
# Indices 1 2 3 4 5 6 
#
# 1 0.016816 -0.004114 -0.005219 0.000000 0.000503 0.000000
# 2 -0.004114 0.019370 -0.003294 0.000000 -0.002269 0.000000
# 3 -0.005219 -0.003294 0.012886 0.000000 0.000327 0.000000
# 4 0.000000 0.000000 0.000000 0.030002 0.000000 -0.001518
# 5 0.000503 -0.002269 0.000327 0.000000 0.051564 0.000000
# 6 0.000000 0.000000 0.000000 -0.001518 0.000000 0.048683
#
#
# Mechanical properties :
#
#
# Convention : Reuss Voigt Hill
#
# Bulk Modulus (GPa) = 41.98763 44.81264 43.40014
# Shear Modulus (GPa) = 23.52779 24.83845 24.18312
#
# Velocity S-wave (km/s) = 3.79672 3.90104 3.84923
# Velocity P-wave (km/s) = 6.70412 6.90990 6.80778
#
# Compressibility (1/GPa) = 0.02381654
#
# Stress axis : x y z
#
# Youngs Moduli (GPa) = 59.46778 51.62711 77.60331
#
# Poissons Ratio (x) = 0.21239 0.40504
# Poissons Ratio (y) = 0.24465 0.25564
# Poissons Ratio (z) = 0.31038 0.17007
#
# Static dielectric constant tensor:
#      x y z
#    x 2.922070 0.000000 -0.007190 
#    y 0.000000 3.198130 0.000000 
#    z -0.007190 0.000000 3.055280 
# 
# 
# High freq. dielectric constant tensor:
#      x y z
#    x 1.596060 0.000000 0.000500 
#    y 0.000000 1.646570 0.000000 
#    z 0.000500 0.000000 1.623540 
# 
# From -- ./inp_files/248166.got.cif
#   From: 2010.06.25/outbox.cif.g09.slc.cpg/sg12_125_cif.got.tgz:248166.got - 2010.06.28 00:19:55.
