data_PCOD8085874
_publ_section_title
;
Structure prediction by ZEFSAII (Michael W. Deem and Ramdas Pophale) SiO2 
 PCOD8085874
Probable space group: C 2/M
;
_chemical_formula_sum "Si O2"
_cell_formula_units_Z 56
_cell_length_a 27.749509
_cell_length_b 19.212633
_cell_length_c 13.963956
_cell_angle_alpha 90.000000
_cell_angle_beta 26.538738
_cell_angle_gamma 90.000000
_cell_volume 3326.339167
_symmetry_space_group_name_H-M "C 2/M"
_symmetry_group_IT_number 12
_symmetry_cell_setting 'monoclinic'
loop_
_space_group_symop_operation_xyz
x,y,z
-x,y,-z
-x,-y,-z
x,-y,z
1/2+x,1/2+y,z
1/2-x,1/2+y,-z
1/2-x,1/2-y,-z
1/2+x,1/2-y,z
loop_
_atom_site_type_symbol
_atom_site_label
_atom_site_fract_x
_atom_site_fract_y
_atom_site_fract_z
Si Si1 0.388922 0.216476 0.337476
Si Si2 0.739044 0.347201 0.450443
Si Si3 0.372595 0.821258 0.040883
Si Si4 0.121251 0.922172 0.815719
Si Si5 0.658651 0.920849 0.283874
Si Si6 0.920779 0.420483 0.781119
Si Si7 0.771916 0.827017 0.223715
O O1 0.365908 0.299156 0.384420
O O2 0.332996 0.193624 0.338799
O O3 0.513667 0.196595 0.112231
O O4 0.337735 0.178955 0.520729
O O5 0.698801 0.412089 0.584938
O O6 0.796896 0.366476 0.247352
O O7 0.382796 0.866944 0.928449
O O8 0.317138 0.747961 0.113378
O O9 0.142624 0.867868 0.862418
O O10 0.142264 0.000000 0.816421
O O11 0.000000 0.910750 0.000000
O O12 0.543527 0.905255 0.535625
O O13 0.654253 0.908102 0.178065
O O14 0.747921 0.869794 0.169865
O O15 0.693006 0.000000 0.244597
O O16 0.908545 0.500000 0.839357
#
# Coordination Sequence:
#
# PCOD8085874 Si02
#       7
#     8   8   8   8   8   8   8
#     4   9  17  31  45  67 101 132 163 198 246 298
#     4   9  19  30  47  69  96 136 167 200 244 294
#     4  11  19  30  50  76 103 128 164 209 257 300
#     4  10  20  34  50  72 101 134 173 209 241 289
#     4   9  17  34  53  71  97 132 170 205 251 304
#     4   9  19  33  52  72  98 133 165 207 257 306
#     4  10  19  30  52  75  98 131 169 211 246 297
#
# _framework density 16.835325999999998
#
# number of rings (size 3 to 8) (size 9 to 14) (size 15 to 20)
#    0.000    2.429    1.429    3.429    0.000    1.143 
#    0.000    0.000    0.000    2.571    0.000    0.000 
#    0.000   14.857    0.000    0.000    0.000    0.000 
#
# Total GULP energy -347070.388810 kJ/mol
# GULP energy per Si atom -12395.371029 kJ/mol
# Density = 1.679701 g / cm^3
# Si number density = 16.835326 Si / 1000 Ang^3
#
#
#
# Elastic Constant Matrix: (Units=GPa)
#
#
# Indices 1 2 3 4 5 6 
#
# 1 81.0765 47.7766 32.3200 0.0000 6.9956 0.0000
# 2 47.7766 81.7457 35.9077 0.0000 7.0742 0.0000
# 3 32.3200 35.9077 76.0635 0.0000 7.3214 -0.0001
# 4 0.0000 0.0000 0.0000 25.5734 0.0000 6.3330
# 5 6.9956 7.0742 7.3214 0.0000 24.4796 0.0000
# 6 0.0000 0.0000 -0.0001 6.3330 0.0000 27.7584
#
#
#
# Elastic Compliance Matrix: (Units=1/GPa)
#
#
# Indices 1 2 3 4 5 6 
#
# 1 0.019669 -0.009775 -0.003577 0.000000 -0.001726 0.000000
# 2 -0.009775 0.020424 -0.005343 0.000000 -0.001511 0.000000
# 3 -0.003577 -0.005343 0.017444 0.000000 -0.002651 0.000000
# 4 0.000000 0.000000 0.000000 0.041445 0.000000 -0.009455
# 5 -0.001726 -0.001511 -0.002651 0.000000 0.042573 0.000000
# 6 0.000000 0.000000 0.000000 -0.009455 0.000000 0.038182
#
#
# Mechanical properties :
#
#
# Convention : Reuss Voigt Hill
#
# Bulk Modulus (GPa) = 49.63323 52.32156 50.97739
# Shear Modulus (GPa) = 22.33717 23.75435 23.04576
#
# Velocity S-wave (km/s) = 3.64648 3.76038 3.70387
# Velocity P-wave (km/s) = 6.87566 7.07106 6.97404
#
# Compressibility (1/GPa) = 0.02014779
#
# Stress axis : x y z
#
# Youngs Moduli (GPa) = 50.84110 48.96266 57.32631
#
# Poissons Ratio (x) = 0.47862 0.20504
# Poissons Ratio (y) = 0.49698 0.30627
# Poissons Ratio (z) = 0.18185 0.26159
#
# Static dielectric constant tensor:
#      x y z
#    x 3.054670 0.000000 0.029740 
#    y 0.000000 3.096150 0.000000 
#    z 0.029740 0.000000 3.024520 
# 
# 
# High freq. dielectric constant tensor:
#      x y z
#    x 1.643190 0.000000 -0.000060 
#    y 0.000000 1.642410 0.000000 
#    z -0.000060 0.000000 1.637290 
# 
# From -- ./inp_files/177891.got.cif
#   From: 2010.06.25/outbox.cif.g09.slc.cpg/sg12_89_cif.got.tgz:177891.got - 2010.06.28 00:19:55.
