data_PCOD8085233
_publ_section_title
;
Structure prediction by ZEFSAII (Michael W. Deem and Ramdas Pophale) SiO2 
 PCOD8085233
Probable space group: C 2/M
;
_chemical_formula_sum "Si O2"
_cell_formula_units_Z 64
_cell_length_a 23.805179
_cell_length_b 9.071410
_cell_length_c 24.158312
_cell_angle_alpha 90.000000
_cell_angle_beta 135.597750
_cell_angle_gamma 90.000000
_cell_volume 3650.222751
_symmetry_space_group_name_H-M "C 2/M"
_symmetry_group_IT_number 12
_symmetry_cell_setting 'monoclinic'
loop_
_space_group_symop_operation_xyz
x,y,z
-x,y,-z
-x,-y,-z
x,-y,z
1/2+x,1/2+y,z
1/2-x,1/2+y,-z
1/2-x,1/2-y,-z
1/2+x,1/2-y,z
loop_
_atom_site_type_symbol
_atom_site_label
_atom_site_fract_x
_atom_site_fract_y
_atom_site_fract_z
Si Si1 0.869517 0.174907 0.532124
Si Si2 0.399271 0.326913 0.675162
Si Si3 0.232161 0.324517 0.352692
Si Si4 0.772223 0.828078 0.145608
Si Si5 0.081125 0.826510 0.825583
Si Si6 0.800088 0.824559 0.284731
Si Si7 0.521623 0.675567 0.575436
Si Si8 0.824153 0.327216 0.023341
O O1 0.860762 0.225364 0.589612
O O2 0.797622 0.235624 0.443134
O O3 0.954839 0.236756 0.570651
O O4 0.870710 0.000000 0.528837
O O5 0.387866 0.500000 0.676181
O O6 0.354111 0.241578 0.692332
O O7 0.493088 0.284581 0.742036
O O8 0.227592 0.500000 0.350768
O O9 0.254274 0.264684 0.306904
O O10 0.852440 0.765657 0.171431
O O11 0.760288 0.764347 0.199466
O O12 0.788928 0.000000 0.163635
O O13 0.690527 0.798641 0.052849
O O14 0.095368 0.747312 0.895474
O O15 0.090678 0.000000 0.841725
O O16 0.891011 0.764317 0.346959
O O17 0.799196 0.000000 0.287875
O O18 0.500000 0.736399 0.500000
O O19 0.522046 0.500000 0.575977
O O20 0.824682 0.500000 0.036851
O O21 0.750000 0.250000 0.000000
#
# Coordination Sequence:
#
# PCOD8085233 Si02
#       8
#     8   8   8   8   8   8   8   8
#     4   9  16  27  43  66  92 117 150 190 231 271
#     4  10  20  32  46  63  89 124 157 189 225 267
#     4  10  19  30  45  66  91 119 154 191 224 263
#     4   8  14  25  43  68  93 114 139 176 226 273
#     4   9  17  30  47  68  92 119 152 188 226 268
#     4   9  15  24  41  66  94 118 143 183 228 268
#     4   9  13  20  37  63  92 115 138 177 226 264
#     4   9  16  27  46  71  98 123 145 176 223 277
#
# _framework density 17.533175
#
# number of rings (size 3 to 8) (size 9 to 14) (size 15 to 20)
#    0.000    2.875    1.250    2.250    0.000    3.500 
#    0.000    0.000    0.000    4.500    0.000    7.875 
#    0.000    0.000    0.000    0.000    0.000    0.000 
#
# Total GULP energy -396504.632885 kJ/mol
# GULP energy per Si atom -12390.769778 kJ/mol
# Density = 1.749327 g / cm^3
# Si number density = 17.533175 Si / 1000 Ang^3
#
#
#
# Elastic Constant Matrix: (Units=GPa)
#
#
# Indices 1 2 3 4 5 6 
#
# 1 104.8154 17.4617 49.7091 0.0000 -13.0913 0.0000
# 2 17.4617 22.2521 26.2933 0.0000 -2.9495 0.0000
# 3 49.7091 26.2933 121.9172 0.0000 -26.9422 0.0000
# 4 0.0000 0.0000 0.0000 20.0302 0.0000 2.1397
# 5 -13.0913 -2.9495 -26.9422 0.0000 24.0003 0.0000
# 6 0.0000 0.0000 0.0000 2.1397 0.0000 17.8647
#
#
#
# Elastic Compliance Matrix: (Units=1/GPa)
#
#
# Indices 1 2 3 4 5 6 
#
# 1 0.012316 -0.005403 -0.003349 0.000000 0.002294 0.000000
# 2 -0.005403 0.064374 -0.014075 0.000000 -0.010836 0.000000
# 3 -0.003349 -0.014075 0.015716 0.000000 0.014086 0.000000
# 4 0.000000 0.000000 0.000000 0.050572 0.000000 -0.006057
# 5 0.002294 -0.010836 0.014086 0.000000 0.057398 0.000000
# 6 0.000000 0.000000 0.000000 -0.006057 0.000000 0.056702
#
#
# Mechanical properties :
#
#
# Convention : Reuss Voigt Hill
#
# Bulk Modulus (GPa) = 21.38952 48.43476 34.91214
# Shear Modulus (GPa) = 15.70766 22.74709 19.22737
#
# Velocity S-wave (km/s) = 2.99638 3.60582 3.31513
# Velocity P-wave (km/s) = 4.91904 6.70973 5.88292
#
# Compressibility (1/GPa) = 0.04675186
#
# Stress axis : x y z
#
# Youngs Moduli (GPa) = 81.19807 15.53414 63.62837
#
# Poissons Ratio (x) = 0.08393 0.21311
# Poissons Ratio (y) = 0.43869 0.89558
# Poissons Ratio (z) = 0.27196 0.21865
#
# Static dielectric constant tensor:
#      x y z
#    x 3.209180 0.000000 -0.330450 
#    y 0.000000 2.814370 0.000000 
#    z -0.330450 0.000000 3.641370 
# 
# 
# High freq. dielectric constant tensor:
#      x y z
#    x 1.660910 0.000000 -0.012930 
#    y 0.000000 1.621950 0.000000 
#    z -0.012930 0.000000 1.685850 
# 
# From -- ./inp_files/349050.got.cif
#   From: 2010.06.25/outbox.cif.g09.slc.cpg/sg12_175_cif.got.tgz:349050.got - 2010.06.28 00:19:55.
