data_PCOD8085929
_publ_section_title
;
Structure prediction by ZEFSAII (Michael W. Deem and Ramdas Pophale) SiO2 
 PCOD8085929
Probable space group: C 2/M
;
_chemical_formula_sum "Si O2"
_cell_formula_units_Z 64
_cell_length_a 13.303531
_cell_length_b 25.641221
_cell_length_c 12.752687
_cell_angle_alpha 90.000000
_cell_angle_beta 111.276429
_cell_angle_gamma 90.000000
_cell_volume 4053.675228
_symmetry_space_group_name_H-M "C 2/M"
_symmetry_group_IT_number 12
_symmetry_cell_setting 'monoclinic'
loop_
_space_group_symop_operation_xyz
x,y,z
-x,y,-z
-x,-y,-z
x,-y,z
1/2+x,1/2+y,z
1/2-x,1/2+y,-z
1/2-x,1/2-y,-z
1/2+x,1/2-y,z
loop_
_atom_site_type_symbol
_atom_site_label
_atom_site_fract_x
_atom_site_fract_y
_atom_site_fract_z
Si Si1 0.153040 0.232195 0.391635
Si Si2 0.271289 0.058731 0.496735
Si Si3 0.448273 0.155003 0.867583
Si Si4 0.596816 0.886082 0.618201
Si Si5 0.966236 0.558110 0.731478
Si Si6 0.438422 0.785834 0.273384
Si Si7 0.621822 0.641804 0.517907
Si Si8 0.761082 0.211118 0.261916
O O1 0.250000 0.250000 0.500000
O O2 0.127505 0.172373 0.408986
O O3 0.191822 0.241788 0.287783
O O4 0.045185 0.265803 0.374242
O O5 0.298878 0.091670 0.402299
O O6 0.369509 0.058754 0.613399
O O7 0.172691 0.085247 0.519997
O O8 0.239523 0.000000 0.452454
O O9 0.441386 0.097066 0.817214
O O10 0.524946 0.191134 0.824447
O O11 0.326168 0.177005 0.835101
O O12 0.500000 0.151488 0.000000
O O13 0.500000 0.883426 0.500000
O O14 0.571325 0.924264 0.706014
O O15 0.617896 0.828583 0.672997
O O16 0.984507 0.500000 0.784016
O O17 0.352919 0.738265 0.224290
O O18 0.500000 0.631464 0.500000
O O19 0.683422 0.674112 0.630916
#
# Coordination Sequence:
#
# PCOD8085929 Si02
#       8
#     8   8   8   8   8   8   8   8
#     4   9  19  26  43  69  97 124 154 185 222 272
#     4  10  19  31  45  66  97 129 154 184 229 275
#     4  10  21  35  49  69  92 120 161 200 237 274
#     4   9  18  26  46  72  98 123 149 182 229 283
#     4   9  17  32  49  68  93 120 153 193 234 278
#     4  10  19  31  47  71  95 125 155 191 230 277
#     4  11  19  29  45  68  95 128 157 188 216 271
#     4  10  19  32  46  67  95 125 155 191 232 273
#
# _framework density 15.788142000000001
#
# number of rings (size 3 to 8) (size 9 to 14) (size 15 to 20)
#    0.000    2.250    2.500    1.125    8.750    2.500 
#    0.000    0.000    0.000    0.000    0.000    0.000 
#    0.000    0.000    0.000    4.500    0.000    0.125 
#
# Total GULP energy -396555.185244 kJ/mol
# GULP energy per Si atom -12392.349539 kJ/mol
# Density = 1.575221 g / cm^3
# Si number density = 15.788142 Si / 1000 Ang^3
#
#
#
# Elastic Constant Matrix: (Units=GPa)
#
#
# Indices 1 2 3 4 5 6 
#
# 1 90.9227 49.4970 17.2696 0.0000 -1.2395 0.0000
# 2 49.4970 100.8355 31.7344 0.0000 -3.0555 0.0000
# 3 17.2696 31.7344 52.5228 0.0000 0.6844 0.0000
# 4 0.0000 0.0000 0.0000 9.7475 0.0000 1.4351
# 5 -1.2395 -3.0555 0.6844 0.0000 12.5923 0.0000
# 6 0.0000 0.0000 0.0000 1.4351 0.0000 21.3928
#
#
#
# Elastic Compliance Matrix: (Units=1/GPa)
#
#
# Indices 1 2 3 4 5 6 
#
# 1 0.015025 -0.007197 -0.000589 0.000000 -0.000235 0.000000
# 2 -0.007197 0.015838 -0.007249 0.000000 0.003529 0.000000
# 3 -0.000589 -0.007249 0.023653 0.000000 -0.003102 0.000000
# 4 0.000000 0.000000 0.000000 0.103613 0.000000 -0.006951
# 5 -0.000235 0.003529 -0.003102 0.000000 0.080415 0.000000
# 6 0.000000 0.000000 0.000000 -0.006951 0.000000 0.047211
#
#
# Mechanical properties :
#
#
# Convention : Reuss Voigt Hill
#
# Bulk Modulus (GPa) = 40.90518 49.03142 44.96830
# Shear Modulus (GPa) = 15.43330 18.46519 16.94925
#
# Velocity S-wave (km/s) = 3.12993 3.42359 3.28005
# Velocity P-wave (km/s) = 6.24716 6.83749 6.54898
#
# Compressibility (1/GPa) = 0.02444678
#
# Stress axis : x y z
#
# Youngs Moduli (GPa) = 66.55578 63.13800 42.27752
#
# Poissons Ratio (x) = 0.45442 0.02489
# Poissons Ratio (y) = 0.47901 0.30647
# Poissons Ratio (z) = 0.03918 0.45769
#
# Static dielectric constant tensor:
#      x y z
#    x 3.099320 0.000000 -0.105780 
#    y 0.000000 3.221130 0.000000 
#    z -0.105780 0.000000 2.664790 
# 
# 
# High freq. dielectric constant tensor:
#      x y z
#    x 1.606210 0.000000 -0.012160 
#    y 0.000000 1.608930 0.000000 
#    z -0.012160 0.000000 1.559980 
# 
# From -- ./inp_files/136625.got.cif
#   From: 2010.06.25/outbox.cif.g09.slc.cpg/sg12_69_cif.got.tgz:136625.got - 2010.06.28 00:19:55.
