data_PCOD8085673
_publ_section_title
;
Structure prediction by ZEFSAII (Michael W. Deem and Ramdas Pophale) SiO2 
 PCOD8085673
Probable space group: C 2/M
;
_chemical_formula_sum "Si O2"
_cell_formula_units_Z 56
_cell_length_a 28.949155
_cell_length_b 13.480708
_cell_length_c 25.267923
_cell_angle_alpha 90.000000
_cell_angle_beta 160.844559
_cell_angle_gamma 90.000000
_cell_volume 3235.689668
_symmetry_space_group_name_H-M "C 2/M"
_symmetry_group_IT_number 12
_symmetry_cell_setting 'monoclinic'
loop_
_space_group_symop_operation_xyz
x,y,z
-x,y,-z
-x,-y,-z
x,-y,z
1/2+x,1/2+y,z
1/2-x,1/2+y,-z
1/2-x,1/2-y,-z
1/2+x,1/2-y,z
loop_
_atom_site_type_symbol
_atom_site_label
_atom_site_fract_x
_atom_site_fract_y
_atom_site_fract_z
Si Si1 0.120974 0.613450 0.381131
Si Si2 0.211850 0.111644 0.086267
Si Si3 0.516765 0.386789 0.077611
Si Si4 0.785349 0.704999 0.409806
Si Si5 0.013666 0.616236 0.454461
Si Si6 0.140045 0.885390 0.444986
Si Si7 0.394603 0.274641 0.127595
O O1 0.076166 0.500000 0.326995
O O2 0.157920 0.636166 0.481645
O O3 0.256316 0.638101 0.491738
O O4 0.986083 0.676100 0.217208
O O5 0.372851 0.141118 0.269656
O O6 0.200763 0.000000 0.051857
O O7 0.139147 0.183766 0.966366
O O8 0.135112 0.119614 0.059602
O O9 0.574541 0.500000 0.140343
O O10 0.621254 0.316237 0.223352
O O11 0.500000 0.347292 0.000000
O O12 0.863313 0.678567 0.439722
O O13 0.809080 0.820633 0.449757
O O14 0.050662 0.500000 0.492757
O O15 0.000000 0.652373 0.500000
O O16 0.983053 0.854140 0.257645
O O17 0.141824 0.000000 0.463757
O O18 0.250000 0.250000 0.000000
#
# Coordination Sequence:
#
# PCOD8085673 Si02
#       7
#     8   8   8   8   8   8   8
#     4  10  20  34  52  75 102 134 170 205 245 301
#     4  10  19  31  47  68  99 132 158 191 240 292
#     4  10  19  30  48  76 103 126 157 200 248 296
#     4  11  19  32  53  73  97 131 168 202 244 297
#     4  10  20  33  49  72 101 131 163 199 243 299
#     4  10  21  36  53  73 100 134 173 212 247 293
#     4  11  21  32  49  75 104 132 165 204 250 302
#
# _framework density 17.306975999999999
#
# number of rings (size 3 to 8) (size 9 to 14) (size 15 to 20)
#    0.000    1.714    0.000    7.714    0.000    6.857 
#    0.000    0.000    0.000    0.857    0.000    2.000 
#    0.000    0.000    0.000    0.000    0.000    0.000 
#
# Total GULP energy -347300.187116 kJ/mol
# GULP energy per Si atom -12403.578111 kJ/mol
# Density = 1.726758 g / cm^3
# Si number density = 17.306976 Si / 1000 Ang^3
#
#
#
# Elastic Constant Matrix: (Units=GPa)
#
#
# Indices 1 2 3 4 5 6 
#
# 1 81.3774 29.9617 15.2712 -0.0023 2.0547 -0.0011
# 2 29.9617 94.3745 33.1562 -0.0074 -2.1027 -0.0056
# 3 15.2712 33.1562 72.0296 -0.0061 7.1871 -0.0039
# 4 -0.0023 -0.0074 -0.0061 26.4086 -0.0034 -1.2101
# 5 2.0547 -2.1027 7.1871 -0.0034 33.4292 -0.0015
# 6 -0.0011 -0.0056 -0.0039 -1.2101 -0.0015 24.4021
#
#
#
# Elastic Compliance Matrix: (Units=1/GPa)
#
#
# Indices 1 2 3 4 5 6 
#
# 1 0.014014 -0.004125 -0.000982 0.000000 -0.000910 -0.000001
# 2 -0.004125 0.013999 -0.005807 0.000003 0.002383 0.000002
# 3 -0.000982 -0.005807 0.017163 0.000002 -0.003995 0.000001
# 4 0.000000 0.000003 0.000002 0.037953 0.000004 0.001882
# 5 -0.000910 0.002383 -0.003995 0.000004 0.030979 0.000002
# 6 -0.000001 0.000002 0.000001 0.001882 0.000002 0.041073
#
#
# Mechanical properties :
#
#
# Convention : Reuss Voigt Hill
#
# Bulk Modulus (GPa) = 42.82818 44.95107 43.88963
# Shear Modulus (GPa) = 27.05764 28.14081 27.59923
#
# Velocity S-wave (km/s) = 3.95827 4.03672 3.99769
# Velocity P-wave (km/s) = 6.75947 6.91057 6.83544
#
# Compressibility (1/GPa) = 0.02334911
#
# Stress axis : x y z
#
# Youngs Moduli (GPa) = 71.35606 71.43479 58.26475
#
# Poissons Ratio (x) = 0.29463 0.05721
# Poissons Ratio (y) = 0.29431 0.33835
# Poissons Ratio (z) = 0.07006 0.41483
#
# Static dielectric constant tensor:
#      x y z
#    x 3.286230 0.000000 0.077000 
#    y 0.000000 3.148390 0.000000 
#    z 0.077000 0.000000 3.265550 
# 
# 
# High freq. dielectric constant tensor:
#      x y z
#    x 1.670220 0.000000 0.010340 
#    y 0.000000 1.646650 0.000000 
#    z 0.010340 0.000000 1.676960 
# 
# From -- ./inp_files/349735.got.cif
#   From: 2010.06.25/outbox.cif.g09.slc.cpg/sg12_175_cif.got.tgz:349735.got - 2010.06.28 00:19:55.
