data_PCOD8085695
_publ_section_title
;
Structure prediction by ZEFSAII (Michael W. Deem and Ramdas Pophale) SiO2 
 PCOD8085695
Probable space group: C 2/M
;
_chemical_formula_sum "Si O2"
_cell_formula_units_Z 56
_cell_length_a 13.605790
_cell_length_b 26.459711
_cell_length_c 9.505178
_cell_angle_alpha 90.000000
_cell_angle_beta 59.114674
_cell_angle_gamma 90.000000
_cell_volume 2936.674436
_symmetry_space_group_name_H-M "C 2/M"
_symmetry_group_IT_number 12
_symmetry_cell_setting 'monoclinic'
loop_
_space_group_symop_operation_xyz
x,y,z
-x,y,-z
-x,-y,-z
x,-y,z
1/2+x,1/2+y,z
1/2-x,1/2+y,-z
1/2-x,1/2-y,-z
1/2+x,1/2-y,z
loop_
_atom_site_type_symbol
_atom_site_label
_atom_site_fract_x
_atom_site_fract_y
_atom_site_fract_z
Si Si1 0.887489 0.941263 0.282542
Si Si2 0.891372 0.364934 0.165778
Si Si3 0.963117 0.352995 0.681658
Si Si4 0.692372 0.440676 0.349587
Si Si5 0.379355 0.601671 0.872480
Si Si6 0.697770 0.058139 0.203459
Si Si7 0.273939 0.807999 0.007377
O O1 0.862760 0.928110 0.460953
O O2 0.776071 0.924683 0.277453
O O3 0.997932 0.909542 0.145977
O O4 0.915360 0.000000 0.237329
O O5 0.813535 0.413453 0.244693
O O6 0.831604 0.320313 0.117234
O O7 0.930086 0.344782 0.290712
O O8 0.000000 0.385253 0.000000
O O9 0.921684 0.411429 0.706146
O O10 0.000000 0.333812 0.500000
O O11 0.854751 0.321877 0.817133
O O12 0.710482 0.500000 0.315360
O O13 0.605912 0.417497 0.298434
O O14 0.345670 0.660724 0.912256
O O15 0.273224 0.568827 0.009885
O O16 0.662533 0.000000 0.237152
O O17 0.250000 0.750000 0.000000
#
# Coordination Sequence:
#
# PCOD8085695 Si02
#       7
#     8   8   8   8   8   8   8
#     4  10  19  31  47  73 111 145 173 210 255 303
#     4   9  19  35  55  76 104 141 173 213 262 310
#     4  10  20  36  56  79 108 137 171 216 261 303
#     4  10  19  30  48  77 109 140 175 212 252 304
#     4  10  19  32  52  73  99 137 176 218 265 310
#     4  10  20  32  49  75 108 145 179 208 245 305
#     4   9  20  40  58  75 101 132 173 222 274 329
#
# _framework density 19.069189000000001
#
# number of rings (size 3 to 8) (size 9 to 14) (size 15 to 20)
#    0.000    2.286    0.000    3.857    0.000    3.429 
#    0.000   12.143    0.000    0.000    0.000    0.000 
#    0.000    0.000    0.000    0.000    0.000    0.000 
#
# Total GULP energy -347114.010755 kJ/mol
# GULP energy per Si atom -12396.928956 kJ/mol
# Density = 1.902579 g / cm^3
# Si number density = 19.069189 Si / 1000 Ang^3
#
#
#
# Elastic Constant Matrix: (Units=GPa)
#
#
# Indices 1 2 3 4 5 6 
#
# 1 78.9513 54.2011 37.2251 0.0000 3.9906 0.0000
# 2 54.2011 117.9809 36.4221 0.0000 0.3614 0.0000
# 3 37.2251 36.4221 86.5081 0.0000 15.5174 0.0000
# 4 0.0000 0.0000 0.0000 16.7023 0.0000 0.0144
# 5 3.9906 0.3614 15.5174 0.0000 29.2146 0.0000
# 6 0.0000 0.0000 0.0000 0.0144 0.0000 20.5947
#
#
#
# Elastic Compliance Matrix: (Units=1/GPa)
#
#
# Indices 1 2 3 4 5 6 
#
# 1 0.020633 -0.007727 -0.005678 0.000000 0.000293 0.000000
# 2 -0.007727 0.012775 -0.002448 0.000000 0.002198 0.000000
# 3 -0.005678 -0.002448 0.016457 0.000000 -0.007935 0.000000
# 4 0.000000 0.000000 0.000000 0.059872 0.000000 -0.000042
# 5 0.000293 0.002198 -0.007935 0.000000 0.038377 0.000000
# 6 0.000000 0.000000 0.000000 -0.000042 0.000000 0.048556
#
#
# Mechanical properties :
#
#
# Convention : Reuss Voigt Hill
#
# Bulk Modulus (GPa) = 55.06785 59.90412 57.48599
# Shear Modulus (GPa) = 21.32852 23.67511 22.50182
#
# Velocity S-wave (km/s) = 3.34800 3.52737 3.43885
# Velocity P-wave (km/s) = 6.62466 6.93340 6.78079
#
# Compressibility (1/GPa) = 0.01815941
#
# Stress axis : x y z
#
# Youngs Moduli (GPa) = 48.46610 78.27998 60.76537
#
# Poissons Ratio (x) = 0.60487 0.34502
# Poissons Ratio (y) = 0.37450 0.14873
# Poissons Ratio (z) = 0.27518 0.19160
#
# Static dielectric constant tensor:
#      x y z
#    x 3.736070 0.000000 0.206510 
#    y 0.000000 3.175190 0.000000 
#    z 0.206510 0.000000 3.615540 
# 
# 
# High freq. dielectric constant tensor:
#      x y z
#    x 1.748300 0.000000 0.008000 
#    y 0.000000 1.702760 0.000000 
#    z 0.008000 0.000000 1.752710 
# 
# From -- ./inp_files/65792.got.cif
#   From: 2010.06.25/outbox.cif.g09.slc.cpg/sg12_33_cif.got.tgz:65792.got - 2010.06.28 00:19:55.
