data_PCOD8085924
_publ_section_title
;
Structure prediction by ZEFSAII (Michael W. Deem and Ramdas Pophale) SiO2 
 PCOD8085924
Probable space group: C 2/M
;
_chemical_formula_sum "Si O2"
_cell_formula_units_Z 52
_cell_length_a 17.372743
_cell_length_b 12.173473
_cell_length_c 15.829452
_cell_angle_alpha 90.000000
_cell_angle_beta 106.366803
_cell_angle_gamma 90.000000
_cell_volume 3212.059062
_symmetry_space_group_name_H-M "C 2/M"
_symmetry_group_IT_number 12
_symmetry_cell_setting 'monoclinic'
loop_
_space_group_symop_operation_xyz
x,y,z
-x,y,-z
-x,-y,-z
x,-y,z
1/2+x,1/2+y,z
1/2-x,1/2+y,-z
1/2-x,1/2-y,-z
1/2+x,1/2-y,z
loop_
_atom_site_type_symbol
_atom_site_label
_atom_site_fract_x
_atom_site_fract_y
_atom_site_fract_z
Si Si1 0.110399 0.629818 0.658756
Si Si2 0.240970 0.254013 0.361455
Si Si3 0.127254 0.368633 0.197704
Si Si4 0.907113 0.619913 0.992093
Si Si5 0.949327 0.630927 0.180165
Si Si6 0.348456 0.372099 0.525638
Si Si7 0.000000 0.238658 0.500000
O O1 0.101363 0.500000 0.648608
O O2 0.198746 0.663982 0.657471
O O3 0.095383 0.671602 0.749653
O O4 0.043520 0.682931 0.579417
O O5 0.198967 0.316131 0.271963
O O6 0.287864 0.344152 0.430986
O O7 0.175115 0.193120 0.397483
O O8 0.134841 0.500000 0.201777
O O9 0.134166 0.322756 0.102482
O O10 0.042168 0.331003 0.211186
O O11 0.867012 0.500000 0.988892
O O12 0.902641 0.680922 0.082529
O O13 0.000000 0.605120 0.000000
O O14 0.947356 0.500000 0.171393
O O15 0.343619 0.500000 0.543577
O O16 0.438533 0.339735 0.529628
#
# Coordination Sequence:
#
# PCOD8085924 Si02
#       7
#     8   8   8   8   8   8   4
#     4  10  19  31  45  64  92 117 142 179 217 257
#     4  10  20  30  44  66  89 118 147 170 214 270
#     4   9  15  26  45  67  90 113 144 185 217 247
#     4   7  11  21  39  63  87 111 140 177 218 249
#     4   8  14  25  43  64  86 114 144 178 218 251
#     4  10  20  34  47  62  88 115 144 182 217 254
#     4  10  20  32  50  68  80 110 154 184 214 256
#
# _framework density 16.188991999999999
#
# number of rings (size 3 to 8) (size 9 to 14) (size 15 to 20)
#    0.000    2.923    0.000    4.154    0.000    0.000 
#    0.000    5.385    0.000    0.000    0.000    0.000 
#    0.000   41.846    0.000    0.000    0.000    0.000 
#
# Total GULP energy -322170.532345 kJ/mol
# GULP energy per Si atom -12391.174321 kJ/mol
# Density = 1.615215 g / cm^3
# Si number density = 16.188992 Si / 1000 Ang^3
#
#
#
# Elastic Constant Matrix: (Units=GPa)
#
#
# Indices 1 2 3 4 5 6 
#
# 1 82.4485 22.9383 44.4252 0.0000 -4.3504 0.0000
# 2 22.9383 46.1963 22.6802 0.0000 5.2628 0.0000
# 3 44.4252 22.6802 126.8901 0.0000 0.0396 0.0000
# 4 0.0000 0.0000 0.0000 16.1815 0.0000 0.9832
# 5 -4.3504 5.2628 0.0396 0.0000 23.9305 0.0000
# 6 0.0000 0.0000 0.0000 0.9832 0.0000 11.2162
#
#
#
# Elastic Compliance Matrix: (Units=1/GPa)
#
#
# Indices 1 2 3 4 5 6 
#
# 1 0.016698 -0.006500 -0.004686 0.000000 0.004473 0.000000
# 2 -0.006500 0.026928 -0.002535 0.000000 -0.007099 0.000000
# 3 -0.004686 -0.002535 0.009975 0.000000 -0.000311 0.000000
# 4 0.000000 0.000000 0.000000 0.062130 0.000000 -0.005446
# 5 0.004473 -0.007099 -0.000311 0.000000 0.044163 0.000000
# 6 0.000000 0.000000 0.000000 -0.005446 0.000000 0.089634
#
#
# Mechanical properties :
#
#
# Convention : Reuss Voigt Hill
#
# Bulk Modulus (GPa) = 38.22874 48.40247 43.31561
# Shear Modulus (GPa) = 17.50156 21.29837 19.39996
#
# Velocity S-wave (km/s) = 3.29154 3.63107 3.46546
# Velocity P-wave (km/s) = 6.17341 6.89513 6.54423
#
# Compressibility (1/GPa) = 0.02615833
#
# Stress axis : x y z
#
# Youngs Moduli (GPa) = 59.88736 37.13635 100.25552
#
# Poissons Ratio (x) = 0.24140 0.46976
# Poissons Ratio (y) = 0.38929 0.25415
# Poissons Ratio (z) = 0.28061 0.09414
#
# Static dielectric constant tensor:
#      x y z
#    x 3.004170 0.000000 -0.170100 
#    y 0.000000 2.662480 0.000000 
#    z -0.170100 0.000000 3.482630 
# 
# 
# High freq. dielectric constant tensor:
#      x y z
#    x 1.611190 0.000000 -0.008510 
#    y 0.000000 1.581610 0.000000 
#    z -0.008510 0.000000 1.641590 
# 
# From -- ./inp_files/223359.got.cif
#   From: 2010.06.25/outbox.cif.g09.slc.cpg/sg12_112_cif.got.tgz:223359.got - 2010.06.28 00:19:55.
