data_PCOD8085639
_publ_section_title
;
Structure prediction by ZEFSAII (Michael W. Deem and Ramdas Pophale) SiO2 
 PCOD8085639
Probable space group: C 2/M
;
_chemical_formula_sum "Si O2"
_cell_formula_units_Z 48
_cell_length_a 22.280648
_cell_length_b 9.014630
_cell_length_c 28.699003
_cell_angle_alpha 90.000000
_cell_angle_beta 151.791651
_cell_angle_gamma 90.000000
_cell_volume 2724.639245
_symmetry_space_group_name_H-M "C 2/M"
_symmetry_group_IT_number 12
_symmetry_cell_setting 'monoclinic'
loop_
_space_group_symop_operation_xyz
x,y,z
-x,y,-z
-x,-y,-z
x,-y,z
1/2+x,1/2+y,z
1/2-x,1/2+y,-z
1/2-x,1/2-y,-z
1/2+x,1/2-y,z
loop_
_atom_site_type_symbol
_atom_site_label
_atom_site_fract_x
_atom_site_fract_y
_atom_site_fract_z
Si Si1 0.355745 0.328381 0.410085
Si Si2 0.201387 0.675646 0.813784
Si Si3 0.796673 0.327377 0.462604
Si Si4 0.702040 0.828092 0.211816
Si Si5 0.462469 0.663601 0.027950
Si Si6 0.946054 0.172746 0.643010
O O1 0.500000 0.279405 0.500000
O O2 0.348409 0.500000 0.419897
O O3 0.295527 0.228870 0.409211
O O4 0.275070 0.295403 0.309146
O O5 0.186017 0.500000 0.799022
O O6 0.227826 0.737826 0.780454
O O7 0.074492 0.748045 0.747733
O O8 0.315323 0.716613 0.927848
O O9 0.830801 0.500000 0.488230
O O10 0.903038 0.239401 0.564170
O O11 0.658034 0.295473 0.388790
O O12 0.555421 0.776699 0.118194
O O13 0.703960 0.000000 0.199611
O O14 0.476313 0.500000 0.060131
O O15 0.500000 0.654611 0.000000
O O16 0.971751 0.000000 0.653059
#
# Coordination Sequence:
#
# PCOD8085639 Si02
#       6
#     8   8   8   8   8   8
#     4  10  21  35  50  71 101 133 163 198 240 286
#     4  10  19  31  50  75 100 129 165 202 244 291
#     4  10  21  35  52  74  98 129 165 198 240 291
#     4  10  19  30  48  74 102 133 165 200 245 291
#     4   8  16  30  46  68  99 130 161 201 246 289
#     4  10  20  34  52  74 100 127 159 203 246 286
#
# _framework density 17.617011999999999
#
# number of rings (size 3 to 8) (size 9 to 14) (size 15 to 20)
#    0.000    2.333    0.000    4.000    0.000    8.667 
#    0.000    0.000    0.000    1.000    0.000    0.000 
#    0.000    0.000    0.000    0.000    0.000    0.000 
#
# Total GULP energy -297618.070612 kJ/mol
# GULP energy per Si atom -12400.752942 kJ/mol
# Density = 1.757692 g / cm^3
# Si number density = 17.617012 Si / 1000 Ang^3
#
#
#
# Elastic Constant Matrix: (Units=GPa)
#
#
# Indices 1 2 3 4 5 6 
#
# 1 63.8497 42.6423 44.1097 0.0004 3.9692 0.0000
# 2 42.6423 98.0318 65.3018 0.0013 7.0641 -0.0001
# 3 44.1097 65.3018 141.1306 0.0013 18.3764 -0.0001
# 4 0.0004 0.0013 0.0013 33.4103 0.0005 2.6891
# 5 3.9692 7.0641 18.3764 0.0005 23.4766 -0.0001
# 6 0.0000 -0.0001 -0.0001 2.6891 -0.0001 28.6919
#
#
#
# Elastic Compliance Matrix: (Units=1/GPa)
#
#
# Indices 1 2 3 4 5 6 
#
# 1 0.023422 -0.007648 -0.003971 0.000000 0.001449 0.000000
# 2 -0.007648 0.017264 -0.005668 0.000000 0.000535 0.000000
# 3 -0.003971 -0.005668 0.011847 0.000000 -0.006897 0.000000
# 4 0.000000 0.000000 0.000000 0.030158 0.000000 -0.002826
# 5 0.001449 0.000535 -0.006897 0.000000 0.047588 0.000000
# 6 0.000000 0.000000 0.000000 -0.002826 0.000000 0.035118
#
#
# Mechanical properties :
#
#
# Convention : Reuss Voigt Hill
#
# Bulk Modulus (GPa) = 55.67396 67.45773 61.56585
# Shear Modulus (GPa) = 24.27688 27.17966 25.72827
#
# Velocity S-wave (km/s) = 3.71622 3.93212 3.82569
# Velocity P-wave (km/s) = 7.07705 7.68048 7.38493
#
# Compressibility (1/GPa) = 0.01796172
#
# Stress axis : x y z
#
# Youngs Moduli (GPa) = 42.69428 57.92304 84.40955
#
# Poissons Ratio (x) = 0.44299 0.33515
# Poissons Ratio (y) = 0.32652 0.47840
# Poissons Ratio (z) = 0.16952 0.32828
#
# Static dielectric constant tensor:
#      x y z
#    x 2.983790 0.000000 0.275930 
#    y 0.000000 3.373310 0.000000 
#    z 0.275930 0.000000 3.644000 
# 
# 
# High freq. dielectric constant tensor:
#      x y z
#    x 1.646460 0.000000 0.017350 
#    y 0.000000 1.692880 0.000000 
#    z 0.017350 0.000000 1.690110 
# 
# From -- ./inp_files/172040.got.cif
#   From: 2010.06.25/outbox.cif.g09.slc.cpg/sg12_87_cif.got.tgz:172040.got - 2010.06.28 00:19:55.
