data_PCOD8085970
_publ_section_title
;
Structure prediction by ZEFSAII (Michael W. Deem and Ramdas Pophale) SiO2 
 PCOD8085970
Probable space group: C 2/M
;
_chemical_formula_sum "Si O2"
_cell_formula_units_Z 64
_cell_length_a 23.708218
_cell_length_b 9.045940
_cell_length_c 18.019097
_cell_angle_alpha 90.000000
_cell_angle_beta 68.310331
_cell_angle_gamma 90.000000
_cell_volume 3590.826959
_symmetry_space_group_name_H-M "C 2/M"
_symmetry_group_IT_number 12
_symmetry_cell_setting 'monoclinic'
loop_
_space_group_symop_operation_xyz
x,y,z
-x,y,-z
-x,-y,-z
x,-y,z
1/2+x,1/2+y,z
1/2-x,1/2+y,-z
1/2-x,1/2-y,-z
1/2+x,1/2-y,z
loop_
_atom_site_type_symbol
_atom_site_label
_atom_site_fract_x
_atom_site_fract_y
_atom_site_fract_z
Si Si1 0.872570 0.827385 0.850321
Si Si2 0.515587 0.325047 0.292135
Si Si3 0.246936 0.175091 0.176222
Si Si4 0.698059 0.673745 0.978238
Si Si5 0.660828 0.170699 0.471182
Si Si6 0.445028 0.166313 0.582874
Si Si7 0.270983 0.669824 0.315873
Si Si8 0.619894 0.673031 0.638049
O O1 0.937760 0.761400 0.793088
O O2 0.816798 0.765115 0.827099
O O3 0.873155 0.000000 0.833818
O O4 0.863081 0.797036 0.943247
O O5 0.512242 0.500000 0.289705
O O6 0.542232 0.279363 0.357939
O O7 0.447544 0.260370 0.314094
O O8 0.302584 0.249709 0.102375
O O9 0.252452 0.223340 0.258349
O O10 0.253258 0.000000 0.166885
O O11 0.710489 0.500000 0.963630
O O12 0.750000 0.750000 0.000000
O O13 0.614523 0.224524 0.430180
O O14 0.728107 0.199651 0.407592
O O15 0.651118 0.258418 0.551083
O O16 0.648583 0.000000 0.495284
O O17 0.500000 0.169339 0.500000
O O18 0.435516 0.000000 0.618806
O O19 0.264804 0.500000 0.292390
O O20 0.339295 0.706369 0.309377
O O21 0.616194 0.500000 0.624194
#
# Coordination Sequence:
#
# PCOD8085970 Si02
#       8
#     8   8   8   8   8   8   8   8
#     4   8  16  30  49  75 102 124 152 191 235 284
#     4  10  19  32  50  71  96 127 161 197 237 283
#     4  10  19  32  51  76 101 126 158 197 241 290
#     4   9  16  29  50  75 104 132 156 190 237 289
#     4  10  20  34  51  68  93 127 162 202 246 289
#     4  10  19  31  46  67  95 124 157 195 238 287
#     4  10  21  35  49  69  95 126 164 204 243 283
#     4  10  21  34  49  69  94 125 165 206 240 280
#
# _framework density 17.823191999999999
#
# number of rings (size 3 to 8) (size 9 to 14) (size 15 to 20)
#    0.000    2.375    1.250    2.625    0.000    1.750 
#    0.000    3.125    0.000    0.750    0.000    5.250 
#    0.000    0.000    0.000    0.000    0.000    0.000 
#
# Total GULP energy -396629.989227 kJ/mol
# GULP energy per Si atom -12394.687163 kJ/mol
# Density = 1.778263 g / cm^3
# Si number density = 17.823192 Si / 1000 Ang^3
#
#
#
# Elastic Constant Matrix: (Units=GPa)
#
#
# Indices 1 2 3 4 5 6 
#
# 1 84.6402 23.7471 44.0558 0.0000 -6.4499 0.0000
# 2 23.7471 47.7187 34.2306 0.0001 -3.8232 0.0001
# 3 44.0558 34.2306 99.9361 0.0000 -17.8401 0.0000
# 4 0.0000 0.0001 0.0000 31.1820 0.0000 2.1558
# 5 -6.4499 -3.8232 -17.8401 0.0000 18.2974 0.0000
# 6 0.0000 0.0001 0.0000 2.1558 0.0000 19.3847
#
#
#
# Elastic Compliance Matrix: (Units=1/GPa)
#
#
# Indices 1 2 3 4 5 6 
#
# 1 0.015851 -0.003754 -0.005865 0.000000 -0.000916 0.000000
# 2 -0.003754 0.028942 -0.008977 0.000000 -0.004029 0.000000
# 3 -0.005865 -0.008977 0.018116 0.000000 0.013720 0.000000
# 4 0.000000 0.000000 0.000000 0.032318 0.000000 -0.003594
# 5 -0.000916 -0.004029 0.013720 0.000000 0.066865 0.000000
# 6 0.000000 0.000000 0.000000 -0.003594 0.000000 0.051987
#
#
# Mechanical properties :
#
#
# Convention : Reuss Voigt Hill
#
# Bulk Modulus (GPa) = 38.88782 48.48466 43.68624
# Shear Modulus (GPa) = 19.24225 22.45692 20.84958
#
# Velocity S-wave (km/s) = 3.28932 3.55347 3.42395
# Velocity P-wave (km/s) = 6.02430 6.64066 6.33998
#
# Compressibility (1/GPa) = 0.02571500
#
# Stress axis : x y z
#
# Youngs Moduli (GPa) = 63.08664 34.55245 55.19879
#
# Poissons Ratio (x) = 0.12972 0.32376
# Poissons Ratio (y) = 0.23684 0.49554
# Poissons Ratio (z) = 0.37003 0.31019
#
# Static dielectric constant tensor:
#      x y z
#    x 3.525570 0.000000 -0.435490 
#    y 0.000000 3.209950 0.000000 
#    z -0.435490 0.000000 3.507290 
# 
# 
# High freq. dielectric constant tensor:
#      x y z
#    x 1.675000 0.000000 -0.016090 
#    y 0.000000 1.676670 0.000000 
#    z -0.016090 0.000000 1.688270 
# 
# From -- ./inp_files/287536.got.cif
#   From: 2010.06.25/outbox.cif.g09.slc.cpg/sg12_144_cif.got.tgz:287536.got - 2010.06.28 00:19:55.
