data_PCOD8085608
_publ_section_title
;
Structure prediction by ZEFSAII (Michael W. Deem and Ramdas Pophale) SiO2 
 PCOD8085608
Probable space group: C 2/M
;
_chemical_formula_sum "Si O2"
_cell_formula_units_Z 64
_cell_length_a 27.836125
_cell_length_b 8.983716
_cell_length_c 14.738660
_cell_angle_alpha 90.000000
_cell_angle_beta 89.066396
_cell_angle_gamma 90.000000
_cell_volume 3685.234561
_symmetry_space_group_name_H-M "C 2/M"
_symmetry_group_IT_number 12
_symmetry_cell_setting 'monoclinic'
loop_
_space_group_symop_operation_xyz
x,y,z
-x,y,-z
-x,-y,-z
x,-y,z
1/2+x,1/2+y,z
1/2-x,1/2+y,-z
1/2-x,1/2-y,-z
1/2+x,1/2-y,z
loop_
_atom_site_type_symbol
_atom_site_label
_atom_site_fract_x
_atom_site_fract_y
_atom_site_fract_z
Si Si1 0.413000 0.331491 0.814080
Si Si2 0.391000 0.827714 0.154190
Si Si3 0.764534 0.174924 0.869589
Si Si4 0.690215 0.324412 0.759474
Si Si5 0.244341 0.330235 0.405920
Si Si6 0.501779 0.174649 0.895953
Si Si7 0.333806 0.172088 0.727711
Si Si8 0.346509 0.332408 0.991774
O O1 0.421199 0.500000 0.780844
O O2 0.464031 0.259927 0.835102
O O3 0.387806 0.238179 0.732715
O O4 0.379129 0.324723 0.901931
O O5 0.364516 0.736020 0.235745
O O6 0.446908 0.786598 0.149584
O O7 0.383093 0.000000 0.173684
O O8 0.367295 0.788702 0.058766
O O9 0.714904 0.264423 0.853040
O O10 0.800491 0.227437 0.790874
O O11 0.791213 0.208083 0.965080
O O12 0.754503 0.000000 0.859346
O O13 0.691639 0.500000 0.761908
O O14 0.718066 0.264194 0.669814
O O15 0.258090 0.500000 0.422293
O O16 0.250000 0.250000 0.500000
O O17 0.189208 0.315011 0.372412
O O18 0.490346 0.000000 0.894018
O O19 0.500000 0.232081 0.000000
O O20 0.333115 0.000000 0.759986
O O21 0.348882 0.500000 0.033150
#
# Coordination Sequence:
#
# PCOD8085608 Si02
#       8
#     8   8   8   8   8   8   8   8
#     4  10  19  30  48  72  97 131 173 214 254 291
#     4  11  22  33  48  68  92 129 173 210 251 294
#     4   9  17  30  47  68  93 126 168 205 241 288
#     4  10  21  36  50  69  99 131 161 198 247 295
#     4   9  19  34  55  81 104 130 158 191 240 297
#     4  10  20  34  49  69  96 130 173 221 262 295
#     4   9  17  30  48  73 104 133 161 197 246 295
#     4   9  18  30  44  65  93 126 165 209 249 287
#
# _framework density 17.366602
#
# number of rings (size 3 to 8) (size 9 to 14) (size 15 to 20)
#    0.000    2.375    1.250    3.375    0.000    7.250 
#    0.000    0.000    0.000    0.000    0.000    0.875 
#    0.000    7.000    0.000    0.000    0.000    0.000 
#
# Total GULP energy -396616.664089 kJ/mol
# GULP energy per Si atom -12394.270753 kJ/mol
# Density = 1.732708 g / cm^3
# Si number density = 17.366602 Si / 1000 Ang^3
#
#
#
# Elastic Constant Matrix: (Units=GPa)
#
#
# Indices 1 2 3 4 5 6 
#
# 1 106.5891 46.7715 24.3298 0.0000 11.7938 0.0000
# 2 46.7715 58.4003 14.3498 0.0000 5.0012 0.0000
# 3 24.3298 14.3498 51.9062 0.0000 10.8268 0.0000
# 4 0.0000 0.0000 0.0000 23.9554 0.0000 3.6329
# 5 11.7938 5.0012 10.8268 0.0000 15.5719 0.0000
# 6 0.0000 0.0000 0.0000 3.6329 0.0000 31.2223
#
#
#
# Elastic Compliance Matrix: (Units=1/GPa)
#
#
# Indices 1 2 3 4 5 6 
#
# 1 0.015711 -0.011329 -0.002935 0.000000 -0.006220 0.000000
# 2 -0.011329 0.026643 -0.002410 0.000000 0.001699 0.000000
# 3 -0.002935 -0.002410 0.024190 0.000000 -0.013822 0.000000
# 4 0.000000 0.000000 0.000000 0.042494 0.000000 -0.004944
# 5 -0.006220 0.001699 -0.013822 0.000000 0.077994 0.000000
# 6 0.000000 0.000000 0.000000 -0.004944 0.000000 0.032604
#
#
# Mechanical properties :
#
#
# Convention : Reuss Voigt Hill
#
# Bulk Modulus (GPa) = 30.12286 43.08864 36.60575
# Shear Modulus (GPa) = 18.93589 22.91289 20.92439
#
# Velocity S-wave (km/s) = 3.30565 3.63625 3.47488
# Velocity P-wave (km/s) = 5.65267 6.51880 6.10113
#
# Compressibility (1/GPa) = 0.03319738
#
# Stress axis : x y z
#
# Youngs Moduli (GPa) = 63.64928 37.53353 41.33861
#
# Poissons Ratio (x) = 0.42521 0.12132
# Poissons Ratio (y) = 0.72107 0.09962
# Poissons Ratio (z) = 0.18680 0.09045
#
# Static dielectric constant tensor:
#      x y z
#    x 3.586960 0.000000 0.152040 
#    y 0.000000 3.312170 0.000000 
#    z 0.152040 0.000000 2.979010 
# 
# 
# High freq. dielectric constant tensor:
#      x y z
#    x 1.672810 0.000000 0.009140 
#    y 0.000000 1.680410 0.000000 
#    z 0.009140 0.000000 1.623960 
# 
# From -- ./inp_files/248437.got.cif
#   From: 2010.06.25/outbox.cif.g09.slc.cpg/sg12_125_cif.got.tgz:248437.got - 2010.06.28 00:19:55.
