data_PCOD8085701
_publ_section_title
;
Structure prediction by ZEFSAII (Michael W. Deem and Ramdas Pophale) SiO2 
 PCOD8085701
Probable space group: C 2/M
;
_chemical_formula_sum "Si O2"
_cell_formula_units_Z 64
_cell_length_a 14.124037
_cell_length_b 23.797810
_cell_length_c 18.524749
_cell_angle_alpha 90.000000
_cell_angle_beta 147.079373
_cell_angle_gamma 90.000000
_cell_volume 3383.990146
_symmetry_space_group_name_H-M "C 2/M"
_symmetry_group_IT_number 12
_symmetry_cell_setting 'monoclinic'
loop_
_space_group_symop_operation_xyz
x,y,z
-x,y,-z
-x,-y,-z
x,-y,z
1/2+x,1/2+y,z
1/2-x,1/2+y,-z
1/2-x,1/2-y,-z
1/2+x,1/2-y,z
loop_
_atom_site_type_symbol
_atom_site_label
_atom_site_fract_x
_atom_site_fract_y
_atom_site_fract_z
Si Si1 0.602539 0.616181 0.719226
Si Si2 0.423349 0.060982 0.372671
Si Si3 0.124282 0.562690 0.011354
Si Si4 0.026998 0.239598 0.658889
Si Si5 0.344738 0.882726 0.742316
Si Si6 0.694577 0.233948 0.351419
Si Si7 0.178865 0.674134 0.658009
Si Si8 0.769260 0.565520 0.540699
O O1 0.690963 0.587669 0.845403
O O2 0.624608 0.682877 0.743400
O O3 0.695307 0.598033 0.703445
O O4 0.400602 0.599809 0.591658
O O5 0.500000 0.050831 0.500000
O O6 0.276789 0.111035 0.283970
O O7 0.574898 0.080791 0.414436
O O8 0.344540 0.000000 0.296931
O O9 0.152991 0.500000 0.998496
O O10 0.000000 0.560756 0.000000
O O11 0.036523 0.601818 0.894469
O O12 0.163775 0.284135 0.715989
O O13 0.885987 0.224821 0.507090
O O14 0.946342 0.269862 0.676464
O O15 0.336526 0.815683 0.725610
O O16 0.319999 0.916852 0.653348
O O17 0.680809 0.295847 0.304832
O O18 0.000000 0.666791 0.500000
O O19 0.724808 0.500000 0.509851
#
# Coordination Sequence:
#
# PCOD8085701 Si02
#       8
#     8   8   8   8   8   8   8   8
#     4  11  21  33  53  79 113 144 180 222 274 326
#     4   9  19  34  49  74 112 145 177 222 274 325
#     4   9  20  37  54  72 106 155 187 210 266 336
#     4  10  19  30  48  78 110 137 170 222 274 320
#     4  11  20  35  54  79 112 142 183 225 266 330
#     4  10  19  30  49  78 108 139 178 220 271 324
#     4   9  17  28  47  70 102 140 175 206 267 318
#     4  11  22  32  52  83 111 140 181 230 272 313
#
# _framework density 18.912585
#
# number of rings (size 3 to 8) (size 9 to 14) (size 15 to 20)
#    0.000    2.000    2.500    1.875    5.250    2.000 
#    0.000    0.625    0.000    0.000    0.000    0.875 
#    0.000    5.000    0.000    0.125    0.000    0.000 
#
# Total GULP energy -396620.560706 kJ/mol
# GULP energy per Si atom -12394.392522 kJ/mol
# Density = 1.886954 g / cm^3
# Si number density = 18.912585 Si / 1000 Ang^3
#
#
#
# Elastic Constant Matrix: (Units=GPa)
#
#
# Indices 1 2 3 4 5 6 
#
# 1 45.4563 14.1365 13.6639 0.0026 -6.0179 0.0010
# 2 14.1365 140.8461 28.2726 0.0002 -7.2945 0.0003
# 3 13.6639 28.2726 69.6212 0.0038 -10.1337 0.0015
# 4 0.0026 0.0002 0.0038 22.5543 0.0000 -4.4781
# 5 -6.0179 -7.2945 -10.1337 0.0000 5.9029 0.0003
# 6 0.0010 0.0003 0.0015 -4.4781 0.0003 26.6900
#
#
#
# Elastic Compliance Matrix: (Units=1/GPa)
#
#
# Indices 1 2 3 4 5 6 
#
# 1 0.025738 -0.001153 -0.001295 -0.000003 0.022591 -0.000002
# 2 -0.001153 0.007921 -0.002315 0.000000 0.004638 0.000000
# 3 -0.001295 -0.002315 0.019929 -0.000003 0.030032 -0.000002
# 4 -0.000003 0.000000 -0.000003 0.045865 -0.000009 0.007695
# 5 0.022591 0.004638 0.030032 -0.000009 0.249729 -0.000007
# 6 -0.000002 0.000000 -0.000002 0.007695 -0.000007 0.038758
#
#
# Mechanical properties :
#
#
# Convention : Reuss Voigt Hill
#
# Bulk Modulus (GPa) = 22.69572 40.89662 31.79617
# Shear Modulus (GPa) = 12.13140 24.35280 18.24210
#
# Velocity S-wave (km/s) = 2.53543 3.59228 3.10909
# Velocity P-wave (km/s) = 4.53845 6.23514 5.45319
#
# Compressibility (1/GPa) = 0.04406117
#
# Stress axis : x y z
#
# Youngs Moduli (GPa) = 38.85330 126.25274 50.17810
#
# Poissons Ratio (x) = 0.14562 0.06496
# Poissons Ratio (y) = 0.04481 0.11617
# Poissons Ratio (z) = 0.05030 0.29229
#
# Static dielectric constant tensor:
#      x y z
#    x 3.531230 0.000000 -0.158430 
#    y 0.000000 3.952930 0.000000 
#    z -0.158430 0.000000 3.095790 
# 
# 
# High freq. dielectric constant tensor:
#      x y z
#    x 1.733050 0.000000 -0.018770 
#    y 0.000000 1.758700 0.000000 
#    z -0.018770 0.000000 1.669920 
# 
# From -- ./inp_files/65887.got.cif
#   From: 2010.06.25/outbox.cif.g09.slc.cpg/sg12_33_cif.got.tgz:65887.got - 2010.06.28 00:19:55.
