data_PCOD8085527
_publ_section_title
;
Structure prediction by ZEFSAII (Michael W. Deem and Ramdas Pophale) SiO2 
 PCOD8085527
Probable space group: C 2/M
;
_chemical_formula_sum "Si O2"
_cell_formula_units_Z 48
_cell_length_a 27.228126
_cell_length_b 8.872950
_cell_length_c 23.591150
_cell_angle_alpha 90.000000
_cell_angle_beta 149.894778
_cell_angle_gamma 90.000000
_cell_volume 2858.797601
_symmetry_space_group_name_H-M "C 2/M"
_symmetry_group_IT_number 12
_symmetry_cell_setting 'monoclinic'
loop_
_space_group_symop_operation_xyz
x,y,z
-x,y,-z
-x,-y,-z
x,-y,z
1/2+x,1/2+y,z
1/2-x,1/2+y,-z
1/2-x,1/2-y,-z
1/2+x,1/2-y,z
loop_
_atom_site_type_symbol
_atom_site_label
_atom_site_fract_x
_atom_site_fract_y
_atom_site_fract_z
Si Si1 0.470004 0.322508 0.889422
Si Si2 0.144904 0.823246 0.458933
Si Si3 0.357999 0.821575 0.878935
Si Si4 0.845403 0.675563 0.323952
Si Si5 0.845977 0.824645 0.659507
Si Si6 0.536511 0.825527 0.447850
O O1 0.483167 0.500000 0.913177
O O2 0.389120 0.259330 0.851924
O O3 0.434738 0.287370 0.790513
O O4 0.572809 0.237704 0.001193
O O5 0.123052 0.771328 0.372520
O O6 0.248948 0.760005 0.583616
O O7 0.058205 0.764436 0.412212
O O8 0.148811 0.000000 0.468010
O O9 0.247222 0.778360 0.782982
O O10 0.369354 0.000000 0.884014
O O11 0.815870 0.500000 0.295145
O O12 0.889479 0.724326 0.428515
O O13 0.925341 0.707724 0.355202
O O14 0.819858 0.000000 0.634265
O O15 0.551425 0.000000 0.449957
#
# Coordination Sequence:
#
# PCOD8085527 Si02
#       6
#     8   8   8   8   8   8
#     4  10  19  33  51  67  90 127 163 189 221 274
#     4  10  19  30  47  72  99 123 150 191 237 274
#     4  11  21  31  46  72 100 120 148 194 241 276
#     4   9  18  33  50  68  93 126 160 188 222 274
#     4   9  19  33  48  68  94 126 160 189 223 274
#     4   9  18  32  50  70  93 124 159 191 223 271
#
# _framework density 16.790275999999999
#
# number of rings (size 3 to 8) (size 9 to 14) (size 15 to 20)
#    0.000    2.333    0.000    5.500    0.000    7.333 
#    0.000    1.667    0.000    1.000    0.000    0.000 
#    0.000    0.000    0.000    0.000    0.000    0.000 
#
# Total GULP energy -297623.857550 kJ/mol
# GULP energy per Si atom -12400.994065 kJ/mol
# Density = 1.675206 g / cm^3
# Si number density = 16.790276 Si / 1000 Ang^3
#
#
#
# Elastic Constant Matrix: (Units=GPa)
#
#
# Indices 1 2 3 4 5 6 
#
# 1 88.7419 32.4636 46.9544 0.0000 0.5250 0.0000
# 2 32.4636 65.8090 40.5126 0.0000 1.7736 0.0000
# 3 46.9544 40.5126 106.2317 0.0000 2.1655 0.0000
# 4 0.0000 0.0000 0.0000 23.4354 0.0000 2.3113
# 5 0.5250 1.7736 2.1655 0.0000 24.2337 0.0000
# 6 0.0000 0.0000 0.0000 2.3113 0.0000 28.7488
#
#
#
# Elastic Compliance Matrix: (Units=1/GPa)
#
#
# Indices 1 2 3 4 5 6 
#
# 1 0.015684 -0.004542 -0.005209 0.000000 0.000458 0.000000
# 2 -0.004542 0.021188 -0.006054 0.000000 -0.000911 0.000000
# 3 -0.005209 -0.006054 0.014039 0.000000 -0.000699 0.000000
# 4 0.000000 0.000000 0.000000 0.043012 0.000000 -0.003458
# 5 0.000458 -0.000911 -0.000699 0.000000 0.041384 0.000000
# 6 0.000000 0.000000 0.000000 -0.003458 0.000000 0.035062
#
#
# Mechanical properties :
#
#
# Convention : Reuss Voigt Hill
#
# Bulk Modulus (GPa) = 51.81525 55.62709 53.72117
# Shear Modulus (GPa) = 23.99093 24.67372 24.33233
#
# Velocity S-wave (km/s) = 3.78413 3.83760 3.81095
# Velocity P-wave (km/s) = 7.07249 7.26902 7.17143
#
# Compressibility (1/GPa) = 0.01929934
#
# Stress axis : x y z
#
# Youngs Moduli (GPa) = 63.75957 47.19753 71.23081
#
# Poissons Ratio (x) = 0.21438 0.37107
# Poissons Ratio (y) = 0.28961 0.43122
# Poissons Ratio (z) = 0.33215 0.28573
#
# Static dielectric constant tensor:
#      x y z
#    x 3.147160 0.000000 -0.074030 
#    y 0.000000 3.128050 0.000000 
#    z -0.074030 0.000000 3.116950 
# 
# 
# High freq. dielectric constant tensor:
#      x y z
#    x 1.636080 0.000000 -0.000560 
#    y 0.000000 1.652340 0.000000 
#    z -0.000560 0.000000 1.637860 
# 
# From -- ./inp_files/351146.got.cif
#   From: 2010.06.25/outbox.cif.g09.slc.cpg/sg12_176_cif.got.tgz:351146.got - 2010.06.28 00:19:55.
