data_PCOD8085654
_publ_section_title
;
Structure prediction by ZEFSAII (Michael W. Deem and Ramdas Pophale) SiO2 
 PCOD8085654
Probable space group: C 2/M
;
_chemical_formula_sum "Si O2"
_cell_formula_units_Z 56
_cell_length_a 5.200606
_cell_length_b 18.872555
_cell_length_c 29.118695
_cell_angle_alpha 90.000000
_cell_angle_beta 76.397151
_cell_angle_gamma 90.000000
_cell_volume 2777.794888
_symmetry_space_group_name_H-M "C 2/M"
_symmetry_group_IT_number 12
_symmetry_cell_setting 'monoclinic'
loop_
_space_group_symop_operation_xyz
x,y,z
-x,y,-z
-x,-y,-z
x,-y,z
1/2+x,1/2+y,z
1/2-x,1/2+y,-z
1/2-x,1/2-y,-z
1/2+x,1/2-y,z
loop_
_atom_site_type_symbol
_atom_site_label
_atom_site_fract_x
_atom_site_fract_y
_atom_site_fract_z
Si Si1 0.066523 0.776001 0.557785
Si Si2 0.289816 0.576659 0.468538
Si Si3 0.187822 0.919292 0.227209
Si Si4 0.122550 0.283954 0.339053
Si Si5 0.991784 0.705942 0.952077
Si Si6 0.695769 0.202234 0.848502
Si Si7 0.891852 0.579631 0.712107
O O1 0.326654 0.730972 0.530506
O O2 0.130490 0.857878 0.567708
O O3 0.918811 0.735388 0.605858
O O4 0.500000 0.574506 0.500000
O O5 0.295432 0.500000 0.442364
O O6 0.000000 0.591784 0.500000
O O7 0.284640 0.865352 0.184753
O O8 0.358942 0.906315 0.265691
O O9 0.879097 0.905653 0.249494
O O10 0.231739 0.000000 0.208061
O O11 0.420295 0.258901 0.314517
O O12 0.088155 0.367641 0.332159
O O13 0.189670 0.772339 0.954235
O O14 0.112561 0.668960 0.901647
O O15 0.000000 0.660405 0.000000
O O16 0.474517 0.256873 0.839563
O O17 0.897170 0.500000 0.691938
#
# Coordination Sequence:
#
# PCOD8085654 Si02
#       7
#     8   8   8   8   8   8   8
#     4  10  21  37  55  82 112 140 174 213 257 299
#     4  10  21  37  58  84 113 145 178 211 251 303
#     4  10  21  35  51  74 104 135 165 208 265 313
#     4  10  21  37  55  79 107 135 172 214 257 300
#     4   8  14  25  41  63  93 126 161 203 247 295
#     4  10  19  30  48  75 100 128 169 211 255 304
#     4  10  21  37  55  74 100 136 173 207 254 314
#
# _framework density 20.159875
#
# number of rings (size 3 to 8) (size 9 to 14) (size 15 to 20)
#    0.000    2.286    0.000    2.571    0.000    5.143 
#    0.000    5.714    0.000    0.429    0.000    0.000 
#    0.000   14.857    0.000    0.000    0.000    2.286 
#
# Total GULP energy -346884.891934 kJ/mol
# GULP energy per Si atom -12388.746140 kJ/mol
# Density = 2.011399 g / cm^3
# Si number density = 20.159875 Si / 1000 Ang^3
#
#
#
# Elastic Constant Matrix: (Units=GPa)
#
#
# Indices 1 2 3 4 5 6 
#
# 1 132.0034 26.1408 7.8340 0.0000 0.7013 0.0000
# 2 26.1408 128.5152 44.3238 0.0000 2.9447 0.0000
# 3 7.8340 44.3238 55.9038 0.0000 2.3261 0.0000
# 4 0.0000 0.0000 0.0000 12.4984 0.0000 -3.1079
# 5 0.7013 2.9447 2.3261 0.0000 16.9326 0.0000
# 6 0.0000 0.0000 0.0000 -3.1079 0.0000 26.7012
#
#
#
# Elastic Compliance Matrix: (Units=1/GPa)
#
#
# Indices 1 2 3 4 5 6 
#
# 1 0.007896 -0.001684 0.000232 0.000000 -0.000066 0.000000
# 2 -0.001684 0.011077 -0.008518 0.000000 -0.000687 0.000000
# 3 0.000232 -0.008518 0.024689 0.000000 -0.001920 0.000000
# 4 0.000000 0.000000 0.000000 0.082395 0.000000 0.009590
# 5 -0.000066 -0.000687 -0.001920 0.000000 0.059444 0.000000
# 6 0.000000 0.000000 0.000000 0.009590 0.000000 0.038568
#
#
# Mechanical properties :
#
#
# Convention : Reuss Voigt Hill
#
# Bulk Modulus (GPa) = 42.15769 52.55772 47.35771
# Shear Modulus (GPa) = 19.84781 27.10135 23.47458
#
# Velocity S-wave (km/s) = 3.14111 3.67048 3.41606
# Velocity P-wave (km/s) = 5.84059 6.64005 6.25311
#
# Compressibility (1/GPa) = 0.02372046
#
# Stress axis : x y z
#
# Youngs Moduli (GPa) = 126.65061 90.27383 40.50384
#
# Poissons Ratio (x) = 0.15207 -0.00939
# Poissons Ratio (y) = 0.21334 0.34502
# Poissons Ratio (z) = -0.02936 0.76897
#
# Static dielectric constant tensor:
#      x y z
#    x 4.433330 0.000000 0.072880 
#    y 0.000000 3.752050 0.000000 
#    z 0.072880 0.000000 3.586020 
# 
# 
# High freq. dielectric constant tensor:
#      x y z
#    x 1.834220 0.000000 0.000040 
#    y 0.000000 1.760190 0.000000 
#    z 0.000040 0.000000 1.766260 
# 
# From -- ./inp_files/371549.got.cif
#   From: 2010.06.25/outbox.cif.g09.slc.cpg/sg12_186_cif.got.tgz:371549.got - 2010.06.28 00:19:55.
