data_PCOD8085274
_publ_section_title
;
Structure prediction by ZEFSAII (Michael W. Deem and Ramdas Pophale) SiO2 
 PCOD8085274
Probable space group: C 2/M
;
_chemical_formula_sum "Si O2"
_cell_formula_units_Z 64
_cell_length_a 24.815997
_cell_length_b 25.253636
_cell_length_c 18.196501
_cell_angle_alpha 90.000000
_cell_angle_beta 20.271793
_cell_angle_gamma 90.000000
_cell_volume 3951.063706
_symmetry_space_group_name_H-M "C 2/M"
_symmetry_group_IT_number 12
_symmetry_cell_setting 'monoclinic'
loop_
_space_group_symop_operation_xyz
x,y,z
-x,y,-z
-x,-y,-z
x,-y,z
1/2+x,1/2+y,z
1/2-x,1/2+y,-z
1/2-x,1/2-y,-z
1/2+x,1/2-y,z
loop_
_atom_site_type_symbol
_atom_site_label
_atom_site_fract_x
_atom_site_fract_y
_atom_site_fract_z
Si Si1 0.821127 0.254613 0.237077
Si Si2 0.116888 0.844176 0.573303
Si Si3 0.739390 0.559758 0.162208
Si Si4 0.265445 0.805982 0.518722
Si Si5 0.679224 0.254632 0.263583
Si Si6 0.383866 0.842312 0.922125
Si Si7 0.072719 0.060163 0.524906
Si Si8 0.731815 0.694861 0.982818
O O1 0.731384 0.305827 0.382222
O O2 0.805726 0.202458 0.308934
O O3 0.748852 0.238084 0.252271
O O4 0.000000 0.270936 0.000000
O O5 0.174239 0.848939 0.585050
O O6 0.115101 0.901798 0.538383
O O7 0.947246 0.819578 0.791595
O O8 0.794342 0.500000 0.076350
O O9 0.699913 0.566732 0.298315
O O10 0.593397 0.574585 0.297477
O O11 0.879234 0.599226 0.963186
O O12 0.250000 0.750000 0.500000
O O13 0.443981 0.820905 0.295362
O O14 0.500000 0.271457 0.500000
O O15 0.697680 0.202314 0.188880
O O16 0.769899 0.304728 0.114540
O O17 0.328949 0.847061 0.907109
O O18 0.073000 0.000000 0.554318
O O19 0.750000 0.750000 0.000000
#
# Coordination Sequence:
#
# PCOD8085274 Si02
#       8
#     8   8   8   8   8   8   8   8
#     4  11  20  32  47  67  97 133 165 194 235 289
#     4  11  19  33  49  68  96 134 164 193 239 287
#     4   9  18  31  49  74 100 126 161 203 239 275
#     4  10  21  34  46  66  99 131 165 196 237 285
#     4  11  20  28  45  70  97 124 164 202 234 282
#     4  11  19  32  49  68  98 136 162 192 241 288
#     4   9  18  31  49  74 100 125 162 206 236 273
#     4  10  19  30  45  68  95 124 164 205 236 278
#
# _framework density 16.198170000000001
#
# number of rings (size 3 to 8) (size 9 to 14) (size 15 to 20)
#    0.000    1.750    1.250    9.000    1.750    0.000 
#    0.000    0.625    0.000    1.875    0.000    0.000 
#    0.000   20.000    0.000    0.000    0.000    0.000 
#
# Total GULP energy -396694.291551 kJ/mol
# GULP energy per Si atom -12396.696611 kJ/mol
# Density = 1.616130 g / cm^3
# Si number density = 16.198170 Si / 1000 Ang^3
#
#
#
# Elastic Constant Matrix: (Units=GPa)
#
#
# Indices 1 2 3 4 5 6 
#
# 1 127.8518 39.5792 39.1258 0.0607 0.9289 -0.0619
# 2 39.5792 75.1361 37.8663 0.1330 8.7480 -0.1484
# 3 39.1258 37.8663 101.8683 0.1984 -16.0544 -0.1771
# 4 0.0607 0.1330 0.1984 15.7465 -0.0760 4.9337
# 5 0.9289 8.7480 -16.0544 -0.0760 25.1061 0.0665
# 6 -0.0619 -0.1484 -0.1771 4.9337 0.0665 30.7527
#
#
#
# Elastic Compliance Matrix: (Units=1/GPa)
#
#
# Indices 1 2 3 4 5 6 
#
# 1 0.009756 -0.003869 -0.002395 0.000028 -0.000544 -0.000016
# 2 -0.003869 0.020964 -0.008268 -0.000148 -0.012450 0.000097
# 3 -0.002395 -0.008268 0.015878 -0.000067 0.013123 0.000029
# 4 0.000028 -0.000148 -0.000067 0.066871 0.000239 -0.010730
# 5 -0.000544 -0.012450 0.013123 0.000239 0.052582 -0.000138
# 6 -0.000016 0.000097 0.000029 -0.010730 -0.000138 0.034240
#
#
# Mechanical properties :
#
#
# Convention : Reuss Voigt Hill
#
# Bulk Modulus (GPa) = 57.03139 59.77764 58.40452
# Shear Modulus (GPa) = 21.25848 26.87340 24.06594
#
# Velocity S-wave (km/s) = 3.62664 4.07755 3.85868
# Velocity P-wave (km/s) = 7.26785 7.69107 7.48245
#
# Compressibility (1/GPa) = 0.01753420
#
# Stress axis : x y z
#
# Youngs Moduli (GPa) = 102.50008 47.70027 62.97926
#
# Poissons Ratio (x) = 0.18455 0.15082
# Poissons Ratio (y) = 0.39658 0.52074
# Poissons Ratio (z) = 0.24547 0.39440
#
# Static dielectric constant tensor:
#      x y z
#    x 3.781640 -0.000170 0.091600 
#    y -0.000170 2.898520 -0.000320 
#    z 0.091600 -0.000320 3.090650 
# 
# 
# High freq. dielectric constant tensor:
#      x y z
#    x 1.634330 -0.000010 -0.006830 
#    y -0.000010 1.586840 0.000020 
#    z -0.006830 0.000020 1.617190 
# 
# From -- ./inp_files/66962.got.cif
#   From: 2010.06.25/outbox.cif.g09.slc.cpg/sg12_34_cif.got.tgz:66962.got - 2010.06.28 00:19:55.
