data_PCOD8085582
_publ_section_title
;
Structure prediction by ZEFSAII (Michael W. Deem and Ramdas Pophale) SiO2 
 PCOD8085582
Probable space group: C 2/M
;
_chemical_formula_sum "Si O2"
_cell_formula_units_Z 56
_cell_length_a 23.295829
_cell_length_b 11.019348
_cell_length_c 25.774758
_cell_angle_alpha 90.000000
_cell_angle_beta 26.369895
_cell_angle_gamma 90.000000
_cell_volume 2938.816655
_symmetry_space_group_name_H-M "C 2/M"
_symmetry_group_IT_number 12
_symmetry_cell_setting 'monoclinic'
loop_
_space_group_symop_operation_xyz
x,y,z
-x,y,-z
-x,-y,-z
x,-y,z
1/2+x,1/2+y,z
1/2-x,1/2+y,-z
1/2-x,1/2-y,-z
1/2+x,1/2-y,z
loop_
_atom_site_type_symbol
_atom_site_label
_atom_site_fract_x
_atom_site_fract_y
_atom_site_fract_z
Si Si1 0.653098 0.279792 0.648839
Si Si2 0.413697 0.367553 0.184784
Si Si3 0.187967 0.800716 0.973196
Si Si4 0.116123 0.361890 0.865619
Si Si5 0.603100 0.363079 0.577971
Si Si6 0.315340 0.636722 0.789046
Si Si7 0.412177 0.131447 0.856347
O O1 0.635091 0.352646 0.716728
O O2 0.623038 0.365759 0.624056
O O3 0.797606 0.227540 0.530078
O O4 0.554679 0.167777 0.722779
O O5 0.358366 0.500000 0.209606
O O6 0.377117 0.245631 0.182553
O O7 0.568349 0.386703 0.056061
O O8 0.216258 0.713809 0.902727
O O9 0.316386 0.874396 0.884304
O O10 0.141444 0.723823 0.059335
O O11 0.097777 0.500000 0.857040
O O12 0.257364 0.357245 0.778095
O O13 0.000000 0.336581 0.000000
O O14 0.622789 0.500000 0.541464
O O15 0.461683 0.314462 0.675045
O O16 0.313636 0.500000 0.812336
O O17 0.420081 0.000000 0.875856
#
# Coordination Sequence:
#
# PCOD8085582 Si02
#       7
#     8   8   8   8   8   8   8
#     4  10  21  36  56  82 114 149 191 230 286 341
#     4  11  23  38  59  86 120 154 190 235 291 350
#     4  10  19  32  49  80 113 148 185 227 285 342
#     4  10  21  38  60  85 115 151 196 240 284 339
#     4  10  20  36  59  83 111 148 193 240 285 337
#     4  10  19  35  57  81 111 148 190 238 288 336
#     4  10  19  30  47  76 114 149 185 227 278 341
#
# _framework density 19.055288999999998
#
# number of rings (size 3 to 8) (size 9 to 14) (size 15 to 20)
#    0.000    1.857    2.857    1.714    0.000    3.143 
#    0.000    0.714    0.000    3.429    0.000    0.000 
#    0.000    0.000    0.000    0.000    0.000    0.000 
#
# Total GULP energy -346939.799341 kJ/mol
# GULP energy per Si atom -12390.707119 kJ/mol
# Density = 1.901192 g / cm^3
# Si number density = 19.055289 Si / 1000 Ang^3
#
#
#
# Elastic Constant Matrix: (Units=GPa)
#
#
# Indices 1 2 3 4 5 6 
#
# 1 72.1925 33.9721 37.3233 0.0002 -9.5103 0.0000
# 2 33.9721 103.9669 34.3766 0.0002 0.4072 0.0000
# 3 37.3233 34.3766 96.1648 0.0000 -9.1530 0.0001
# 4 0.0002 0.0002 0.0000 18.2028 0.0001 2.3567
# 5 -9.5103 0.4072 -9.1530 0.0001 24.0577 0.0000
# 6 0.0000 0.0000 0.0001 2.3567 0.0000 27.8387
#
#
#
# Elastic Compliance Matrix: (Units=1/GPa)
#
#
# Indices 1 2 3 4 5 6 
#
# 1 0.019583 -0.004638 -0.005393 0.000000 0.005768 0.000000
# 2 -0.004638 0.012076 -0.002813 0.000000 -0.003108 0.000000
# 3 -0.005393 -0.002813 0.013799 0.000000 0.003165 0.000000
# 4 0.000000 0.000000 0.000000 0.055545 0.000000 -0.004702
# 5 0.005768 -0.003108 0.003165 0.000000 0.045104 0.000000
# 6 0.000000 0.000000 0.000000 -0.004702 0.000000 0.036319
#
#
# Mechanical properties :
#
#
# Convention : Reuss Voigt Hill
#
# Bulk Modulus (GPa) = 50.58319 53.74090 52.16204
# Shear Modulus (GPa) = 23.28789 25.12999 24.20894
#
# Velocity S-wave (km/s) = 3.49968 3.63546 3.56822
# Velocity P-wave (km/s) = 6.55236 6.77392 6.66406
#
# Compressibility (1/GPa) = 0.01976941
#
# Stress axis : x y z
#
# Youngs Moduli (GPa) = 51.06575 82.80794 72.46989
#
# Poissons Ratio (x) = 0.38407 0.39086
# Poissons Ratio (y) = 0.23685 0.20383
# Poissons Ratio (z) = 0.27542 0.23291
#
# Static dielectric constant tensor:
#      x y z
#    x 3.504530 0.000000 -0.298980 
#    y 0.000000 3.452650 0.000000 
#    z -0.298980 0.000000 3.512900 
# 
# 
# High freq. dielectric constant tensor:
#      x y z
#    x 1.725290 0.000000 -0.015410 
#    y 0.000000 1.741650 0.000000 
#    z -0.015410 0.000000 1.730470 
# 
# From -- ./inp_files/346991.got.cif
#   From: 2010.06.25/outbox.cif.g09.slc.cpg/sg12_174_cif.got.tgz:346991.got - 2010.06.28 00:19:55.
