data_PCOD8085649
_publ_section_title
;
Structure prediction by ZEFSAII (Michael W. Deem and Ramdas Pophale) SiO2 
 PCOD8085649
Probable space group: C 2/M
;
_chemical_formula_sum "Si O2"
_cell_formula_units_Z 64
_cell_length_a 30.213375
_cell_length_b 8.711894
_cell_length_c 15.030750
_cell_angle_alpha 90.000000
_cell_angle_beta 77.851259
_cell_angle_gamma 90.000000
_cell_volume 3867.725954
_symmetry_space_group_name_H-M "C 2/M"
_symmetry_group_IT_number 12
_symmetry_cell_setting 'monoclinic'
loop_
_space_group_symop_operation_xyz
x,y,z
-x,y,-z
-x,-y,-z
x,-y,z
1/2+x,1/2+y,z
1/2-x,1/2+y,-z
1/2-x,1/2-y,-z
1/2+x,1/2-y,z
loop_
_atom_site_type_symbol
_atom_site_label
_atom_site_fract_x
_atom_site_fract_y
_atom_site_fract_z
Si Si1 0.185442 0.323533 0.593672
Si Si2 0.542978 0.819309 0.878774
Si Si3 0.792066 0.321628 0.798804
Si Si4 0.549645 0.681129 0.067559
Si Si5 0.647368 0.680652 0.081942
Si Si6 0.807735 0.817367 0.116043
Si Si7 0.874660 0.819901 0.242598
Si Si8 0.722972 0.176495 0.392684
O O1 0.174527 0.500000 0.618131
O O2 0.145790 0.220442 0.652294
O O3 0.233569 0.283954 0.616961
O O4 0.187389 0.290240 0.486871
O O5 0.492472 0.770017 0.870206
O O6 0.578012 0.769550 0.787718
O O7 0.544501 0.000000 0.895285
O O8 0.556201 0.729369 0.962597
O O9 0.794225 0.500000 0.820679
O O10 0.831596 0.239180 0.835691
O O11 0.742982 0.254373 0.847264
O O12 0.801241 0.289463 0.690762
O O13 0.540897 0.500000 0.075025
O O14 0.594778 0.729266 0.101607
O O15 0.651857 0.500000 0.075553
O O16 0.673928 0.749433 0.985206
O O17 0.839932 0.759297 0.181949
O O18 0.807656 0.000000 0.117725
O O19 0.883721 0.000000 0.231515
O O20 0.740075 0.000000 0.389083
#
# Coordination Sequence:
#
# PCOD8085649 Si02
#       8
#     8   8   8   8   8   8   8   8
#     4  10  19  30  48  74  98 123 163 210 247 285
#     4  11  21  32  49  75 101 122 160 210 247 284
#     4  10  19  32  49  68  94 134 172 201 239 286
#     4  10  19  34  52  69  95 134 167 195 246 300
#     4  10  20  33  48  69  96 130 170 207 237 278
#     4   9  17  31  47  65  94 132 169 196 228 281
#     4  11  19  33  52  70  98 135 166 194 244 306
#     4   9  18  33  49  67  97 133 164 199 248 298
#
# _framework density 16.547190000000001
#
# number of rings (size 3 to 8) (size 9 to 14) (size 15 to 20)
#    0.000    2.000    2.500    3.375    0.000    2.000 
#    0.000    0.000    0.000    0.000    0.000    0.875 
#    0.000    7.000    0.000    0.000    0.000    0.000 
#
# Total GULP energy -396827.442335 kJ/mol
# GULP energy per Si atom -12400.857573 kJ/mol
# Density = 1.650953 g / cm^3
# Si number density = 16.547190 Si / 1000 Ang^3
#
#
#
# Elastic Constant Matrix: (Units=GPa)
#
#
# Indices 1 2 3 4 5 6 
#
# 1 113.2521 28.2333 56.1150 0.0000 -4.0781 0.0000
# 2 28.2333 30.9754 15.3829 0.0000 -2.4497 0.0000
# 3 56.1150 15.3829 98.7315 0.0000 -4.0896 0.0000
# 4 0.0000 0.0000 0.0000 24.4793 0.0000 -1.7167
# 5 -4.0781 -2.4497 -4.0896 0.0000 22.7032 0.0000
# 6 0.0000 0.0000 0.0000 -1.7167 0.0000 25.2097
#
#
#
# Elastic Compliance Matrix: (Units=1/GPa)
#
#
# Indices 1 2 3 4 5 6 
#
# 1 0.014694 -0.010000 -0.006779 0.000000 0.000339 0.000000
# 2 -0.010000 0.041976 -0.000749 0.000000 0.002598 0.000000
# 3 -0.006779 -0.000749 0.014150 0.000000 0.001250 0.000000
# 4 0.000000 0.000000 0.000000 0.041047 0.000000 0.002795
# 5 0.000339 0.002598 0.001250 0.000000 0.044613 0.000000
# 6 0.000000 0.000000 0.000000 0.002795 0.000000 0.039858
#
#
# Mechanical properties :
#
#
# Convention : Reuss Voigt Hill
#
# Bulk Modulus (GPa) = 27.96146 49.15794 38.55970
# Shear Modulus (GPa) = 20.54950 24.02695 22.28823
#
# Velocity S-wave (km/s) = 3.52784 3.81468 3.67406
# Velocity P-wave (km/s) = 5.79042 7.01246 6.43053
#
# Compressibility (1/GPa) = 0.03576351
#
# Stress axis : x y z
#
# Youngs Moduli (GPa) = 68.05454 23.82342 70.67068
#
# Poissons Ratio (x) = 0.23823 0.47911
# Poissons Ratio (y) = 0.68052 0.05293
# Poissons Ratio (z) = 0.46137 0.01784
#
# Static dielectric constant tensor:
#      x y z
#    x 3.123570 0.000000 -0.132530 
#    y 0.000000 3.004320 0.000000 
#    z -0.132530 0.000000 3.129120 
# 
# 
# High freq. dielectric constant tensor:
#      x y z
#    x 1.619970 0.000000 -0.013910 
#    y 0.000000 1.633980 0.000000 
#    z -0.013910 0.000000 1.622920 
# 
# From -- ./inp_files/248268.got.cif
#   From: 2010.06.25/outbox.cif.g09.slc.cpg/sg12_125_cif.got.tgz:248268.got - 2010.06.28 00:19:55.
