data_PCOD8085853
_publ_section_title
;
Structure prediction by ZEFSAII (Michael W. Deem and Ramdas Pophale) SiO2 
 PCOD8085853
Probable space group: C 2/M
;
_chemical_formula_sum "Si O2"
_cell_formula_units_Z 64
_cell_length_a 24.550979
_cell_length_b 9.355098
_cell_length_c 16.578550
_cell_angle_alpha 90.000000
_cell_angle_beta 104.034956
_cell_angle_gamma 90.000000
_cell_volume 3694.040647
_symmetry_space_group_name_H-M "C 2/M"
_symmetry_group_IT_number 12
_symmetry_cell_setting 'monoclinic'
loop_
_space_group_symop_operation_xyz
x,y,z
-x,y,-z
-x,-y,-z
x,-y,z
1/2+x,1/2+y,z
1/2-x,1/2+y,-z
1/2-x,1/2-y,-z
1/2+x,1/2-y,z
loop_
_atom_site_type_symbol
_atom_site_label
_atom_site_fract_x
_atom_site_fract_y
_atom_site_fract_z
Si Si1 0.304912 0.161075 0.016305
Si Si2 0.086817 0.161706 0.512324
Si Si3 0.581236 0.831102 0.670775
Si Si4 0.309963 0.166246 0.193503
Si Si5 0.307179 0.831967 0.841692
Si Si6 0.196987 0.162448 0.454989
Si Si7 0.977903 0.164720 0.674028
Si Si8 0.632838 0.667924 0.273850
O O1 0.337052 0.189249 0.112687
O O2 0.283915 0.000000 0.005760
O O3 0.250000 0.250000 0.000000
O O4 0.334837 0.194663 0.941194
O O5 0.074835 0.273130 0.578292
O O6 0.150428 0.180431 0.506692
O O7 0.045293 0.194855 0.423872
O O8 0.076811 0.000000 0.540263
O O9 0.641896 0.785644 0.727241
O O10 0.532364 0.762573 0.708537
O O11 0.573620 0.000000 0.668537
O O12 0.254437 0.260534 0.188503
O O13 0.293711 0.000000 0.200751
O O14 0.351544 0.759987 0.798142
O O15 0.301255 0.000000 0.819969
O O16 0.250000 0.250000 0.500000
O O17 0.173914 0.215874 0.360810
O O18 0.216129 0.000000 0.453581
O O19 0.930977 0.203646 0.723659
O O20 0.995182 0.000000 0.689042
O O21 0.639429 0.500000 0.258108
#
# Coordination Sequence:
#
# PCOD8085853 Si02
#       8
#     8   8   8   8   8   8   8   8
#     4   8  15  30  49  69  97 130 160 192 236 291
#     4   9  19  35  51  68  93 129 168 201 241 291
#     4  11  22  32  49  76 100 125 162 208 248 285
#     4   9  19  34  49  70 104 137 158 189 247 303
#     4  10  19  30  51  80 101 123 163 206 238 283
#     4   9  19  33  48  67  95 130 163 196 237 287
#     4   9  19  37  55  68  91 132 172 202 241 290
#     4   9  19  35  52  70  96 131 165 196 242 299
#
# _framework density 17.325202000000001
#
# number of rings (size 3 to 8) (size 9 to 14) (size 15 to 20)
#    0.000    2.750    0.000    2.625    1.750    5.000 
#    0.000    2.500    0.000    0.750    0.000    5.250 
#    0.000    0.000    0.000    0.000    0.000    0.000 
#
# Total GULP energy -396545.890919 kJ/mol
# GULP energy per Si atom -12392.059091 kJ/mol
# Density = 1.728577 g / cm^3
# Si number density = 17.325202 Si / 1000 Ang^3
#
#
#
# Elastic Constant Matrix: (Units=GPa)
#
#
# Indices 1 2 3 4 5 6 
#
# 1 71.0486 41.1495 38.2021 0.0000 -12.7241 0.0000
# 2 41.1495 68.5426 37.5143 0.0000 -11.0493 0.0000
# 3 38.2021 37.5143 68.0207 0.0000 -23.2993 0.0000
# 4 0.0000 0.0000 0.0000 25.7479 0.0000 -3.9619
# 5 -12.7241 -11.0493 -23.2993 0.0000 23.7935 0.0000
# 6 0.0000 0.0000 0.0000 -3.9619 0.0000 32.8576
#
#
#
# Elastic Compliance Matrix: (Units=1/GPa)
#
#
# Indices 1 2 3 4 5 6 
#
# 1 0.024297 -0.010219 -0.007802 0.000000 0.000608 0.000000
# 2 -0.010219 0.025285 -0.009112 0.000000 -0.002646 0.000000
# 3 -0.007802 -0.009112 0.031945 0.000000 0.022878 0.000000
# 4 0.000000 0.000000 0.000000 0.039572 0.000000 0.004772
# 5 0.000608 -0.002646 0.022878 0.000000 0.063527 0.000000
# 6 0.000000 0.000000 0.000000 0.004772 0.000000 0.031010
#
#
# Mechanical properties :
#
#
# Convention : Reuss Voigt Hill
#
# Bulk Modulus (GPa) = 36.68138 49.03818 42.85978
# Shear Modulus (GPa) = 17.92186 22.52953 20.22569
#
# Velocity S-wave (km/s) = 3.21976 3.61000 3.42045
# Velocity P-wave (km/s) = 5.91952 6.76330 6.35542
#
# Compressibility (1/GPa) = 0.02726179
#
# Stress axis : x y z
#
# Youngs Moduli (GPa) = 41.15705 39.54918 31.30395
#
# Poissons Ratio (x) = 0.40414 0.24423
# Poissons Ratio (y) = 0.42057 0.28525
# Poissons Ratio (z) = 0.32110 0.36038
#
# Static dielectric constant tensor:
#      x y z
#    x 3.205780 0.000000 -0.293510 
#    y 0.000000 3.200950 0.000000 
#    z -0.293510 0.000000 4.165310 
# 
# 
# High freq. dielectric constant tensor:
#      x y z
#    x 1.655200 0.000000 -0.013580 
#    y 0.000000 1.671270 0.000000 
#    z -0.013580 0.000000 1.663460 
# 
# From -- ./inp_files/244217.got.cif
#   From: 2010.06.25/outbox.cif.g09.slc.cpg/sg12_123_cif.got.tgz:244217.got - 2010.06.28 00:19:55.
