data_PCOD8085851
_publ_section_title
;
Structure prediction by ZEFSAII (Michael W. Deem and Ramdas Pophale) SiO2 
 PCOD8085851
Probable space group: C 2/M
;
_chemical_formula_sum "Si O2"
_cell_formula_units_Z 64
_cell_length_a 24.429696
_cell_length_b 9.277064
_cell_length_c 16.794004
_cell_angle_alpha 90.000000
_cell_angle_beta 113.285563
_cell_angle_gamma 90.000000
_cell_volume 3496.099522
_symmetry_space_group_name_H-M "C 2/M"
_symmetry_group_IT_number 12
_symmetry_cell_setting 'monoclinic'
loop_
_space_group_symop_operation_xyz
x,y,z
-x,y,-z
-x,-y,-z
x,-y,z
1/2+x,1/2+y,z
1/2-x,1/2+y,-z
1/2-x,1/2-y,-z
1/2+x,1/2-y,z
loop_
_atom_site_type_symbol
_atom_site_label
_atom_site_fract_x
_atom_site_fract_y
_atom_site_fract_z
Si Si1 0.892963 0.830517 0.125910
Si Si2 0.202516 0.166962 0.365679
Si Si3 0.040069 0.668655 0.453355
Si Si4 0.266076 0.337302 0.085152
Si Si5 0.639821 0.834299 0.051798
Si Si6 0.994337 0.670746 0.741287
Si Si7 0.671262 0.834609 0.503661
Si Si8 0.884302 0.667489 0.787448
O O1 0.834362 0.798452 0.148515
O O2 0.946128 0.749903 0.199110
O O3 0.907080 0.000000 0.127542
O O4 0.883298 0.769654 0.031040
O O5 0.274101 0.190910 0.404184
O O6 0.176021 0.231989 0.430957
O O7 0.173638 0.244694 0.273721
O O8 0.185758 0.000000 0.353563
O O9 0.027391 0.500000 0.444884
O O10 0.022809 0.728375 0.356338
O O11 0.109382 0.701671 0.512526
O O12 0.000000 0.741262 0.500000
O O13 0.267293 0.500000 0.056635
O O14 0.211012 0.311802 0.114449
O O15 0.250000 0.250000 0.000000
O O16 0.604442 0.799470 0.112756
O O17 0.628481 0.000000 0.018833
O O18 0.004680 0.500000 0.749631
O O19 0.942227 0.716812 0.771987
O O20 0.670792 0.000000 0.472300
O O21 0.870597 0.500000 0.765410
#
# Coordination Sequence:
#
# PCOD8085851 Si02
#       8
#     8   8   8   8   8   8   8   8
#     4  10  20  34  53  77 108 139 169 212 262 306
#     4  10  19  30  51  79 105 133 167 212 262 312
#     4   9  17  33  57  78 100 134 177 219 253 296
#     4   8  15  30  51  72  95 127 164 205 252 298
#     4   9  18  34  56  78 101 136 180 216 252 306
#     4  10  20  35  54  75 100 137 179 214 253 307
#     4   9  17  33  54  76 102 133 172 213 257 310
#     4  10  20  35  54  75 104 140 176 217 259 303
#
# _framework density 18.306115999999999
#
# number of rings (size 3 to 8) (size 9 to 14) (size 15 to 20)
#    0.000    2.625    1.250    0.750    0.000    2.500 
#    2.250    2.500    0.000    1.500    0.000    0.000 
#    0.000    0.000    0.000    0.000    0.000    0.000 
#
# Total GULP energy -396509.162949 kJ/mol
# GULP energy per Si atom -12390.911342 kJ/mol
# Density = 1.826445 g / cm^3
# Si number density = 18.306116 Si / 1000 Ang^3
#
#
#
# Elastic Constant Matrix: (Units=GPa)
#
#
# Indices 1 2 3 4 5 6 
#
# 1 130.7950 29.3306 54.5694 0.0000 6.8714 0.0000
# 2 29.3306 48.2979 27.2377 0.0000 10.8650 0.0000
# 3 54.5694 27.2377 72.8541 0.0000 13.6756 0.0000
# 4 0.0000 0.0000 0.0000 29.1238 0.0000 7.5891
# 5 6.8714 10.8650 13.6756 0.0000 30.9597 0.0000
# 6 0.0000 0.0000 0.0000 7.5891 0.0000 21.1182
#
#
#
# Elastic Compliance Matrix: (Units=1/GPa)
#
#
# Indices 1 2 3 4 5 6 
#
# 1 0.011492 -0.002989 -0.007860 0.000000 0.001970 0.000000
# 2 -0.002989 0.027842 -0.007044 0.000000 -0.005996 0.000000
# 3 -0.007860 -0.007044 0.023395 0.000000 -0.006118 0.000000
# 4 0.000000 0.000000 0.000000 0.037884 0.000000 -0.013614
# 5 0.001970 -0.005996 -0.006118 0.000000 0.036669 0.000000
# 6 0.000000 0.000000 0.000000 -0.013614 0.000000 0.052245
#
#
# Mechanical properties :
#
#
# Convention : Reuss Voigt Hill
#
# Bulk Modulus (GPa) = 37.11767 52.69139 44.90453
# Shear Modulus (GPa) = 21.34072 25.62763 23.48417
#
# Velocity S-wave (km/s) = 3.41804 3.74565 3.58559
# Velocity P-wave (km/s) = 5.99145 6.89583 6.45949
#
# Compressibility (1/GPa) = 0.02694135
#
# Stress axis : x y z
#
# Youngs Moduli (GPa) = 87.02032 35.91722 42.74391
#
# Poissons Ratio (x) = 0.10737 0.33595
# Poissons Ratio (y) = 0.26014 0.30111
# Poissons Ratio (z) = 0.68395 0.25302
#
# Static dielectric constant tensor:
#      x y z
#    x 4.108340 0.000000 0.095240 
#    y 0.000000 3.281370 0.000000 
#    z 0.095240 0.000000 3.216430 
# 
# 
# High freq. dielectric constant tensor:
#      x y z
#    x 1.718110 0.000000 0.015030 
#    y 0.000000 1.696660 0.000000 
#    z 0.015030 0.000000 1.689600 
# 
# From -- ./inp_files/323729.got.cif
#   From: 2010.06.25/outbox.cif.g09.slc.cpg/sg12_162_cif.got.tgz:323729.got - 2010.06.28 00:19:55.
