data_PCOD8085323
_publ_section_title
;
Structure prediction by ZEFSAII (Michael W. Deem and Ramdas Pophale) SiO2 
 PCOD8085323
Probable space group: C 2/M
;
_chemical_formula_sum "Si O2"
_cell_formula_units_Z 64
_cell_length_a 24.318590
_cell_length_b 8.962390
_cell_length_c 22.001803
_cell_angle_alpha 90.000000
_cell_angle_beta 46.450156
_cell_angle_gamma 90.000000
_cell_volume 3475.552605
_symmetry_space_group_name_H-M "C 2/M"
_symmetry_group_IT_number 12
_symmetry_cell_setting 'monoclinic'
loop_
_space_group_symop_operation_xyz
x,y,z
-x,y,-z
-x,-y,-z
x,-y,z
1/2+x,1/2+y,z
1/2-x,1/2+y,-z
1/2-x,1/2-y,-z
1/2+x,1/2-y,z
loop_
_atom_site_type_symbol
_atom_site_label
_atom_site_fract_x
_atom_site_fract_y
_atom_site_fract_z
Si Si1 0.617527 0.177345 0.921845
Si Si2 0.486679 0.822650 0.106246
Si Si3 0.717197 0.677776 0.227354
Si Si4 0.469640 0.177090 0.255320
Si Si5 0.301337 0.175803 0.409764
Si Si6 0.039583 0.822697 0.529916
Si Si7 0.703072 0.676521 0.374172
Si Si8 0.063772 0.822725 0.282798
O O1 0.580136 0.235693 0.887314
O O2 0.703813 0.236648 0.861728
O O3 0.617407 0.000000 0.919918
O O4 0.567888 0.232158 0.017280
O O5 0.474560 0.758910 0.182981
O O6 0.484339 0.000000 0.110204
O O7 0.715291 0.500000 0.232185
O O8 0.711127 0.744275 0.300386
O O9 0.647598 0.733203 0.238528
O O10 0.389196 0.226196 0.346473
O O11 0.540003 0.248512 0.237581
O O12 0.477786 0.000000 0.249736
O O13 0.250000 0.250000 0.500000
O O14 0.272187 0.224702 0.364974
O O15 0.292788 0.000000 0.424513
O O16 0.125997 0.765310 0.464800
O O17 0.000000 0.757575 0.500000
O O18 0.995814 0.762177 0.622012
O O19 0.034323 0.000000 0.533392
O O20 0.699121 0.500000 0.370532
O O21 0.061310 0.000000 0.277875
#
# Coordination Sequence:
#
# PCOD8085323 Si02
#       8
#     8   8   8   8   8   8   8   8
#     4   8  13  23  43  69  94 115 145 194 241 274
#     4   8  14  26  44  67  93 122 151 183 231 284
#     4   9  15  24  41  68  93 111 145 200 243 264
#     4  10  20  33  47  65  95 130 157 180 220 280
#     4  10  20  32  47  68  93 121 152 187 227 271
#     4   9  14  23  39  62  88 112 141 181 227 266
#     4   9  15  24  41  64  88 112 143 187 234 271
#     4  10  19  30  46  68  93 122 157 195 230 267
#
# _framework density 18.414337
#
# number of rings (size 3 to 8) (size 9 to 14) (size 15 to 20)
#    0.000    2.875    1.250    2.250    0.000    4.500 
#    0.000    0.625    0.000    1.125    0.000    2.625 
#    0.000    0.000    0.000    0.000    0.000    0.000 
#
# Total GULP energy -396590.352291 kJ/mol
# GULP energy per Si atom -12393.448509 kJ/mol
# Density = 1.837243 g / cm^3
# Si number density = 18.414337 Si / 1000 Ang^3
#
#
#
# Elastic Constant Matrix: (Units=GPa)
#
#
# Indices 1 2 3 4 5 6 
#
# 1 143.2935 19.9258 74.0097 -0.0006 -8.2243 -0.0001
# 2 19.9258 10.7981 16.7012 -0.0028 0.8436 0.0010
# 3 74.0097 16.7012 136.2919 -0.0020 -7.7157 0.0011
# 4 -0.0006 -0.0028 -0.0020 9.5978 0.0013 1.9286
# 5 -8.2243 0.8436 -7.7157 0.0013 36.9134 -0.0004
# 6 -0.0001 0.0010 0.0011 1.9286 -0.0004 19.9169
#
#
#
# Elastic Compliance Matrix: (Units=1/GPa)
#
#
# Indices 1 2 3 4 5 6 
#
# 1 0.011293 -0.014409 -0.004256 -0.000005 0.001956 0.000002
# 2 -0.014409 0.133807 -0.009034 0.000039 -0.008157 -0.000010
# 3 -0.004256 -0.009034 0.010842 -0.000001 0.001524 0.000000
# 4 -0.000005 0.000039 -0.000001 0.106258 -0.000006 -0.010289
# 5 0.001956 -0.008157 0.001524 -0.000006 0.028031 0.000001
# 6 0.000002 -0.000010 0.000000 -0.010289 0.000001 0.051205
#
#
# Mechanical properties :
#
#
# Convention : Reuss Voigt Hill
#
# Bulk Modulus (GPa) = 9.94589 56.85076 33.39833
# Shear Modulus (GPa) = 11.61850 25.26873 18.44362
#
# Velocity S-wave (km/s) = 2.51459 3.70838 3.16822
# Velocity P-wave (km/s) = 3.72073 7.01970 5.61783
#
# Compressibility (1/GPa) = 0.10054403
#
# Stress axis : x y z
#
# Youngs Moduli (GPa) = 88.55329 7.47343 92.23776
#
# Poissons Ratio (x) = 0.10768 0.39255
# Poissons Ratio (y) = 1.27594 0.83329
# Poissons Ratio (z) = 0.37687 0.06752
#
# Static dielectric constant tensor:
#      x y z
#    x 3.599090 0.000000 -0.099750 
#    y 0.000000 2.648960 0.000000 
#    z -0.099750 0.000000 3.669410 
# 
# 
# High freq. dielectric constant tensor:
#      x y z
#    x 1.722530 0.000000 -0.005770 
#    y 0.000000 1.634810 0.000000 
#    z -0.005770 0.000000 1.719320 
# 
# From -- ./inp_files/320951.got.cif
#   From: 2010.06.25/outbox.cif.g09.slc.cpg/sg12_161_cif.got.tgz:320951.got - 2010.06.28 00:19:55.
