data_PCOD8085221
_publ_section_title
;
Structure prediction by ZEFSAII (Michael W. Deem and Ramdas Pophale) SiO2 
 PCOD8085221
Probable space group: C 2/M
;
_chemical_formula_sum "Si O2"
_cell_formula_units_Z 56
_cell_length_a 27.045304
_cell_length_b 15.056233
_cell_length_c 9.719628
_cell_angle_alpha 90.000000
_cell_angle_beta 59.737790
_cell_angle_gamma 90.000000
_cell_volume 3418.494625
_symmetry_space_group_name_H-M "C 2/M"
_symmetry_group_IT_number 12
_symmetry_cell_setting 'monoclinic'
loop_
_space_group_symop_operation_xyz
x,y,z
-x,y,-z
-x,-y,-z
x,-y,z
1/2+x,1/2+y,z
1/2-x,1/2+y,-z
1/2-x,1/2-y,-z
1/2+x,1/2-y,z
loop_
_atom_site_type_symbol
_atom_site_label
_atom_site_fract_x
_atom_site_fract_y
_atom_site_fract_z
Si Si1 0.953896 0.398802 0.165745
Si Si2 0.361609 0.214668 0.847398
Si Si3 0.718764 0.829169 0.279596
Si Si4 0.170057 0.401683 0.627355
Si Si5 0.807721 0.097986 0.944421
Si Si6 0.772868 0.645772 0.181283
Si Si7 0.970183 0.599780 0.683925
O O1 0.946614 0.500000 0.122703
O O2 0.890729 0.352157 0.253618
O O3 0.977947 0.392577 0.284046
O O4 0.000000 0.350638 0.000000
O O5 0.337988 0.185441 0.731734
O O6 0.426007 0.180035 0.771240
O O7 0.354549 0.321975 0.877334
O O8 0.328323 0.162765 0.011928
O O9 0.703726 0.863758 0.450693
O O10 0.763245 0.890482 0.132879
O O11 0.748536 0.737254 0.269927
O O12 0.152948 0.500000 0.605284
O O13 0.210126 0.407472 0.705817
O O14 0.836793 0.000000 0.919848
O O15 0.773962 0.096270 0.846581
O O16 0.942117 0.500000 0.730707
O O17 0.000000 0.617380 0.500000
#
# Coordination Sequence:
#
# PCOD8085221 Si02
#       7
#     8   8   8   8   8   8   8
#     4   9  18  29  39  57  86 115 144 176 208 252
#     4   9  18  31  47  65  87 120 153 182 222 267
#     4   9  18  30  43  64  91 115 146 185 221 263
#     4  11  19  27  43  65  89 119 149 178 217 261
#     4   9  17  31  48  66  89 116 149 187 224 265
#     4   9  18  30  44  64  91 120 147 177 218 269
#     4  10  19  30  45  65  89 116 146 181 219 260
#
# _framework density 16.38148
#
# number of rings (size 3 to 8) (size 9 to 14) (size 15 to 20)
#    0.000    2.571    0.000    4.714    0.000    5.714 
#    0.000    0.000    0.000    0.429    0.000    0.000 
#    0.000   15.429    0.000    0.000    0.000    0.000 
#
# Total GULP energy -346896.170271 kJ/mol
# GULP energy per Si atom -12389.148938 kJ/mol
# Density = 1.634419 g / cm^3
# Si number density = 16.381480 Si / 1000 Ang^3
#
#
#
# Elastic Constant Matrix: (Units=GPa)
#
#
# Indices 1 2 3 4 5 6 
#
# 1 49.7013 12.2024 26.5785 0.0000 -6.8746 0.0000
# 2 12.2024 75.3911 17.9933 0.0000 -9.2573 0.0000
# 3 26.5785 17.9933 103.0703 0.0000 7.0584 0.0000
# 4 0.0000 0.0000 0.0000 25.0783 0.0000 9.3596
# 5 -6.8746 -9.2573 7.0584 0.0000 22.2371 0.0000
# 6 0.0000 0.0000 0.0000 9.3596 0.0000 37.2874
#
#
#
# Elastic Compliance Matrix: (Units=1/GPa)
#
#
# Indices 1 2 3 4 5 6 
#
# 1 0.025508 -0.001279 -0.007010 0.000000 0.009578 0.000000
# 2 -0.001279 0.014947 -0.002738 0.000000 0.006696 0.000000
# 3 -0.007010 -0.002738 0.012486 0.000000 -0.007270 0.000000
# 4 0.000000 0.000000 0.000000 0.043997 0.000000 -0.011044
# 5 0.009578 0.006696 -0.007270 0.000000 0.053026 0.000000
# 6 0.000000 0.000000 0.000000 -0.011044 0.000000 0.029591
#
#
# Mechanical properties :
#
#
# Convention : Reuss Voigt Hill
#
# Bulk Modulus (GPa) = 32.37778 37.96790 35.17284
# Shear Modulus (GPa) = 23.59550 28.34645 25.97098
#
# Velocity S-wave (km/s) = 3.79935 4.16432 3.98601
# Velocity P-wave (km/s) = 6.24936 6.80806 6.53468
#
# Compressibility (1/GPa) = 0.03088538
#
# Stress axis : x y z
#
# Youngs Moduli (GPa) = 39.20340 66.90349 80.09171
#
# Poissons Ratio (x) = 0.08559 0.56147
# Poissons Ratio (y) = 0.05016 0.21929
# Poissons Ratio (z) = 0.27483 0.18318
#
# Static dielectric constant tensor:
#      x y z
#    x 2.703490 0.000000 0.104350 
#    y 0.000000 2.944280 0.000000 
#    z 0.104350 0.000000 3.116760 
# 
# 
# High freq. dielectric constant tensor:
#      x y z
#    x 1.613550 0.000000 0.012490 
#    y 0.000000 1.602860 0.000000 
#    z 0.012490 0.000000 1.640670 
# 
# From -- ./inp_files/87255.got.cif
#   From: 2010.06.25/outbox.cif.g09.slc.cpg/sg12_44_cif.got.tgz:87255.got - 2010.06.28 00:19:55.
