data_PCOD8085359
_publ_section_title
;
Structure prediction by ZEFSAII (Michael W. Deem and Ramdas Pophale) SiO2 
 PCOD8085359
Probable space group: C 2/M
;
_chemical_formula_sum "Si O2"
_cell_formula_units_Z 56
_cell_length_a 23.533756
_cell_length_b 8.909253
_cell_length_c 19.089397
_cell_angle_alpha 90.000000
_cell_angle_beta 128.856715
_cell_angle_gamma 90.000000
_cell_volume 3116.768807
_symmetry_space_group_name_H-M "C 2/M"
_symmetry_group_IT_number 12
_symmetry_cell_setting 'monoclinic'
loop_
_space_group_symop_operation_xyz
x,y,z
-x,y,-z
-x,-y,-z
x,-y,z
1/2+x,1/2+y,z
1/2-x,1/2+y,-z
1/2-x,1/2-y,-z
1/2+x,1/2-y,z
loop_
_atom_site_type_symbol
_atom_site_label
_atom_site_fract_x
_atom_site_fract_y
_atom_site_fract_z
Si Si1 0.619882 0.679061 0.027477
Si Si2 0.565915 0.324981 0.602594
Si Si3 0.212841 0.334034 0.697941
Si Si4 0.857632 0.326148 0.808853
Si Si5 0.497953 0.171694 0.157643
Si Si6 0.774122 0.663439 0.126555
Si Si7 0.930266 0.677547 0.248555
O O1 0.624732 0.500000 0.039666
O O2 0.610620 0.749598 0.096856
O O3 0.695768 0.741566 0.049323
O O4 0.551476 0.721550 0.927775
O O5 0.500000 0.289748 0.500000
O O6 0.580275 0.500000 0.623589
O O7 0.638046 0.253066 0.624010
O O8 0.543777 0.256525 0.660587
O O9 0.209180 0.500000 0.660836
O O10 0.282856 0.245590 0.721770
O O11 0.223572 0.348928 0.788342
O O12 0.843769 0.500000 0.814602
O O13 0.917539 0.302614 0.794489
O O14 0.487456 0.212611 0.231315
O O15 0.474291 0.000000 0.124923
O O16 0.773140 0.500000 0.090120
O O17 0.849885 0.743764 0.162347
O O18 0.922370 0.500000 0.257757
#
# Coordination Sequence:
#
# PCOD8085359 Si02
#       7
#     8   8   8   8   8   8   8
#     4  10  19  30  46  69  95 129 177 222 253 287
#     4  10  20  34  55  83 108 126 150 191 243 297
#     4   9  17  31  52  76  99 126 163 202 242 291
#     4  10  19  32  49  69  98 134 172 213 253 289
#     4  10  21  33  46  68  99 136 173 211 253 291
#     4   7  13  27  45  65  90 120 157 202 243 280
#     4   9  18  34  52  70  98 134 169 202 243 300
#
# _framework density 17.967324999999999
#
# number of rings (size 3 to 8) (size 9 to 14) (size 15 to 20)
#    0.000    2.714    0.000    3.857    0.000    5.143 
#    0.000    0.714    0.000    0.857    0.000    0.000 
#    0.000    0.000    0.000    0.000    0.000    0.000 
#
# Total GULP energy -346968.987955 kJ/mol
# GULP energy per Si atom -12391.749570 kJ/mol
# Density = 1.792643 g / cm^3
# Si number density = 17.967325 Si / 1000 Ang^3
#
#
#
# Elastic Constant Matrix: (Units=GPa)
#
#
# Indices 1 2 3 4 5 6 
#
# 1 129.8437 56.9901 60.4821 0.0000 12.4022 0.0000
# 2 56.9901 95.9764 47.2195 0.0000 12.0450 0.0000
# 3 60.4821 47.2195 74.7767 0.0000 17.9624 0.0000
# 4 0.0000 0.0000 0.0000 24.5433 0.0000 4.9397
# 5 12.4022 12.0450 17.9624 0.0000 21.9550 0.0000
# 6 0.0000 0.0000 0.0000 4.9397 0.0000 22.3559
#
#
#
# Elastic Compliance Matrix: (Units=1/GPa)
#
#
# Indices 1 2 3 4 5 6 
#
# 1 0.013284 -0.003793 -0.008771 0.000000 0.001752 0.000000
# 2 -0.003793 0.016205 -0.006900 0.000000 -0.001102 0.000000
# 3 -0.008771 -0.006900 0.028284 0.000000 -0.014400 0.000000
# 4 0.000000 0.000000 0.000000 0.042641 0.000000 -0.009422
# 5 0.001752 -0.001102 -0.014400 0.000000 0.056944 0.000000
# 6 0.000000 0.000000 0.000000 -0.009422 0.000000 0.046813
#
#
# Mechanical properties :
#
#
# Convention : Reuss Voigt Hill
#
# Bulk Modulus (GPa) = 53.06445 69.99780 61.53112
# Shear Modulus (GPa) = 20.04978 22.83116 21.44047
#
# Velocity S-wave (km/s) = 3.34414 3.56856 3.45817
# Velocity P-wave (km/s) = 6.67150 7.48482 7.08983
#
# Compressibility (1/GPa) = 0.01884501
#
# Stress axis : x y z
#
# Youngs Moduli (GPa) = 75.27592 61.71087 35.35622
#
# Poissons Ratio (x) = 0.23407 0.31010
# Poissons Ratio (y) = 0.28552 0.24396
# Poissons Ratio (z) = 0.66022 0.42581
#
# Static dielectric constant tensor:
#      x y z
#    x 3.570420 0.000000 0.308660 
#    y 0.000000 3.341010 0.000000 
#    z 0.308660 0.000000 3.024890 
# 
# 
# High freq. dielectric constant tensor:
#      x y z
#    x 1.698510 0.000000 0.024550 
#    y 0.000000 1.691990 0.000000 
#    z 0.024550 0.000000 1.660380 
# 
# From -- ./inp_files/323797.got.cif
#   From: 2010.06.25/outbox.cif.g09.slc.cpg/sg12_162_cif.got.tgz:323797.got - 2010.06.28 00:19:55.
