data_PCOD8085997
_publ_section_title
;
Structure prediction by ZEFSAII (Michael W. Deem and Ramdas Pophale) SiO2 
 PCOD8085997
Probable space group: C 2/M
;
_chemical_formula_sum "Si O2"
_cell_formula_units_Z 64
_cell_length_a 18.029645
_cell_length_b 9.201585
_cell_length_c 25.199748
_cell_angle_alpha 90.000000
_cell_angle_beta 56.581884
_cell_angle_gamma 90.000000
_cell_volume 3489.496610
_symmetry_space_group_name_H-M "C 2/M"
_symmetry_group_IT_number 12
_symmetry_cell_setting 'monoclinic'
loop_
_space_group_symop_operation_xyz
x,y,z
-x,y,-z
-x,-y,-z
x,-y,z
1/2+x,1/2+y,z
1/2-x,1/2+y,-z
1/2-x,1/2-y,-z
1/2+x,1/2-y,z
loop_
_atom_site_type_symbol
_atom_site_label
_atom_site_fract_x
_atom_site_fract_y
_atom_site_fract_z
Si Si1 0.008494 0.833229 0.436918
Si Si2 0.897197 0.664033 0.686150
Si Si3 0.775622 0.166638 0.072453
Si Si4 0.632407 0.333043 0.064128
Si Si5 0.577044 0.163259 0.682054
Si Si6 0.011913 0.839191 0.199696
Si Si7 0.804950 0.835774 0.808056
Si Si8 0.169732 0.832409 0.558597
O O1 0.914132 0.814567 0.446347
O O2 0.000000 0.774196 0.500000
O O3 0.084068 0.740521 0.377495
O O4 0.039957 0.000000 0.423785
O O5 0.865383 0.500000 0.688297
O O6 0.819116 0.749396 0.747513
O O7 0.986101 0.667453 0.685591
O O8 0.696566 0.214178 0.064649
O O9 0.774964 0.262236 0.126420
O O10 0.761123 0.000000 0.095140
O O11 0.865692 0.186002 0.001068
O O12 0.662462 0.500000 0.066297
O O13 0.533850 0.307739 0.128630
O O14 0.558946 0.226633 0.748143
O O15 0.650274 0.260352 0.623393
O O16 0.613682 0.000000 0.673229
O O17 0.105756 0.828504 0.192873
O O18 0.971489 0.000000 0.223300
O O19 0.777828 0.000000 0.804885
O O20 0.250000 0.750000 0.500000
O O21 0.194828 0.000000 0.557713
#
# Coordination Sequence:
#
# PCOD8085997 Si02
#       8
#     8   8   8   8   8   8   8   8
#     4   9  18  32  48  65  86 113 142 171 208 254
#     4   9  16  25  38  56  75  96 126 165 204 240
#     4   9  14  19  27  39  56  80 114 155 194 232
#     4   8  14  21  27  37  56  83 114 150 193 238
#     4   9  16  25  37  54  74  96 126 163 201 241
#     4   8  13  21  31  43  61  87 119 154 194 237
#     4   9  15  22  31  43  62  89 120 155 196 240
#     4  10  19  31  47  65  86 111 139 173 210 250
#
# _framework density 18.340754
#
# number of rings (size 3 to 8) (size 9 to 14) (size 15 to 20)
#    0.000    3.125    0.000    2.625    0.000    7.250 
#    0.000    0.000    0.000    0.000    0.000    0.000 
#    0.000    0.000    0.000    0.000    0.000    1.250 
#
# Total GULP energy -396521.550502 kJ/mol
# GULP energy per Si atom -12391.298453 kJ/mol
# Density = 1.829901 g / cm^3
# Si number density = 18.340754 Si / 1000 Ang^3
#
#
#
# Elastic Constant Matrix: (Units=GPa)
#
#
# Indices 1 2 3 4 5 6 
#
# 1 2.5256 10.1762 12.2710 0.0001 -2.0301 0.0002
# 2 10.1762 149.2148 102.5816 0.0002 -7.3470 0.0006
# 3 12.2710 102.5816 209.4630 0.0000 -9.6009 0.0000
# 4 0.0001 0.0002 0.0000 40.8307 0.0000 -3.7791
# 5 -2.0301 -7.3470 -9.6009 0.0000 12.7578 0.0001
# 6 0.0002 0.0006 0.0000 -3.7791 0.0001 7.6400
#
#
#
# Elastic Compliance Matrix: (Units=1/GPa)
#
#
# Indices 1 2 3 4 5 6 
#
# 1 0.675178 -0.026425 -0.023186 -0.000003 0.074773 -0.000019
# 2 -0.026425 0.011196 -0.003969 0.000000 -0.000744 0.000000
# 3 -0.023186 -0.003969 0.008081 0.000000 0.000106 0.000001
# 4 -0.000003 0.000000 0.000000 0.025666 0.000000 0.012696
# 5 0.074773 -0.000744 0.000106 0.000000 0.089933 -0.000003
# 6 -0.000019 0.000000 0.000001 0.012696 -0.000003 0.137171
#
#
# Mechanical properties :
#
#
# Convention : Reuss Voigt Hill
#
# Bulk Modulus (GPa) = 1.70272 67.91792 34.81032
# Shear Modulus (GPa) = 3.99952 27.99068 15.99510
#
# Velocity S-wave (km/s) = 1.47831 3.91083 2.95635
# Velocity P-wave (km/s) = 1.96068 7.58316 5.53844
#
# Compressibility (1/GPa) = 0.58729529
#
# Stress axis : x y z
#
# Youngs Moduli (GPa) = 1.48109 89.31835 123.74594
#
# Poissons Ratio (x) = 2.36024 2.86911
# Poissons Ratio (y) = 0.03914 0.49116
# Poissons Ratio (z) = 0.03434 0.35451
#
# Static dielectric constant tensor:
#      x y z
#    x 2.521350 0.000000 -0.046630 
#    y 0.000000 3.557730 0.000000 
#    z -0.046630 0.000000 3.982740 
# 
# 
# High freq. dielectric constant tensor:
#      x y z
#    x 1.600100 0.000000 -0.009340 
#    y 0.000000 1.724030 0.000000 
#    z -0.009340 0.000000 1.742870 
# 
# From -- ./inp_files/345543.got.cif
#   From: 2010.06.25/outbox.cif.g09.slc.cpg/sg12_173_cif.got.tgz:345543.got - 2010.06.28 00:19:55.
