data_PCOD8085971
_publ_section_title
;
Structure prediction by ZEFSAII (Michael W. Deem and Ramdas Pophale) SiO2 
 PCOD8085971
Probable space group: C 2/M
;
_chemical_formula_sum "Si O2"
_cell_formula_units_Z 56
_cell_length_a 22.372782
_cell_length_b 18.926971
_cell_length_c 10.644962
_cell_angle_alpha 90.000000
_cell_angle_beta 138.488378
_cell_angle_gamma 90.000000
_cell_volume 2987.509849
_symmetry_space_group_name_H-M "C 2/M"
_symmetry_group_IT_number 12
_symmetry_cell_setting 'monoclinic'
loop_
_space_group_symop_operation_xyz
x,y,z
-x,y,-z
-x,-y,-z
x,-y,z
1/2+x,1/2+y,z
1/2-x,1/2+y,-z
1/2-x,1/2-y,-z
1/2+x,1/2-y,z
loop_
_atom_site_type_symbol
_atom_site_label
_atom_site_fract_x
_atom_site_fract_y
_atom_site_fract_z
Si Si1 0.174748 0.663918 0.210059
Si Si2 0.715257 0.080835 0.019137
Si Si3 0.069123 0.577489 0.221744
Si Si4 0.903624 0.682805 0.311139
Si Si5 0.018341 0.293614 0.819164
Si Si6 0.862508 0.214959 0.476942
Si Si7 0.405071 0.420515 0.409268
O O1 0.185136 0.614237 0.104047
O O2 0.159278 0.615742 0.309069
O O3 0.259793 0.715749 0.365322
O O4 0.084390 0.711890 0.044115
O O5 0.824180 0.085635 0.179494
O O6 0.681986 0.000000 0.962638
O O7 0.671174 0.122586 0.832245
O O8 0.093660 0.500000 0.316137
O O9 0.023377 0.626410 0.256543
O O10 0.000000 0.568230 0.000000
O O11 0.868606 0.738035 0.359804
O O12 0.000000 0.648403 0.500000
O O13 0.923028 0.725245 0.212177
O O14 0.931599 0.242084 0.692364
O O15 0.886821 0.133303 0.492927
O O16 0.500000 0.399097 0.500000
O O17 0.408050 0.500000 0.469354
#
# Coordination Sequence:
#
# PCOD8085971 Si02
#       7
#     8   8   8   8   8   8   8
#     4   9  18  30  48  68  90 120 157 194 235 271
#     4   9  17  28  43  65  90 118 154 189 225 274
#     4   9  17  31  50  71  96 122 152 193 234 274
#     4   9  18  30  44  66  94 125 154 181 225 281
#     4   9  18  30  46  70  94 122 154 185 231 278
#     4  10  19  31  46  67  96 123 154 191 227 278
#     4   9  17  28  43  62  85 116 153 193 231 263
#
# _framework density 18.744707999999999
#
# number of rings (size 3 to 8) (size 9 to 14) (size 15 to 20)
#    0.000    2.857    0.000    1.714    0.000   11.143 
#    0.000    2.143    0.000    0.000    0.000    1.000 
#    0.000    6.286    0.000    0.714    0.000    0.143 
#
# Total GULP energy -346897.455319 kJ/mol
# GULP energy per Si atom -12389.194833 kJ/mol
# Density = 1.870204 g / cm^3
# Si number density = 18.744708 Si / 1000 Ang^3
#
#
#
# Elastic Constant Matrix: (Units=GPa)
#
#
# Indices 1 2 3 4 5 6 
#
# 1 60.9911 16.0022 18.0450 0.0000 23.3650 0.0000
# 2 16.0022 78.6162 40.1495 0.0000 16.6521 0.0000
# 3 18.0450 40.1495 80.3153 0.0000 35.9009 0.0000
# 4 0.0000 0.0000 0.0000 26.5136 0.0000 3.9553
# 5 23.3650 16.6521 35.9009 0.0000 30.5717 0.0000
# 6 0.0000 0.0000 0.0000 3.9553 0.0000 24.5879
#
#
#
# Elastic Compliance Matrix: (Units=1/GPa)
#
#
# Indices 1 2 3 4 5 6 
#
# 1 0.025233 -0.003604 0.008157 0.000000 -0.026901 0.000000
# 2 -0.003604 0.017629 -0.010402 0.000000 0.005368 0.000000
# 3 0.008157 -0.010402 0.033831 0.000000 -0.040296 0.000000
# 4 0.000000 0.000000 0.000000 0.038644 0.000000 -0.006216
# 5 -0.026901 0.005368 -0.040296 0.000000 0.097666 0.000000
# 6 0.000000 0.000000 0.000000 -0.006216 0.000000 0.041670
#
#
# Mechanical properties :
#
#
# Convention : Reuss Voigt Hill
#
# Bulk Modulus (GPa) = 15.38597 40.92398 28.15498
# Shear Modulus (GPa) = 17.35886 26.04971 21.70428
#
# Velocity S-wave (km/s) = 3.04644 3.73193 3.40647
# Velocity P-wave (km/s) = 4.53876 6.35998 5.52493
#
# Compressibility (1/GPa) = 0.06499428
#
# Stress axis : x y z
#
# Youngs Moduli (GPa) = 39.62987 56.72402 29.55897
#
# Poissons Ratio (x) = 0.20443 -0.24111
# Poissons Ratio (y) = 0.14283 0.30749
# Poissons Ratio (z) = -0.32326 0.59007
#
# Static dielectric constant tensor:
#      x y z
#    x 3.407620 0.000000 0.388040 
#    y 0.000000 3.530690 0.000000 
#    z 0.388040 0.000000 3.586310 
# 
# 
# High freq. dielectric constant tensor:
#      x y z
#    x 1.714280 0.000000 0.032130 
#    y 0.000000 1.714880 0.000000 
#    z 0.032130 0.000000 1.709260 
# 
# From -- ./inp_files/177609.got.cif
#   From: 2010.06.25/outbox.cif.g09.slc.cpg/sg12_89_cif.got.tgz:177609.got - 2010.06.28 00:19:55.
