data_PCOD8085306
_publ_section_title
;
Structure prediction by ZEFSAII (Michael W. Deem and Ramdas Pophale) SiO2 
 PCOD8085306
Probable space group: C 2/M
;
_chemical_formula_sum "Si O2"
_cell_formula_units_Z 64
_cell_length_a 22.543508
_cell_length_b 9.086635
_cell_length_c 20.928950
_cell_angle_alpha 90.000000
_cell_angle_beta 116.880722
_cell_angle_gamma 90.000000
_cell_volume 3823.951617
_symmetry_space_group_name_H-M "C 2/M"
_symmetry_group_IT_number 12
_symmetry_cell_setting 'monoclinic'
loop_
_space_group_symop_operation_xyz
x,y,z
-x,y,-z
-x,-y,-z
x,-y,z
1/2+x,1/2+y,z
1/2-x,1/2+y,-z
1/2-x,1/2-y,-z
1/2+x,1/2-y,z
loop_
_atom_site_type_symbol
_atom_site_label
_atom_site_fract_x
_atom_site_fract_y
_atom_site_fract_z
Si Si1 0.099870 0.671189 0.202595
Si Si2 0.645584 0.170762 0.957409
Si Si3 0.249025 0.670756 0.237273
Si Si4 0.684467 0.672201 0.492690
Si Si5 0.209441 0.334141 0.624189
Si Si6 0.728418 0.330033 0.896584
Si Si7 0.488088 0.673921 0.066905
Si Si8 0.363112 0.663565 0.661657
O O1 0.082474 0.500000 0.189311
O O2 0.171602 0.709746 0.208375
O O3 0.097074 0.719579 0.275827
O O4 0.047328 0.763589 0.137783
O O5 0.674073 0.228274 0.904065
O O6 0.580635 0.260568 0.942726
O O7 0.627522 0.000000 0.941604
O O8 0.698714 0.199185 0.039164
O O9 0.260640 0.500000 0.256762
O O10 0.295840 0.760402 0.308639
O O11 0.270501 0.715399 0.176730
O O12 0.698817 0.500000 0.510045
O O13 0.750000 0.750000 0.500000
O O14 0.664023 0.745498 0.550508
O O15 0.627975 0.696115 0.410145
O O16 0.182530 0.500000 0.615356
O O17 0.285218 0.327643 0.638685
O O18 0.708480 0.500000 0.896522
O O19 0.485793 0.500000 0.073579
O O20 0.500000 0.722288 0.000000
O O21 0.389759 0.500000 0.690731
#
# Coordination Sequence:
#
# PCOD8085306 Si02
#       8
#     8   8   8   8   8   8   8   8
#     4  10  19  30  46  67  91 120 154 191 228 269
#     4  10  20  34  52  72  92 116 150 190 229 271
#     4   9  17  29  45  65  91 123 155 187 226 271
#     4   9  15  23  36  54  79 113 150 185 222 265
#     4   9  16  24  36  57  85 116 150 187 224 265
#     4   9  18  33  51  70  93 120 150 186 229 274
#     4  11  23  36  50  68  92 122 153 187 228 272
#     4   8  15  26  38  55  82 116 151 185 222 266
#
# _framework density 16.736613999999999
#
# number of rings (size 3 to 8) (size 9 to 14) (size 15 to 20)
#    0.000    2.625    0.000    3.375    0.000    7.000 
#    0.000    0.000    0.000    0.000    0.000    0.000 
#    0.000    1.000    0.000   10.500    0.000    7.500 
#
# Total GULP energy -396703.970112 kJ/mol
# GULP energy per Si atom -12396.999066 kJ/mol
# Density = 1.669852 g / cm^3
# Si number density = 16.736614 Si / 1000 Ang^3
#
#
#
# Elastic Constant Matrix: (Units=GPa)
#
#
# Indices 1 2 3 4 5 6 
#
# 1 49.9937 35.3613 45.9347 0.0000 -11.4693 0.0000
# 2 35.3613 92.1832 62.7873 0.0000 -10.8170 0.0000
# 3 45.9347 62.7873 126.4466 0.0000 -29.2665 0.0000
# 4 0.0000 0.0000 0.0000 33.3269 0.0000 0.3974
# 5 -11.4693 -10.8170 -29.2665 0.0000 20.6215 0.0000
# 6 0.0000 0.0000 0.0000 0.3974 0.0000 27.0930
#
#
#
# Elastic Compliance Matrix: (Units=1/GPa)
#
#
# Indices 1 2 3 4 5 6 
#
# 1 0.032749 -0.006973 -0.007543 0.000000 0.003852 0.000000
# 2 -0.006973 0.018149 -0.007703 0.000000 -0.005291 0.000000
# 3 -0.007543 -0.007703 0.018715 0.000000 0.018325 0.000000
# 4 0.000000 0.000000 0.000000 0.030011 0.000000 -0.000440
# 5 0.003852 -0.005291 0.018325 0.000000 0.073867 0.000000
# 6 0.000000 0.000000 0.000000 -0.000440 0.000000 0.036916
#
#
# Mechanical properties :
#
#
# Convention : Reuss Voigt Hill
#
# Bulk Modulus (GPa) = 39.72306 61.86556 50.79431
# Shear Modulus (GPa) = 18.99436 24.51097 21.75266
#
# Velocity S-wave (km/s) = 3.37248 3.83105 3.60905
# Velocity P-wave (km/s) = 6.24104 7.52421 6.91246
#
# Compressibility (1/GPa) = 0.02517430
#
# Stress axis : x y z
#
# Youngs Moduli (GPa) = 30.53569 55.10028 53.43288
#
# Poissons Ratio (x) = 0.38420 0.40304
# Poissons Ratio (y) = 0.21292 0.41161
# Poissons Ratio (z) = 0.23033 0.42446
#
# Static dielectric constant tensor:
#      x y z
#    x 2.792980 0.000000 -0.365110 
#    y 0.000000 3.286110 0.000000 
#    z -0.365110 0.000000 3.606300 
# 
# 
# High freq. dielectric constant tensor:
#      x y z
#    x 1.588300 0.000000 -0.026270 
#    y 0.000000 1.658760 0.000000 
#    z -0.026270 0.000000 1.653990 
# 
# From -- ./inp_files/324242.got.cif
#   From: 2010.06.25/outbox.cif.g09.slc.cpg/sg12_163_cif.got.tgz:324242.got - 2010.06.28 00:19:55.
