data_PCOD8085651
_publ_section_title
;
Structure prediction by ZEFSAII (Michael W. Deem and Ramdas Pophale) SiO2 
 PCOD8085651
Probable space group: C 2/M
;
_chemical_formula_sum "Si O2"
_cell_formula_units_Z 64
_cell_length_a 18.594855
_cell_length_b 9.084555
_cell_length_c 22.684433
_cell_angle_alpha 90.000000
_cell_angle_beta 65.317132
_cell_angle_gamma 90.000000
_cell_volume 3481.873018
_symmetry_space_group_name_H-M "C 2/M"
_symmetry_group_IT_number 12
_symmetry_cell_setting 'monoclinic'
loop_
_space_group_symop_operation_xyz
x,y,z
-x,y,-z
-x,-y,-z
x,-y,z
1/2+x,1/2+y,z
1/2-x,1/2+y,-z
1/2-x,1/2-y,-z
1/2+x,1/2-y,z
loop_
_atom_site_type_symbol
_atom_site_label
_atom_site_fract_x
_atom_site_fract_y
_atom_site_fract_z
Si Si1 0.082325 0.674201 0.996649
Si Si2 0.705299 0.824677 0.755186
Si Si3 0.540906 0.826455 0.764272
Si Si4 0.886292 0.675386 0.882007
Si Si5 0.737643 0.825530 0.874361
Si Si6 0.422146 0.325757 0.492775
Si Si7 0.103753 0.327623 0.618344
Si Si8 0.270030 0.325617 0.612092
O O1 0.075002 0.500000 0.000443
O O2 0.153875 0.723864 0.930170
O O3 0.098831 0.731759 0.056815
O O4 0.000000 0.741547 0.000000
O O5 0.616358 0.762960 0.774557
O O6 0.739002 0.769840 0.806100
O O7 0.762126 0.768496 0.682471
O O8 0.701126 0.000000 0.755829
O O9 0.459079 0.763050 0.817806
O O10 0.548333 0.785992 0.692802
O O11 0.541062 0.000000 0.772746
O O12 0.878359 0.500000 0.881396
O O13 0.806149 0.745846 0.886330
O O14 0.749712 0.000000 0.875081
O O15 0.500000 0.274819 0.500000
O O16 0.415742 0.500000 0.489949
O O17 0.428274 0.261640 0.425690
O O18 0.347349 0.258720 0.554111
O O19 0.099994 0.500000 0.605809
O O20 0.193407 0.277310 0.601130
O O21 0.275960 0.500000 0.611577
#
# Coordination Sequence:
#
# PCOD8085651 Si02
#       8
#     8   8   8   8   8   8   8   8
#     4   9  17  30  50  73  93 120 163 203 225 254
#     4   8  14  27  48  69  88 116 157 197 224 257
#     4   8  15  29  49  70  88 115 158 196 225 264
#     4  10  19  31  48  69  97 127 150 184 236 282
#     4  10  19  30  48  74  99 122 153 192 229 270
#     4  10  20  31  44  66  96 124 148 180 229 286
#     4   9  17  31  51  69  86 114 156 199 228 260
#     4   8  15  29  48  68  89 117 154 191 227 269
#
# _framework density 18.380911000000001
#
# number of rings (size 3 to 8) (size 9 to 14) (size 15 to 20)
#    0.000    3.000    0.000    3.000    0.000    4.250 
#    0.000    1.875    0.000    7.500    0.000    0.000 
#    0.000    0.000    0.000    0.000    0.000    0.000 
#
# Total GULP energy -396672.751154 kJ/mol
# GULP energy per Si atom -12396.023474 kJ/mol
# Density = 1.833908 g / cm^3
# Si number density = 18.380911 Si / 1000 Ang^3
#
#
#
# Elastic Constant Matrix: (Units=GPa)
#
#
# Indices 1 2 3 4 5 6 
#
# 1 131.6382 24.5509 73.4964 0.0000 20.9147 0.0004
# 2 24.5509 12.7190 20.9379 -0.0002 3.2515 0.0006
# 3 73.4964 20.9379 133.6517 0.0000 19.6412 -0.0001
# 4 0.0000 -0.0002 0.0000 16.6854 -0.0001 2.1909
# 5 20.9147 3.2515 19.6412 -0.0001 28.5211 -0.0001
# 6 0.0004 0.0006 -0.0001 2.1909 -0.0001 17.7518
#
#
#
# Elastic Compliance Matrix: (Units=1/GPa)
#
#
# Indices 1 2 3 4 5 6 
#
# 1 0.014407 -0.019796 -0.004006 0.000000 -0.005549 0.000000
# 2 -0.019796 0.133159 -0.010989 0.000002 0.006903 -0.000004
# 3 -0.004006 -0.010989 0.012006 0.000000 -0.004078 0.000001
# 4 0.000000 0.000002 0.000000 0.060920 0.000000 -0.007519
# 5 -0.005549 0.006903 -0.004078 0.000000 0.041152 0.000000
# 6 0.000000 -0.000004 0.000001 -0.007519 0.000000 0.057260
#
#
# Mechanical properties :
#
#
# Convention : Reuss Voigt Hill
#
# Bulk Modulus (GPa) = 11.11233 57.33101 34.22167
# Shear Modulus (GPa) = 11.94794 23.19325 17.57060
#
# Velocity S-wave (km/s) = 2.55231 3.55605 3.09514
# Velocity P-wave (km/s) = 3.83985 6.93678 5.60640
#
# Compressibility (1/GPa) = 0.08999010
#
# Stress axis : x y z
#
# Youngs Moduli (GPa) = 69.41241 7.50980 83.29374
#
# Poissons Ratio (x) = 0.14866 0.33365
# Poissons Ratio (y) = 1.37408 0.91534
# Poissons Ratio (z) = 0.27804 0.08253
#
# Static dielectric constant tensor:
#      x y z
#    x 3.506780 0.000000 -0.132930 
#    y 0.000000 2.775130 0.000000 
#    z -0.132930 0.000000 3.836590 
# 
# 
# High freq. dielectric constant tensor:
#      x y z
#    x 1.716840 0.000000 -0.000210 
#    y 0.000000 1.649210 0.000000 
#    z -0.000210 0.000000 1.732640 
# 
# From -- ./inp_files/309870.got.cif
#   From: 2010.06.25/outbox.cif.g09.slc.cpg/sg12_155_cif.got.tgz:309870.got - 2010.06.28 00:19:55.
