data_PCOD8085180
_publ_section_title
;
Structure prediction by ZEFSAII (Michael W. Deem and Ramdas Pophale) SiO2 
 PCOD8085180
Probable space group: C 2/M
;
_chemical_formula_sum "Si O2"
_cell_formula_units_Z 64
_cell_length_a 31.987024
_cell_length_b 8.859431
_cell_length_c 13.783486
_cell_angle_alpha 90.000000
_cell_angle_beta 87.384162
_cell_angle_gamma 90.000000
_cell_volume 3901.988288
_symmetry_space_group_name_H-M "C 2/M"
_symmetry_group_IT_number 12
_symmetry_cell_setting 'monoclinic'
loop_
_space_group_symop_operation_xyz
x,y,z
-x,y,-z
-x,-y,-z
x,-y,z
1/2+x,1/2+y,z
1/2-x,1/2+y,-z
1/2-x,1/2-y,-z
1/2+x,1/2-y,z
loop_
_atom_site_type_symbol
_atom_site_label
_atom_site_fract_x
_atom_site_fract_y
_atom_site_fract_z
Si Si1 0.635960 0.679555 0.193940
Si Si2 0.535714 0.324248 0.919046
Si Si3 0.383520 0.822337 0.005828
Si Si4 0.486417 0.174058 0.276436
Si Si5 0.802821 0.166508 0.077027
Si Si6 0.577828 0.174111 0.354522
Si Si7 0.954080 0.170299 0.460662
Si Si8 0.273766 0.333639 0.860561
O O1 0.632399 0.500000 0.187038
O O2 0.614813 0.745652 0.099652
O O3 0.613177 0.739966 0.290914
O O4 0.684688 0.730566 0.196806
O O5 0.547795 0.500000 0.917509
O O6 0.518382 0.276452 0.816987
O O7 0.500000 0.287813 0.000000
O O8 0.575967 0.225061 0.938713
O O9 0.382612 0.000000 0.990529
O O10 0.343247 0.773554 0.072957
O O11 0.533807 0.193728 0.305942
O O12 0.454403 0.234715 0.361289
O O13 0.475827 0.000000 0.255440
O O14 0.766876 0.229726 0.153166
O O15 0.815900 0.000000 0.111990
O O16 0.783752 0.156472 0.972724
O O17 0.577027 0.247958 0.461134
O O18 0.590148 0.000000 0.363662
O O19 0.000000 0.167730 0.500000
O O20 0.938350 0.000000 0.442332
O O21 0.263033 0.500000 0.821798
#
# Coordination Sequence:
#
# PCOD8085180 Si02
#       8
#     8   8   8   8   8   8   8   8
#     4  10  19  30  44  64  92 122 152 185 222 268
#     4  11  23  36  49  65  88 119 155 192 227 264
#     4  11  21  32  46  63  87 119 154 190 226 265
#     4  10  20  33  48  66  89 117 151 190 229 267
#     4   9  16  27  43  61  83 112 147 184 220 262
#     4  10  19  30  46  68  93 119 148 184 226 271
#     4   9  17  30  48  67  87 114 148 184 224 269
#     4   8  15  26  40  60  85 114 146 180 219 262
#
# _framework density 16.401893000000001
#
# number of rings (size 3 to 8) (size 9 to 14) (size 15 to 20)
#    0.000    2.250    0.000    4.875    0.000    9.500 
#    0.000    0.000    0.000    0.000    0.000    0.000 
#    0.000    1.000    0.000    3.750    0.000    6.000 
#
# Total GULP energy -396788.122491 kJ/mol
# GULP energy per Si atom -12399.628828 kJ/mol
# Density = 1.636456 g / cm^3
# Si number density = 16.401893 Si / 1000 Ang^3
#
#
#
# Elastic Constant Matrix: (Units=GPa)
#
#
# Indices 1 2 3 4 5 6 
#
# 1 72.8033 44.8820 35.5720 0.0000 -21.8737 0.0000
# 2 44.8820 102.6876 34.0392 0.0000 -16.4878 0.0000
# 3 35.5720 34.0392 80.1499 0.0000 -22.8241 0.0000
# 4 0.0000 0.0000 0.0000 25.6585 0.0000 -4.8261
# 5 -21.8737 -16.4878 -22.8241 0.0000 20.1922 0.0000
# 6 0.0000 0.0000 0.0000 -4.8261 0.0000 26.7113
#
#
#
# Elastic Compliance Matrix: (Units=1/GPa)
#
#
# Indices 1 2 3 4 5 6 
#
# 1 0.024885 -0.007022 -0.002976 0.000000 0.017859 0.000000
# 2 -0.007022 0.013766 -0.002500 0.000000 0.000808 0.000000
# 3 -0.002976 -0.002500 0.019701 0.000000 0.017004 0.000000
# 4 0.000000 0.000000 0.000000 0.040345 0.000000 0.007289
# 5 0.017859 0.000808 0.017004 0.000000 0.088749 0.000000
# 6 0.000000 0.000000 0.000000 0.007289 0.000000 0.038754
#
#
# Mechanical properties :
#
#
# Convention : Reuss Voigt Hill
#
# Bulk Modulus (GPa) = 29.98035 53.84746 41.91390
# Shear Modulus (GPa) = 19.06104 23.92225 21.49164
#
# Velocity S-wave (km/s) = 3.41269 3.82318 3.62375
# Velocity P-wave (km/s) = 5.81781 7.23811 6.56647
#
# Compressibility (1/GPa) = 0.03335519
#
# Stress axis : x y z
#
# Youngs Moduli (GPa) = 40.18530 72.64358 50.75806
#
# Poissons Ratio (x) = 0.51013 0.15108
# Poissons Ratio (y) = 0.28220 0.12687
# Poissons Ratio (z) = 0.11961 0.18158
#
# Static dielectric constant tensor:
#      x y z
#    x 3.084180 0.000000 -0.285450 
#    y 0.000000 3.330000 0.000000 
#    z -0.285450 0.000000 2.876100 
# 
# 
# High freq. dielectric constant tensor:
#      x y z
#    x 1.614330 0.000000 -0.029260 
#    y 0.000000 1.651290 0.000000 
#    z -0.029260 0.000000 1.594700 
# 
# From -- ./inp_files/187598.got.cif
#   From: 2010.06.25/outbox.cif.g09.slc.cpg/sg12_94_cif.got.tgz:187598.got - 2010.06.28 00:19:55.
