data_PCOD8085546
_publ_section_title
;
Structure prediction by ZEFSAII (Michael W. Deem and Ramdas Pophale) SiO2 
 PCOD8085546
Probable space group: C 2/M
;
_chemical_formula_sum "Si O2"
_cell_formula_units_Z 40
_cell_length_a 27.219608
_cell_length_b 9.221086
_cell_length_c 18.696450
_cell_angle_alpha 90.000000
_cell_angle_beta 27.942396
_cell_angle_gamma 90.000000
_cell_volume 2198.923913
_symmetry_space_group_name_H-M "C 2/M"
_symmetry_group_IT_number 12
_symmetry_cell_setting 'monoclinic'
loop_
_space_group_symop_operation_xyz
x,y,z
-x,y,-z
-x,-y,-z
x,-y,z
1/2+x,1/2+y,z
1/2-x,1/2+y,-z
1/2-x,1/2-y,-z
1/2+x,1/2-y,z
loop_
_atom_site_type_symbol
_atom_site_label
_atom_site_fract_x
_atom_site_fract_y
_atom_site_fract_z
Si Si1 0.527554 0.327657 0.542953
Si Si2 0.914759 0.168520 0.961960
Si Si3 0.575749 0.840074 0.835003
Si Si4 0.761837 0.328455 0.263775
Si Si5 0.857674 0.831139 0.873555
O O1 0.500000 0.266087 0.500000
O O2 0.525717 0.500000 0.545156
O O3 0.642603 0.272780 0.417781
O O4 0.442641 0.268215 0.708411
O O5 0.902248 0.198424 0.894607
O O6 0.029861 0.227998 0.836270
O O7 0.909639 0.000000 0.987953
O O8 0.821859 0.249536 0.122400
O O9 0.688404 0.790141 0.722269
O O10 0.584096 0.000000 0.788953
O O11 0.500000 0.847016 0.000000
O O12 0.770668 0.500000 0.237560
O O13 0.837131 0.000000 0.886567
O O14 0.750000 0.750000 0.000000
#
# Coordination Sequence:
#
# PCOD8085546 Si02
#       5
#     8   8   8   8   8
#     4   9  17  31  52  73  92 121 162 203 239 278
#     4  10  19  30  47  73 103 129 154 193 244 291
#     4   8  15  28  47  71  96 126 165 200 229 271
#     4   9  17  31  52  74  95 125 167 205 231 270
#     4  10  21  35  51  73  98 125 159 198 242 289
#
# _framework density 18.190716999999999
#
# number of rings (size 3 to 8) (size 9 to 14) (size 15 to 20)
#    0.000    2.800    0.000    3.000    0.000    6.800 
#    0.000    2.000    0.000    3.600    0.000    0.000 
#    0.000    0.000    0.000    0.000    0.000    0.000 
#
# Total GULP energy -247937.434122 kJ/mol
# GULP energy per Si atom -12396.871706 kJ/mol
# Density = 1.814931 g / cm^3
# Si number density = 18.190717 Si / 1000 Ang^3
#
#
#
# Elastic Constant Matrix: (Units=GPa)
#
#
# Indices 1 2 3 4 5 6 
#
# 1 152.3654 57.3474 87.1075 0.0000 -22.0244 0.0004
# 2 57.3474 58.9091 41.2140 -0.0029 -0.9600 0.0021
# 3 87.1075 41.2140 131.7987 -0.0021 -15.1395 0.0011
# 4 0.0000 -0.0029 -0.0021 16.4605 0.0008 -4.0036
# 5 -22.0244 -0.9600 -15.1395 0.0008 35.4448 -0.0004
# 6 0.0004 0.0021 0.0011 -4.0036 -0.0004 28.0575
#
#
#
# Elastic Compliance Matrix: (Units=1/GPa)
#
#
# Indices 1 2 3 4 5 6 
#
# 1 0.014532 -0.010024 -0.005746 -0.000003 0.006304 0.000000
# 2 -0.010024 0.028845 -0.003176 0.000005 -0.006804 -0.000001
# 3 -0.005746 -0.003176 0.012575 0.000001 0.001715 0.000000
# 4 -0.000003 0.000005 0.000001 0.062936 -0.000002 0.008981
# 5 0.006304 -0.006804 0.001715 -0.000002 0.032678 0.000000
# 6 0.000000 -0.000001 0.000000 0.008981 0.000000 0.036922
#
#
# Mechanical properties :
#
#
# Convention : Reuss Voigt Hill
#
# Bulk Modulus (GPa) = 55.37241 79.37899 67.37570
# Shear Modulus (GPa) = 21.51439 26.48619 24.00029
#
# Velocity S-wave (km/s) = 3.44279 3.81993 3.63625
# Velocity P-wave (km/s) = 6.80513 7.94907 7.39924
#
# Compressibility (1/GPa) = 0.01805954
#
# Stress axis : x y z
#
# Youngs Moduli (GPa) = 68.81208 34.66758 79.52280
#
# Poissons Ratio (x) = 0.34753 0.45692
# Poissons Ratio (y) = 0.68981 0.25259
# Poissons Ratio (z) = 0.39538 0.11012
#
# Static dielectric constant tensor:
#      x y z
#    x 3.873010 0.000000 -0.366250 
#    y 0.000000 3.175140 0.000000 
#    z -0.366250 0.000000 3.421420 
# 
# 
# High freq. dielectric constant tensor:
#      x y z
#    x 1.720370 0.000000 -0.017040 
#    y 0.000000 1.680000 0.000000 
#    z -0.017040 0.000000 1.686020 
# 
# From -- ./inp_files/220188.got.cif
#   From: 2010.06.25/outbox.cif.g09.slc.cpg/sg12_111_cif.got.tgz:220188.got - 2010.06.28 00:19:55.
