data_PCOD8085175
_publ_section_title
;
Structure prediction by ZEFSAII (Michael W. Deem and Ramdas Pophale) SiO2 
 PCOD8085175
Probable space group: C 2/M
;
_chemical_formula_sum "Si O2"
_cell_formula_units_Z 64
_cell_length_a 29.415362
_cell_length_b 9.532812
_cell_length_c 13.917179
_cell_angle_alpha 90.000000
_cell_angle_beta 89.521391
_cell_angle_gamma 90.000000
_cell_volume 3902.395539
_symmetry_space_group_name_H-M "C 2/M"
_symmetry_group_IT_number 12
_symmetry_cell_setting 'monoclinic'
loop_
_space_group_symop_operation_xyz
x,y,z
-x,y,-z
-x,-y,-z
x,-y,z
1/2+x,1/2+y,z
1/2-x,1/2+y,-z
1/2-x,1/2-y,-z
1/2+x,1/2-y,z
loop_
_atom_site_type_symbol
_atom_site_label
_atom_site_fract_x
_atom_site_fract_y
_atom_site_fract_z
Si Si1 0.946990 0.335734 0.494690
Si Si2 0.704603 0.832927 0.023310
Si Si3 0.588585 0.335915 0.334745
Si Si4 0.621758 0.841356 0.896254
Si Si5 0.066714 0.845906 0.027927
Si Si6 0.151357 0.844209 0.167464
Si Si7 0.991845 0.163485 0.800483
Si Si8 0.429014 0.840797 0.281152
O O1 0.943168 0.500000 0.517351
O O2 0.914407 0.252740 0.567776
O O3 0.925202 0.295321 0.391812
O O4 0.000000 0.287883 0.500000
O O5 0.670454 0.791867 0.936378
O O6 0.712962 0.000000 0.031686
O O7 0.750000 0.750000 0.000000
O O8 0.685158 0.773830 0.124744
O O9 0.584787 0.500000 0.359602
O O10 0.636000 0.305651 0.276951
O O11 0.546978 0.282885 0.270583
O O12 0.618355 0.826843 0.779469
O O13 0.614718 0.000000 0.929908
O O14 0.579416 0.759409 0.943412
O O15 0.105812 0.851276 0.106897
O O16 0.021027 0.804476 0.087583
O O17 0.060923 0.000000 0.981049
O O18 0.174412 0.000000 0.165284
O O19 0.036942 0.244874 0.776974
O O20 0.000074 0.000000 0.784391
O O21 0.447098 0.000000 0.277632
#
# Coordination Sequence:
#
# PCOD8085175 Si02
#       8
#     8   8   8   8   8   8   8   8
#     4  10  19  30  44  64  88 121 164 204 238 265
#     4  10  19  32  52  76  97 119 146 178 223 278
#     4   9  17  29  46  66  91 122 157 198 236 268
#     4   9  19  33  46  63  89 120 151 182 221 272
#     4   8  15  28  44  61  86 118 152 188 223 261
#     4   8  15  29  47  69  95 121 149 184 227 272
#     4   9  17  28  42  62  86 118 157 193 229 265
#     4  10  20  32  43  59  88 122 157 195 229 264
#
# _framework density 16.400182000000001
#
# number of rings (size 3 to 8) (size 9 to 14) (size 15 to 20)
#    0.000    2.875    1.250    1.875    0.000    3.250 
#    0.000    5.000    0.000    0.000    0.000    0.875 
#    0.000    0.000    0.000    0.000    0.000    0.000 
#
# Total GULP energy -396523.569568 kJ/mol
# GULP energy per Si atom -12391.361549 kJ/mol
# Density = 1.636285 g / cm^3
# Si number density = 16.400182 Si / 1000 Ang^3
#
#
#
# Elastic Constant Matrix: (Units=GPa)
#
#
# Indices 1 2 3 4 5 6 
#
# 1 53.7664 36.1907 47.0412 0.0000 -7.0902 0.0000
# 2 36.1907 62.8191 49.7230 0.0000 -6.5289 0.0000
# 3 47.0412 49.7230 120.6830 0.0000 -0.8477 0.0000
# 4 0.0000 0.0000 0.0000 26.5613 0.0000 -7.4836
# 5 -7.0902 -6.5289 -0.8477 0.0000 18.9578 0.0000
# 6 0.0000 0.0000 0.0000 -7.4836 0.0000 17.0932
#
#
#
# Elastic Compliance Matrix: (Units=1/GPa)
#
#
# Indices 1 2 3 4 5 6 
#
# 1 0.036064 -0.013064 -0.008614 0.000000 0.008603 0.000000
# 2 -0.013064 0.029536 -0.007042 0.000000 0.004971 0.000000
# 3 -0.008614 -0.007042 0.014510 0.000000 -0.004998 0.000000
# 4 0.000000 0.000000 0.000000 0.042946 0.000000 0.018802
# 5 0.008603 0.004971 -0.004998 0.000000 0.057455 0.000000
# 6 0.000000 0.000000 0.000000 0.018802 0.000000 0.066735
#
#
# Mechanical properties :
#
#
# Convention : Reuss Voigt Hill
#
# Bulk Modulus (GPa) = 44.11308 55.90871 50.01089
# Shear Modulus (GPa) = 16.01319 19.47670 17.74495
#
# Velocity S-wave (km/s) = 3.12813 3.44988 3.29294
# Velocity P-wave (km/s) = 6.32481 7.07342 6.70956
#
# Compressibility (1/GPa) = 0.02266902
#
# Stress axis : x y z
#
# Youngs Moduli (GPa) = 27.72849 33.85752 68.91706
#
# Poissons Ratio (x) = 0.44232 0.59368
# Poissons Ratio (y) = 0.36225 0.48530
# Poissons Ratio (z) = 0.23886 0.23842
#
# Static dielectric constant tensor:
#      x y z
#    x 2.865270 0.000000 0.037480 
#    y 0.000000 3.128730 0.000000 
#    z 0.037480 0.000000 3.240180 
# 
# 
# High freq. dielectric constant tensor:
#      x y z
#    x 1.592000 0.000000 0.002990 
#    y 0.000000 1.633140 0.000000 
#    z 0.002990 0.000000 1.629010 
# 
# From -- ./inp_files/248290.got.cif
#   From: 2010.06.25/outbox.cif.g09.slc.cpg/sg12_125_cif.got.tgz:248290.got - 2010.06.28 00:19:55.
