data_PCOD8085981
_publ_section_title
;
Structure prediction by ZEFSAII (Michael W. Deem and Ramdas Pophale) SiO2 
 PCOD8085981
Probable space group: C 2/M
;
_chemical_formula_sum "Si O2"
_cell_formula_units_Z 64
_cell_length_a 5.040666
_cell_length_b 23.659518
_cell_length_c 32.043766
_cell_angle_alpha 90.000000
_cell_angle_beta 107.175912
_cell_angle_gamma 90.000000
_cell_volume 3651.100469
_symmetry_space_group_name_H-M "C 2/M"
_symmetry_group_IT_number 12
_symmetry_cell_setting 'monoclinic'
loop_
_space_group_symop_operation_xyz
x,y,z
-x,y,-z
-x,-y,-z
x,-y,z
1/2+x,1/2+y,z
1/2-x,1/2+y,-z
1/2-x,1/2-y,-z
1/2+x,1/2-y,z
loop_
_atom_site_type_symbol
_atom_site_label
_atom_site_fract_x
_atom_site_fract_y
_atom_site_fract_z
Si Si1 0.995585 0.434108 0.745187
Si Si2 0.951647 0.131429 0.718624
Si Si3 0.206371 0.871623 0.875298
Si Si4 0.011421 0.286498 0.544651
Si Si5 0.051885 0.786303 0.798036
Si Si6 0.776511 0.210896 0.639458
Si Si7 0.579311 0.213104 0.050515
Si Si8 0.352996 0.934827 0.152962
O O1 0.941888 0.500000 0.735850
O O2 0.731269 0.399354 0.716859
O O3 0.260482 0.415849 0.730827
O O4 0.049792 0.419600 0.795967
O O5 0.022409 0.181227 0.753535
O O6 0.800950 0.158653 0.671935
O O7 0.329251 0.844461 0.922901
O O8 0.400970 0.922054 0.867931
O O9 0.195467 0.824061 0.839570
O O10 0.907279 0.896802 0.871847
O O11 0.201263 0.231136 0.543346
O O12 0.159343 0.317006 0.590815
O O13 0.000000 0.322003 0.500000
O O14 0.748692 0.767500 0.799470
O O15 0.573556 0.259767 0.646879
O O16 0.320292 0.240009 0.062708
O O17 0.500000 0.195758 0.000000
O O18 0.269431 0.000000 0.145663
#
# Coordination Sequence:
#
# PCOD8085981 Si02
#       8
#     8   8   8   8   8   8   8   8
#     4  11  22  38  54  71  95 130 177 219 252 288
#     4  12  21  35  50  72 102 135 166 205 253 303
#     4  12  21  37  57  80 104 134 172 207 249 294
#     4   8  14  25  42  63  90 127 169 204 234 278
#     4  12  22  32  47  73 105 133 161 194 235 291
#     4  10  19  31  46  69 103 140 166 195 245 305
#     4  10  21  38  59  83 110 139 168 201 243 296
#     4  11  22  38  57  78 101 131 174 217 257 293
#
# _framework density 17.528960999999999
#
# number of rings (size 3 to 8) (size 9 to 14) (size 15 to 20)
#    0.000    1.250    2.500    5.250    0.000    2.000 
#    0.000    0.000    0.000    2.250    0.000    0.000 
#    0.000    3.000    0.000    0.000    0.000    0.000 
#
# Total GULP energy -396864.887976 kJ/mol
# GULP energy per Si atom -12402.027749 kJ/mol
# Density = 1.748906 g / cm^3
# Si number density = 17.528961 Si / 1000 Ang^3
#
#
#
# Elastic Constant Matrix: (Units=GPa)
#
#
# Indices 1 2 3 4 5 6 
#
# 1 75.1242 14.8775 11.6945 0.0000 6.4005 0.0000
# 2 14.8775 61.4626 41.2295 0.0000 8.0034 0.0000
# 3 11.6945 41.2295 103.0065 0.0000 7.7543 0.0000
# 4 0.0000 0.0000 0.0000 13.3207 0.0000 -0.0917
# 5 6.4005 8.0034 7.7543 0.0000 22.9012 0.0000
# 6 0.0000 0.0000 0.0000 -0.0917 0.0000 32.5435
#
#
#
# Elastic Compliance Matrix: (Units=1/GPa)
#
#
# Indices 1 2 3 4 5 6 
#
# 1 0.014166 -0.002900 -0.000232 0.000000 -0.002867 0.000000
# 2 -0.002900 0.023381 -0.008697 0.000000 -0.004416 0.000000
# 3 -0.000232 -0.008697 0.013321 0.000000 -0.001407 0.000000
# 4 0.000000 0.000000 0.000000 0.075073 0.000000 0.000211
# 5 -0.002867 -0.004416 -0.001407 0.000000 0.046487 0.000000
# 6 0.000000 0.000000 0.000000 0.000211 0.000000 0.030729
#
#
# Mechanical properties :
#
#
# Convention : Reuss Voigt Hill
#
# Bulk Modulus (GPa) = 36.74997 41.68848 39.21923
# Shear Modulus (GPa) = 21.19686 25.20585 23.20135
#
# Velocity S-wave (km/s) = 3.48120 3.79615 3.64208
# Velocity P-wave (km/s) = 6.09665 6.56114 6.33316
#
# Compressibility (1/GPa) = 0.02721090
#
# Stress axis : x y z
#
# Youngs Moduli (GPa) = 70.59156 42.76990 75.06786
#
# Poissons Ratio (x) = 0.12405 0.01738
# Poissons Ratio (y) = 0.20474 0.65285
# Poissons Ratio (z) = 0.01635 0.37196
#
# Static dielectric constant tensor:
#      x y z
#    x 3.425720 0.000000 0.005050 
#    y 0.000000 2.966920 0.000000 
#    z 0.005050 0.000000 3.477280 
# 
# 
# High freq. dielectric constant tensor:
#      x y z
#    x 1.703200 0.000000 0.002380 
#    y 0.000000 1.642530 0.000000 
#    z 0.002380 0.000000 1.674230 
# 
# From -- ./inp_files/371681.got.cif
#   From: 2010.06.25/outbox.cif.g09.slc.cpg/sg12_186_cif.got.tgz:371681.got - 2010.06.28 00:19:55.
