data_PCOD8085256
_publ_section_title
;
Structure prediction by ZEFSAII (Michael W. Deem and Ramdas Pophale) SiO2 
 PCOD8085256
Probable space group: C 2/M
;
_chemical_formula_sum "Si O2"
_cell_formula_units_Z 48
_cell_length_a 27.663400
_cell_length_b 8.943012
_cell_length_c 23.734334
_cell_angle_alpha 90.000000
_cell_angle_beta 150.096865
_cell_angle_gamma 90.000000
_cell_volume 2927.266235
_symmetry_space_group_name_H-M "C 2/M"
_symmetry_group_IT_number 12
_symmetry_cell_setting 'monoclinic'
loop_
_space_group_symop_operation_xyz
x,y,z
-x,y,-z
-x,-y,-z
x,-y,z
1/2+x,1/2+y,z
1/2-x,1/2+y,-z
1/2-x,1/2-y,-z
1/2+x,1/2-y,z
loop_
_atom_site_type_symbol
_atom_site_label
_atom_site_fract_x
_atom_site_fract_y
_atom_site_fract_z
Si Si1 0.204993 0.173702 0.874472
Si Si2 0.110716 0.323885 0.330568
Si Si3 0.893797 0.176322 0.339033
Si Si4 0.780947 0.324859 0.447711
Si Si5 0.896116 0.676093 0.127976
Si Si6 0.900856 0.321976 0.460600
O O1 0.184807 0.210037 0.788869
O O2 0.127627 0.258707 0.834772
O O3 0.191493 0.000000 0.873921
O O4 0.314605 0.225134 0.000202
O O5 0.116323 0.500000 0.328841
O O6 0.149411 0.273304 0.430965
O O7 0.175926 0.251704 0.347427
O O8 0.000576 0.264476 0.212790
O O9 0.856212 0.258138 0.357440
O O10 0.996173 0.245129 0.423660
O O11 0.906024 0.000000 0.362251
O O12 0.764180 0.500000 0.432202
O O13 0.828712 0.274240 0.437462
O O14 0.900910 0.500000 0.140592
O O15 0.914705 0.500000 0.470895
#
# Coordination Sequence:
#
# PCOD8085256 Si02
#       6
#     8   8   8   8   8   8
#     4   9  18  30  45  67  93 119 146 180 220 261
#     4   9  17  29  46  66  88 115 144 177 218 261
#     4  10  19  30  45  67  93 118 146 181 221 262
#     4   9  18  30  44  65  90 114 143 180 219 260
#     4   9  17  30  47  67  91 118 149 181 216 262
#     4  10  19  31  47  66  89 118 150 182 219 262
#
# _framework density 16.397552000000001
#
# number of rings (size 3 to 8) (size 9 to 14) (size 15 to 20)
#    0.000    2.667    0.000    3.000    0.000    4.667 
#    0.000    3.333    0.000    1.000    0.000    7.000 
#    0.000    0.000    0.000    0.000    0.000    0.000 
#
# Total GULP energy -297568.167416 kJ/mol
# GULP energy per Si atom -12398.673642 kJ/mol
# Density = 1.636023 g / cm^3
# Si number density = 16.397552 Si / 1000 Ang^3
#
#
#
# Elastic Constant Matrix: (Units=GPa)
#
#
# Indices 1 2 3 4 5 6 
#
# 1 143.3878 40.3423 69.4121 0.0000 11.7686 0.0000
# 2 40.3423 42.7902 29.3699 0.0000 2.6533 0.0000
# 3 69.4121 29.3699 99.7345 0.0000 6.1410 0.0000
# 4 0.0000 0.0000 0.0000 20.1913 0.0000 1.8033
# 5 11.7686 2.6533 6.1410 0.0000 28.9107 0.0000
# 6 0.0000 0.0000 0.0000 1.8033 0.0000 29.2682
#
#
#
# Elastic Compliance Matrix: (Units=1/GPa)
#
#
# Indices 1 2 3 4 5 6 
#
# 1 0.012231 -0.007055 -0.006250 0.000000 -0.003004 0.000000
# 2 -0.007055 0.033381 -0.004973 0.000000 0.000865 0.000000
# 3 -0.006250 -0.004973 0.015864 0.000000 -0.000369 0.000000
# 4 0.000000 0.000000 0.000000 0.049800 0.000000 -0.003068
# 5 -0.003004 0.000865 -0.000369 0.000000 0.035811 0.000000
# 6 0.000000 0.000000 0.000000 -0.003068 0.000000 0.034356
#
#
# Mechanical properties :
#
#
# Convention : Reuss Voigt Hill
#
# Bulk Modulus (GPa) = 40.12945 62.68456 51.40700
# Shear Modulus (GPa) = 22.09393 25.45992 23.77692
#
# Velocity S-wave (km/s) = 3.67467 3.94466 3.81206
# Velocity P-wave (km/s) = 6.52152 7.68493 7.12700
#
# Compressibility (1/GPa) = 0.02491936
#
# Stress axis : x y z
#
# Youngs Moduli (GPa) = 81.75831 29.95680 63.03776
#
# Poissons Ratio (x) = 0.21136 0.39398
# Poissons Ratio (y) = 0.57685 0.31349
# Poissons Ratio (z) = 0.51098 0.14898
#
# Static dielectric constant tensor:
#      x y z
#    x 3.115320 0.000000 0.005470 
#    y 0.000000 3.085420 0.000000 
#    z 0.005470 0.000000 3.217180 
# 
# 
# High freq. dielectric constant tensor:
#      x y z
#    x 1.621770 0.000000 0.000590 
#    y 0.000000 1.633970 0.000000 
#    z 0.000590 0.000000 1.621530 
# 
# From -- ./inp_files/351041.got.cif
#   From: 2010.06.25/outbox.cif.g09.slc.cpg/sg12_176_cif.got.tgz:351041.got - 2010.06.28 00:19:55.
