data_PCOD8085383
_publ_section_title
;
Structure prediction by ZEFSAII (Michael W. Deem and Ramdas Pophale) SiO2 
 PCOD8085383
Probable space group: C 2/M
;
_chemical_formula_sum "Si O2"
_cell_formula_units_Z 64
_cell_length_a 20.286954
_cell_length_b 9.144981
_cell_length_c 24.411790
_cell_angle_alpha 90.000000
_cell_angle_beta 52.422149
_cell_angle_gamma 90.000000
_cell_volume 3589.322609
_symmetry_space_group_name_H-M "C 2/M"
_symmetry_group_IT_number 12
_symmetry_cell_setting 'monoclinic'
loop_
_space_group_symop_operation_xyz
x,y,z
-x,y,-z
-x,-y,-z
x,-y,z
1/2+x,1/2+y,z
1/2-x,1/2+y,-z
1/2-x,1/2-y,-z
1/2+x,1/2-y,z
loop_
_atom_site_type_symbol
_atom_site_label
_atom_site_fract_x
_atom_site_fract_y
_atom_site_fract_z
Si Si1 0.139007 0.833500 0.566661
Si Si2 0.691367 0.169790 0.912993
Si Si3 0.901391 0.330327 0.151514
Si Si4 0.833208 0.169314 0.285942
Si Si5 0.087888 0.673381 0.067993
Si Si6 0.259861 0.333018 0.581727
Si Si7 0.010079 0.165086 0.715748
Si Si8 0.140573 0.327203 0.160960
O O1 0.192962 0.711784 0.569887
O O2 0.150223 0.813161 0.494853
O O3 0.043953 0.814902 0.636077
O O4 0.167929 0.000000 0.568290
O O5 0.629161 0.195074 0.894442
O O6 0.775090 0.258221 0.859353
O O7 0.714110 0.000000 0.908495
O O8 0.646447 0.233806 0.989909
O O9 0.899660 0.500000 0.168840
O O10 0.841162 0.245260 0.223225
O O11 0.994550 0.265147 0.108574
O O12 0.751889 0.234466 0.358214
O O13 0.915240 0.201605 0.280156
O O14 0.817258 0.000000 0.284426
O O15 0.084248 0.500000 0.065707
O O16 0.125019 0.727300 0.106782
O O17 0.245207 0.500000 0.606733
O O18 0.934929 0.276136 0.762477
O O19 0.978040 0.000000 0.741707
O O20 0.146937 0.500000 0.161071
#
# Coordination Sequence:
#
# PCOD8085383 Si02
#       8
#     8   8   8   8   8   8   8   8
#     4   8  15  26  40  64  97 130 163 204 250 291
#     4  10  21  36  54  74 100 133 166 206 254 304
#     4  10  19  34  55  76  98 129 171 210 248 298
#     4  10  19  30  46  70 101 133 165 206 252 296
#     4   9  18  34  55  77  98 126 167 210 252 298
#     4   9  15  24  41  65  96 131 165 201 244 296
#     4   9  17  30  47  68  97 132 168 203 245 295
#     4  11  21  33  51  75 103 132 166 210 250 295
#
# _framework density 17.830663000000001
#
# number of rings (size 3 to 8) (size 9 to 14) (size 15 to 20)
#    0.000    2.500    1.250    2.625    0.000    4.500 
#    0.000    1.250    0.000    1.500    0.000    0.875 
#    0.000    7.000    0.000    0.000    0.000    0.000 
#
# Total GULP energy -396664.840412 kJ/mol
# GULP energy per Si atom -12395.776263 kJ/mol
# Density = 1.779008 g / cm^3
# Si number density = 17.830663 Si / 1000 Ang^3
#
#
#
# Elastic Constant Matrix: (Units=GPa)
#
#
# Indices 1 2 3 4 5 6 
#
# 1 40.8766 22.7801 15.5017 0.0001 -7.1558 -0.0002
# 2 22.7801 68.7200 43.3741 0.0000 -3.0954 -0.0005
# 3 15.5017 43.3741 131.9097 0.0001 -3.3093 -0.0002
# 4 0.0001 0.0000 0.0001 26.3398 0.0000 0.6638
# 5 -7.1558 -3.0954 -3.3093 0.0000 9.3819 -0.0001
# 6 -0.0002 -0.0005 -0.0002 0.6638 -0.0001 19.0451
#
#
#
# Elastic Compliance Matrix: (Units=1/GPa)
#
#
# Indices 1 2 3 4 5 6 
#
# 1 0.034177 -0.010262 -0.000074 0.000000 0.022656 0.000000
# 2 -0.010262 0.021592 -0.005964 0.000000 -0.002807 0.000000
# 3 -0.000074 -0.005964 0.009585 0.000000 0.001357 0.000000
# 4 0.000000 0.000000 0.000000 0.037999 0.000000 -0.001324
# 5 0.022656 -0.002807 0.001357 0.000000 0.123420 0.000001
# 6 0.000000 0.000000 0.000000 -0.001324 0.000001 0.052553
#
#
# Mechanical properties :
#
#
# Convention : Reuss Voigt Hill
#
# Bulk Modulus (GPa) = 30.53143 44.97979 37.75561
# Shear Modulus (GPa) = 15.48738 21.61005 18.54872
#
# Velocity S-wave (km/s) = 2.95037 3.48510 3.22882
# Velocity P-wave (km/s) = 5.36343 6.44014 5.92629
#
# Compressibility (1/GPa) = 0.03275313
#
# Stress axis : x y z
#
# Youngs Moduli (GPa) = 29.25944 46.31417 104.33270
#
# Poissons Ratio (x) = 0.47530 0.00767
# Poissons Ratio (y) = 0.30027 0.62225
# Poissons Ratio (z) = 0.00215 0.27622
#
# Static dielectric constant tensor:
#      x y z
#    x 2.837770 0.000000 0.024400 
#    y 0.000000 3.192750 0.000000 
#    z 0.024400 0.000000 3.751760 
# 
# 
# High freq. dielectric constant tensor:
#      x y z
#    x 1.631390 0.000000 0.002540 
#    y 0.000000 1.683340 0.000000 
#    z 0.002540 0.000000 1.714290 
# 
# From -- ./inp_files/365174.got.cif
#   From: 2010.06.25/outbox.cif.g09.slc.cpg/sg12_183_cif.got.tgz:365174.got - 2010.06.28 00:19:55.
