data_PCOD8085336
_publ_section_title
;
Structure prediction by ZEFSAII (Michael W. Deem and Ramdas Pophale) SiO2 
 PCOD8085336
Probable space group: C 2/M
;
_chemical_formula_sum "Si O2"
_cell_formula_units_Z 40
_cell_length_a 19.697786
_cell_length_b 8.927089
_cell_length_c 23.247719
_cell_angle_alpha 90.000000
_cell_angle_beta 33.574088
_cell_angle_gamma 90.000000
_cell_volume 2260.707549
_symmetry_space_group_name_H-M "C 2/M"
_symmetry_group_IT_number 12
_symmetry_cell_setting 'monoclinic'
loop_
_space_group_symop_operation_xyz
x,y,z
-x,y,-z
-x,-y,-z
x,-y,z
1/2+x,1/2+y,z
1/2-x,1/2+y,-z
1/2-x,1/2-y,-z
1/2+x,1/2-y,z
loop_
_atom_site_type_symbol
_atom_site_label
_atom_site_fract_x
_atom_site_fract_y
_atom_site_fract_z
Si Si1 0.476199 0.323201 0.609185
Si Si2 0.959080 0.674983 0.207203
Si Si3 0.902348 0.322676 0.777223
Si Si4 0.308355 0.677016 0.625310
Si Si5 0.802854 0.324752 0.019117
O O1 0.466095 0.500000 0.628268
O O2 0.467963 0.232386 0.673654
O O3 0.607009 0.280707 0.488768
O O4 0.368893 0.266188 0.642000
O O5 0.938992 0.500000 0.230754
O O6 0.826726 0.750265 0.287673
O O7 0.017117 0.737467 0.225628
O O8 0.049770 0.703571 0.088417
O O9 0.889716 0.500000 0.786181
O O10 0.764251 0.252384 0.879044
O O11 0.299834 0.500000 0.636189
O O12 0.773194 0.500000 0.040486
O O13 0.750000 0.250000 0.000000
#
# Coordination Sequence:
#
# PCOD8085336 Si02
#       5
#     8   8   8   8   8
#     4   9  17  30  50  70  89 118 152 188 228 269
#     4   8  15  28  47  69  91 117 150 187 224 266
#     4  10  19  30  46  68  95 124 152 186 225 267
#     4   8  15  30  49  68  90 117 152 189 226 271
#     4   9  16  28  47  69  93 121 151 185 227 270
#
# _framework density 17.693574999999999
#
# number of rings (size 3 to 8) (size 9 to 14) (size 15 to 20)
#    0.000    3.200    0.000    3.600    0.000    0.800 
#    0.000    3.000    0.000   19.200    0.000    0.000 
#    0.000    0.000    0.000    0.000    0.000    0.000 
#
# Total GULP energy -247805.182204 kJ/mol
# GULP energy per Si atom -12390.259110 kJ/mol
# Density = 1.765330 g / cm^3
# Si number density = 17.693575 Si / 1000 Ang^3
#
#
#
# Elastic Constant Matrix: (Units=GPa)
#
#
# Indices 1 2 3 4 5 6 
#
# 1 58.3332 14.4186 45.3665 0.0000 -18.9560 0.0000
# 2 14.4186 50.0384 27.0550 0.0000 -6.4025 -0.0002
# 3 45.3665 27.0550 110.7338 -0.0001 -28.6691 0.0001
# 4 0.0000 0.0000 -0.0001 26.6216 0.0000 8.6314
# 5 -18.9560 -6.4025 -28.6691 0.0000 24.7595 0.0001
# 6 0.0000 -0.0002 0.0001 8.6314 0.0001 16.8871
#
#
#
# Elastic Compliance Matrix: (Units=1/GPa)
#
#
# Indices 1 2 3 4 5 6 
#
# 1 0.027433 -0.002266 -0.007711 0.000000 0.011488 0.000000
# 2 -0.002266 0.023225 -0.005199 0.000000 -0.001749 0.000000
# 3 -0.007711 -0.005199 0.016543 0.000000 0.011907 0.000000
# 4 0.000000 0.000000 0.000000 0.045025 0.000000 -0.023013
# 5 0.011488 -0.001749 0.011907 0.000000 0.062519 -0.000001
# 6 0.000000 0.000000 0.000000 -0.023013 -0.000001 0.070979
#
#
# Mechanical properties :
#
#
# Convention : Reuss Voigt Hill
#
# Bulk Modulus (GPa) = 27.13765 43.64285 35.39025
# Shear Modulus (GPa) = 17.33952 22.47133 19.90543
#
# Velocity S-wave (km/s) = 3.13388 3.56761 3.35775
# Velocity P-wave (km/s) = 5.33533 6.45677 5.92266
#
# Compressibility (1/GPa) = 0.03684918
#
# Stress axis : x y z
#
# Youngs Moduli (GPa) = 36.45208 43.05756 60.44927
#
# Poissons Ratio (x) = 0.09755 0.46614
# Poissons Ratio (y) = 0.08259 0.31427
# Poissons Ratio (z) = 0.28109 0.22385
#
# Static dielectric constant tensor:
#      x y z
#    x 3.351350 0.000000 -0.343690 
#    y 0.000000 3.007350 0.000000 
#    z -0.343690 0.000000 3.893230 
# 
# 
# High freq. dielectric constant tensor:
#      x y z
#    x 1.655450 0.000000 -0.003770 
#    y 0.000000 1.652040 0.000000 
#    z -0.003770 0.000000 1.702720 
# 
# From -- ./inp_files/152758.got.cif
#   From: 2010.06.25/outbox.cif.g09.slc.cpg/sg12_77_cif.got.tgz:152758.got - 2010.06.28 00:19:55.
