data_PCOD8085188
_publ_section_title
;
Structure prediction by ZEFSAII (Michael W. Deem and Ramdas Pophale) SiO2 
 PCOD8085188
Probable space group: C 2/M
;
_chemical_formula_sum "Si O2"
_cell_formula_units_Z 56
_cell_length_a 25.451873
_cell_length_b 8.680584
_cell_length_c 26.002138
_cell_angle_alpha 90.000000
_cell_angle_beta 34.595116
_cell_angle_gamma 90.000000
_cell_volume 3261.766952
_symmetry_space_group_name_H-M "C 2/M"
_symmetry_group_IT_number 12
_symmetry_cell_setting 'monoclinic'
loop_
_space_group_symop_operation_xyz
x,y,z
-x,y,-z
-x,-y,-z
x,-y,z
1/2+x,1/2+y,z
1/2-x,1/2+y,-z
1/2-x,1/2-y,-z
1/2+x,1/2-y,z
loop_
_atom_site_type_symbol
_atom_site_label
_atom_site_fract_x
_atom_site_fract_y
_atom_site_fract_z
Si Si1 0.982700 0.683137 0.093889
Si Si2 0.463354 0.682610 0.408435
Si Si3 0.175793 0.816901 0.392093
Si Si4 0.144055 0.683150 0.896710
Si Si5 0.149726 0.317851 0.591697
Si Si6 0.130253 0.683122 0.721787
Si Si7 0.341730 0.683440 0.708929
O O1 0.982798 0.500000 0.093530
O O2 0.906542 0.741489 0.114247
O O3 0.953489 0.744301 0.174077
O O4 0.085098 0.742158 0.993988
O O5 0.455979 0.500000 0.407727
O O6 0.404632 0.739120 0.504818
O O7 0.426278 0.761099 0.387009
O O8 0.568518 0.739775 0.332135
O O9 0.272934 0.750907 0.334644
O O10 0.155707 0.751250 0.351362
O O11 0.178838 0.000000 0.387873
O O12 0.146154 0.500000 0.894720
O O13 0.249427 0.745977 0.812322
O O14 0.158639 0.500000 0.582503
O O15 0.250000 0.250000 0.500000
O O16 0.115277 0.260414 0.675569
O O17 0.134119 0.500000 0.720540
O O18 0.341408 0.500000 0.706594
#
# Coordination Sequence:
#
# PCOD8085188 Si02
#       7
#     8   8   8   8   8   8   8
#     4   8  12  19  33  56  86 113 137 173 223 266
#     4  10  19  30  44  65  91 122 152 179 214 259
#     4   9  14  23  39  62  87 112 145 180 215 260
#     4   8  12  18  32  57  87 114 136 170 223 268
#     4  11  21  33  48  65  86 117 153 187 219 254
#     4   9  15  24  40  60  84 111 143 180 218 260
#     4   9  15  23  39  63  90 117 147 180 217 262
#
# _framework density 17.168607999999999
#
# number of rings (size 3 to 8) (size 9 to 14) (size 15 to 20)
#    0.000    2.857    2.857    1.714    0.000    1.714 
#    0.000    0.000    0.000    2.571    0.000    0.000 
#    0.000    1.143    0.000   10.571    0.000    8.714 
#
# Total GULP energy -346948.693930 kJ/mol
# GULP energy per Si atom -12391.024783 kJ/mol
# Density = 1.712953 g / cm^3
# Si number density = 17.168608 Si / 1000 Ang^3
#
#
#
# Elastic Constant Matrix: (Units=GPa)
#
#
# Indices 1 2 3 4 5 6 
#
# 1 141.0685 16.7365 94.7901 -0.0050 0.2130 0.0027
# 2 16.7365 13.7503 15.1463 -0.0096 3.2692 0.0064
# 3 94.7901 15.1463 191.6166 -0.0050 3.4425 0.0034
# 4 -0.0050 -0.0096 -0.0050 7.2106 0.0042 2.4343
# 5 0.2130 3.2692 3.4425 0.0042 27.8628 -0.0018
# 6 0.0027 0.0064 0.0034 2.4343 -0.0018 18.2062
#
#
#
# Elastic Compliance Matrix: (Units=1/GPa)
#
#
# Indices 1 2 3 4 5 6 
#
# 1 0.011512 -0.008852 -0.005023 -0.000009 0.001571 0.000004
# 2 -0.008852 0.088574 -0.002442 0.000132 -0.010023 -0.000048
# 3 -0.005023 -0.002442 0.007908 -0.000001 -0.000652 0.000000
# 4 -0.000009 0.000132 -0.000001 0.145241 -0.000039 -0.019419
# 5 0.001571 -0.010023 -0.000652 -0.000039 0.037135 0.000012
# 6 0.000004 -0.000048 0.000000 -0.019419 0.000012 0.057523
#
#
# Mechanical properties :
#
#
# Convention : Reuss Voigt Hill
#
# Bulk Modulus (GPa) = 13.26988 66.64235 39.95611
# Shear Modulus (GPa) = 12.32596 25.30674 18.81635
#
# Velocity S-wave (km/s) = 2.68234 3.84345 3.31414
# Velocity P-wave (km/s) = 4.16403 7.65486 6.16182
#
# Compressibility (1/GPa) = 0.07535865
#
# Stress axis : x y z
#
# Youngs Moduli (GPa) = 86.86557 11.29003 126.44656
#
# Poissons Ratio (x) = 0.09994 0.63518
# Poissons Ratio (y) = 0.76897 0.30879
# Poissons Ratio (z) = 0.43636 0.02757
#
# Static dielectric constant tensor:
#      x y z
#    x 3.239380 -0.000010 0.037940 
#    y -0.000010 2.559300 0.000010 
#    z 0.037940 0.000010 3.770850 
# 
# 
# High freq. dielectric constant tensor:
#      x y z
#    x 1.644890 0.000000 0.002460 
#    y 0.000000 1.594170 0.000000 
#    z 0.002460 0.000000 1.677020 
# 
# From -- ./inp_files/239349.got.cif
#   From: 2010.06.25/outbox.cif.g09.slc.cpg/sg12_120_cif.got.tgz:239349.got - 2010.06.28 00:19:55.
