data_PCOD8085292
_publ_section_title
;
Structure prediction by ZEFSAII (Michael W. Deem and Ramdas Pophale) SiO2 
 PCOD8085292
Probable space group: C 2/M
;
_chemical_formula_sum "Si O2"
_cell_formula_units_Z 48
_cell_length_a 25.095693
_cell_length_b 8.963496
_cell_length_c 11.891775
_cell_angle_alpha 90.000000
_cell_angle_beta 89.252927
_cell_angle_gamma 90.000000
_cell_volume 2674.769649
_symmetry_space_group_name_H-M "C 2/M"
_symmetry_group_IT_number 12
_symmetry_cell_setting 'monoclinic'
loop_
_space_group_symop_operation_xyz
x,y,z
-x,y,-z
-x,-y,-z
x,-y,z
1/2+x,1/2+y,z
1/2-x,1/2+y,-z
1/2-x,1/2-y,-z
1/2+x,1/2-y,z
loop_
_atom_site_type_symbol
_atom_site_label
_atom_site_fract_x
_atom_site_fract_y
_atom_site_fract_z
Si Si1 0.060318 0.659517 0.499144
Si Si2 0.100535 0.675936 0.259216
Si Si3 0.305001 0.675041 0.635821
Si Si4 0.694500 0.324410 0.621991
Si Si5 0.585051 0.672925 0.712455
Si Si6 0.991714 0.823786 0.871157
O O1 0.090657 0.500000 0.524780
O O2 0.074492 0.722203 0.377297
O O3 0.068316 0.790125 0.587148
O O4 0.000000 0.615301 0.500000
O O5 0.104174 0.500000 0.237240
O O6 0.159696 0.745482 0.268156
O O7 0.063818 0.748469 0.164148
O O8 0.308162 0.500000 0.655968
O O9 0.322713 0.717456 0.506760
O O10 0.244994 0.729498 0.657821
O O11 0.707934 0.500000 0.626178
O O12 0.647734 0.280264 0.713054
O O13 0.580729 0.500000 0.733389
O O14 0.543719 0.745096 0.803487
O O15 0.986264 0.000000 0.851528
O O16 0.000000 0.782867 0.000000
#
# Coordination Sequence:
#
# PCOD8085292 Si02
#       6
#     8   8   8   8   8   8
#     4  10  19  30  45  73 107 135 166 204 253 307
#     4  11  21  33  52  76 106 140 171 210 256 306
#     4  10  19  31  49  75 107 140 171 206 250 305
#     4   9  18  31  47  73 107 140 171 203 248 306
#     4  10  19  32  52  75 103 137 171 208 252 305
#     4  10  22  38  55  76 102 135 175 218 261 303
#
# _framework density 17.945471000000001
#
# number of rings (size 3 to 8) (size 9 to 14) (size 15 to 20)
#    0.000    2.000    3.333    1.000    0.000    2.667 
#    0.000    0.000    0.000    1.000    0.000    0.000 
#    0.000    0.000    0.000    0.000    0.000    0.000 
#
# Total GULP energy -297321.681587 kJ/mol
# GULP energy per Si atom -12388.403399 kJ/mol
# Density = 1.790463 g / cm^3
# Si number density = 17.945471 Si / 1000 Ang^3
#
#
#
# Elastic Constant Matrix: (Units=GPa)
#
#
# Indices 1 2 3 4 5 6 
#
# 1 111.0114 49.0153 54.6993 0.0000 19.9622 0.0000
# 2 49.0153 48.3768 32.0759 0.0000 10.8545 0.0000
# 3 54.6993 32.0759 81.4633 0.0000 17.0599 0.0000
# 4 0.0000 0.0000 0.0000 18.6375 0.0000 6.4697
# 5 19.9622 10.8545 17.0599 0.0000 20.2572 0.0000
# 6 0.0000 0.0000 0.0000 6.4697 0.0000 29.0022
#
#
#
# Elastic Compliance Matrix: (Units=1/GPa)
#
#
# Indices 1 2 3 4 5 6 
#
# 1 0.019451 -0.014211 -0.006126 0.000000 -0.006394 0.000000
# 2 -0.014211 0.039184 -0.005369 0.000000 -0.002470 0.000000
# 3 -0.006126 -0.005369 0.020198 0.000000 -0.008097 0.000000
# 4 0.000000 0.000000 0.000000 0.058159 0.000000 -0.012974
# 5 -0.006394 -0.002470 -0.008097 0.000000 0.063808 0.000000
# 6 0.000000 0.000000 0.000000 -0.012974 0.000000 0.037374
#
#
# Mechanical properties :
#
#
# Convention : Reuss Voigt Hill
#
# Bulk Modulus (GPa) = 36.46828 56.93692 46.70260
# Shear Modulus (GPa) = 16.73762 20.58346 18.66054
#
# Velocity S-wave (km/s) = 3.05732 3.39041 3.22816
# Velocity P-wave (km/s) = 5.72964 6.86463 6.32265
#
# Compressibility (1/GPa) = 0.02742109
#
# Stress axis : x y z
#
# Youngs Moduli (GPa) = 51.41088 25.52048 49.50894
#
# Poissons Ratio (x) = 0.36268 0.30329
# Poissons Ratio (y) = 0.73063 0.26581
# Poissons Ratio (z) = 0.31494 0.13702
#
# Static dielectric constant tensor:
#      x y z
#    x 3.573330 0.000000 -0.077920 
#    y 0.000000 3.272840 0.000000 
#    z -0.077920 0.000000 3.022540 
# 
# 
# High freq. dielectric constant tensor:
#      x y z
#    x 1.707220 0.000000 0.002110 
#    y 0.000000 1.695800 0.000000 
#    z 0.002110 0.000000 1.646880 
# 
# From -- ./inp_files/164193.got.cif
#   From: 2010.06.25/outbox.cif.g09.slc.cpg/sg12_83_cif.got.tgz:164193.got - 2010.06.28 00:19:55.
