data_PCOD8085043
_publ_section_title
;
Structure prediction by ZEFSAII (Michael W. Deem and Ramdas Pophale) SiO2 
 PCOD8085043
Probable space group: C 2/M
;
_chemical_formula_sum "Si O2"
_cell_formula_units_Z 64
_cell_length_a 23.591024
_cell_length_b 9.745364
_cell_length_c 19.334414
_cell_angle_alpha 90.000000
_cell_angle_beta 52.195613
_cell_angle_gamma 90.000000
_cell_volume 3512.063625
_symmetry_space_group_name_H-M "C 2/M"
_symmetry_group_IT_number 12
_symmetry_cell_setting 'monoclinic'
loop_
_space_group_symop_operation_xyz
x,y,z
-x,y,-z
-x,-y,-z
x,-y,z
1/2+x,1/2+y,z
1/2-x,1/2+y,-z
1/2-x,1/2-y,-z
1/2+x,1/2-y,z
loop_
_atom_site_type_symbol
_atom_site_label
_atom_site_fract_x
_atom_site_fract_y
_atom_site_fract_z
Si Si1 0.054099 0.343069 0.898816
Si Si2 0.761312 0.353127 0.895260
Si Si3 0.456438 0.846463 0.842724
Si Si4 0.311391 0.344035 0.183879
Si Si5 0.158012 0.148316 0.092739
Si Si6 0.473230 0.842990 0.668570
Si Si7 0.062453 0.844780 0.508421
Si Si8 0.649706 0.157742 0.347979
O O1 0.074202 0.500000 0.901248
O O2 0.126523 0.256365 0.837937
O O3 0.022306 0.330148 0.845606
O O4 0.000000 0.289330 0.000000
O O5 0.797476 0.500000 0.844971
O O6 0.696236 0.319935 0.892590
O O7 0.821769 0.234891 0.853110
O O8 0.729385 0.373919 0.995147
O O9 0.398288 0.734865 0.910464
O O10 0.473702 0.813302 0.750098
O O11 0.424200 0.000000 0.873019
O O12 0.333877 0.500000 0.185087
O O13 0.233161 0.308626 0.272859
O O14 0.126551 0.000000 0.138624
O O15 0.534010 0.739449 0.595546
O O16 0.396922 0.814951 0.687046
O O17 0.496911 0.000000 0.636551
O O18 0.127736 0.759723 0.426114
O O19 0.000000 0.854169 0.500000
O O20 0.086745 0.000000 0.511287
O O21 0.639205 0.000000 0.379771
#
# Coordination Sequence:
#
# PCOD8085043 Si02
#       8
#     8   8   8   8   8   8   8   8
#     4  10  22  38  54  73  99 134 175 218 264 308
#     4   9  18  32  47  67  98 131 161 197 248 306
#     4  10  20  34  51  70  97 133 170 209 254 303
#     4  10  20  34  53  74  97 130 173 216 253 296
#     4  10  19  29  46  72  98 126 161 203 250 299
#     4   9  17  31  52  75 101 135 169 200 240 298
#     4   9  17  29  47  75 109 137 159 192 243 299
#     4   9  17  30  50  76 103 132 166 201 243 300
#
# _framework density 18.222905000000001
#
# number of rings (size 3 to 8) (size 9 to 14) (size 15 to 20)
#    0.000    2.500    0.000    2.250    0.000    6.250 
#    0.000    2.500    0.000    0.750    0.000    0.000 
#    0.000    0.000    0.000    0.000    0.000    0.000 
#
# Total GULP energy -396480.340934 kJ/mol
# GULP energy per Si atom -12390.010654 kJ/mol
# Density = 1.818143 g / cm^3
# Si number density = 18.222905 Si / 1000 Ang^3
#
#
#
# Elastic Constant Matrix: (Units=GPa)
#
#
# Indices 1 2 3 4 5 6 
#
# 1 91.2948 60.8841 36.8992 0.0005 -6.4318 -0.0004
# 2 60.8841 141.0284 52.4209 0.0011 -12.3202 -0.0018
# 3 36.8992 52.4209 80.8771 0.0002 -9.4281 -0.0001
# 4 0.0005 0.0011 0.0002 25.0391 0.0000 -7.1748
# 5 -6.4318 -12.3202 -9.4281 0.0000 20.8660 0.0002
# 6 -0.0004 -0.0018 -0.0001 -7.1748 0.0002 29.2318
#
#
#
# Elastic Compliance Matrix: (Units=1/GPa)
#
#
# Indices 1 2 3 4 5 6 
#
# 1 0.016209 -0.005598 -0.003768 0.000000 -0.000012 0.000000
# 2 -0.005598 0.011448 -0.004517 0.000000 0.002993 0.000001
# 3 -0.003768 -0.004517 0.017486 0.000000 0.004072 0.000000
# 4 0.000000 0.000000 0.000000 0.042959 0.000000 0.010544
# 5 -0.000012 0.002993 0.004072 0.000000 0.051528 0.000000
# 6 0.000000 0.000001 0.000000 0.010544 0.000000 0.036797
#
#
# Mechanical properties :
#
#
# Convention : Reuss Voigt Hill
#
# Bulk Modulus (GPa) = 57.54900 68.17875 62.86388
# Shear Modulus (GPa) = 23.81104 25.89379 24.85242
#
# Velocity S-wave (km/s) = 3.61869 3.77363 3.69697
# Velocity P-wave (km/s) = 7.00778 7.51546 7.26605
#
# Compressibility (1/GPa) = 0.01737650
#
# Stress axis : x y z
#
# Youngs Moduli (GPa) = 61.69407 87.35114 57.18820
#
# Poissons Ratio (x) = 0.48900 0.21549
# Poissons Ratio (y) = 0.34537 0.25833
# Poissons Ratio (z) = 0.23247 0.39458
#
# Static dielectric constant tensor:
#      x y z
#    x 3.111570 0.000000 0.084320 
#    y 0.000000 3.827940 0.000000 
#    z 0.084320 0.000000 3.257710 
# 
# 
# High freq. dielectric constant tensor:
#      x y z
#    x 1.673210 0.000000 0.002650 
#    y 0.000000 1.718510 0.000000 
#    z 0.002650 0.000000 1.694540 
# 
# From -- ./inp_files/324184.got.cif
#   From: 2010.06.25/outbox.cif.g09.slc.cpg/sg12_163_cif.got.tgz:324184.got - 2010.06.28 00:19:55.
