data_PCOD8085722
_publ_section_title
;
Structure prediction by ZEFSAII (Michael W. Deem and Ramdas Pophale) SiO2 
 PCOD8085722
Probable space group: C 2/M
;
_chemical_formula_sum "Si O2"
_cell_formula_units_Z 48
_cell_length_a 5.123364
_cell_length_b 16.852424
_cell_length_c 30.138747
_cell_angle_alpha 90.000000
_cell_angle_beta 75.662433
_cell_angle_gamma 90.000000
_cell_volume 2521.163018
_symmetry_space_group_name_H-M "C 2/M"
_symmetry_group_IT_number 12
_symmetry_cell_setting 'monoclinic'
loop_
_space_group_symop_operation_xyz
x,y,z
-x,y,-z
-x,-y,-z
x,-y,z
1/2+x,1/2+y,z
1/2-x,1/2+y,-z
1/2-x,1/2-y,-z
1/2+x,1/2-y,z
loop_
_atom_site_type_symbol
_atom_site_label
_atom_site_fract_x
_atom_site_fract_y
_atom_site_fract_z
Si Si1 0.940364 0.093750 0.710529
Si Si2 0.687902 0.302633 0.854614
Si Si3 0.362891 0.699199 0.046930
Si Si4 0.569071 0.304715 0.620325
Si Si5 0.709148 0.408413 0.529979
Si Si6 0.642870 0.093408 0.232804
O O1 0.649179 0.121990 0.739194
O O2 0.009664 0.133485 0.661425
O O3 0.150097 0.122788 0.738656
O O4 0.953320 0.000000 0.702527
O O5 0.405735 0.267811 0.849250
O O6 0.649526 0.344817 0.904752
O O7 0.788552 0.369367 0.817177
O O8 0.562108 0.775099 0.045798
O O9 0.500000 0.649473 0.000000
O O10 0.314359 0.250312 0.623035
O O11 0.635388 0.354428 0.574174
O O12 0.500000 0.391576 0.500000
O O13 0.704286 0.500000 0.545331
O O14 0.000000 0.383350 0.500000
O O15 0.656297 0.000000 0.225650
#
# Coordination Sequence:
#
# PCOD8085722 Si02
#       6
#     8   8   8   8   8   8
#     4  10  22  40  57  74 103 143 179 208 250 313
#     4  10  19  30  49  75 100 130 168 213 259 303
#     4   8  14  25  41  64  94 126 162 203 248 300
#     4  12  25  38  58  87 114 139 171 219 269 302
#     4  10  22  41  63  84 110 147 183 211 248 307
#     4  10  21  36  54  75 102 137 173 213 259 307
#
# _framework density 19.038833
#
# number of rings (size 3 to 8) (size 9 to 14) (size 15 to 20)
#    0.000    2.000    0.000    3.500    0.000    6.000 
#    0.000    6.667    0.000    0.500    0.000    0.000 
#    0.000   17.333    0.000    0.000    0.000    2.667 
#
# Total GULP energy -297535.931758 kJ/mol
# GULP energy per Si atom -12397.330490 kJ/mol
# Density = 1.899550 g / cm^3
# Si number density = 19.038833 Si / 1000 Ang^3
#
#
#
# Elastic Constant Matrix: (Units=GPa)
#
#
# Indices 1 2 3 4 5 6 
#
# 1 137.9939 23.6882 43.2575 0.0000 -11.2643 0.0000
# 2 23.6882 36.5644 46.8970 0.0000 -4.8140 0.0000
# 3 43.2575 46.8970 154.8712 0.0000 -16.3229 0.0000
# 4 0.0000 0.0000 0.0000 -65.2170 0.0000 74.6593
# 5 -11.2643 -4.8140 -16.3229 0.0000 21.6633 0.0000
# 6 0.0000 0.0000 0.0000 74.6593 0.0000 -129.0872
#
#
#
# Elastic Compliance Matrix: (Units=1/GPa)
#
#
# Indices 1 2 3 4 5 6 
#
# 1 0.008432 -0.004009 -0.000840 0.000000 0.002861 0.000000
# 2 -0.004009 0.046624 -0.013172 0.000000 -0.001649 0.000000
# 3 -0.000840 -0.013172 0.011216 0.000000 0.005088 0.000000
# 4 0.000000 0.000000 0.000000 -0.045379 0.000000 -0.026245
# 5 0.002861 -0.001649 0.005088 0.000000 0.051116 0.000000
# 6 0.000000 0.000000 0.000000 -0.026245 0.000000 -0.022926
#
#
# Mechanical properties :
#
#
# Convention : Reuss Voigt Hill
#
# Bulk Modulus (GPa) = 33.07957 61.90165 47.49061
# Shear Modulus (GPa) = 52.52041 -20.15572 16.18234
#
# Velocity S-wave (km/s) = 5.25793 -3.25724 2.91858
# Velocity P-wave (km/s) = 7.36706 4.29392 6.02957
#
# Compressibility (1/GPa) = 0.03023014
#
# Stress axis : x y z
#
# Youngs Moduli (GPa) = 118.60178 21.44826 89.15453
#
# Poissons Ratio (x) = 0.08598 0.07485
# Poissons Ratio (y) = 0.47547 1.17438
# Poissons Ratio (z) = 0.09958 0.28252
#
# Static dielectric constant tensor:
#      x y z
#    x 3.627800 0.000000 -0.018510 
#    y 0.000000 3.144120 0.000000 
#    z -0.018510 0.000000 3.850420 
# 
# 
# High freq. dielectric constant tensor:
#      x y z
#    x 1.767510 0.000000 -0.001140 
#    y 0.000000 1.696710 0.000000 
#    z -0.001140 0.000000 1.767460 
# 
# From -- ./inp_files/330987.got.cif
#   From: 2010.06.25/outbox.cif.g09.slc.cpg/sg12_166_cif.got.tgz:330987.got - 2010.06.28 00:19:55.
