data_PCOD8085714
_publ_section_title
;
Structure prediction by ZEFSAII (Michael W. Deem and Ramdas Pophale) SiO2 
 PCOD8085714
Probable space group: C 2/M
;
_chemical_formula_sum "Si O2"
_cell_formula_units_Z 64
_cell_length_a 28.383479
_cell_length_b 9.351912
_cell_length_c 18.750377
_cell_angle_alpha 90.000000
_cell_angle_beta 44.109992
_cell_angle_gamma 90.000000
_cell_volume 3464.248253
_symmetry_space_group_name_H-M "C 2/M"
_symmetry_group_IT_number 12
_symmetry_cell_setting 'monoclinic'
loop_
_space_group_symop_operation_xyz
x,y,z
-x,y,-z
-x,-y,-z
x,-y,z
1/2+x,1/2+y,z
1/2-x,1/2+y,-z
1/2-x,1/2-y,-z
1/2+x,1/2-y,z
loop_
_atom_site_type_symbol
_atom_site_label
_atom_site_fract_x
_atom_site_fract_y
_atom_site_fract_z
Si Si1 0.647690 0.667221 0.502464
Si Si2 0.796261 0.669967 0.297892
Si Si3 0.479830 0.667155 0.446175
Si Si4 0.914019 0.163096 0.779896
Si Si5 0.052284 0.666387 0.121862
Si Si6 0.101288 0.330890 0.692702
Si Si7 0.168785 0.667841 0.894599
Si Si8 0.735347 0.663131 0.086329
O O1 0.648921 0.500000 0.521276
O O2 0.721427 0.724213 0.399974
O O3 0.598317 0.695725 0.488745
O O4 0.620432 0.753331 0.599294
O O5 0.797431 0.500000 0.293310
O O6 0.848579 0.725048 0.300390
O O7 0.818551 0.736303 0.197235
O O8 0.500000 0.738450 0.500000
O O9 0.496592 0.500000 0.431997
O O10 0.527300 0.732334 0.332721
O O11 0.908686 0.252035 0.858047
O O12 0.844550 0.171913 0.810747
O O13 0.931097 0.000000 0.782421
O O14 0.057805 0.500000 0.133742
O O15 0.974198 0.713452 0.200581
O O16 0.092401 0.701922 0.004810
O O17 0.107772 0.500000 0.673729
O O18 0.180508 0.500000 0.874742
O O19 0.223894 0.729024 0.890868
O O20 0.758684 0.500000 0.047968
O O21 0.750000 0.750000 0.000000
#
# Coordination Sequence:
#
# PCOD8085714 Si02
#       8
#     8   8   8   8   8   8   8   8
#     4  10  19  33  55  77  99 131 166 205 252 299
#     4   9  19  33  51  76 101 128 167 212 253 294
#     4   9  18  30  47  75 103 126 160 204 248 291
#     4  10  19  31  49  74 101 131 165 206 248 292
#     4  10  19  32  52  74 100 134 167 205 250 296
#     4  10  20  34  53  76 100 129 167 210 253 298
#     4   9  18  32  49  74 104 131 165 207 249 293
#     4  10  19  30  49  73  99 130 162 198 241 291
#
# _framework density 18.474426000000001
#
# number of rings (size 3 to 8) (size 9 to 14) (size 15 to 20)
#    0.000    2.375    2.500    0.375    1.750    0.500 
#    0.000    2.500    0.000    4.500    0.000    1.750 
#    0.000    0.000    0.000    0.000    0.000    0.000 
#
# Total GULP energy -396729.474119 kJ/mol
# GULP energy per Si atom -12397.796066 kJ/mol
# Density = 1.843238 g / cm^3
# Si number density = 18.474426 Si / 1000 Ang^3
#
#
#
# Elastic Constant Matrix: (Units=GPa)
#
#
# Indices 1 2 3 4 5 6 
#
# 1 138.1808 23.3448 67.8588 0.0098 -2.6125 -0.0096
# 2 23.3448 24.9344 26.5063 0.0093 2.3582 -0.0186
# 3 67.8588 26.5063 131.0404 0.0004 -6.7219 -0.0066
# 4 0.0098 0.0093 0.0004 21.1085 -0.0061 1.3347
# 5 -2.6125 2.3582 -6.7219 -0.0061 35.4191 0.0064
# 6 -0.0096 -0.0186 -0.0066 1.3347 0.0064 17.8221
#
#
#
# Elastic Compliance Matrix: (Units=1/GPa)
#
#
# Indices 1 2 3 4 5 6 
#
# 1 0.010174 -0.005054 -0.004232 -0.000002 0.000284 -0.000001
# 2 -0.005054 0.054652 -0.008728 -0.000027 -0.005668 0.000055
# 3 -0.004232 -0.008728 0.011716 0.000007 0.002492 -0.000009
# 4 -0.000002 -0.000027 0.000007 0.047600 0.000012 -0.003565
# 5 0.000284 -0.005668 0.002492 0.000012 0.029105 -0.000016
# 6 -0.000001 0.000055 -0.000009 -0.003565 -0.000016 0.056377
#
#
# Mechanical properties :
#
#
# Convention : Reuss Voigt Hill
#
# Bulk Modulus (GPa) = 24.68295 58.84172 41.76233
# Shear Modulus (GPa) = 19.29339 26.63298 22.96319
#
# Velocity S-wave (km/s) = 3.23511 3.80098 3.52941
# Velocity P-wave (km/s) = 5.22917 7.15421 6.26606
#
# Compressibility (1/GPa) = 0.04051380
#
# Stress axis : x y z
#
# Youngs Moduli (GPa) = 98.28677 18.29776 85.35269
#
# Poissons Ratio (x) = 0.09247 0.36120
# Poissons Ratio (y) = 0.49672 0.74499
# Poissons Ratio (z) = 0.41594 0.15971
#
# Static dielectric constant tensor:
#      x y z
#    x 3.664170 -0.000010 -0.104990 
#    y -0.000010 2.973530 0.000010 
#    z -0.104990 0.000010 3.623570 
# 
# 
# High freq. dielectric constant tensor:
#      x y z
#    x 1.726450 0.000000 -0.010630 
#    y 0.000000 1.664390 0.000000 
#    z -0.010630 0.000000 1.726610 
# 
# From -- ./inp_files/292741.got.cif
#   From: 2010.06.25/outbox.cif.g09.slc.cpg/sg12_147_cif.got.tgz:292741.got - 2010.06.28 00:19:55.
