data_PCOD8085480
_publ_section_title
;
Structure prediction by ZEFSAII (Michael W. Deem and Ramdas Pophale) SiO2 
 PCOD8085480
Probable space group: C 2/M
;
_chemical_formula_sum "Si O2"
_cell_formula_units_Z 64
_cell_length_a 25.027520
_cell_length_b 21.669304
_cell_length_c 8.770828
_cell_angle_alpha 90.000000
_cell_angle_beta 130.378297
_cell_angle_gamma 90.000000
_cell_volume 3623.556856
_symmetry_space_group_name_H-M "C 2/M"
_symmetry_group_IT_number 12
_symmetry_cell_setting 'monoclinic'
loop_
_space_group_symop_operation_xyz
x,y,z
-x,y,-z
-x,-y,-z
x,-y,z
1/2+x,1/2+y,z
1/2-x,1/2+y,-z
1/2-x,1/2-y,-z
1/2+x,1/2-y,z
loop_
_atom_site_type_symbol
_atom_site_label
_atom_site_fract_x
_atom_site_fract_y
_atom_site_fract_z
Si Si1 0.069073 0.348151 0.547001
Si Si2 0.801131 0.430942 0.155698
Si Si3 0.229745 0.168144 0.845938
Si Si4 0.135959 0.750750 0.862616
Si Si5 0.928338 0.629467 0.794753
Si Si6 0.923006 0.757953 0.923470
Si Si7 0.285482 0.069139 0.476087
Si Si8 0.292593 0.312577 0.537559
O O1 0.124820 0.397961 0.702802
O O2 0.091425 0.280521 0.645508
O O3 0.055704 0.343602 0.342761
O O4 0.000000 0.371923 0.500000
O O5 0.813000 0.500000 0.121405
O O6 0.769853 0.427587 0.267631
O O7 0.749751 0.400715 0.935435
O O8 0.171961 0.188234 0.862902
O O9 0.195743 0.175095 0.618400
O O10 0.300312 0.207775 0.967537
O O11 0.083752 0.765829 0.906174
O O12 0.902129 0.687211 0.847190
O O13 0.867698 0.578192 0.671952
O O14 0.000000 0.601222 0.000000
O O15 0.869672 0.806126 0.749645
O O16 0.000000 0.773012 0.000000
O O17 0.242048 0.125003 0.465189
O O18 0.264779 0.000000 0.496800
O O19 0.250000 0.250000 0.500000
#
# Coordination Sequence:
#
# PCOD8085480 Si02
#       8
#     8   8   8   8   8   8   8   8
#     4  10  19  30  47  71 104 144 187 224 266 323
#     4   9  20  36  52  73 107 146 186 228 273 329
#     4  10  20  32  54  80 104 141 179 233 281 325
#     4  10  19  32  50  76 106 139 183 228 279 328
#     4  10  19  32  50  75 112 150 188 231 277 331
#     4  11  21  34  54  82 116 149 185 229 283 337
#     4  10  21  37  56  79 109 150 193 234 280 339
#     4  12  21  35  58  84 112 144 186 239 282 335
#
# _framework density 17.662205
#
# number of rings (size 3 to 8) (size 9 to 14) (size 15 to 20)
#    0.000    1.750    2.500    3.000    3.500    2.000 
#    0.000    0.000    0.000    0.375    0.000    0.000 
#    0.000    4.500    0.000    0.000    0.000    0.000 
#
# Total GULP energy -396638.265886 kJ/mol
# GULP energy per Si atom -12394.945809 kJ/mol
# Density = 1.762200 g / cm^3
# Si number density = 17.662205 Si / 1000 Ang^3
#
#
#
# Elastic Constant Matrix: (Units=GPa)
#
#
# Indices 1 2 3 4 5 6 
#
# 1 102.8521 36.5121 29.8923 0.0000 -0.6789 0.0000
# 2 36.5121 101.0722 40.0106 0.0000 7.1381 0.0000
# 3 29.8923 40.0106 94.2370 0.0000 -9.5588 0.0000
# 4 0.0000 0.0000 0.0000 6.7657 0.0000 -3.1966
# 5 -0.6789 7.1381 -9.5588 0.0000 21.1472 0.0000
# 6 0.0000 0.0000 0.0000 -3.1966 0.0000 20.5395
#
#
#
# Elastic Compliance Matrix: (Units=1/GPa)
#
#
# Indices 1 2 3 4 5 6 
#
# 1 0.011549 -0.003339 -0.002194 0.000000 0.000506 0.000000
# 2 -0.003339 0.013807 -0.005541 0.000000 -0.007272 0.000000
# 3 -0.002194 -0.005541 0.014508 0.000000 0.008357 0.000000
# 4 0.000000 0.000000 0.000000 0.159536 0.000000 0.024829
# 5 0.000506 -0.007272 0.008357 0.000000 0.053536 0.000000
# 6 0.000000 0.000000 0.000000 0.024829 0.000000 0.052551
#
#
# Mechanical properties :
#
#
# Convention : Reuss Voigt Hill
#
# Bulk Modulus (GPa) = 56.44705 56.77680 56.61193
# Shear Modulus (GPa) = 14.99068 22.47356 18.73212
#
# Velocity S-wave (km/s) = 2.91648 3.57095 3.26018
# Velocity P-wave (km/s) = 6.58557 7.01555 6.80396
#
# Compressibility (1/GPa) = 0.01771572
#
# Stress axis : x y z
#
# Youngs Moduli (GPa) = 86.58606 72.42676 68.92888
#
# Poissons Ratio (x) = 0.24185 0.15126
# Poissons Ratio (y) = 0.28913 0.38190
# Poissons Ratio (z) = 0.19000 0.40128
#
# Static dielectric constant tensor:
#      x y z
#    x 3.251180 0.000000 -0.078280 
#    y 0.000000 3.163750 0.000000 
#    z -0.078280 0.000000 3.470470 
# 
# 
# High freq. dielectric constant tensor:
#      x y z
#    x 1.679670 0.000000 -0.013640 
#    y 0.000000 1.656050 0.000000 
#    z -0.013640 0.000000 1.687950 
# 
# From -- ./inp_files/99124.got.cif
#   From: 2010.06.25/outbox.cif.g09.slc.cpg/sg12_50_cif.got.tgz:99124.got - 2010.06.28 00:19:55.
