data_PCOD8085555
_publ_section_title
;
Structure prediction by ZEFSAII (Michael W. Deem and Ramdas Pophale) SiO2 
 PCOD8085555
Probable space group: C 2/M
;
_chemical_formula_sum "Si O2"
_cell_formula_units_Z 56
_cell_length_a 9.070832
_cell_length_b 21.667000
_cell_length_c 17.530108
_cell_angle_alpha 90.000000
_cell_angle_beta 121.276022
_cell_angle_gamma 90.000000
_cell_volume 2944.639235
_symmetry_space_group_name_H-M "C 2/M"
_symmetry_group_IT_number 12
_symmetry_cell_setting 'monoclinic'
loop_
_space_group_symop_operation_xyz
x,y,z
-x,y,-z
-x,-y,-z
x,-y,z
1/2+x,1/2+y,z
1/2-x,1/2+y,-z
1/2-x,1/2-y,-z
1/2+x,1/2-y,z
loop_
_atom_site_type_symbol
_atom_site_label
_atom_site_fract_x
_atom_site_fract_y
_atom_site_fract_z
Si Si1 0.978481 0.426738 0.809164
Si Si2 0.676179 0.426997 0.011065
Si Si3 0.554883 0.744753 0.434605
Si Si4 0.875160 0.109970 0.529232
Si Si5 0.515629 0.136120 0.351082
Si Si6 0.824409 0.926600 0.159738
Si Si7 0.180757 0.930677 0.322359
O O1 0.966875 0.500000 0.789093
O O2 0.828766 0.403842 0.826125
O O3 0.162381 0.408210 0.893799
O O4 0.959120 0.387820 0.727202
O O5 0.659995 0.500000 0.001404
O O6 0.500000 0.399500 0.000000
O O7 0.706177 0.400776 0.933830
O O8 0.500000 0.773579 0.500000
O O9 0.750000 0.750000 0.500000
O O10 0.517195 0.671719 0.414679
O O11 0.489934 0.788790 0.347573
O O12 0.685728 0.120255 0.444446
O O13 0.851848 0.066803 0.595868
O O14 0.000000 0.077487 0.500000
O O15 0.347483 0.108015 0.345294
O O16 0.010709 0.901958 0.237127
O O17 0.823152 0.000000 0.160587
O O18 0.212151 0.000000 0.301258
#
# Coordination Sequence:
#
# PCOD8085555 Si02
#       7
#     8   8   8   8   8   8   8
#     4  10  19  30  47  73 104 138 174 213 263 318
#     4   9  16  28  47  70  98 135 176 216 257 304
#     4   9  18  34  53  71  93 126 173 220 255 292
#     4  10  21  36  53  72  98 134 174 217 260 307
#     4  11  20  32  50  73 101 134 171 216 262 308
#     4   9  18  32  47  67 100 139 177 213 251 306
#     4  11  22  34  50  76 109 142 174 211 264 324
#
# _framework density 19.017609
#
# number of rings (size 3 to 8) (size 9 to 14) (size 15 to 20)
#    0.000    2.143    0.000    4.714    0.000    6.000 
#    0.000    0.000    0.000    0.000    0.000    1.000 
#    0.000    4.571    0.000    1.429    0.000    0.000 
#
# Total GULP energy -346913.576071 kJ/mol
# GULP energy per Si atom -12389.770574 kJ/mol
# Density = 1.897432 g / cm^3
# Si number density = 19.017609 Si / 1000 Ang^3
#
#
#
# Elastic Constant Matrix: (Units=GPa)
#
#
# Indices 1 2 3 4 5 6 
#
# 1 142.1379 32.5443 44.5698 0.0000 -3.2117 0.0000
# 2 32.5443 47.1867 35.3560 0.0000 -0.0197 0.0000
# 3 44.5698 35.3560 116.2033 0.0000 -5.4635 0.0000
# 4 0.0000 0.0000 0.0000 5.4499 0.0000 7.0096
# 5 -3.2117 -0.0197 -5.4635 0.0000 40.2852 0.0000
# 6 0.0000 0.0000 0.0000 7.0096 0.0000 15.1076
#
#
#
# Elastic Compliance Matrix: (Units=1/GPa)
#
#
# Indices 1 2 3 4 5 6 
#
# 1 0.008692 -0.004549 -0.001930 0.000000 0.000429 0.000000
# 2 -0.004549 0.029882 -0.007411 0.000000 -0.001353 0.000000
# 3 -0.001930 -0.007411 0.011667 0.000000 0.001425 0.000000
# 4 0.000000 0.000000 0.000000 0.455044 0.000000 -0.211130
# 5 0.000429 -0.001353 0.001425 0.000000 0.025050 0.000000
# 6 0.000000 0.000000 0.000000 -0.211130 0.000000 0.164151
#
#
# Mechanical properties :
#
#
# Convention : Reuss Voigt Hill
#
# Bulk Modulus (GPa) = 44.51777 58.94091 51.72934
# Shear Modulus (GPa) = 6.85165 25.03907 15.94536
#
# Velocity S-wave (km/s) = 1.90016 3.63247 2.89875
# Velocity P-wave (km/s) = 5.31730 6.97519 6.20189
#
# Compressibility (1/GPa) = 0.02246294
#
# Stress axis : x y z
#
# Youngs Moduli (GPa) = 115.05342 33.46524 85.70821
#
# Poissons Ratio (x) = 0.15222 0.16538
# Poissons Ratio (y) = 0.52333 0.63517
# Poissons Ratio (z) = 0.22200 0.24800
#
# Static dielectric constant tensor:
#      x y z
#    x 3.821180 0.000000 -0.025290 
#    y 0.000000 2.326990 0.000000 
#    z -0.025290 0.000000 3.478190 
# 
# 
# High freq. dielectric constant tensor:
#      x y z
#    x 1.770590 0.000000 -0.003210 
#    y 0.000000 1.686450 0.000000 
#    z -0.003210 0.000000 1.731920 
# 
# From -- ./inp_files/198953.got.cif
#   From: 2010.06.25/outbox.cif.g09.slc.cpg/sg12_100_cif.got.tgz:198953.got - 2010.06.28 00:19:55.
