data_PCOD8085969
_publ_section_title
;
Structure prediction by ZEFSAII (Michael W. Deem and Ramdas Pophale) SiO2 
 PCOD8085969
Probable space group: C 2/M
;
_chemical_formula_sum "Si O2"
_cell_formula_units_Z 64
_cell_length_a 21.508961
_cell_length_b 17.316698
_cell_length_c 20.286296
_cell_angle_alpha 90.000000
_cell_angle_beta 29.123507
_cell_angle_gamma 90.000000
_cell_volume 3677.418954
_symmetry_space_group_name_H-M "C 2/M"
_symmetry_group_IT_number 12
_symmetry_cell_setting 'monoclinic'
loop_
_space_group_symop_operation_xyz
x,y,z
-x,y,-z
-x,-y,-z
x,-y,z
1/2+x,1/2+y,z
1/2-x,1/2+y,-z
1/2-x,1/2-y,-z
1/2+x,1/2-y,z
loop_
_atom_site_type_symbol
_atom_site_label
_atom_site_fract_x
_atom_site_fract_y
_atom_site_fract_z
Si Si1 0.813391 0.587244 0.956168
Si Si2 0.252961 0.089338 0.391220
Si Si3 0.553267 0.824311 0.707055
Si Si4 0.510161 0.725881 0.107625
Si Si5 0.124339 0.654282 0.849168
Si Si6 0.748301 0.684515 0.140741
Si Si7 0.965146 0.815953 0.357765
Si Si8 0.467674 0.411879 0.830636
O O1 0.857265 0.500000 0.925281
O O2 0.922854 0.629815 0.812622
O O3 0.797861 0.619964 0.044214
O O4 0.684807 0.594493 0.033511
O O5 0.332800 0.116391 0.381716
O O6 0.335791 0.100413 0.248525
O O7 0.126761 0.143200 0.503688
O O8 0.215232 0.000000 0.433725
O O9 0.524872 0.768987 0.793584
O O10 0.591218 0.767909 0.611248
O O11 0.416130 0.758932 0.138056
O O12 0.491144 0.634798 0.141140
O O13 0.659288 0.741139 0.952269
O O14 0.239713 0.656135 0.794685
O O15 0.000000 0.617209 0.000000
O O16 0.601436 0.703187 0.263669
O O17 0.971814 0.875794 0.291083
O O18 0.514321 0.500000 0.794552
#
# Coordination Sequence:
#
# PCOD8085969 Si02
#       8
#     8   8   8   8   8   8   8   8
#     4   9  16  26  45  74  99 119 149 186 223 264
#     4  11  22  33  46  67  94 121 152 189 228 272
#     4   9  17  30  47  65  90 122 154 188 223 264
#     4   8  15  29  48  68  89 118 157 192 220 259
#     4   9  19  34  50  66  86 120 160 193 221 259
#     4   9  17  30  48  67  92 126 156 185 221 262
#     4  10  19  31  46  67  95 124 152 181 225 279
#     4   9  16  27  46  72  99 121 144 183 233 275
#
# _framework density 17.403511000000002
#
# number of rings (size 3 to 8) (size 9 to 14) (size 15 to 20)
#    0.000    2.750    0.000    2.625    0.000    4.750 
#    0.000    0.625    0.000    3.375    0.000    0.000 
#    0.000    0.000    0.000   31.625    0.000    0.000 
#
# Total GULP energy -396563.573576 kJ/mol
# GULP energy per Si atom -12392.611674 kJ/mol
# Density = 1.736390 g / cm^3
# Si number density = 17.403511 Si / 1000 Ang^3
#
#
#
# Elastic Constant Matrix: (Units=GPa)
#
#
# Indices 1 2 3 4 5 6 
#
# 1 61.4573 34.7531 19.3963 -0.0005 -3.6414 0.0001
# 2 34.7531 89.9981 19.2248 -0.0014 5.2416 0.0005
# 3 19.3963 19.2248 64.2790 -0.0009 -0.1719 0.0003
# 4 -0.0005 -0.0014 -0.0009 23.9928 0.0007 -0.6844
# 5 -3.6414 5.2416 -0.1719 0.0007 15.4896 -0.0002
# 6 0.0001 0.0005 0.0003 -0.6844 -0.0002 16.9761
#
#
#
# Elastic Compliance Matrix: (Units=1/GPa)
#
#
# Indices 1 2 3 4 5 6 
#
# 1 0.022870 -0.008372 -0.004375 0.000000 0.008161 0.000000
# 2 -0.008372 0.015195 -0.002037 0.000001 -0.007133 0.000000
# 3 -0.004375 -0.002037 0.017486 0.000000 -0.000145 0.000000
# 4 0.000000 0.000001 0.000000 0.041727 -0.000002 0.001682
# 5 0.008161 -0.007133 -0.000145 -0.000002 0.068890 0.000001
# 6 0.000000 0.000000 0.000000 0.001682 0.000001 0.058974
#
#
# Mechanical properties :
#
#
# Convention : Reuss Voigt Hill
#
# Bulk Modulus (GPa) = 38.48825 40.27586 39.38206
# Shear Modulus (GPa) = 18.98448 20.78238 19.88343
#
# Velocity S-wave (km/s) = 3.30637 3.45939 3.38375
# Velocity P-wave (km/s) = 6.06130 6.25693 6.15989
#
# Compressibility (1/GPa) = 0.02598195
#
# Stress axis : x y z
#
# Youngs Moduli (GPa) = 43.72513 65.81174 57.18740
#
# Poissons Ratio (x) = 0.55098 0.25021
# Poissons Ratio (y) = 0.36607 0.11651
# Poissons Ratio (z) = 0.19131 0.13408
#
# Static dielectric constant tensor:
#      x y z
#    x 3.240030 0.000000 -0.027870 
#    y 0.000000 3.318850 0.000000 
#    z -0.027870 0.000000 3.188790 
# 
# 
# High freq. dielectric constant tensor:
#      x y z
#    x 1.647670 0.000000 -0.010990 
#    y 0.000000 1.659860 0.000000 
#    z -0.010990 0.000000 1.663830 
# 
# From -- ./inp_files/322416.got.cif
#   From: 2010.06.25/outbox.cif.g09.slc.cpg/sg12_162_cif.got.tgz:322416.got - 2010.06.28 00:19:55.
