data_PCOD8085406
_publ_section_title
;
Structure prediction by ZEFSAII (Michael W. Deem and Ramdas Pophale) SiO2 
 PCOD8085406
Probable space group: C 2/M
;
_chemical_formula_sum "Si O2"
_cell_formula_units_Z 48
_cell_length_a 19.268600
_cell_length_b 9.370578
_cell_length_c 15.722802
_cell_angle_alpha 90.000000
_cell_angle_beta 104.322002
_cell_angle_gamma 90.000000
_cell_volume 2750.646436
_symmetry_space_group_name_H-M "C 2/M"
_symmetry_group_IT_number 12
_symmetry_cell_setting 'monoclinic'
loop_
_space_group_symop_operation_xyz
x,y,z
-x,y,-z
-x,-y,-z
x,-y,z
1/2+x,1/2+y,z
1/2-x,1/2+y,-z
1/2-x,1/2-y,-z
1/2+x,1/2-y,z
loop_
_atom_site_type_symbol
_atom_site_label
_atom_site_fract_x
_atom_site_fract_y
_atom_site_fract_z
Si Si1 0.697543 0.333422 0.722446
Si Si2 0.566939 0.835000 0.963053
Si Si3 0.095781 0.162903 0.269238
Si Si4 0.235197 0.830979 0.409008
Si Si5 0.660074 0.837574 0.143274
Si Si6 0.563497 0.335066 0.789084
O O1 0.697990 0.500000 0.695074
O O2 0.712108 0.234046 0.645871
O O3 0.756892 0.302550 0.813356
O O4 0.621451 0.285034 0.737257
O O5 0.573461 0.747711 0.879285
O O6 0.558000 0.000000 0.935700
O O7 0.500000 0.783994 0.000000
O O8 0.639859 0.806683 0.039131
O O9 0.152689 0.203792 0.359574
O O10 0.107393 0.249739 0.187185
O O11 0.014761 0.191868 0.276328
O O12 0.107165 0.000000 0.246604
O O13 0.250000 0.750000 0.500000
O O14 0.249280 0.000000 0.422595
O O15 0.642633 0.000000 0.160766
O O16 0.575853 0.500000 0.814773
#
# Coordination Sequence:
#
# PCOD8085406 Si02
#       6
#     8   8   8   8   8   8
#     4   9  19  35  53  74 102 133 165 205 251 295
#     4  10  19  30  46  71 102 137 176 211 244 286
#     4   9  18  32  51  74  99 128 165 204 245 294
#     4  10  20  36  58  80  99 125 161 201 246 300
#     4   9  17  31  49  69  97 135 175 209 243 286
#     4  10  20  33  50  74 103 134 167 207 252 291
#
# _framework density 17.450443
#
# number of rings (size 3 to 8) (size 9 to 14) (size 15 to 20)
#    0.000    2.500    1.667    0.500    0.000    3.000 
#    0.000    0.833    0.000    5.000    0.000    0.000 
#    0.000    0.000    0.000    0.000    0.000    0.000 
#
# Total GULP energy -297546.560191 kJ/mol
# GULP energy per Si atom -12397.773341 kJ/mol
# Density = 1.741072 g / cm^3
# Si number density = 17.450443 Si / 1000 Ang^3
#
#
#
# Elastic Constant Matrix: (Units=GPa)
#
#
# Indices 1 2 3 4 5 6 
#
# 1 134.2743 52.6851 70.0695 0.0000 -9.5894 0.0000
# 2 52.6851 71.2276 62.8972 0.0000 -4.4170 0.0000
# 3 70.0695 62.8972 125.4809 0.0000 -0.5705 0.0000
# 4 0.0000 0.0000 0.0000 33.6988 0.0000 -1.9547
# 5 -9.5894 -4.4170 -0.5705 0.0000 19.5014 0.0000
# 6 0.0000 0.0000 0.0000 -1.9547 0.0000 22.7496
#
#
#
# Elastic Compliance Matrix: (Units=1/GPa)
#
#
# Indices 1 2 3 4 5 6 
#
# 1 0.011838 -0.004756 -0.004206 0.000000 0.004621 0.000000
# 2 -0.004756 0.027667 -0.011196 0.000000 0.003600 0.000000
# 3 -0.004206 -0.011196 0.015911 0.000000 -0.004138 0.000000
# 4 0.000000 0.000000 0.000000 0.029823 0.000000 0.002562
# 5 0.004621 0.003600 -0.004138 0.000000 0.054245 0.000000
# 6 0.000000 0.000000 0.000000 0.002562 0.000000 0.044177
#
#
# Mechanical properties :
#
#
# Convention : Reuss Voigt Hill
#
# Bulk Modulus (GPa) = 66.22030 78.03183 72.12607
# Shear Modulus (GPa) = 21.83301 24.87867 23.35584
#
# Velocity S-wave (km/s) = 3.54099 3.77991 3.66240
# Velocity P-wave (km/s) = 7.39920 7.99147 7.70103
#
# Compressibility (1/GPa) = 0.01510111
#
# Stress axis : x y z
#
# Youngs Moduli (GPa) = 84.47198 36.14361 62.84996
#
# Poissons Ratio (x) = 0.17191 0.26432
# Poissons Ratio (y) = 0.40177 0.70367
# Poissons Ratio (z) = 0.35525 0.40466
#
# Static dielectric constant tensor:
#      x y z
#    x 3.526270 0.000000 0.205740 
#    y 0.000000 3.280450 0.000000 
#    z 0.205740 0.000000 3.107370 
# 
# 
# High freq. dielectric constant tensor:
#      x y z
#    x 1.677140 0.000000 0.014700 
#    y 0.000000 1.676040 0.000000 
#    z 0.014700 0.000000 1.656510 
# 
# From -- ./inp_files/221504.got.cif
#   From: 2010.06.25/outbox.cif.g09.slc.cpg/sg12_111_cif.got.tgz:221504.got - 2010.06.28 00:19:55.
