data_PCOD8085895
_publ_section_title
;
Structure prediction by ZEFSAII (Michael W. Deem and Ramdas Pophale) SiO2 
 PCOD8085895
Probable space group: C 2/M
;
_chemical_formula_sum "Si O2"
_cell_formula_units_Z 40
_cell_length_a 25.454744
_cell_length_b 7.705138
_cell_length_c 33.070902
_cell_angle_alpha 90.000000
_cell_angle_beta 159.807226
_cell_angle_gamma 90.000000
_cell_volume 2238.930504
_symmetry_space_group_name_H-M "C 2/M"
_symmetry_group_IT_number 12
_symmetry_cell_setting 'monoclinic'
loop_
_space_group_symop_operation_xyz
x,y,z
-x,y,-z
-x,-y,-z
x,-y,z
1/2+x,1/2+y,z
1/2-x,1/2+y,-z
1/2-x,1/2-y,-z
1/2+x,1/2-y,z
loop_
_atom_site_type_symbol
_atom_site_label
_atom_site_fract_x
_atom_site_fract_y
_atom_site_fract_z
Si Si1 0.208487 0.700925 0.618183
Si Si2 0.033367 0.695320 0.839747
Si Si3 0.365661 0.000000 0.959321
Si Si4 0.775532 0.195176 0.951342
Si Si5 0.377533 0.796646 0.353932
Si Si6 0.709968 0.000000 0.188224
O O1 0.244780 0.500000 0.643144
O O2 0.352174 0.797152 0.702233
O O3 0.185988 0.758728 0.648219
O O4 0.058203 0.742343 0.483619
O O5 0.085031 0.500000 0.886579
O O6 0.120445 0.755650 0.862029
O O7 0.085208 0.806515 0.915943
O O8 0.304081 0.825814 0.935471
O O9 0.304807 0.000000 0.870211
O O10 0.547801 0.000000 0.093144
O O11 0.761079 0.000000 0.923183
O O12 0.298821 0.675567 0.264029
O O13 0.345389 0.000000 0.321525
#
# Coordination Sequence:
#
# PCOD8085895 Si02
#       6
#     8   8   4   8   8   4
#     4   9  18  31  53  84 115 142 171 215 274 329
#     4  10  19  30  53  87 111 140 174 211 274 333
#     4  11  24  40  54  80 106 139 194 223 259 322
#     4  10  21  36  53  78 114 143 172 221 272 317
#     4   9  20  36  52  82 115 141 176 219 269 323
#     4  11  24  37  58  78 102 149 186 225 267 301
#
# _framework density 17.865673999999999
#
# number of rings (size 3 to 8) (size 9 to 14) (size 15 to 20)
#    0.000    2.200    1.000    3.000    5.600    4.000 
#    0.000    2.000    0.000    1.200    0.000    0.000 
#    0.000    0.000    0.000    0.000    0.000    0.000 
#
# Total GULP energy -247983.690442 kJ/mol
# GULP energy per Si atom -12399.184522 kJ/mol
# Density = 1.782501 g / cm^3
# Si number density = 17.865674 Si / 1000 Ang^3
#
#
#
# Elastic Constant Matrix: (Units=GPa)
#
#
# Indices 1 2 3 4 5 6 
#
# 1 86.4485 47.4219 51.3035 0.0116 13.8044 -0.0061
# 2 47.4219 95.3202 43.2127 0.0543 -3.1071 -0.0150
# 3 51.3035 43.2127 111.2492 0.0278 17.7046 -0.0168
# 4 0.0116 0.0543 0.0278 21.3843 0.0017 5.9012
# 5 13.8044 -3.1071 17.7046 0.0017 28.6550 -0.0046
# 6 -0.0061 -0.0150 -0.0168 5.9012 -0.0046 23.1657
#
#
#
# Elastic Compliance Matrix: (Units=1/GPa)
#
#
# Indices 1 2 3 4 5 6 
#
# 1 0.020093 -0.007984 -0.004976 0.000019 -0.007471 -0.000010
# 2 -0.007984 0.016564 -0.004048 -0.000038 0.008143 0.000017
# 3 -0.004976 -0.004048 0.013912 -0.000006 -0.006637 0.000006
# 4 0.000019 -0.000038 -0.000006 0.050299 -0.000015 -0.012813
# 5 -0.007471 0.008143 -0.006637 -0.000015 0.043481 0.000011
# 6 -0.000010 0.000017 0.000006 -0.012813 0.000011 0.046431
#
#
# Mechanical properties :
#
#
# Convention : Reuss Voigt Hill
#
# Bulk Modulus (GPa) = 60.41105 64.09934 62.25519
# Shear Modulus (GPa) = 21.70946 24.71301 23.21123
#
# Velocity S-wave (km/s) = 3.48968 3.72327 3.60836
# Velocity P-wave (km/s) = 7.07987 7.37835 7.23065
#
# Compressibility (1/GPa) = 0.01655326
#
# Stress axis : x y z
#
# Youngs Moduli (GPa) = 49.76758 60.37334 71.87993
#
# Poissons Ratio (x) = 0.48204 0.35767
# Poissons Ratio (y) = 0.39736 0.29095
# Poissons Ratio (z) = 0.24764 0.24438
#
# Static dielectric constant tensor:
#      x y z
#    x 3.151970 0.000000 0.307070 
#    y 0.000000 3.319870 -0.000040 
#    z 0.307070 -0.000040 3.250410 
# 
# 
# High freq. dielectric constant tensor:
#      x y z
#    x 1.664270 0.000000 0.028750 
#    y 0.000000 1.705480 0.000000 
#    z 0.028750 0.000000 1.681870 
# 
# From -- ./inp_files/180323.got.cif
#   From: 2010.06.25/outbox.cif.g09.slc.cpg/sg12_91_cif.got.tgz:180323.got - 2010.06.28 00:19:55.
