data_PCOD8085707
_publ_section_title
;
Structure prediction by ZEFSAII (Michael W. Deem and Ramdas Pophale) SiO2 
 PCOD8085707
Probable space group: C 2/M
;
_chemical_formula_sum "Si O2"
_cell_formula_units_Z 64
_cell_length_a 30.846562
_cell_length_b 9.213179
_cell_length_c 14.062816
_cell_angle_alpha 90.000000
_cell_angle_beta 89.976487
_cell_angle_gamma 90.000000
_cell_volume 3996.580211
_symmetry_space_group_name_H-M "C 2/M"
_symmetry_group_IT_number 12
_symmetry_cell_setting 'monoclinic'
loop_
_space_group_symop_operation_xyz
x,y,z
-x,y,-z
-x,-y,-z
x,-y,z
1/2+x,1/2+y,z
1/2-x,1/2+y,-z
1/2-x,1/2-y,-z
1/2+x,1/2-y,z
loop_
_atom_site_type_symbol
_atom_site_label
_atom_site_fract_x
_atom_site_fract_y
_atom_site_fract_z
Si Si1 0.669569 0.329463 0.778861
Si Si2 0.251340 0.830925 0.901392
Si Si3 0.791637 0.334466 0.604130
Si Si4 0.338807 0.833709 0.790998
Si Si5 0.795934 0.668212 0.389678
Si Si6 0.999092 0.663798 0.112958
Si Si7 0.914929 0.830913 0.104978
Si Si8 0.583957 0.329888 0.115305
O O1 0.670458 0.500000 0.760044
O O2 0.711460 0.276912 0.837273
O O3 0.669414 0.248846 0.677373
O O4 0.627178 0.282334 0.836915
O O5 0.295587 0.793172 0.848107
O O6 0.246480 0.000000 0.922476
O O7 0.250000 0.750000 0.000000
O O8 0.774336 0.500000 0.613467
O O9 0.830181 0.307795 0.679022
O O10 0.810224 0.304793 0.498815
O O11 0.751970 0.229801 0.628091
O O12 0.376498 0.726498 0.822072
O O13 0.352503 0.000000 0.811126
O O14 0.795427 0.500000 0.363307
O O15 0.000177 0.500000 0.152845
O O16 0.955289 0.741981 0.147729
O O17 0.040507 0.750922 0.151909
O O18 0.000000 0.665684 0.000000
O O19 0.925472 0.000000 0.117180
O O20 0.906496 0.793326 0.994712
O O21 0.578085 0.500000 0.131903
#
# Coordination Sequence:
#
# PCOD8085707 Si02
#       8
#     8   8   8   8   8   8   8   8
#     4  10  19  33  48  65  95 131 159 189 237 285
#     4  10  20  32  45  62  91 130 164 192 225 270
#     4   9  18  34  50  65  91 123 155 196 245 287
#     4  10  19  32  48  65  91 127 160 190 233 282
#     4  10  19  30  49  72  90 116 158 204 240 277
#     4   9  17  30  48  69  94 122 155 195 237 276
#     4   9  18  31  48  68  94 129 161 191 231 276
#     4  10  19  31  48  70  96 123 159 198 230 274
#
# _framework density 16.013691000000001
#
# number of rings (size 3 to 8) (size 9 to 14) (size 15 to 20)
#    0.000    2.375    1.250    1.875    0.000    5.500 
#    0.000    0.000    0.000    0.000    0.000    0.875 
#    0.000    7.000    0.000    0.000    0.000    0.000 
#
# Total GULP energy -396853.552796 kJ/mol
# GULP energy per Si atom -12401.673525 kJ/mol
# Density = 1.597724 g / cm^3
# Si number density = 16.013691 Si / 1000 Ang^3
#
#
#
# Elastic Constant Matrix: (Units=GPa)
#
#
# Indices 1 2 3 4 5 6 
#
# 1 118.1877 56.8183 48.3439 0.0000 5.3282 0.0000
# 2 56.8183 76.4792 44.2784 0.0000 2.7107 0.0000
# 3 48.3439 44.2784 87.7504 0.0000 1.9209 0.0000
# 4 0.0000 0.0000 0.0000 25.6055 0.0000 0.0401
# 5 5.3282 2.7107 1.9209 0.0000 9.4273 0.0000
# 6 0.0000 0.0000 0.0000 0.0401 0.0000 30.7643
#
#
#
# Elastic Compliance Matrix: (Units=1/GPa)
#
#
# Indices 1 2 3 4 5 6 
#
# 1 0.014081 -0.008277 -0.003474 0.000000 -0.004870 0.000000
# 2 -0.008277 0.023448 -0.007259 0.000000 -0.000585 0.000000
# 3 -0.003474 -0.007259 0.016960 0.000000 0.000595 0.000000
# 4 0.000000 0.000000 0.000000 0.039054 0.000000 -0.000051
# 5 -0.004870 -0.000585 0.000595 0.000000 0.108875 0.000000
# 6 0.000000 0.000000 0.000000 -0.000051 0.000000 0.032505
#
#
# Mechanical properties :
#
#
# Convention : Reuss Voigt Hill
#
# Bulk Modulus (GPa) = 60.72299 64.58869 62.65584
# Shear Modulus (GPa) = 17.95764 22.02454 19.99109
#
# Velocity S-wave (km/s) = 3.35235 3.71260 3.53707
# Velocity P-wave (km/s) = 7.27916 7.66804 7.47613
#
# Compressibility (1/GPa) = 0.01646823
#
# Stress axis : x y z
#
# Youngs Moduli (GPa) = 71.01775 42.64768 58.96254
#
# Poissons Ratio (x) = 0.35299 0.20486
# Poissons Ratio (y) = 0.58781 0.42801
# Poissons Ratio (z) = 0.24675 0.30958
#
# Static dielectric constant tensor:
#      x y z
#    x 2.981470 0.000000 -0.016010 
#    y 0.000000 3.100060 0.000000 
#    z -0.016010 0.000000 2.991500 
# 
# 
# High freq. dielectric constant tensor:
#      x y z
#    x 1.602750 0.000000 -0.000640 
#    y 0.000000 1.622850 0.000000 
#    z -0.000640 0.000000 1.596000 
# 
# From -- ./inp_files/248337.got.cif
#   From: 2010.06.25/outbox.cif.g09.slc.cpg/sg12_125_cif.got.tgz:248337.got - 2010.06.28 00:19:55.
