data_PCOD8085333
_publ_section_title
;
Structure prediction by ZEFSAII (Michael W. Deem and Ramdas Pophale) SiO2 
 PCOD8085333
Probable space group: C 2/M
;
_chemical_formula_sum "Si O2"
_cell_formula_units_Z 64
_cell_length_a 21.760703
_cell_length_b 8.967218
_cell_length_c 18.827755
_cell_angle_alpha 90.000000
_cell_angle_beta 96.349468
_cell_angle_gamma 90.000000
_cell_volume 3651.379330
_symmetry_space_group_name_H-M "C 2/M"
_symmetry_group_IT_number 12
_symmetry_cell_setting 'monoclinic'
loop_
_space_group_symop_operation_xyz
x,y,z
-x,y,-z
-x,-y,-z
x,-y,z
1/2+x,1/2+y,z
1/2-x,1/2+y,-z
1/2-x,1/2-y,-z
1/2+x,1/2-y,z
loop_
_atom_site_type_symbol
_atom_site_label
_atom_site_fract_x
_atom_site_fract_y
_atom_site_fract_z
Si Si1 0.796880 0.172624 0.602439
Si Si2 0.839156 0.672709 0.470820
Si Si3 0.929443 0.668500 0.015715
Si Si4 0.358548 0.828519 0.736820
Si Si5 0.034681 0.168374 0.845814
Si Si6 0.456725 0.674968 0.428560
Si Si7 0.606111 0.668140 0.122798
Si Si8 0.501624 0.828273 0.294477
O O1 0.838569 0.249320 0.547441
O O2 0.724992 0.197570 0.577824
O O3 0.810293 0.246164 0.679757
O O4 0.815287 0.000000 0.606663
O O5 0.853786 0.500000 0.485293
O O6 0.891075 0.745149 0.428396
O O7 0.905686 0.500000 0.022361
O O8 0.922315 0.754570 0.089377
O O9 0.886848 0.749661 0.951828
O O10 0.000000 0.669326 0.000000
O O11 0.353368 0.754818 0.813738
O O12 0.426762 0.809977 0.714421
O O13 0.339365 0.000000 0.741086
O O14 0.040361 0.261695 0.774002
O O15 0.964758 0.168086 0.863294
O O16 0.058035 0.000000 0.835856
O O17 0.500000 0.715762 0.500000
O O18 0.445530 0.500000 0.419982
O O19 0.490206 0.734899 0.363367
O O20 0.631125 0.500000 0.118772
O O21 0.483103 0.000000 0.303272
#
# Coordination Sequence:
#
# PCOD8085333 Si02
#       8
#     8   8   8   8   8   8   8   8
#     4  10  20  34  52  72  94 120 152 191 233 277
#     4  10  21  36  53  72  93 120 154 191 232 277
#     4   9  15  23  36  55  82 116 153 190 228 272
#     4  10  19  30  46  68  94 125 158 192 233 278
#     4   9  16  26  40  58  83 117 155 191 229 273
#     4  11  23  36  51  71  95 123 155 192 233 276
#     4   9  16  25  38  58  86 119 154 191 229 272
#     4  10  20  32  46  66  93 124 158 194 232 277
#
# _framework density 17.527623999999999
#
# number of rings (size 3 to 8) (size 9 to 14) (size 15 to 20)
#    0.000    2.250    0.000    3.750    0.000   10.500 
#    0.000    0.000    0.000    0.000    0.000    0.000 
#    0.000    1.000    0.000    3.750    0.000    6.125 
#
# Total GULP energy -396893.179186 kJ/mol
# GULP energy per Si atom -12402.911850 kJ/mol
# Density = 1.748773 g / cm^3
# Si number density = 17.527624 Si / 1000 Ang^3
#
#
#
# Elastic Constant Matrix: (Units=GPa)
#
#
# Indices 1 2 3 4 5 6 
#
# 1 24.5158 31.3890 20.1773 0.0000 4.8559 0.0000
# 2 31.3890 139.1942 68.8697 0.0000 19.3059 0.0000
# 3 20.1773 68.8697 136.2374 0.0000 29.8202 0.0000
# 4 0.0000 0.0000 0.0000 39.7792 0.0000 3.4444
# 5 4.8559 19.3059 29.8202 0.0000 19.0422 0.0000
# 6 0.0000 0.0000 0.0000 3.4444 0.0000 19.1261
#
#
#
# Elastic Compliance Matrix: (Units=1/GPa)
#
#
# Indices 1 2 3 4 5 6 
#
# 1 0.058100 -0.011874 -0.003034 0.000000 0.001975 0.000000
# 2 -0.011874 0.012140 -0.003571 0.000000 -0.003688 0.000000
# 3 -0.003034 -0.003571 0.013135 0.000000 -0.016176 0.000000
# 4 0.000000 0.000000 0.000000 0.025537 0.000000 -0.004599
# 5 0.001975 -0.003688 -0.016176 0.000000 0.081082 0.000000
# 6 0.000000 0.000000 0.000000 -0.004599 0.000000 0.053113
#
#
# Mechanical properties :
#
#
# Convention : Reuss Voigt Hill
#
# Bulk Modulus (GPa) = 21.54451 60.09105 40.81778
# Shear Modulus (GPa) = 16.91824 27.55693 22.23759
#
# Velocity S-wave (km/s) = 3.11019 3.96940 3.56577
# Velocity P-wave (km/s) = 5.02157 7.44085 6.34753
#
# Compressibility (1/GPa) = 0.04641554
#
# Stress axis : x y z
#
# Youngs Moduli (GPa) = 17.21178 82.36959 76.12967
#
# Poissons Ratio (x) = 0.97808 0.23101
# Poissons Ratio (y) = 0.20438 0.27188
# Poissons Ratio (z) = 0.05223 0.29417
#
# Static dielectric constant tensor:
#      x y z
#    x 2.743520 0.000000 0.179840 
#    y 0.000000 3.502420 0.000000 
#    z 0.179840 0.000000 3.378130 
# 
# 
# High freq. dielectric constant tensor:
#      x y z
#    x 1.614320 0.000000 0.021190 
#    y 0.000000 1.701170 0.000000 
#    z 0.021190 0.000000 1.687020 
# 
# From -- ./inp_files/281256.got.cif
#   From: 2010.06.25/outbox.cif.g09.slc.cpg/sg12_141_cif.got.tgz:281256.got - 2010.06.28 00:19:55.
