data_PCOD8085759
_publ_section_title
;
Structure prediction by ZEFSAII (Michael W. Deem and Ramdas Pophale) SiO2 
 PCOD8085759
Probable space group: C 2/M
;
_chemical_formula_sum "Si O2"
_cell_formula_units_Z 64
_cell_length_a 23.844392
_cell_length_b 9.149834
_cell_length_c 19.803448
_cell_angle_alpha 90.000000
_cell_angle_beta 57.621658
_cell_angle_gamma 90.000000
_cell_volume 3648.846320
_symmetry_space_group_name_H-M "C 2/M"
_symmetry_group_IT_number 12
_symmetry_cell_setting 'monoclinic'
loop_
_space_group_symop_operation_xyz
x,y,z
-x,y,-z
-x,-y,-z
x,-y,z
1/2+x,1/2+y,z
1/2-x,1/2+y,-z
1/2-x,1/2-y,-z
1/2+x,1/2-y,z
loop_
_atom_site_type_symbol
_atom_site_label
_atom_site_fract_x
_atom_site_fract_y
_atom_site_fract_z
Si Si1 0.646488 0.671598 0.963879
Si Si2 0.374788 0.334482 0.174021
Si Si3 0.404961 0.169976 0.876726
Si Si4 0.555386 0.169913 0.754601
Si Si5 0.219362 0.333275 0.293520
Si Si6 0.706331 0.826041 0.153003
Si Si7 0.283008 0.668747 0.576031
Si Si8 0.655738 0.330765 0.602386
O O1 0.644560 0.500000 0.978928
O O2 0.616174 0.708375 0.910117
O O3 0.722318 0.730823 0.919519
O O4 0.601295 0.750588 0.047862
O O5 0.399404 0.500000 0.170400
O O6 0.418601 0.225747 0.190111
O O7 0.298603 0.320207 0.244444
O O8 0.477149 0.198894 0.799463
O O9 0.351257 0.234434 0.858457
O O10 0.391817 0.000000 0.897546
O O11 0.588290 0.255596 0.670922
O O12 0.572757 0.000000 0.737054
O O13 0.196731 0.500000 0.319916
O O14 0.193048 0.272811 0.238411
O O15 0.188003 0.233513 0.372907
O O16 0.708680 0.000000 0.153869
O O17 0.263723 0.500000 0.597715
O O18 0.338455 0.688495 0.482135
O O19 0.217346 0.756897 0.599657
O O20 0.655252 0.500000 0.623882
#
# Coordination Sequence:
#
# PCOD8085759 Si02
#       8
#     8   8   8   8   8   8   8   8
#     4   9  18  33  54  76  95 123 167 211 251 298
#     4   9  18  32  49  71  99 130 163 201 248 298
#     4  10  21  35  50  71 100 133 167 208 253 289
#     4  11  22  33  48  71 101 135 169 204 243 292
#     4   9  16  29  52  76  98 129 164 200 247 294
#     4   8  16  33  54  74  98 128 166 209 248 290
#     4  10  19  30  49  78 105 126 157 201 246 291
#     4  10  20  33  49  71 102 136 163 194 240 294
#
# _framework density 17.53979
#
# number of rings (size 3 to 8) (size 9 to 14) (size 15 to 20)
#    0.000    2.500    1.250    3.000    0.000    3.500 
#    0.000    5.000    0.000    0.750    0.000    5.250 
#    0.000    0.000    0.000    0.000    0.000    0.000 
#
# Total GULP energy -396780.686574 kJ/mol
# GULP energy per Si atom -12399.396455 kJ/mol
# Density = 1.749987 g / cm^3
# Si number density = 17.539790 Si / 1000 Ang^3
#
#
#
# Elastic Constant Matrix: (Units=GPa)
#
#
# Indices 1 2 3 4 5 6 
#
# 1 43.9300 27.0112 31.9770 -0.0007 0.2731 0.0007
# 2 27.0112 83.9605 57.8973 -0.0009 1.6002 0.0017
# 3 31.9770 57.8973 120.7697 -0.0005 10.6071 0.0007
# 4 -0.0007 -0.0009 -0.0005 32.4707 0.0001 3.0111
# 5 0.2731 1.6002 10.6071 0.0001 22.4660 -0.0001
# 6 0.0007 0.0017 0.0007 3.0111 -0.0001 19.5605
#
#
#
# Elastic Compliance Matrix: (Units=1/GPa)
#
#
# Indices 1 2 3 4 5 6 
#
# 1 0.030412 -0.006161 -0.005326 0.000000 0.002584 0.000000
# 2 -0.006161 0.019220 -0.007793 0.000000 0.002385 -0.000001
# 3 -0.005326 -0.007793 0.013950 0.000000 -0.005967 0.000000
# 4 0.000000 0.000000 0.000000 0.031243 0.000000 -0.004810
# 5 0.002584 0.002385 -0.005967 0.000000 0.047127 0.000000
# 6 0.000000 -0.000001 0.000000 -0.004810 0.000000 0.051864
#
#
# Mechanical properties :
#
#
# Convention : Reuss Voigt Hill
#
# Bulk Modulus (GPa) = 39.96074 53.60348 46.78211
# Shear Modulus (GPa) = 20.77126 23.68442 22.22784
#
# Velocity S-wave (km/s) = 3.44501 3.67866 3.56375
# Velocity P-wave (km/s) = 6.21743 6.97645 6.60785
#
# Compressibility (1/GPa) = 0.02502456
#
# Stress axis : x y z
#
# Youngs Moduli (GPa) = 32.88153 52.02781 71.68313
#
# Poissons Ratio (x) = 0.32052 0.38178
# Poissons Ratio (y) = 0.20257 0.55860
# Poissons Ratio (z) = 0.17513 0.40543
#
# Static dielectric constant tensor:
#      x y z
#    x 3.186540 0.000000 0.204970 
#    y 0.000000 3.171850 0.000000 
#    z 0.204970 0.000000 3.383010 
# 
# 
# High freq. dielectric constant tensor:
#      x y z
#    x 1.651740 0.000000 0.017500 
#    y 0.000000 1.669580 0.000000 
#    z 0.017500 0.000000 1.683010 
# 
# From -- ./inp_files/326811.got.cif
#   From: 2010.06.25/outbox.cif.g09.slc.cpg/sg12_164_cif.got.tgz:326811.got - 2010.06.28 00:19:55.
