data_PCOD8085058
_publ_section_title
;
Structure prediction by ZEFSAII (Michael W. Deem and Ramdas Pophale) SiO2 
 PCOD8085058
Probable space group: C 2/M
;
_chemical_formula_sum "Si O2"
_cell_formula_units_Z 56
_cell_length_a 12.813733
_cell_length_b 13.386263
_cell_length_c 29.325792
_cell_angle_alpha 90.000000
_cell_angle_beta 40.001156
_cell_angle_gamma 90.000000
_cell_volume 3233.424411
_symmetry_space_group_name_H-M "C 2/M"
_symmetry_group_IT_number 12
_symmetry_cell_setting 'monoclinic'
loop_
_space_group_symop_operation_xyz
x,y,z
-x,y,-z
-x,-y,-z
x,-y,z
1/2+x,1/2+y,z
1/2-x,1/2+y,-z
1/2-x,1/2-y,-z
1/2+x,1/2-y,z
loop_
_atom_site_type_symbol
_atom_site_label
_atom_site_fract_x
_atom_site_fract_y
_atom_site_fract_z
Si Si1 0.048241 0.705510 0.283534
Si Si2 0.513536 0.206156 0.191500
Si Si3 0.468268 0.617308 0.580594
Si Si4 0.192978 0.114125 0.274153
Si Si5 0.114014 0.885335 0.823629
Si Si6 0.361416 0.616728 0.081319
Si Si7 0.255046 0.117768 0.426726
O O1 0.971889 0.695906 0.258997
O O2 0.117573 0.818336 0.259744
O O3 0.192624 0.627890 0.245635
O O4 0.918094 0.682100 0.366842
O O5 0.387357 0.128423 0.210997
O O6 0.483768 0.315453 0.179227
O O7 0.699721 0.176414 0.121080
O O8 0.446259 0.500000 0.591109
O O9 0.399291 0.660461 0.650743
O O10 0.658776 0.642584 0.506259
O O11 0.359797 0.655518 0.575464
O O12 0.150954 0.000000 0.277948
O O13 0.072987 0.857086 0.890003
O O14 0.067434 0.000000 0.828285
O O15 0.320063 0.500000 0.091608
O O16 0.500000 0.650063 0.000000
O O17 0.294843 0.000000 0.409997
#
# Coordination Sequence:
#
# PCOD8085058 Si02
#       7
#     8   8   8   8   8   8   8
#     4  10  19  29  47  71  91 121 160 192 227 273
#     4  10  19  32  50  70  95 126 154 185 228 274
#     4   8  15  26  43  66  89 116 151 194 239 275
#     4  10  19  31  46  68  94 120 155 195 234 274
#     4   9  19  33  49  71  97 124 154 187 226 271
#     4   9  18  33  53  76  97 119 152 190 225 265
#     4   9  15  26  45  67  90 117 152 195 237 274
#
# _framework density 17.319099999999999
#
# number of rings (size 3 to 8) (size 9 to 14) (size 15 to 20)
#    0.000    2.714    1.429    1.714    0.000    2.857 
#    0.000    0.000    0.000    0.429    0.000    2.000 
#    0.000    0.000    0.000    0.000    0.000    0.000 
#
# Total GULP energy -346928.542202 kJ/mol
# GULP energy per Si atom -12390.305079 kJ/mol
# Density = 1.727968 g / cm^3
# Si number density = 17.319100 Si / 1000 Ang^3
#
#
#
# Elastic Constant Matrix: (Units=GPa)
#
#
# Indices 1 2 3 4 5 6 
#
# 1 42.0817 20.9339 13.7195 0.0000 -14.6617 0.0000
# 2 20.9339 69.9673 20.7377 0.0000 -11.1163 0.0000
# 3 13.7195 20.7377 99.3237 0.0002 -11.7749 0.0000
# 4 0.0000 0.0000 0.0002 20.2727 0.0000 1.2537
# 5 -14.6617 -11.1163 -11.7749 0.0000 14.7483 0.0000
# 6 0.0000 0.0000 0.0000 1.2537 0.0000 17.2641
#
#
#
# Elastic Compliance Matrix: (Units=1/GPa)
#
#
# Indices 1 2 3 4 5 6 
#
# 1 0.038580 -0.006181 -0.000049 0.000000 0.033656 0.000000
# 2 -0.006181 0.017651 -0.002190 0.000000 0.005410 0.000000
# 3 -0.000049 -0.002190 0.011411 0.000000 0.007411 0.000000
# 4 0.000000 0.000000 0.000000 0.049550 0.000000 -0.003598
# 5 0.033656 0.005410 0.007411 0.000000 0.111258 0.000000
# 6 0.000000 0.000000 0.000000 -0.003598 0.000000 0.058185
#
#
# Mechanical properties :
#
#
# Convention : Reuss Voigt Hill
#
# Bulk Modulus (GPa) = 19.68448 35.79497 27.73973
# Shear Modulus (GPa) = 15.60512 20.85579 18.23046
#
# Velocity S-wave (km/s) = 3.00498 3.47393 3.24793
# Velocity P-wave (km/s) = 4.84049 6.06661 5.48790
#
# Compressibility (1/GPa) = 0.05080144
#
# Stress axis : x y z
#
# Youngs Moduli (GPa) = 25.92002 56.65553 87.63752
#
# Poissons Ratio (x) = 0.35021 0.00425
# Poissons Ratio (y) = 0.16022 0.19193
# Poissons Ratio (z) = 0.00126 0.12408
#
# Static dielectric constant tensor:
#      x y z
#    x 3.096340 0.000000 0.128810 
#    y 0.000000 2.974470 0.000000 
#    z 0.128810 0.000000 3.385680 
# 
# 
# High freq. dielectric constant tensor:
#      x y z
#    x 1.647820 0.000000 -0.002260 
#    y 0.000000 1.649860 0.000000 
#    z -0.002260 0.000000 1.674610 
# 
# From -- ./inp_files/263397.got.cif
#   From: 2010.06.25/outbox.cif.g09.slc.cpg/sg12_132_cif.got.tgz:263397.got - 2010.06.28 00:19:55.
