data_PCOD8085939
_publ_section_title
;
Structure prediction by ZEFSAII (Michael W. Deem and Ramdas Pophale) SiO2 
 PCOD8085939
Probable space group: C 2/M
;
_chemical_formula_sum "Si O2"
_cell_formula_units_Z 64
_cell_length_a 25.115257
_cell_length_b 9.075885
_cell_length_c 22.200925
_cell_angle_alpha 90.000000
_cell_angle_beta 127.638871
_cell_angle_gamma 90.000000
_cell_volume 4007.325308
_symmetry_space_group_name_H-M "C 2/M"
_symmetry_group_IT_number 12
_symmetry_cell_setting 'monoclinic'
loop_
_space_group_symop_operation_xyz
x,y,z
-x,y,-z
-x,-y,-z
x,-y,z
1/2+x,1/2+y,z
1/2-x,1/2+y,-z
1/2-x,1/2-y,-z
1/2+x,1/2-y,z
loop_
_atom_site_type_symbol
_atom_site_label
_atom_site_fract_x
_atom_site_fract_y
_atom_site_fract_z
Si Si1 0.348013 0.831137 0.419811
Si Si2 0.992529 0.831495 0.860307
Si Si3 0.952536 0.330697 0.599846
Si Si4 0.934834 0.663601 0.997600
Si Si5 0.052474 0.833454 0.590227
Si Si6 0.873665 0.331023 0.839838
Si Si7 0.412630 0.326559 0.693157
Si Si8 0.710928 0.829147 0.327317
O O1 0.395702 0.819998 0.510170
O O2 0.379353 0.744764 0.384708
O O3 0.278117 0.757256 0.389843
O O4 0.336591 0.000000 0.392915
O O5 0.925264 0.780546 0.846190
O O6 0.979759 0.799942 0.780542
O O7 0.058256 0.756442 0.935929
O O8 0.003503 0.000000 0.881199
O O9 0.965538 0.500000 0.627412
O O10 0.927812 0.234866 0.638289
O O11 0.022040 0.260583 0.624116
O O12 0.926433 0.500000 0.016061
O O13 0.870639 0.705667 0.909947
O O14 0.000000 0.682726 0.000000
O O15 0.000000 0.836214 0.500000
O O16 0.068738 0.000000 0.622783
O O17 0.900337 0.500000 0.851143
O O18 0.803819 0.313397 0.755127
O O19 0.395195 0.500000 0.678205
O O20 0.349185 0.239076 0.675446
O O21 0.719067 0.000000 0.351036
#
# Coordination Sequence:
#
# PCOD8085939 Si02
#       8
#     8   8   8   8   8   8   8   8
#     4  10  20  33  48  67  90 114 144 183 223 262
#     4   9  16  24  36  56  80 107 140 177 214 251
#     4  10  20  33  49  67  87 114 147 183 222 262
#     4   8  13  22  36  53  75 105 139 173 209 250
#     4   9  17  31  51  71  88 108 138 178 223 265
#     4   8  15  26  38  54  78 109 143 176 210 251
#     4  10  20  32  44  61  89 121 151 184 220 260
#     4  10  19  31  46  63  87 120 154 184 217 260
#
# _framework density 15.970751999999999
#
# number of rings (size 3 to 8) (size 9 to 14) (size 15 to 20)
#    0.000    2.750    0.000    3.000    0.000    7.750 
#    0.000    0.000    0.000    0.000    0.000    0.000 
#    0.000    1.000    0.000    3.000    0.000    6.875 
#
# Total GULP energy -396473.513929 kJ/mol
# GULP energy per Si atom -12389.797310 kJ/mol
# Density = 1.593440 g / cm^3
# Si number density = 15.970752 Si / 1000 Ang^3
#
#
#
# Elastic Constant Matrix: (Units=GPa)
#
#
# Indices 1 2 3 4 5 6 
#
# 1 52.8240 29.7172 26.0145 0.0000 -10.2781 0.0000
# 2 29.7172 102.0708 37.8386 0.0000 -7.2696 0.0000
# 3 26.0145 37.8386 48.9201 0.0000 -5.8394 0.0000
# 4 0.0000 0.0000 0.0000 23.8479 0.0000 -2.6020
# 5 -10.2781 -7.2696 -5.8394 0.0000 1.9440 0.0000
# 6 0.0000 0.0000 0.0000 -2.6020 0.0000 23.0850
#
#
#
# Elastic Compliance Matrix: (Units=1/GPa)
#
#
# Indices 1 2 3 4 5 6 
#
# 1 -0.350453 -0.032776 -0.037553 0.000000 -2.088257 0.000000
# 2 -0.032776 0.011921 -0.011154 0.000000 -0.162214 0.000000
# 3 -0.037553 -0.011154 0.031741 0.000000 -0.144914 0.000000
# 4 0.000000 0.000000 0.000000 0.042454 0.000000 0.004785
# 5 -2.088257 -0.162214 -0.144914 0.000000-11.568361 0.000000
# 6 0.000000 0.000000 0.000000 0.004785 0.000000 0.043858
#
#
# Mechanical properties :
#
#
# Convention : Reuss Voigt Hill
#
# Bulk Modulus (GPa) = -2.12876 43.43949 20.65537
# Shear Modulus (GPa) = -0.42436 17.12501 8.35033
#
# Velocity S-wave (km/s) = -0.51603 3.27811 2.28907
# Velocity P-wave (km/s) = 1.30033 6.44876 4.46630
#
# Compressibility (1/GPa) = -0.46975680
#
# Stress axis : x y z
#
# Youngs Moduli (GPa) = -2.85345 83.88229 31.50488
#
# Poissons Ratio (x) = 2.74930 1.18310
# Poissons Ratio (y) = -0.09352 0.35142
# Poissons Ratio (z) = -0.10716 0.93566
#
# Static dielectric constant tensor:
#      x y z
#    x 2.625690 0.000000 -0.042750 
#    y 0.000000 3.236470 0.000000 
#    z -0.042750 0.000000 3.400940 
# 
# 
# High freq. dielectric constant tensor:
#      x y z
#    x 1.555050 0.000000 -0.005080 
#    y 0.000000 1.632950 0.000000 
#    z -0.005080 0.000000 1.613900 
# 
# From -- ./inp_files/323751.got.cif
#   From: 2010.06.25/outbox.cif.g09.slc.cpg/sg12_162_cif.got.tgz:323751.got - 2010.06.28 00:19:55.
