data_PCOD8085429
_publ_section_title
;
Structure prediction by ZEFSAII (Michael W. Deem and Ramdas Pophale) SiO2 
 PCOD8085429
Probable space group: C 2/M
;
_chemical_formula_sum "Si O2"
_cell_formula_units_Z 60
_cell_length_a 25.351599
_cell_length_b 27.683960
_cell_length_c 8.154881
_cell_angle_alpha 90.000000
_cell_angle_beta 33.666571
_cell_angle_gamma 90.000000
_cell_volume 3172.796719
_symmetry_space_group_name_H-M "C 2/M"
_symmetry_group_IT_number 12
_symmetry_cell_setting 'monoclinic'
loop_
_space_group_symop_operation_xyz
x,y,z
-x,y,-z
-x,-y,-z
x,-y,z
1/2+x,1/2+y,z
1/2-x,1/2+y,-z
1/2-x,1/2-y,-z
1/2+x,1/2-y,z
loop_
_atom_site_type_symbol
_atom_site_label
_atom_site_fract_x
_atom_site_fract_y
_atom_site_fract_z
Si Si1 0.500000 0.920039 0.500000
Si Si2 0.612837 0.945536 0.711442
Si Si3 0.987373 0.727461 0.207889
Si Si4 0.761573 0.852442 0.833511
Si Si5 0.101092 0.632632 0.499234
Si Si6 0.690927 0.946882 0.867772
Si Si7 0.100425 0.798596 0.313640
Si Si8 0.808058 0.734401 0.190065
O O1 0.490232 0.888894 0.359579
O O2 0.403676 0.950753 0.773955
O O3 0.654707 0.907047 0.473531
O O4 0.660432 0.934952 0.761840
O O5 0.635810 0.000000 0.593724
O O6 0.500000 0.936875 0.000000
O O7 0.934745 0.677346 0.299998
O O8 0.919136 0.756801 0.504300
O O9 0.000000 0.754708 0.000000
O O10 0.087431 0.716114 0.033612
O O11 0.763831 0.905386 0.741254
O O12 0.854318 0.844270 0.707477
O O13 0.753349 0.809418 0.723838
O O14 0.669863 0.847786 0.182454
O O15 0.740098 0.000000 0.750381
O O16 0.000000 0.816659 0.500000
O O17 0.175025 0.778448 0.983807
O O18 0.750000 0.750000 0.500000
#
# Coordination Sequence:
#
# PCOD8085429 Si02
#       8
#     4   8   8   8   8   8   8   8
#     4  10  19  30  46  74 110 156 188 218 273 326
#     4  10  20  34  50  75 114 159 196 227 267 331
#     4  11  22  34  55  81 116 154 189 230 283 337
#     4  11  23  37  58  83 110 147 194 243 287 345
#     4  11  21  31  52  79 116 151 196 231 274 329
#     4  10  21  35  52  77 112 147 188 233 283 339
#     4  10  23  43  58  78 112 149 193 243 297 352
#     4  11  23  37  58  83 115 153 194 237 286 340
#
# _framework density 18.910761999999998
#
# number of rings (size 3 to 8) (size 9 to 14) (size 15 to 20)
#    0.000    1.467    2.667    3.400    4.667    2.133 
#    0.000    0.000    0.000    0.400    0.000    0.000 
#    0.000   12.267    0.000    0.000    0.000    0.267 
#
# Total GULP energy -371857.553846 kJ/mol
# GULP energy per Si atom -12395.251795 kJ/mol
# Density = 1.886772 g / cm^3
# Si number density = 18.910762 Si / 1000 Ang^3
#
#
#
# Elastic Constant Matrix: (Units=GPa)
#
#
# Indices 1 2 3 4 5 6 
#
# 1 117.1653 71.6806 27.7679 0.0000 5.6049 0.0000
# 2 71.6806 114.1579 36.3200 0.0000 -2.6793 0.0000
# 3 27.7679 36.3200 61.6326 0.0000 18.7088 0.0000
# 4 0.0000 0.0000 0.0000 17.2663 0.0000 3.0494
# 5 5.6049 -2.6793 18.7088 0.0000 33.0586 0.0000
# 6 0.0000 0.0000 0.0000 3.0494 0.0000 36.0218
#
#
#
# Elastic Compliance Matrix: (Units=1/GPa)
#
#
# Indices 1 2 3 4 5 6 
#
# 1 0.014177 -0.008897 -0.000237 0.000000 -0.002991 0.000000
# 2 -0.008897 0.017225 -0.008481 0.000000 0.007704 0.000000
# 3 -0.000237 -0.008481 0.025991 0.000000 -0.015356 0.000000
# 4 0.000000 0.000000 0.000000 0.058795 0.000000 -0.004977
# 5 -0.002991 0.007704 -0.015356 0.000000 0.040071 0.000000
# 6 0.000000 0.000000 0.000000 -0.004977 0.000000 0.028182
#
#
# Mechanical properties :
#
#
# Convention : Reuss Voigt Hill
#
# Bulk Modulus (GPa) = 45.11710 62.72142 53.91926
# Shear Modulus (GPa) = 22.02065 27.74852 24.88458
#
# Velocity S-wave (km/s) = 3.41611 3.83474 3.63146
# Velocity P-wave (km/s) = 6.28247 7.26953 6.79395
#
# Compressibility (1/GPa) = 0.02216454
#
# Stress axis : x y z
#
# Youngs Moduli (GPa) = 70.53641 58.05413 38.47465
#
# Poissons Ratio (x) = 0.51650 0.00910
# Poissons Ratio (y) = 0.62755 0.32631
# Poissons Ratio (z) = 0.01669 0.49236
#
# Static dielectric constant tensor:
#      x y z
#    x 3.706510 0.000000 0.157210 
#    y 0.000000 3.483540 0.000000 
#    z 0.157210 0.000000 3.222630 
# 
# 
# High freq. dielectric constant tensor:
#      x y z
#    x 1.745530 0.000000 0.026740 
#    y 0.000000 1.720300 0.000000 
#    z 0.026740 0.000000 1.700250 
# 
# From -- ./inp_files/106985.got.cif
#   From: 2010.06.25/outbox.cif.g09.slc.cpg/sg12_54_cif.got.tgz:106985.got - 2010.06.28 00:19:55.
