data_PCOD8085002
_publ_section_title
;
Structure prediction by ZEFSAII (Michael W. Deem and Ramdas Pophale) SiO2 
 PCOD8085002
Probable space group: C 2/M
;
_chemical_formula_sum "Si O2"
_cell_formula_units_Z 56
_cell_length_a 18.688378
_cell_length_b 9.112653
_cell_length_c 18.126864
_cell_angle_alpha 90.000000
_cell_angle_beta 92.181730
_cell_angle_gamma 90.000000
_cell_volume 3084.779938
_symmetry_space_group_name_H-M "C 2/M"
_symmetry_group_IT_number 12
_symmetry_cell_setting 'monoclinic'
loop_
_space_group_symop_operation_xyz
x,y,z
-x,y,-z
-x,-y,-z
x,-y,z
1/2+x,1/2+y,z
1/2-x,1/2+y,-z
1/2-x,1/2-y,-z
1/2+x,1/2-y,z
loop_
_atom_site_type_symbol
_atom_site_label
_atom_site_fract_x
_atom_site_fract_y
_atom_site_fract_z
Si Si1 0.094905 0.335495 0.935804
Si Si2 0.299501 0.328988 0.335646
Si Si3 0.073634 0.666016 0.095143
Si Si4 0.174491 0.827571 0.503819
Si Si5 0.139952 0.674948 0.363982
Si Si6 0.111256 0.829446 0.795636
Si Si7 0.945190 0.170705 0.764169
O O1 0.123857 0.500000 0.928216
O O2 0.133852 0.238051 0.875436
O O3 0.010706 0.330450 0.919704
O O4 0.111182 0.280022 0.020184
O O5 0.292730 0.500000 0.320486
O O6 0.347867 0.302696 0.411349
O O7 0.218626 0.268362 0.341329
O O8 0.339750 0.257383 0.266989
O O9 0.098187 0.500000 0.115245
O O10 0.094682 0.773649 0.162953
O O11 0.250000 0.750000 0.500000
O O12 0.121970 0.747363 0.443446
O O13 0.180039 0.000000 0.485618
O O14 0.135367 0.500000 0.370321
O O15 0.081670 0.734610 0.305332
O O16 0.029254 0.797653 0.772550
O O17 0.125955 0.000000 0.803277
O O18 0.927706 0.000000 0.752123
#
# Coordination Sequence:
#
# PCOD8085002 Si02
#       7
#     8   8   8   8   8   8   8
#     4   8  14  25  42  65  90 118 151 184 221 263
#     4   8  16  31  50  69  88 117 153 184 221 269
#     4   8  14  26  43  62  89 122 152 182 218 266
#     4   9  16  29  49  70  91 116 152 192 225 264
#     4  10  19  32  50  68  90 121 155 189 224 267
#     4   9  17  30  47  68  94 120 148 184 226 271
#     4  10  19  29  45  70  96 119 147 187 230 269
#
# _framework density 18.153645999999998
#
# number of rings (size 3 to 8) (size 9 to 14) (size 15 to 20)
#    0.000    3.143    0.000    3.000    0.000    1.143 
#    0.000    7.857    0.000    5.143    0.000    0.000 
#    0.000    0.000    0.000    0.000    0.000    0.000 
#
# Total GULP energy -346915.982984 kJ/mol
# GULP energy per Si atom -12389.856535 kJ/mol
# Density = 1.811233 g / cm^3
# Si number density = 18.153646 Si / 1000 Ang^3
#
#
#
# Elastic Constant Matrix: (Units=GPa)
#
#
# Indices 1 2 3 4 5 6 
#
# 1 14.1696 8.5961 2.2404 0.0000 -9.2134 0.0000
# 2 8.5961 61.2270 13.9562 0.0000 -2.4669 0.0000
# 3 2.2404 13.9562 51.0893 0.0000 -18.2548 0.0000
# 4 0.0000 0.0000 0.0000 37.9256 0.0000 4.4051
# 5 -9.2134 -2.4669 -18.2548 0.0000 24.9549 0.0000
# 6 0.0000 0.0000 0.0000 4.4051 0.0000 13.7190
#
#
#
# Elastic Compliance Matrix: (Units=1/GPa)
#
#
# Indices 1 2 3 4 5 6 
#
# 1 0.114030 -0.018251 0.019473 0.000000 0.054541 0.000000
# 2 -0.018251 0.020443 -0.008759 0.000000 -0.011125 0.000000
# 3 0.019473 -0.008759 0.031643 0.000000 0.029471 0.000000
# 4 0.000000 0.000000 0.000000 0.027389 0.000000 -0.008794
# 5 0.054541 -0.011125 0.029471 0.000000 0.080667 0.000000
# 6 0.000000 0.000000 0.000000 -0.008794 0.000000 0.075715
#
#
# Mechanical properties :
#
#
# Convention : Reuss Voigt Hill
#
# Bulk Modulus (GPa) = 6.62063 19.56347 13.09205
# Shear Modulus (GPa) = 12.03922 22.09946 17.06934
#
# Velocity S-wave (km/s) = 2.57803 3.49285 3.06971
# Velocity P-wave (km/s) = 3.53788 5.20256 4.44878
#
# Compressibility (1/GPa) = 0.15104313
#
# Stress axis : x y z
#
# Youngs Moduli (GPa) = 8.76959 48.91554 31.60288
#
# Poissons Ratio (x) = 0.89275 -0.61541
# Poissons Ratio (y) = 0.16005 0.27682
# Poissons Ratio (z) = -0.17077 0.42847
#
# Static dielectric constant tensor:
#      x y z
#    x 2.815540 0.000000 -0.365710 
#    y 0.000000 3.357030 0.000000 
#    z -0.365710 0.000000 3.748090 
# 
# 
# High freq. dielectric constant tensor:
#      x y z
#    x 1.644340 0.000000 -0.001040 
#    y 0.000000 1.693080 0.000000 
#    z -0.001040 0.000000 1.726280 
# 
# From -- ./inp_files/280304.got.cif
#   From: 2010.06.25/outbox.cif.g09.slc.cpg/sg12_141_cif.got.tgz:280304.got - 2010.06.28 00:19:55.
