data_PCOD8085318
_publ_section_title
;
Structure prediction by ZEFSAII (Michael W. Deem and Ramdas Pophale) SiO2 
 PCOD8085318
Probable space group: C 2/M
;
_chemical_formula_sum "Si O2"
_cell_formula_units_Z 64
_cell_length_a 18.888101
_cell_length_b 9.311574
_cell_length_c 21.174169
_cell_angle_alpha 90.000000
_cell_angle_beta 85.707400
_cell_angle_gamma 90.000000
_cell_volume 3713.622715
_symmetry_space_group_name_H-M "C 2/M"
_symmetry_group_IT_number 12
_symmetry_cell_setting 'monoclinic'
loop_
_space_group_symop_operation_xyz
x,y,z
-x,y,-z
-x,-y,-z
x,-y,z
1/2+x,1/2+y,z
1/2-x,1/2+y,-z
1/2-x,1/2-y,-z
1/2+x,1/2-y,z
loop_
_atom_site_type_symbol
_atom_site_label
_atom_site_fract_x
_atom_site_fract_y
_atom_site_fract_z
Si Si1 0.076947 0.167080 0.011218
Si Si2 0.122000 0.667248 0.463295
Si Si3 0.530623 0.665021 0.378279
Si Si4 0.872041 0.164915 0.410156
Si Si5 0.859109 0.833725 0.731938
Si Si6 0.765327 0.664327 0.650841
Si Si7 0.780773 0.169107 0.057826
Si Si8 0.335578 0.668961 0.874376
O O1 0.110293 0.226232 0.074956
O O2 0.063743 0.000000 0.022840
O O3 0.133393 0.192881 0.949920
O O4 0.000000 0.239323 0.000000
O O5 0.106163 0.500000 0.472599
O O6 0.052922 0.741027 0.437196
O O7 0.139519 0.733994 0.529440
O O8 0.188592 0.699343 0.414108
O O9 0.548031 0.500000 0.393292
O O10 0.447715 0.689717 0.372213
O O11 0.571175 0.714732 0.311906
O O12 0.815355 0.205249 0.360164
O O13 0.861940 0.000000 0.432981
O O14 0.789832 0.755003 0.709447
O O15 0.871198 0.796724 0.804547
O O16 0.843894 0.000000 0.723920
O O17 0.773548 0.500000 0.670135
O O18 0.739949 0.244678 0.118925
O O19 0.763197 0.000000 0.057051
O O20 0.750000 0.250000 0.000000
O O21 0.319480 0.500000 0.884622
#
# Coordination Sequence:
#
# PCOD8085318 Si02
#       8
#     8   8   8   8   8   8   8   8
#     4   8  14  26  45  71  99 121 145 182 224 260
#     4  10  19  30  46  68  92 118 149 185 229 283
#     4   9  18  32  48  65  88 119 153 189 230 275
#     4  10  19  31  47  67  91 117 148 190 237 279
#     4   9  18  33  50  66  86 119 159 190 223 270
#     4   9  19  33  47  66  91 117 148 190 234 273
#     4   9  16  27  46  71  96 122 152 185 220 259
#     4   9  17  30  49  69  91 122 157 190 222 266
#
# _framework density 17.233844999999999
#
# number of rings (size 3 to 8) (size 9 to 14) (size 15 to 20)
#    0.000    2.875    0.000    2.250    0.000    3.500 
#    0.000    1.250    0.000   13.875    0.000    0.000 
#    0.000    0.000    0.000    0.000    0.000    0.000 
#
# Total GULP energy -396629.409244 kJ/mol
# GULP energy per Si atom -12394.669039 kJ/mol
# Density = 1.719462 g / cm^3
# Si number density = 17.233845 Si / 1000 Ang^3
#
#
#
# Elastic Constant Matrix: (Units=GPa)
#
#
# Indices 1 2 3 4 5 6 
#
# 1 123.2324 37.3046 40.6385 0.0000 6.5476 0.0000
# 2 37.3046 56.0494 33.1275 0.0000 -0.0312 0.0000
# 3 40.6385 33.1275 85.8568 0.0000 5.5108 0.0000
# 4 0.0000 0.0000 0.0000 24.0969 0.0000 -0.4342
# 5 6.5476 -0.0312 5.5108 0.0000 15.3605 0.0000
# 6 0.0000 0.0000 0.0000 -0.4342 0.0000 21.0656
#
#
#
# Elastic Compliance Matrix: (Units=1/GPa)
#
#
# Indices 1 2 3 4 5 6 
#
# 1 0.010929 -0.005646 -0.002758 0.000000 -0.003680 0.000000
# 2 -0.005646 0.026195 -0.007772 0.000000 0.005248 0.000000
# 3 -0.002758 -0.007772 0.016252 0.000000 -0.004670 0.000000
# 4 0.000000 0.000000 0.000000 0.041515 0.000000 0.000856
# 5 -0.003680 0.005248 -0.004670 0.000000 0.068357 0.000000
# 6 0.000000 0.000000 0.000000 0.000856 0.000000 0.047488
#
#
# Mechanical properties :
#
#
# Convention : Reuss Voigt Hill
#
# Bulk Modulus (GPa) = 47.56521 54.14220 50.85371
# Shear Modulus (GPa) = 19.99233 22.37581 21.18407
#
# Velocity S-wave (km/s) = 3.40966 3.60719 3.50982
# Velocity P-wave (km/s) = 6.56969 6.98810 6.78212
#
# Compressibility (1/GPa) = 0.02102377
#
# Stress axis : x y z
#
# Youngs Moduli (GPa) = 91.49978 38.17455 61.53274
#
# Poissons Ratio (x) = 0.21552 0.16973
# Poissons Ratio (y) = 0.51658 0.47823
# Poissons Ratio (z) = 0.25239 0.29669
#
# Static dielectric constant tensor:
#      x y z
#    x 3.550860 0.000000 -0.234890 
#    y 0.000000 3.256960 0.000000 
#    z -0.234890 0.000000 3.315150 
# 
# 
# High freq. dielectric constant tensor:
#      x y z
#    x 1.664080 0.000000 -0.011570 
#    y 0.000000 1.655020 0.000000 
#    z -0.011570 0.000000 1.646160 
# 
# From -- ./inp_files/319101.got.cif
#   From: 2010.06.25/outbox.cif.g09.slc.cpg/sg12_160_cif.got.tgz:319101.got - 2010.06.28 00:19:55.
