data_PCOD8085130
_publ_section_title
;
Structure prediction by ZEFSAII (Michael W. Deem and Ramdas Pophale) SiO2 
 PCOD8085130
Probable space group: C 2/M
;
_chemical_formula_sum "Si O2"
_cell_formula_units_Z 56
_cell_length_a 25.224592
_cell_length_b 8.973830
_cell_length_c 15.193961
_cell_angle_alpha 90.000000
_cell_angle_beta 85.169503
_cell_angle_gamma 90.000000
_cell_volume 3427.107389
_symmetry_space_group_name_H-M "C 2/M"
_symmetry_group_IT_number 12
_symmetry_cell_setting 'monoclinic'
loop_
_space_group_symop_operation_xyz
x,y,z
-x,y,-z
-x,-y,-z
x,-y,z
1/2+x,1/2+y,z
1/2-x,1/2+y,-z
1/2-x,1/2-y,-z
1/2+x,1/2-y,z
loop_
_atom_site_type_symbol
_atom_site_label
_atom_site_fract_x
_atom_site_fract_y
_atom_site_fract_z
Si Si1 0.488074 0.167847 0.604359
Si Si2 0.196876 0.171107 0.927427
Si Si3 0.304599 0.670162 0.883849
Si Si4 0.407241 0.674981 0.380556
Si Si5 0.383706 0.325721 0.584689
Si Si6 0.299840 0.175942 0.712157
Si Si7 0.321174 0.328242 0.259229
O O1 0.500000 0.170946 0.500000
O O2 0.536799 0.245801 0.648012
O O3 0.433802 0.257142 0.630076
O O4 0.481345 0.000000 0.640410
O O5 0.243728 0.290804 0.914000
O O6 0.160401 0.195705 0.845395
O O7 0.219407 0.000000 0.920601
O O8 0.165478 0.194366 0.025082
O O9 0.309525 0.500000 0.851746
O O10 0.326379 0.772983 0.801655
O O11 0.416420 0.500000 0.365837
O O12 0.386666 0.710787 0.481096
O O13 0.364119 0.745443 0.318768
O O14 0.382795 0.500000 0.603631
O O15 0.329779 0.251584 0.626900
O O16 0.238729 0.233856 0.718047
O O17 0.304776 0.000000 0.703349
O O18 0.319427 0.500000 0.285516
#
# Coordination Sequence:
#
# PCOD8085130 Si02
#       7
#     8   8   8   8   8   8   8
#     4   9  17  30  47  65  84 108 142 183 222 257
#     4   8  14  25  41  60  84 114 144 175 213 255
#     4   9  15  24  40  61  84 111 145 182 214 248
#     4   9  17  30  47  65  87 115 146 180 214 251
#     4  10  19  30  45  65  87 113 147 184 218 252
#     4  10  19  30  43  61  89 122 150 177 214 260
#     4   8  15  28  44  63  89 120 148 172 208 259
#
# _framework density 16.340311
#
# number of rings (size 3 to 8) (size 9 to 14) (size 15 to 20)
#    0.000    3.000    0.000    2.571    0.000    3.429 
#    0.000    3.571    0.000    0.000    0.000    1.000 
#    0.000    8.000    0.000    0.000    0.000    0.000 
#
# Total GULP energy -346919.869098 kJ/mol
# GULP energy per Si atom -12389.995325 kJ/mol
# Density = 1.630312 g / cm^3
# Si number density = 16.340311 Si / 1000 Ang^3
#
#
#
# Elastic Constant Matrix: (Units=GPa)
#
#
# Indices 1 2 3 4 5 6 
#
# 1 91.8493 30.4653 45.2354 0.0000 20.7866 0.0000
# 2 30.4653 64.1773 27.6444 0.0000 9.4453 0.0000
# 3 45.2354 27.6444 64.2476 0.0000 23.6889 0.0000
# 4 0.0000 0.0000 0.0000 22.6145 0.0000 -4.7571
# 5 20.7866 9.4453 23.6889 0.0000 13.5398 0.0000
# 6 0.0000 0.0000 0.0000 -4.7571 0.0000 19.5223
#
#
#
# Elastic Compliance Matrix: (Units=1/GPa)
#
#
# Indices 1 2 3 4 5 6 
#
# 1 0.018556 -0.004141 -0.005197 0.000000 -0.016506 0.000000
# 2 -0.004141 0.020093 -0.008188 0.000000 0.006665 0.000000
# 3 -0.005197 -0.008188 0.049869 0.000000 -0.073559 0.000000
# 4 0.000000 0.000000 0.000000 0.046608 0.000000 0.011357
# 5 -0.016506 0.006665 -0.073559 0.000000 0.223244 0.000000
# 6 0.000000 0.000000 0.000000 0.011357 0.000000 0.053991
#
#
# Mechanical properties :
#
#
# Convention : Reuss Voigt Hill
#
# Bulk Modulus (GPa) = 18.70312 47.44048 33.07180
# Shear Modulus (GPa) = 10.74722 18.93061 14.83891
#
# Velocity S-wave (km/s) = 2.56737 3.40740 3.01677
# Velocity P-wave (km/s) = 4.50104 6.67655 5.69367
#
# Compressibility (1/GPa) = 0.05346702
#
# Stress axis : x y z
#
# Youngs Moduli (GPa) = 53.89114 49.76743 20.05236
#
# Poissons Ratio (x) = 0.20607 0.10422
# Poissons Ratio (y) = 0.22314 0.16419
# Poissons Ratio (z) = 0.28008 0.40750
#
# Static dielectric constant tensor:
#      x y z
#    x 3.007500 0.000000 0.238000 
#    y 0.000000 3.067660 0.000000 
#    z 0.238000 0.000000 3.249840 
# 
# 
# High freq. dielectric constant tensor:
#      x y z
#    x 1.589870 0.000000 0.014930 
#    y 0.000000 1.628350 0.000000 
#    z 0.014930 0.000000 1.620940 
# 
# From -- ./inp_files/237453.got.cif
#   From: 2010.06.25/outbox.cif.g09.slc.cpg/sg12_119_cif.got.tgz:237453.got - 2010.06.28 00:19:55.
