data_PCOD8085040
_publ_section_title
;
Structure prediction by ZEFSAII (Michael W. Deem and Ramdas Pophale) SiO2 
 PCOD8085040
Probable space group: C 2/M
;
_chemical_formula_sum "Si O2"
_cell_formula_units_Z 64
_cell_length_a 24.576815
_cell_length_b 9.234828
_cell_length_c 16.966462
_cell_angle_alpha 90.000000
_cell_angle_beta 102.849171
_cell_angle_gamma 90.000000
_cell_volume 3754.326094
_symmetry_space_group_name_H-M "C 2/M"
_symmetry_group_IT_number 12
_symmetry_cell_setting 'monoclinic'
loop_
_space_group_symop_operation_xyz
x,y,z
-x,y,-z
-x,-y,-z
x,-y,z
1/2+x,1/2+y,z
1/2-x,1/2+y,-z
1/2-x,1/2-y,-z
1/2+x,1/2-y,z
loop_
_atom_site_type_symbol
_atom_site_label
_atom_site_fract_x
_atom_site_fract_y
_atom_site_fract_z
Si Si1 0.164649 0.334086 0.998258
Si Si2 0.110967 0.830680 0.210672
Si Si3 0.659856 0.169732 0.820634
Si Si4 0.562744 0.172774 0.676121
Si Si5 0.446518 0.329871 0.649949
Si Si6 0.782568 0.830932 0.847448
Si Si7 0.566075 0.659344 0.524998
Si Si8 0.945934 0.334807 0.939848
O O1 0.185160 0.500000 0.002334
O O2 0.160893 0.265926 0.909477
O O3 0.208097 0.245777 0.065535
O O4 0.103840 0.319740 0.015146
O O5 0.098203 0.789121 0.296917
O O6 0.173244 0.777836 0.205076
O O7 0.064536 0.754683 0.142494
O O8 0.104957 0.000000 0.194799
O O9 0.608908 0.232338 0.752728
O O10 0.719607 0.204620 0.798400
O O11 0.649874 0.000000 0.824141
O O12 0.503400 0.240317 0.680670
O O13 0.583931 0.225306 0.596799
O O14 0.557883 0.000000 0.673319
O O15 0.462269 0.500000 0.656498
O O16 0.415871 0.290026 0.557311
O O17 0.790037 0.000000 0.865853
O O18 0.500000 0.647864 0.500000
O O19 0.591075 0.500000 0.553118
O O20 0.956322 0.500000 0.917433
O O21 0.000000 0.269667 0.000000
#
# Coordination Sequence:
#
# PCOD8085040 Si02
#       8
#     8   8   8   8   8   8   8   8
#     4   9  17  30  45  63  88 119 155 188 220 264
#     4   9  18  31  48  67  87 115 154 191 220 259
#     4   9  18  30  46  67  92 119 148 187 228 268
#     4  10  19  29  46  72  96 118 147 182 225 271
#     4   9  18  32  48  68  93 121 149 181 223 273
#     4   9  17  32  49  65  87 117 154 192 227 258
#     4   8  15  30  48  64  91 123 147 177 222 271
#     4   9  18  29  43  62  90 125 152 178 222 273
#
# _framework density 17.047000000000001
#
# number of rings (size 3 to 8) (size 9 to 14) (size 15 to 20)
#    0.000    3.000    0.000    1.500    1.750    3.000 
#    0.000    2.500    0.000    0.750    0.000    0.000 
#    0.000    0.000    0.000    0.000    0.000    1.250 
#
# Total GULP energy -396608.136679 kJ/mol
# GULP energy per Si atom -12394.004271 kJ/mol
# Density = 1.700820 g / cm^3
# Si number density = 17.047000 Si / 1000 Ang^3
#
#
#
# Elastic Constant Matrix: (Units=GPa)
#
#
# Indices 1 2 3 4 5 6 
#
# 1 57.0496 23.5531 49.0029 0.0000 -1.8078 0.0000
# 2 23.5531 40.7688 33.3697 0.0000 -0.8382 0.0000
# 3 49.0029 33.3697 121.1339 0.0000 -17.1688 0.0000
# 4 0.0000 0.0000 0.0000 26.4619 0.0000 0.7852
# 5 -1.8078 -0.8382 -17.1688 0.0000 24.8957 0.0000
# 6 0.0000 0.0000 0.0000 0.7852 0.0000 16.4819
#
#
#
# Elastic Compliance Matrix: (Units=1/GPa)
#
#
# Indices 1 2 3 4 5 6 
#
# 1 0.030000 -0.008896 -0.010439 0.000000 -0.005320 0.000000
# 2 -0.008896 0.034999 -0.006613 0.000000 -0.004028 0.000000
# 3 -0.010439 -0.006613 0.015695 0.000000 0.009843 0.000000
# 4 0.000000 0.000000 0.000000 0.037844 0.000000 -0.001803
# 5 -0.005320 -0.004028 0.009843 0.000000 0.046434 0.000000
# 6 0.000000 0.000000 0.000000 -0.001803 0.000000 0.060758
#
#
# Mechanical properties :
#
#
# Convention : Reuss Voigt Hill
#
# Bulk Modulus (GPa) = 34.72752 47.86708 41.29730
# Shear Modulus (GPa) = 17.40790 21.10302 19.25546
#
# Velocity S-wave (km/s) = 3.19904 3.52224 3.36453
# Velocity P-wave (km/s) = 5.83618 6.68446 6.27467
#
# Compressibility (1/GPa) = 0.02879561
#
# Stress axis : x y z
#
# Youngs Moduli (GPa) = 33.33362 28.57263 63.71322
#
# Poissons Ratio (x) = 0.25419 0.66512
# Poissons Ratio (y) = 0.29655 0.42136
# Poissons Ratio (z) = 0.34798 0.18896
#
# Static dielectric constant tensor:
#      x y z
#    x 3.196640 0.000000 -0.154830 
#    y 0.000000 3.104100 0.000000 
#    z -0.154830 0.000000 3.576060 
# 
# 
# High freq. dielectric constant tensor:
#      x y z
#    x 1.643230 0.000000 -0.011890 
#    y 0.000000 1.642400 0.000000 
#    z -0.011890 0.000000 1.655190 
# 
# From -- ./inp_files/244112.got.cif
#   From: 2010.06.25/outbox.cif.g09.slc.cpg/sg12_123_cif.got.tgz:244112.got - 2010.06.28 00:19:55.
