data_PCOD8085143
_publ_section_title
;
Structure prediction by ZEFSAII (Michael W. Deem and Ramdas Pophale) SiO2 
 PCOD8085143
Probable space group: C 2/M
;
_chemical_formula_sum "Si O2"
_cell_formula_units_Z 64
_cell_length_a 29.666887
_cell_length_b 8.984434
_cell_length_c 30.070129
_cell_angle_alpha 90.000000
_cell_angle_beta 154.137399
_cell_angle_gamma 90.000000
_cell_volume 3496.214831
_symmetry_space_group_name_H-M "C 2/M"
_symmetry_group_IT_number 12
_symmetry_cell_setting 'monoclinic'
loop_
_space_group_symop_operation_xyz
x,y,z
-x,y,-z
-x,-y,-z
x,-y,z
1/2+x,1/2+y,z
1/2-x,1/2+y,-z
1/2-x,1/2-y,-z
1/2+x,1/2-y,z
loop_
_atom_site_type_symbol
_atom_site_label
_atom_site_fract_x
_atom_site_fract_y
_atom_site_fract_z
Si Si1 0.329623 0.824290 0.103707
Si Si2 0.478606 0.662309 0.530384
Si Si3 0.647573 0.672742 0.784510
Si Si4 0.274161 0.175419 0.329444
Si Si5 0.819535 0.673568 0.271802
Si Si6 0.788331 0.674102 0.645737
Si Si7 0.910875 0.169325 0.587887
Si Si8 0.936642 0.674250 0.700105
O O1 0.310835 0.761247 0.136174
O O2 0.443892 0.779612 0.188531
O O3 0.312886 0.000000 0.089643
O O4 0.250000 0.750000 0.000000
O O5 0.500000 0.613302 0.500000
O O6 0.482543 0.500000 0.560710
O O7 0.368322 0.737648 0.435552
O O8 0.560569 0.786850 0.616869
O O9 0.671391 0.500000 0.812663
O O10 0.715078 0.731431 0.802089
O O11 0.524473 0.703770 0.667890
O O12 0.257700 0.217748 0.262528
O O13 0.186543 0.234916 0.285771
O O14 0.290957 0.000000 0.347758
O O15 0.806293 0.500000 0.249873
O O16 0.801755 0.500000 0.667787
O O17 0.674127 0.709350 0.524556
O O18 0.873429 0.733315 0.686403
O O19 0.888957 0.262402 0.612585
O O20 0.902255 0.000000 0.595728
O O21 0.922745 0.500000 0.684025
#
# Coordination Sequence:
#
# PCOD8085143 Si02
#       8
#     8   8   8   8   8   8   8   8
#     4  10  20  36  56  78 102 125 153 195 246 297
#     4   9  16  26  40  57  81 119 165 208 246 280
#     4  10  19  31  49  74 100 129 164 199 241 291
#     4  10  20  30  41  61  90 127 169 208 243 279
#     4  10  19  30  43  63  93 126 163 206 245 283
#     4  10  19  31  46  67  97 133 170 203 236 278
#     4   9  18  30  45  67  96 129 165 202 237 281
#     4   9  19  33  50  72  97 126 160 199 242 288
#
# _framework density 18.305512
#
# number of rings (size 3 to 8) (size 9 to 14) (size 15 to 20)
#    0.000    2.375    0.000    3.000    0.000    6.000 
#    0.000    0.000    0.000    0.000    0.000    0.875 
#    0.000    7.000    0.000    0.000    0.000    0.000 
#
# Total GULP energy -396493.770349 kJ/mol
# GULP energy per Si atom -12390.430323 kJ/mol
# Density = 1.826385 g / cm^3
# Si number density = 18.305512 Si / 1000 Ang^3
#
#
#
# Elastic Constant Matrix: (Units=GPa)
#
#
# Indices 1 2 3 4 5 6 
#
# 1 157.1432 50.1657 34.7765 0.0000 -24.9974 0.0000
# 2 50.1657 65.8707 25.7957 -0.0001 -9.0313 0.0002
# 3 34.7765 25.7957 54.9058 0.0001 -16.5465 0.0000
# 4 0.0000 -0.0001 0.0001 21.4902 0.0001 -6.9173
# 5 -24.9974 -9.0313 -16.5465 0.0001 14.0892 0.0001
# 6 0.0000 0.0002 0.0000 -6.9173 0.0001 34.1324
#
#
#
# Elastic Compliance Matrix: (Units=1/GPa)
#
#
# Indices 1 2 3 4 5 6 
#
# 1 0.010745 -0.006382 0.001091 0.000000 0.016255 0.000000
# 2 -0.006382 0.022455 -0.008640 0.000000 -0.007076 0.000000
# 3 0.001091 -0.008640 0.031723 0.000000 0.033653 0.000000
# 4 0.000000 0.000000 0.000000 0.049780 -0.000001 0.010089
# 5 0.016255 -0.007076 0.033653 -0.000001 0.134802 0.000000
# 6 0.000000 0.000000 0.000000 0.010089 0.000000 0.031342
#
#
# Mechanical properties :
#
#
# Convention : Reuss Voigt Hill
#
# Bulk Modulus (GPa) = 26.98223 55.48839 41.23531
# Shear Modulus (GPa) = 15.57326 25.08782 20.33054
#
# Velocity S-wave (km/s) = 2.91991 3.70605 3.33622
# Velocity P-wave (km/s) = 5.11271 6.97791 6.11682
#
# Compressibility (1/GPa) = 0.03706142
#
# Stress axis : x y z
#
# Youngs Moduli (GPa) = 93.06440 44.53364 31.52301
#
# Poissons Ratio (x) = 0.28421 -0.03439
# Poissons Ratio (y) = 0.59393 0.27236
# Poissons Ratio (z) = -0.10154 0.38477
#
# Static dielectric constant tensor:
#      x y z
#    x 14.550700 -0.000030 -15.475340 
#    y -0.000030 3.352170 0.000040 
#    z -15.475340 0.000040 24.966420 
# 
# 
# High freq. dielectric constant tensor:
#      x y z
#    x 1.732260 0.000000 -0.023210 
#    y 0.000000 1.717140 0.000000 
#    z -0.023210 0.000000 1.644730 
# 
# From -- ./inp_files/384515.got.cif
#   From: 2010.06.25/outbox.cif.g09.slc.cpg/sg12_193_cif.got.tgz:384515.got - 2010.06.28 00:19:55.
