data_PCOD8085459
_publ_section_title
;
Structure prediction by ZEFSAII (Michael W. Deem and Ramdas Pophale) SiO2 
 PCOD8085459
Probable space group: C 2/M
;
_chemical_formula_sum "Si O2"
_cell_formula_units_Z 40
_cell_length_a 12.988267
_cell_length_b 13.350782
_cell_length_c 15.434603
_cell_angle_alpha 90.000000
_cell_angle_beta 62.556369
_cell_angle_gamma 90.000000
_cell_volume 2375.223356
_symmetry_space_group_name_H-M "C 2/M"
_symmetry_group_IT_number 12
_symmetry_cell_setting 'monoclinic'
loop_
_space_group_symop_operation_xyz
x,y,z
-x,y,-z
-x,-y,-z
x,-y,z
1/2+x,1/2+y,z
1/2-x,1/2+y,-z
1/2-x,1/2-y,-z
1/2+x,1/2-y,z
loop_
_atom_site_type_symbol
_atom_site_label
_atom_site_fract_x
_atom_site_fract_y
_atom_site_fract_z
Si Si1 0.425833 0.614528 0.112492
Si Si2 0.161825 0.263720 0.612492
Si Si3 0.522833 0.115681 0.397131
Si Si4 0.776944 0.744657 0.746190
Si Si5 0.530136 0.384298 0.256890
O O1 0.378354 0.500000 0.126347
O O2 0.321822 0.695235 0.155391
O O3 0.509600 0.626824 0.162589
O O4 0.500000 0.641864 0.000000
O O5 0.250000 0.250000 0.500000
O O6 0.224446 0.288698 0.678059
O O7 0.084337 0.361075 0.624011
O O8 0.077690 0.166375 0.650492
O O9 0.500000 0.166329 0.500000
O O10 0.640570 0.153930 0.310620
O O11 0.539892 0.000000 0.402785
O O12 0.846975 0.831882 0.768549
O O13 0.536310 0.500000 0.283291
#
# Coordination Sequence:
#
# PCOD8085459 Si02
#       5
#     8   8   8   8   8
#     4   9  18  34  55  77  98 125 164 206 251 298
#     4  10  19  32  47  68  99 130 166 201 238 288
#     4  10  19  30  47  70  94 125 164 200 239 285
#     4  10  19  33  52  70 101 131 160 207 242 293
#     4   9  20  34  50  73 100 132 166 203 247 296
#
# _framework density 16.840520999999999
#
# number of rings (size 3 to 8) (size 9 to 14) (size 15 to 20)
#    0.000    2.400    2.000    0.600    0.000    3.200 
#    0.000    1.000    0.000    0.600    0.000    0.000 
#    0.000    0.000    0.000    0.000    0.000    0.000 
#
# Total GULP energy -247954.863642 kJ/mol
# GULP energy per Si atom -12397.743182 kJ/mol
# Density = 1.680219 g / cm^3
# Si number density = 16.840521 Si / 1000 Ang^3
#
#
#
# Elastic Constant Matrix: (Units=GPa)
#
#
# Indices 1 2 3 4 5 6 
#
# 1 111.6608 43.0506 44.8378 0.0000 0.6548 0.0000
# 2 43.0506 78.5807 35.7569 0.0000 -0.7153 0.0000
# 3 44.8378 35.7569 112.2760 0.0000 -10.1515 0.0000
# 4 0.0000 0.0000 0.0000 14.6868 0.0000 11.0214
# 5 0.6548 -0.7153 -10.1515 0.0000 20.0575 0.0000
# 6 0.0000 0.0000 0.0000 11.0214 0.0000 10.6595
#
#
#
# Elastic Compliance Matrix: (Units=1/GPa)
#
#
# Indices 1 2 3 4 5 6 
#
# 1 0.012385 -0.005215 -0.003499 0.000000 -0.002361 0.000000
# 2 -0.005215 0.017152 -0.003468 0.000000 -0.000973 0.000000
# 3 -0.003499 -0.003468 0.011954 0.000000 0.006041 0.000000
# 4 0.000000 0.000000 0.000000 0.303838 0.000000 -0.314154
# 5 -0.002361 -0.000973 0.006041 0.000000 0.052957 0.000000
# 6 0.000000 0.000000 0.000000 -0.314154 0.000000 0.418634
#
#
# Mechanical properties :
#
#
# Convention : Reuss Voigt Hill
#
# Bulk Modulus (GPa) = 58.38143 61.08977 59.73560
# Shear Modulus (GPa) = 5.90324 21.00556 13.45440
#
# Velocity S-wave (km/s) = 1.87430 3.53558 2.82960
# Velocity P-wave (km/s) = 6.27905 7.28157 6.79881
#
# Compressibility (1/GPa) = 0.01712873
#
# Stress axis : x y z
#
# Youngs Moduli (GPa) = 80.74323 58.30311 83.65053
#
# Poissons Ratio (x) = 0.30403 0.29267
# Poissons Ratio (y) = 0.42104 0.29009
# Poissons Ratio (z) = 0.28250 0.20219
#
# Static dielectric constant tensor:
#      x y z
#    x 3.087960 0.000000 0.168180 
#    y 0.000000 3.063760 0.000000 
#    z 0.168180 0.000000 3.118150 
# 
# 
# High freq. dielectric constant tensor:
#      x y z
#    x 1.657900 0.000000 0.000710 
#    y 0.000000 1.639350 0.000000 
#    z 0.000710 0.000000 1.645650 
# 
# From -- ./inp_files/129111.got.cif
#   From: 2010.06.25/outbox.cif.g09.slc.cpg/sg12_65_cif.got.tgz:129111.got - 2010.06.28 00:19:55.
