data_PCOD8085574
_publ_section_title
;
Structure prediction by ZEFSAII (Michael W. Deem and Ramdas Pophale) SiO2 
 PCOD8085574
Probable space group: C 2/M
;
_chemical_formula_sum "Si O2"
_cell_formula_units_Z 40
_cell_length_a 12.748289
_cell_length_b 34.812489
_cell_length_c 5.011723
_cell_angle_alpha 90.000000
_cell_angle_beta 97.561608
_cell_angle_gamma 90.000000
_cell_volume 2204.859227
_symmetry_space_group_name_H-M "C 2/M"
_symmetry_group_IT_number 12
_symmetry_cell_setting 'monoclinic'
loop_
_space_group_symop_operation_xyz
x,y,z
-x,y,-z
-x,-y,-z
x,-y,z
1/2+x,1/2+y,z
1/2-x,1/2+y,-z
1/2-x,1/2-y,-z
1/2+x,1/2-y,z
loop_
_atom_site_type_symbol
_atom_site_label
_atom_site_fract_x
_atom_site_fract_y
_atom_site_fract_z
Si Si1 0.375029 0.457632 0.458628
Si Si2 0.714040 0.671948 0.168177
Si Si3 0.125117 0.089900 0.044053
Si Si4 0.430948 0.207415 0.239644
Si Si5 0.613728 0.707576 0.634612
O O1 0.500000 0.461333 0.500000
O O2 0.325352 0.500000 0.390641
O O3 0.341631 0.442896 0.736898
O O4 0.337407 0.426498 0.228048
O O5 0.691710 0.626931 0.150237
O O6 0.836006 0.679003 0.128185
O O7 0.698294 0.690367 0.455491
O O8 0.635346 0.692222 0.936202
O O9 0.000000 0.099433 0.000000
O O10 0.500000 0.188254 0.500000
O O11 0.382035 0.246459 0.347262
O O12 0.500000 0.216171 0.000000
O O13 0.500000 0.692419 0.500000
#
# Coordination Sequence:
#
# PCOD8085574 Si02
#       5
#     8   8   8   8   8
#     4   9  17  30  47  68 101 138 163 187 230 297
#     4  12  22  35  54  76 105 135 170 218 265 298
#     4  10  19  30  47  75 103 130 163 199 244 299
#     4  11  23  39  54  72  98 136 184 222 255 301
#     4  11  21  35  53  76 102 135 171 210 261 314
#
# _framework density 18.141746000000001
#
# number of rings (size 3 to 8) (size 9 to 14) (size 15 to 20)
#    0.000    1.400    0.000    8.400    0.000    4.000 
#    0.000    0.000    0.000    0.000    0.000    0.000 
#    0.000   16.000    0.000    0.000    0.000    0.000 
#
# Total GULP energy -248020.357963 kJ/mol
# GULP energy per Si atom -12401.017898 kJ/mol
# Density = 1.810045 g / cm^3
# Si number density = 18.141746 Si / 1000 Ang^3
#
#
#
# Elastic Constant Matrix: (Units=GPa)
#
#
# Indices 1 2 3 4 5 6 
#
# 1 52.8558 41.5018 18.8071 0.0000 2.0369 0.0000
# 2 41.5018 111.1885 33.7013 0.0000 3.9578 0.0000
# 3 18.8071 33.7013 96.0161 0.0000 -4.4861 0.0000
# 4 0.0000 0.0000 0.0000 12.4622 0.0000 14.6421
# 5 2.0369 3.9578 -4.4861 0.0000 25.0381 0.0000
# 6 0.0000 0.0000 0.0000 14.6421 0.0000 -40.3303
#
#
#
# Elastic Compliance Matrix: (Units=1/GPa)
#
#
# Indices 1 2 3 4 5 6 
#
# 1 0.027119 -0.009466 -0.002040 0.000000 -0.001075 0.000000
# 2 -0.009466 0.013495 -0.002971 0.000000 -0.001895 0.000000
# 3 -0.002040 -0.002971 0.011987 0.000000 0.002783 0.000000
# 4 0.000000 0.000000 0.000000 0.056249 0.000000 0.020421
# 5 -0.001075 -0.001895 0.002783 0.000000 0.040825 0.000000
# 6 0.000000 0.000000 0.000000 0.020421 0.000000 -0.017381
#
#
# Mechanical properties :
#
#
# Convention : Reuss Voigt Hill
#
# Bulk Modulus (GPa) = 42.28686 49.78678 46.03682
# Shear Modulus (GPa) = 29.56303 10.50402 20.03352
#
# Velocity S-wave (km/s) = 4.04116 2.40885 3.32667
# Velocity P-wave (km/s) = 6.71821 5.93629 6.33932
#
# Compressibility (1/GPa) = 0.02364801
#
# Stress axis : x y z
#
# Youngs Moduli (GPa) = 36.87440 74.10187 83.42136
#
# Poissons Ratio (x) = 0.70144 0.17016
# Poissons Ratio (y) = 0.34905 0.24785
# Poissons Ratio (z) = 0.07521 0.22016
#
# Static dielectric constant tensor:
#      x y z
#    x 3.084740 0.000000 -0.070980 
#    y 0.000000 3.309850 0.000000 
#    z -0.070980 0.000000 3.630730 
# 
# 
# High freq. dielectric constant tensor:
#      x y z
#    x 1.656080 0.000000 -0.013220 
#    y 0.000000 1.691340 0.000000 
#    z -0.013220 0.000000 1.725940 
# 
# From -- ./inp_files/8531.got.cif
#   From: 2010.06.25/outbox.cif.g09.slc.cpg/sg12_5_cif.got.tgz:8531.got - 2010.06.28 00:19:55.
