data_PCOD8085215
_publ_section_title
;
Structure prediction by ZEFSAII (Michael W. Deem and Ramdas Pophale) SiO2 
 PCOD8085215
Probable space group: C 2/M
;
_chemical_formula_sum "Si O2"
_cell_formula_units_Z 48
_cell_length_a 18.437189
_cell_length_b 9.260142
_cell_length_c 21.146502
_cell_angle_alpha 90.000000
_cell_angle_beta 48.286279
_cell_angle_gamma 90.000000
_cell_volume 2695.059771
_symmetry_space_group_name_H-M "C 2/M"
_symmetry_group_IT_number 12
_symmetry_cell_setting 'monoclinic'
loop_
_space_group_symop_operation_xyz
x,y,z
-x,y,-z
-x,-y,-z
x,-y,z
1/2+x,1/2+y,z
1/2-x,1/2+y,-z
1/2-x,1/2-y,-z
1/2+x,1/2-y,z
loop_
_atom_site_type_symbol
_atom_site_label
_atom_site_fract_x
_atom_site_fract_y
_atom_site_fract_z
Si Si1 0.464945 0.159576 0.765715
Si Si2 0.853500 0.337350 0.245684
Si Si3 0.345278 0.333378 0.924916
Si Si4 0.381815 0.165761 0.414565
Si Si5 0.755252 0.334272 0.596666
Si Si6 0.521095 0.333014 0.917273
O O1 0.560108 0.169432 0.754115
O O2 0.384542 0.274044 0.834739
O O3 0.504386 0.190043 0.671185
O O4 0.418046 0.000000 0.797918
O O5 0.824816 0.500000 0.244241
O O6 0.758853 0.259436 0.331349
O O7 0.887470 0.255898 0.162565
O O8 0.319893 0.500000 0.930817
O O9 0.424922 0.305514 0.932314
O O10 0.250000 0.250000 0.000000
O O11 0.319713 0.284560 0.413619
O O12 0.362340 0.184360 0.501636
O O13 0.352623 0.000000 0.411793
O O14 0.734026 0.500000 0.626742
O O15 0.551214 0.500000 0.899347
O O16 0.500000 0.277535 0.000000
#
# Coordination Sequence:
#
# PCOD8085215 Si02
#       6
#     8   8   8   8   8   8
#     4   8  14  25  38  53  77 107 138 172 208 247
#     4   9  16  25  37  55  80 109 139 171 210 253
#     4  10  19  30  45  64  86 113 143 176 214 254
#     4   8  14  22  32  49  74 104 136 170 208 249
#     4   9  14  20  32  50  74 105 138 169 204 248
#     4   9  18  32  48  65  85 111 145 182 217 253
#
# _framework density 17.810365000000001
#
# number of rings (size 3 to 8) (size 9 to 14) (size 15 to 20)
#    0.000    3.167    0.000    2.500    0.000    5.667 
#    0.000    0.000    0.000    0.000    0.000    0.000 
#    0.000    1.333    0.000   15.333    0.000   17.000 
#
# Total GULP energy -297339.948876 kJ/mol
# GULP energy per Si atom -12389.164536 kJ/mol
# Density = 1.776983 g / cm^3
# Si number density = 17.810365 Si / 1000 Ang^3
#
#
#
# Elastic Constant Matrix: (Units=GPa)
#
#
# Indices 1 2 3 4 5 6 
#
# 1 8.0948 16.3966 21.7495 0.0000 1.7438 0.0000
# 2 16.3966 121.3763 94.7915 0.0000 -0.0044 0.0001
# 3 21.7495 94.7915 208.2433 0.0000 6.5141 0.0000
# 4 0.0000 0.0000 0.0000 36.5167 0.0000 -1.4213
# 5 1.7438 -0.0044 6.5141 0.0000 17.1338 0.0000
# 6 0.0000 0.0001 0.0000 -1.4213 0.0000 9.8974
#
#
#
# Elastic Compliance Matrix: (Units=1/GPa)
#
#
# Indices 1 2 3 4 5 6 
#
# 1 0.192988 -0.016597 -0.012131 0.000000 -0.015034 0.000000
# 2 -0.016597 0.014296 -0.004885 0.000000 0.003550 0.000000
# 3 -0.012131 -0.004885 0.008354 0.000000 -0.001943 0.000000
# 4 0.000000 0.000000 0.000000 0.027539 0.000000 0.003955
# 5 -0.015034 0.003550 -0.001943 0.000000 0.060634 0.000000
# 6 0.000000 0.000000 0.000000 0.003955 0.000000 0.101605
#
#
# Mechanical properties :
#
#
# Convention : Reuss Voigt Hill
#
# Bulk Modulus (GPa) = 6.73805 67.06552 36.90179
# Shear Modulus (GPa) = 9.57649 26.36134 17.96892
#
# Velocity S-wave (km/s) = 2.32133 3.85140 3.17977
# Velocity P-wave (km/s) = 3.31304 7.58385 5.85196
#
# Compressibility (1/GPa) = 0.14841089
#
# Stress axis : x y z
#
# Youngs Moduli (GPa) = 5.18168 69.94832 119.70942
#
# Poissons Ratio (x) = 1.16094 1.45219
# Poissons Ratio (y) = 0.08600 0.58480
# Poissons Ratio (z) = 0.06286 0.34171
#
# Static dielectric constant tensor:
#      x y z
#    x 2.529040 0.000000 0.112990 
#    y 0.000000 3.446300 0.000000 
#    z 0.112990 0.000000 4.026170 
# 
# 
# High freq. dielectric constant tensor:
#      x y z
#    x 1.584920 0.000000 0.004360 
#    y 0.000000 1.700240 0.000000 
#    z 0.004360 0.000000 1.723720 
# 
# From -- ./inp_files/279838.got.cif
#   From: 2010.06.25/outbox.cif.g09.slc.cpg/sg12_140_cif.got.tgz:279838.got - 2010.06.28 00:19:55.
