data_PCOD8085238
_publ_section_title
;
Structure prediction by ZEFSAII (Michael W. Deem and Ramdas Pophale) SiO2 
 PCOD8085238
Probable space group: C 2/M
;
_chemical_formula_sum "Si O2"
_cell_formula_units_Z 64
_cell_length_a 27.971938
_cell_length_b 8.920609
_cell_length_c 14.461381
_cell_angle_alpha 90.000000
_cell_angle_beta 91.821627
_cell_angle_gamma 90.000000
_cell_volume 3606.677377
_symmetry_space_group_name_H-M "C 2/M"
_symmetry_group_IT_number 12
_symmetry_cell_setting 'monoclinic'
loop_
_space_group_symop_operation_xyz
x,y,z
-x,y,-z
-x,-y,-z
x,-y,z
1/2+x,1/2+y,z
1/2-x,1/2+y,-z
1/2-x,1/2-y,-z
1/2+x,1/2-y,z
loop_
_atom_site_type_symbol
_atom_site_label
_atom_site_fract_x
_atom_site_fract_y
_atom_site_fract_z
Si Si1 0.690233 0.672888 0.745758
Si Si2 0.342736 0.669349 0.498391
Si Si3 0.325755 0.671574 0.761213
Si Si4 0.914582 0.165056 0.672023
Si Si5 0.393226 0.824491 0.340252
Si Si6 0.766639 0.672625 0.603971
Si Si7 0.503213 0.176374 0.603277
Si Si8 0.746993 0.671245 0.097145
O O1 0.692285 0.500000 0.773638
O O2 0.635629 0.731386 0.739012
O O3 0.712412 0.699452 0.642043
O O4 0.715975 0.764486 0.826675
O O5 0.341152 0.500000 0.456452
O O6 0.373047 0.672838 0.593424
O O7 0.370225 0.788710 0.437730
O O8 0.287088 0.719972 0.520326
O O9 0.314709 0.500000 0.726669
O O10 0.383571 0.699802 0.763147
O O11 0.298750 0.791136 0.695433
O O12 0.306566 0.691340 0.864768
O O13 0.957485 0.280551 0.661567
O O14 0.938037 0.000000 0.675789
O O15 0.448307 0.768963 0.343763
O O16 0.388961 0.000000 0.319453
O O17 0.775050 0.500000 0.576609
O O18 0.500000 0.248392 0.500000
O O19 0.504626 0.000000 0.593327
O O20 0.760580 0.500000 0.082047
O O21 0.750000 0.750000 0.000000
#
# Coordination Sequence:
#
# PCOD8085238 Si02
#       8
#     8   8   8   8   8   8   8   8
#     4  10  21  36  51  71  99 129 164 203 245 295
#     4  10  19  30  45  66  92 126 168 209 247 290
#     4   8  16  30  47  72 102 130 159 197 241 289
#     4   9  17  29  47  69  94 127 168 209 249 287
#     4  11  22  34  48  66  93 130 170 210 254 296
#     4   9  17  29  46  66  91 125 163 202 242 287
#     4  10  20  33  47  67  95 128 170 217 259 295
#     4  10  19  34  57  82 109 134 160 194 238 294
#
# _framework density 17.744864
#
# number of rings (size 3 to 8) (size 9 to 14) (size 15 to 20)
#    0.000    2.375    1.250    2.625    0.000    5.750 
#    0.000    0.000    0.000    0.000    0.000    0.875 
#    0.000    7.000    0.000    0.000    0.000    0.000 
#
# Total GULP energy -396632.646989 kJ/mol
# GULP energy per Si atom -12394.770218 kJ/mol
# Density = 1.770448 g / cm^3
# Si number density = 17.744864 Si / 1000 Ang^3
#
#
#
# Elastic Constant Matrix: (Units=GPa)
#
#
# Indices 1 2 3 4 5 6 
#
# 1 136.4676 33.7568 29.0927 0.0000 -0.8388 0.0000
# 2 33.7568 68.2961 22.0661 0.0000 1.7016 0.0000
# 3 29.0927 22.0661 57.1048 0.0000 -6.1505 0.0000
# 4 0.0000 0.0000 0.0000 26.9122 0.0000 -0.2041
# 5 -0.8388 1.7016 -6.1505 0.0000 15.7086 0.0000
# 6 0.0000 0.0000 0.0000 -0.2041 0.0000 28.8996
#
#
#
# Elastic Compliance Matrix: (Units=1/GPa)
#
#
# Indices 1 2 3 4 5 6 
#
# 1 0.008840 -0.003299 -0.003278 0.000000 -0.000454 0.000000
# 2 -0.003299 0.018277 -0.005861 0.000000 -0.004451 0.000000
# 3 -0.003278 -0.005861 0.022442 0.000000 0.009247 0.000000
# 4 0.000000 0.000000 0.000000 0.037160 0.000000 0.000262
# 5 -0.000454 -0.004451 0.009247 0.000000 0.067738 0.000000
# 6 0.000000 0.000000 0.000000 0.000262 0.000000 0.034604
#
#
# Mechanical properties :
#
#
# Convention : Reuss Voigt Hill
#
# Bulk Modulus (GPa) = 40.51272 47.96661 44.23967
# Shear Modulus (GPa) = 22.50574 26.10093 24.30333
#
# Velocity S-wave (km/s) = 3.56518 3.83939 3.70482
# Velocity P-wave (km/s) = 6.31091 6.83700 6.57921
#
# Compressibility (1/GPa) = 0.02468361
#
# Stress axis : x y z
#
# Youngs Moduli (GPa) = 113.12573 54.71246 44.55857
#
# Poissons Ratio (x) = 0.18049 0.14605
# Poissons Ratio (y) = 0.37319 0.26117
# Poissons Ratio (z) = 0.37079 0.32069
#
# Static dielectric constant tensor:
#      x y z
#    x 3.511060 0.000000 -0.116430 
#    y 0.000000 3.305060 0.000000 
#    z -0.116430 0.000000 3.135670 
# 
# 
# High freq. dielectric constant tensor:
#      x y z
#    x 1.690740 0.000000 -0.001710 
#    y 0.000000 1.693120 0.000000 
#    z -0.001710 0.000000 1.643470 
# 
# From -- ./inp_files/244085.got.cif
#   From: 2010.06.25/outbox.cif.g09.slc.cpg/sg12_123_cif.got.tgz:244085.got - 2010.06.28 00:19:55.
