data_PCOD8085178
_publ_section_title
;
Structure prediction by ZEFSAII (Michael W. Deem and Ramdas Pophale) SiO2 
 PCOD8085178
Probable space group: C 2/M
;
_chemical_formula_sum "Si O2"
_cell_formula_units_Z 64
_cell_length_a 25.398337
_cell_length_b 9.378047
_cell_length_c 21.224296
_cell_angle_alpha 90.000000
_cell_angle_beta 54.086338
_cell_angle_gamma 90.000000
_cell_volume 4094.334715
_symmetry_space_group_name_H-M "C 2/M"
_symmetry_group_IT_number 12
_symmetry_cell_setting 'monoclinic'
loop_
_space_group_symop_operation_xyz
x,y,z
-x,y,-z
-x,-y,-z
x,-y,z
1/2+x,1/2+y,z
1/2-x,1/2+y,-z
1/2-x,1/2-y,-z
1/2+x,1/2-y,z
loop_
_atom_site_type_symbol
_atom_site_label
_atom_site_fract_x
_atom_site_fract_y
_atom_site_fract_z
Si Si1 0.489270 0.166553 0.326102
Si Si2 0.843177 0.334913 0.409091
Si Si3 0.238587 0.666261 0.411173
Si Si4 0.197579 0.336456 0.999459
Si Si5 0.461422 0.665531 0.589041
Si Si6 0.113697 0.334629 0.166788
Si Si7 0.188247 0.834632 0.327893
Si Si8 0.720955 0.665163 0.168162
O O1 0.417943 0.213931 0.353913
O O2 0.509033 0.247148 0.374792
O O3 0.539333 0.205935 0.234585
O O4 0.489598 0.000000 0.342000
O O5 0.834077 0.500000 0.396800
O O6 0.816552 0.306098 0.497900
O O7 0.805731 0.239153 0.384828
O O8 0.251566 0.500000 0.391401
O O9 0.215278 0.734917 0.363032
O O10 0.214082 0.500000 0.999645
O O11 0.209499 0.302513 0.916570
O O12 0.250000 0.250000 0.000000
O O13 0.127900 0.301251 0.081744
O O14 0.500000 0.711820 0.500000
O O15 0.471328 0.500000 0.597376
O O16 0.386383 0.703773 0.632354
O O17 0.125779 0.500000 0.173069
O O18 0.161881 0.250267 0.178613
O O19 0.228805 0.796643 0.236119
O O20 0.196205 0.000000 0.341852
O O21 0.701272 0.500000 0.176100
#
# Coordination Sequence:
#
# PCOD8085178 Si02
#       8
#     8   8   8   8   8   8   8   8
#     4  10  19  30  46  67  91 119 147 179 223 268
#     4   9  19  35  50  65  87 114 146 185 229 271
#     4  10  20  33  50  68  84 110 150 192 228 261
#     4   8  14  24  39  59  85 116 148 179 211 252
#     4  10  20  31  43  62  90 123 154 181 214 260
#     4   9  16  26  41  64  91 117 146 181 217 255
#     4  10  19  30  44  64  91 121 149 180 221 263
#     4   9  16  27  42  61  88 122 152 177 213 260
#
# _framework density 15.631356
#
# number of rings (size 3 to 8) (size 9 to 14) (size 15 to 20)
#    0.000    2.625    1.250    1.125    0.000    2.250 
#    0.000    0.000    0.000    0.000    0.000    0.875 
#    0.000    7.000    0.000    0.000    0.000    0.000 
#
# Total GULP energy -396536.678076 kJ/mol
# GULP energy per Si atom -12391.771190 kJ/mol
# Density = 1.559578 g / cm^3
# Si number density = 15.631356 Si / 1000 Ang^3
#
#
#
# Elastic Constant Matrix: (Units=GPa)
#
#
# Indices 1 2 3 4 5 6 
#
# 1 69.0178 38.4070 40.0316 0.0000 -16.7258 -0.0002
# 2 38.4070 50.2488 33.7639 -0.0019 -3.8859 0.0001
# 3 40.0316 33.7639 108.7871 0.0002 -21.8230 0.0000
# 4 0.0000 -0.0019 0.0002 -13.5907 0.0002 4.9008
# 5 -16.7258 -3.8859 -21.8230 0.0002 12.6085 -0.0001
# 6 -0.0002 0.0001 0.0000 4.9008 -0.0001 25.5377
#
#
#
# Elastic Compliance Matrix: (Units=1/GPa)
#
#
# Indices 1 2 3 4 5 6 
#
# 1 0.042823 -0.032079 0.005531 0.000005 0.056494 0.000000
# 2 -0.032079 0.049832 -0.013967 -0.000008 -0.051371 0.000001
# 3 0.005531 -0.013967 0.018536 0.000003 0.035116 0.000000
# 4 0.000005 -0.000008 0.000003 -0.068817 0.000010 0.013206
# 5 0.056494 -0.051371 0.035116 0.000010 0.199201 -0.000001
# 6 0.000000 0.000001 0.000000 0.013206 -0.000001 0.036624
#
#
# Mechanical properties :
#
#
# Convention : Reuss Voigt Hill
#
# Bulk Modulus (GPa) = 33.15471 50.27318 41.71394
# Shear Modulus (GPa) = 13.53979 12.63448 13.08714
#
# Velocity S-wave (km/s) = 2.94631 2.84611 2.89664
# Velocity P-wave (km/s) = 5.72981 6.55988 6.15885
#
# Compressibility (1/GPa) = 0.03016163
#
# Stress axis : x y z
#
# Youngs Moduli (GPa) = 23.35201 20.06730 53.94857
#
# Poissons Ratio (x) = 0.64373 -0.29839
# Poissons Ratio (y) = 0.74910 0.75350
# Poissons Ratio (z) = -0.12916 0.28028
#
# Static dielectric constant tensor:
#      x y z
#    x 2.666100 0.000000 -0.156060 
#    y 0.000000 2.994140 0.000000 
#    z -0.156060 0.000000 3.635170 
# 
# 
# High freq. dielectric constant tensor:
#      x y z
#    x 1.558320 0.000000 -0.005700 
#    y 0.000000 1.604810 0.000000 
#    z -0.005700 0.000000 1.616340 
# 
# From -- ./inp_files/323647.got.cif
#   From: 2010.06.25/outbox.cif.g09.slc.cpg/sg12_162_cif.got.tgz:323647.got - 2010.06.28 00:19:55.
