data_PCOD8085056
_publ_section_title
;
Structure prediction by ZEFSAII (Michael W. Deem and Ramdas Pophale) SiO2 
 PCOD8085056
Probable space group: C 2/M
;
_chemical_formula_sum "Si O2"
_cell_formula_units_Z 56
_cell_length_a 10.601520
_cell_length_b 24.101259
_cell_length_c 16.806772
_cell_angle_alpha 90.000000
_cell_angle_beta 131.492877
_cell_angle_gamma 90.000000
_cell_volume 3216.592754
_symmetry_space_group_name_H-M "C 2/M"
_symmetry_group_IT_number 12
_symmetry_cell_setting 'monoclinic'
loop_
_space_group_symop_operation_xyz
x,y,z
-x,y,-z
-x,-y,-z
x,-y,z
1/2+x,1/2+y,z
1/2-x,1/2+y,-z
1/2-x,1/2-y,-z
1/2+x,1/2-y,z
loop_
_atom_site_type_symbol
_atom_site_label
_atom_site_fract_x
_atom_site_fract_y
_atom_site_fract_z
Si Si1 0.051316 0.240918 0.430129
Si Si2 0.063720 0.434942 0.907508
Si Si3 0.112788 0.647802 0.622954
Si Si4 0.344821 0.563312 0.488198
Si Si5 0.526788 0.936206 0.718073
Si Si6 0.435821 0.361971 0.666197
Si Si7 0.266730 0.434452 0.141362
O O1 0.250000 0.250000 0.500000
O O2 0.986033 0.190754 0.347503
O O3 0.000000 0.228186 0.500000
O O4 0.958244 0.297106 0.363940
O O5 0.037232 0.500000 0.890306
O O6 0.091414 0.411951 0.829868
O O7 0.889984 0.412604 0.872098
O O8 0.223048 0.421565 0.030482
O O9 0.303917 0.659452 0.676445
O O10 0.000000 0.631769 0.500000
O O11 0.115737 0.597409 0.685615
O O12 0.500000 0.584707 0.500000
O O13 0.374815 0.500000 0.526850
O O14 0.174985 0.570452 0.367012
O O15 0.332015 0.600037 0.561410
O O16 0.579708 0.000000 0.727861
O O17 0.575560 0.398038 0.768192
O O18 0.303980 0.500000 0.169403
#
# Coordination Sequence:
#
# PCOD8085056 Si02
#       7
#     8   8   8   8   8   8   8
#     4  11  21  38  56  76 109 150 190 231 277 333
#     4   8  16  34  55  82 115 145 183 226 270 328
#     4  11  22  38  50  76 112 144 184 230 274 336
#     4  10  19  29  46  79 114 137 169 219 272 330
#     4  10  19  32  53  77 108 148 177 211 277 338
#     4  12  21  34  55  79 108 143 188 225 280 334
#     4   9  18  33  57  86 114 143 181 230 277 329
#
# _framework density 17.409727
#
# number of rings (size 3 to 8) (size 9 to 14) (size 15 to 20)
#    0.000    1.857    4.286    2.571    0.000    4.857 
#    0.000    0.714    0.000    3.429    0.000    0.000 
#    0.000    0.000    0.000    0.000    0.000    0.000 
#
# Total GULP energy -347136.888890 kJ/mol
# GULP energy per Si atom -12397.746032 kJ/mol
# Density = 1.737010 g / cm^3
# Si number density = 17.409727 Si / 1000 Ang^3
#
#
#
# Elastic Constant Matrix: (Units=GPa)
#
#
# Indices 1 2 3 4 5 6 
#
# 1 97.4161 44.7483 35.7049 0.0001 -6.7428 0.0001
# 2 44.7483 91.7878 52.7768 0.0000 -7.1730 0.0000
# 3 35.7049 52.7768 109.0202 0.0001 -11.4715 0.0002
# 4 0.0001 0.0000 0.0001 15.0526 0.0001 -7.4257
# 5 -6.7428 -7.1730 -11.4715 0.0001 25.6891 0.0001
# 6 0.0001 0.0000 0.0002 -7.4257 0.0001 27.4406
#
#
#
# Elastic Compliance Matrix: (Units=1/GPa)
#
#
# Indices 1 2 3 4 5 6 
#
# 1 0.013492 -0.005563 -0.001591 0.000000 0.001278 0.000000
# 2 -0.005563 0.017415 -0.006559 0.000000 0.000474 0.000000
# 3 -0.001591 -0.006559 0.013255 0.000000 0.003670 0.000000
# 4 0.000000 0.000000 0.000000 0.076669 0.000000 0.020748
# 5 0.001278 0.000474 0.003670 0.000000 0.041033 0.000000
# 6 0.000000 0.000000 0.000000 0.020748 0.000000 0.042057
#
#
# Mechanical properties :
#
#
# Convention : Reuss Voigt Hill
#
# Bulk Modulus (GPa) = 59.75114 62.74267 61.24690
# Shear Modulus (GPa) = 21.10356 24.63605 22.86981
#
# Velocity S-wave (km/s) = 3.48540 3.76583 3.62832
# Velocity P-wave (km/s) = 7.11284 7.41793 7.26698
#
# Compressibility (1/GPa) = 0.01673608
#
# Stress axis : x y z
#
# Youngs Moduli (GPa) = 74.11651 57.42174 75.44237
#
# Poissons Ratio (x) = 0.31943 0.12006
# Poissons Ratio (y) = 0.41230 0.49482
# Poissons Ratio (z) = 0.11795 0.37662
#
# Static dielectric constant tensor:
#      x y z
#    x 3.289280 0.000000 -0.213740 
#    y 0.000000 3.208570 0.000000 
#    z -0.213740 0.000000 3.328490 
# 
# 
# High freq. dielectric constant tensor:
#      x y z
#    x 1.672330 0.000000 -0.008520 
#    y 0.000000 1.657590 0.000000 
#    z -0.008520 0.000000 1.656410 
# 
# From -- ./inp_files/199915.got.cif
#   From: 2010.06.25/outbox.cif.g09.slc.cpg/sg12_100_cif.got.tgz:199915.got - 2010.06.28 00:19:55.
