data_PCOD8085907
_publ_section_title
;
Structure prediction by ZEFSAII (Michael W. Deem and Ramdas Pophale) SiO2 
 PCOD8085907
Probable space group: C 2/M
;
_chemical_formula_sum "Si O2"
_cell_formula_units_Z 56
_cell_length_a 20.337633
_cell_length_b 9.102801
_cell_length_c 29.800148
_cell_angle_alpha 90.000000
_cell_angle_beta 33.438553
_cell_angle_gamma 90.000000
_cell_volume 3040.036970
_symmetry_space_group_name_H-M "C 2/M"
_symmetry_group_IT_number 12
_symmetry_cell_setting 'monoclinic'
loop_
_space_group_symop_operation_xyz
x,y,z
-x,y,-z
-x,-y,-z
x,-y,z
1/2+x,1/2+y,z
1/2-x,1/2+y,-z
1/2-x,1/2-y,-z
1/2+x,1/2-y,z
loop_
_atom_site_type_symbol
_atom_site_label
_atom_site_fract_x
_atom_site_fract_y
_atom_site_fract_z
Si Si1 0.834925 0.828554 0.227359
Si Si2 0.808789 0.168444 0.904523
Si Si3 0.418761 0.827467 0.666295
Si Si4 0.069702 0.826207 0.504951
Si Si5 0.804701 0.169780 0.346765
Si Si6 0.068162 0.329576 0.086330
Si Si7 0.546598 0.332743 0.262610
O O1 0.716627 0.783692 0.267959
O O2 0.822285 0.776138 0.285872
O O3 0.945840 0.747159 0.140736
O O4 0.860883 0.000000 0.210080
O O5 0.889302 0.269706 0.890011
O O6 0.842090 0.198341 0.833938
O O7 0.838480 0.000000 0.900634
O O8 0.668732 0.202638 0.991365
O O9 0.507386 0.742339 0.583444
O O10 0.446030 0.781184 0.701330
O O11 0.440516 0.000000 0.647942
O O12 0.203935 0.767533 0.427282
O O13 0.000000 0.775959 0.500000
O O14 0.071289 0.000000 0.509333
O O15 0.925488 0.195946 0.304817
O O16 0.764606 0.000000 0.370392
O O17 0.042579 0.500000 0.106428
O O18 0.551273 0.500000 0.278009
#
# Coordination Sequence:
#
# PCOD8085907 Si02
#       7
#     8   8   8   8   8   8   8
#     4  10  20  37  58  82 113 150 190 231 281 337
#     4   9  18  35  55  81 117 154 187 228 284 336
#     4  11  24  40  60  83 113 152 189 230 283 342
#     4  11  23  38  59  88 117 144 183 238 285 328
#     4  10  20  37  62  84 109 151 192 230 279 335
#     4  10  19  30  55  89 115 144 190 240 279 325
#     4  10  21  39  60  82 114 152 188 231 282 334
#
# _framework density 18.420829999999999
#
# number of rings (size 3 to 8) (size 9 to 14) (size 15 to 20)
#    0.000    1.857    2.857    1.286    0.000    4.571 
#    0.000    0.714    0.000    4.286    0.000    0.000 
#    0.000    0.000    0.000    0.000    0.000    0.000 
#
# Total GULP energy -347311.612221 kJ/mol
# GULP energy per Si atom -12403.986151 kJ/mol
# Density = 1.837890 g / cm^3
# Si number density = 18.420830 Si / 1000 Ang^3
#
#
#
# Elastic Constant Matrix: (Units=GPa)
#
#
# Indices 1 2 3 4 5 6 
#
# 1 75.7978 33.2903 34.8627 0.0027 5.3863 -0.0010
# 2 33.2903 66.6866 50.9318 0.0052 -4.3453 0.0029
# 3 34.8627 50.9318 121.0870 0.0017 -3.3312 0.0083
# 4 0.0027 0.0052 0.0017 34.3201 0.0020 -3.1800
# 5 5.3863 -4.3453 -3.3312 0.0020 27.2021 -0.0025
# 6 -0.0010 0.0029 0.0083 -3.1800 -0.0025 29.5936
#
#
#
# Elastic Compliance Matrix: (Units=1/GPa)
#
#
# Indices 1 2 3 4 5 6 
#
# 1 0.017865 -0.007678 -0.002052 0.000000 -0.005015 0.000002
# 2 -0.007678 0.025550 -0.008410 -0.000003 0.004572 0.000000
# 3 -0.002052 -0.008410 0.012403 0.000001 0.000582 -0.000003
# 4 0.000000 -0.000003 0.000001 0.029430 -0.000002 0.003162
# 5 -0.005015 0.004572 0.000582 -0.000002 0.038556 0.000002
# 6 0.000002 0.000000 -0.000003 0.003162 0.000002 0.034131
#
#
# Mechanical properties :
#
#
# Convention : Reuss Voigt Hill
#
# Bulk Modulus (GPa) = 51.18480 55.74899 53.46690
# Shear Modulus (GPa) = 24.90914 27.85559 26.38236
#
# Velocity S-wave (km/s) = 3.68125 3.89289 3.78855
# Velocity P-wave (km/s) = 6.77610 7.10886 6.94448
#
# Compressibility (1/GPa) = 0.01953705
#
# Stress axis : x y z
#
# Youngs Moduli (GPa) = 55.97402 39.13932 80.62580
#
# Poissons Ratio (x) = 0.30051 0.16546
# Poissons Ratio (y) = 0.42977 0.67810
# Poissons Ratio (z) = 0.11487 0.32918
#
# Static dielectric constant tensor:
#      x y z
#    x 3.215140 0.000000 -0.098720 
#    y 0.000000 3.381800 0.000000 
#    z -0.098720 0.000000 3.574040 
# 
# 
# High freq. dielectric constant tensor:
#      x y z
#    x 1.696030 0.000000 -0.009440 
#    y 0.000000 1.716860 0.000000 
#    z -0.009440 0.000000 1.728020 
# 
# From -- ./inp_files/362912.got.cif
#   From: 2010.06.25/outbox.cif.g09.slc.cpg/sg12_182_cif.got.tgz:362912.got - 2010.06.28 00:19:55.
