data_PCOD8085623
_publ_section_title
;
Structure prediction by ZEFSAII (Michael W. Deem and Ramdas Pophale) SiO2 
 PCOD8085623
Probable space group: C 2/M
;
_chemical_formula_sum "Si O2"
_cell_formula_units_Z 64
_cell_length_a 29.897870
_cell_length_b 9.107664
_cell_length_c 30.598733
_cell_angle_alpha 90.000000
_cell_angle_beta 151.544861
_cell_angle_gamma 90.000000
_cell_volume 3969.965504
_symmetry_space_group_name_H-M "C 2/M"
_symmetry_group_IT_number 12
_symmetry_cell_setting 'monoclinic'
loop_
_space_group_symop_operation_xyz
x,y,z
-x,y,-z
-x,-y,-z
x,-y,z
1/2+x,1/2+y,z
1/2-x,1/2+y,-z
1/2-x,1/2-y,-z
1/2+x,1/2-y,z
loop_
_atom_site_type_symbol
_atom_site_label
_atom_site_fract_x
_atom_site_fract_y
_atom_site_fract_z
Si Si1 0.374499 0.826124 0.749031
Si Si2 0.769722 0.674000 0.914958
Si Si3 0.220717 0.830193 0.406969
Si Si4 0.426737 0.173990 0.116756
Si Si5 0.874518 0.169880 0.932031
Si Si6 0.087404 0.169883 0.132878
Si Si7 0.095323 0.330163 0.803451
Si Si8 0.614836 0.832930 0.389996
O O1 0.291174 0.759945 0.647957
O O2 0.473659 0.766887 0.815206
O O3 0.361668 0.768896 0.787252
O O4 0.367236 0.000000 0.742464
O O5 0.766439 0.500000 0.911198
O O6 0.799456 0.731626 0.892966
O O7 0.667545 0.734398 0.838140
O O8 0.843598 0.733425 0.014474
O O9 0.326400 0.803365 0.515367
O O10 0.146447 0.775577 0.379024
O O11 0.200949 0.000000 0.380669
O O12 0.408707 0.230102 0.150342
O O13 0.430124 0.000000 0.119029
O O14 0.861651 0.199528 0.869464
O O15 0.856456 0.000000 0.927349
O O16 0.978718 0.216132 0.036200
O O17 0.095992 0.000000 0.153314
O O18 0.126323 0.500000 0.829282
O O19 0.994495 0.307798 0.693867
O O20 0.631526 0.000000 0.387598
#
# Coordination Sequence:
#
# PCOD8085623 Si02
#       8
#     8   8   8   8   8   8   8   8
#     4  11  19  31  49  71  99 132 162 193 240 291
#     4  11  21  32  46  70  98 127 167 205 235 276
#     4  10  19  30  48  73  97 123 159 202 244 287
#     4   9  18  31  45  64  95 131 164 195 228 274
#     4   9  18  33  50  69  95 127 159 197 244 286
#     4   9  18  32  50  72  96 122 160 202 238 284
#     4  10  19  34  50  64  91 133 170 199 237 280
#     4   9  18  33  50  68  94 127 162 201 244 288
#
# _framework density 16.121047000000001
#
# number of rings (size 3 to 8) (size 9 to 14) (size 15 to 20)
#    0.000    2.250    2.500    2.250    0.000    1.500 
#    0.000    1.875    0.000    0.000    0.000    0.875 
#    0.000    7.000    0.000    0.000    0.000    0.000 
#
# Total GULP energy -396848.564867 kJ/mol
# GULP energy per Si atom -12401.517652 kJ/mol
# Density = 1.608435 g / cm^3
# Si number density = 16.121047 Si / 1000 Ang^3
#
#
#
# Elastic Constant Matrix: (Units=GPa)
#
#
# Indices 1 2 3 4 5 6 
#
# 1 97.9002 46.1960 50.2739 0.0000 -6.8605 0.0000
# 2 46.1960 73.3830 46.4876 0.0000 -9.6251 0.0002
# 3 50.2739 46.4876 98.8961 0.0001 -10.9296 0.0000
# 4 0.0000 0.0000 0.0001 23.7013 0.0000 -3.0700
# 5 -6.8605 -9.6251 -10.9296 0.0000 23.8092 0.0000
# 6 0.0000 0.0002 0.0000 -3.0700 0.0000 27.5549
#
#
#
# Elastic Compliance Matrix: (Units=1/GPa)
#
#
# Indices 1 2 3 4 5 6 
#
# 1 0.016014 -0.007054 -0.004878 0.000000 -0.000476 0.000000
# 2 -0.007054 0.022854 -0.006701 0.000000 0.004131 0.000000
# 3 -0.004878 -0.006701 0.016103 0.000000 0.003278 0.000000
# 4 0.000000 0.000000 0.000000 0.042810 0.000000 0.004770
# 5 -0.000476 0.004131 0.003278 0.000000 0.045038 0.000000
# 6 0.000000 0.000000 0.000000 0.004770 0.000000 0.036823
#
#
# Mechanical properties :
#
#
# Convention : Reuss Voigt Hill
#
# Bulk Modulus (GPa) = 56.47378 61.78827 59.13102
# Shear Modulus (GPa) = 22.44073 23.49452 22.96762
#
# Velocity S-wave (km/s) = 3.73502 3.82171 3.77861
# Velocity P-wave (km/s) = 7.32855 7.60821 7.46969
#
# Compressibility (1/GPa) = 0.01770733
#
# Stress axis : x y z
#
# Youngs Moduli (GPa) = 62.44364 43.75556 62.09908
#
# Poissons Ratio (x) = 0.30864 0.30291
# Poissons Ratio (y) = 0.44046 0.41611
# Poissons Ratio (z) = 0.30459 0.29319
#
# Static dielectric constant tensor:
#      x y z
#    x 2.894430 0.000000 -0.114910 
#    y 0.000000 2.953750 0.000000 
#    z -0.114910 0.000000 3.091460 
# 
# 
# High freq. dielectric constant tensor:
#      x y z
#    x 1.599000 0.000000 -0.012490 
#    y 0.000000 1.617500 0.000000 
#    z -0.012490 0.000000 1.608990 
# 
# From -- ./inp_files/384619.got.cif
#   From: 2010.06.25/outbox.cif.g09.slc.cpg/sg12_193_cif.got.tgz:384619.got - 2010.06.28 00:19:55.
