data_PCOD8085414
_publ_section_title
;
Structure prediction by ZEFSAII (Michael W. Deem and Ramdas Pophale) SiO2 
 PCOD8085414
Probable space group: C 2/M
;
_chemical_formula_sum "Si O2"
_cell_formula_units_Z 64
_cell_length_a 25.375710
_cell_length_b 9.527571
_cell_length_c 15.404165
_cell_angle_alpha 90.000000
_cell_angle_beta 72.212825
_cell_angle_gamma 90.000000
_cell_volume 3546.220448
_symmetry_space_group_name_H-M "C 2/M"
_symmetry_group_IT_number 12
_symmetry_cell_setting 'monoclinic'
loop_
_space_group_symop_operation_xyz
x,y,z
-x,y,-z
-x,-y,-z
x,-y,z
1/2+x,1/2+y,z
1/2-x,1/2+y,-z
1/2-x,1/2-y,-z
1/2+x,1/2-y,z
loop_
_atom_site_type_symbol
_atom_site_label
_atom_site_fract_x
_atom_site_fract_y
_atom_site_fract_z
Si Si1 0.456768 0.165122 0.752184
Si Si2 0.318406 0.339346 0.393368
Si Si3 0.712356 0.847916 0.075379
Si Si4 0.941788 0.159731 0.075646
Si Si5 0.342223 0.165834 0.722268
Si Si6 0.403745 0.152520 0.954314
Si Si7 0.717627 0.337003 0.392443
Si Si8 0.940504 0.835273 0.274323
O O1 0.405973 0.201825 0.713494
O O2 0.442117 0.213545 0.857794
O O3 0.511703 0.251426 0.697336
O O4 0.469230 0.000000 0.742239
O O5 0.307997 0.500000 0.368809
O O6 0.308781 0.321591 0.499884
O O7 0.277360 0.239149 0.359646
O O8 0.381230 0.293689 0.343206
O O9 0.698611 0.789680 0.178327
O O10 0.656295 0.868014 0.052822
O O11 0.741555 0.000000 0.069182
O O12 0.750000 0.750000 0.000000
O O13 0.941867 0.214231 0.173670
O O14 0.922043 0.000000 0.083124
O O15 0.898725 0.247559 0.040139
O O16 0.000000 0.183241 0.000000
O O17 0.325026 0.259431 0.649462
O O18 0.336333 0.000000 0.705205
O O19 0.426694 0.000000 0.972098
O O20 0.724934 0.500000 0.362406
O O21 0.952789 0.000000 0.277558
#
# Coordination Sequence:
#
# PCOD8085414 Si02
#       8
#     8   8   8   8   8   8   8   8
#     4   9  18  33  52  74 101 136 175 210 249 304
#     4   9  20  38  57  78 107 140 167 208 272 323
#     4   9  19  34  50  72 102 135 172 212 255 303
#     4  10  19  30  46  72 101 130 169 208 242 294
#     4   9  19  36  56  76 104 142 175 210 264 318
#     4   9  18  32  48  67  96 134 171 206 248 295
#     4  10  20  36  59  83 103 130 177 222 258 311
#     4  10  20  34  52  75 106 139 171 211 261 312
#
# _framework density 18.047383
#
# number of rings (size 3 to 8) (size 9 to 14) (size 15 to 20)
#    0.000    2.625    1.250    1.875    0.000    4.250 
#    0.000    6.875    0.000    3.750    0.000    0.000 
#    0.000    0.000    0.000    0.000    0.000    0.000 
#
# Total GULP energy -396678.716119 kJ/mol
# GULP energy per Si atom -12396.209879 kJ/mol
# Density = 1.800631 g / cm^3
# Si number density = 18.047383 Si / 1000 Ang^3
#
#
#
# Elastic Constant Matrix: (Units=GPa)
#
#
# Indices 1 2 3 4 5 6 
#
# 1 101.2024 61.8546 49.8365 0.0000 -5.1846 0.0000
# 2 61.8546 83.0841 39.5943 0.0000 3.9629 0.0000
# 3 49.8365 39.5943 56.3882 0.0000 -3.3940 0.0000
# 4 0.0000 0.0000 0.0000 10.3903 0.0000 5.8491
# 5 -5.1846 3.9629 -3.3940 0.0000 32.3829 0.0000
# 6 0.0000 0.0000 0.0000 5.8491 0.0000 36.3330
#
#
#
# Elastic Compliance Matrix: (Units=1/GPa)
#
#
# Indices 1 2 3 4 5 6 
#
# 1 0.023136 -0.011686 -0.012009 0.000000 0.003876 0.000000
# 2 -0.011686 0.024411 -0.007150 0.000000 -0.005608 0.000000
# 3 -0.012009 -0.007150 0.033516 0.000000 0.002465 0.000000
# 4 0.000000 0.000000 0.000000 0.105835 0.000000 -0.017038
# 5 0.003876 -0.005608 0.002465 0.000000 0.032446 0.000000
# 6 0.000000 0.000000 0.000000 -0.017038 0.000000 0.030266
#
#
# Mechanical properties :
#
#
# Convention : Reuss Voigt Hill
#
# Bulk Modulus (GPa) = 51.61628 60.36062 55.98845
# Shear Modulus (GPa) = 15.73526 21.78054 18.75790
#
# Velocity S-wave (km/s) = 2.95597 3.47775 3.22742
# Velocity P-wave (km/s) = 6.34924 7.04589 6.70662
#
# Compressibility (1/GPa) = 0.01937373
#
# Stress axis : x y z
#
# Youngs Moduli (GPa) = 43.22248 40.96509 29.83611
#
# Poissons Ratio (x) = 0.47873 0.35830
# Poissons Ratio (y) = 0.50512 0.21332
# Poissons Ratio (z) = 0.51905 0.29289
#
# Static dielectric constant tensor:
#      x y z
#    x 3.014270 0.000000 0.271350 
#    y 0.000000 3.262460 0.000000 
#    z 0.271350 0.000000 2.931200 
# 
# 
# High freq. dielectric constant tensor:
#      x y z
#    x 1.697070 0.000000 0.001740 
#    y 0.000000 1.698680 0.000000 
#    z 0.001740 0.000000 1.683820 
# 
# From -- ./inp_files/243857.got.cif
#   From: 2010.06.25/outbox.cif.g09.slc.cpg/sg12_122_cif.got.tgz:243857.got - 2010.06.28 00:19:55.
