data_PCOD8085356
_publ_section_title
;
Structure prediction by ZEFSAII (Michael W. Deem and Ramdas Pophale) SiO2 
 PCOD8085356
Probable space group: C 2/M
;
_chemical_formula_sum "Si O2"
_cell_formula_units_Z 64
_cell_length_a 22.639384
_cell_length_b 9.215426
_cell_length_c 19.177568
_cell_angle_alpha 90.000000
_cell_angle_beta 65.923157
_cell_angle_gamma 90.000000
_cell_volume 3652.951615
_symmetry_space_group_name_H-M "C 2/M"
_symmetry_group_IT_number 12
_symmetry_cell_setting 'monoclinic'
loop_
_space_group_symop_operation_xyz
x,y,z
-x,y,-z
-x,-y,-z
x,-y,z
1/2+x,1/2+y,z
1/2-x,1/2+y,-z
1/2-x,1/2-y,-z
1/2+x,1/2-y,z
loop_
_atom_site_type_symbol
_atom_site_label
_atom_site_fract_x
_atom_site_fract_y
_atom_site_fract_z
Si Si1 0.189175 0.336428 0.698140
Si Si2 0.316006 0.162068 0.799670
Si Si3 0.812375 0.664303 0.635254
Si Si4 0.938840 0.171208 0.228142
Si Si5 0.553942 0.829706 0.918177
Si Si6 0.559391 0.667213 0.265995
Si Si7 0.695984 0.159973 0.860457
Si Si8 0.438760 0.330711 0.574548
O O1 0.185491 0.500000 0.669319
O O2 0.250656 0.252671 0.635758
O O3 0.124693 0.247806 0.709959
O O4 0.196940 0.342967 0.776848
O O5 0.311814 0.166057 0.718746
O O6 0.379972 0.244963 0.794296
O O7 0.251152 0.233532 0.863255
O O8 0.319783 0.000000 0.827184
O O9 0.809729 0.500000 0.608104
O O10 0.877203 0.741366 0.576400
O O11 0.959161 0.235111 0.143826
O O12 0.995890 0.207832 0.253917
O O13 0.925801 0.000000 0.227243
O O14 0.623957 0.789853 0.918001
O O15 0.552424 0.000000 0.898538
O O16 0.500000 0.788133 0.000000
O O17 0.577981 0.500000 0.249187
O O18 0.545996 0.707371 0.352693
O O19 0.711220 0.000000 0.882597
O O20 0.500000 0.281490 0.500000
O O21 0.423236 0.500000 0.572066
#
# Coordination Sequence:
#
# PCOD8085356 Si02
#       8
#     8   8   8   8   8   8   8   8
#     4   9  16  27  44  65  89 118 152 188 225 267
#     4   9  16  25  41  65  89 114 147 186 223 262
#     4   9  16  26  42  66  93 117 146 189 235 271
#     4  10  19  30  46  69  95 121 149 185 229 272
#     4   9  18  32  49  69  93 122 154 186 223 269
#     4   9  18  31  46  66  93 122 150 184 228 273
#     4   8  14  25  42  63  87 114 143 180 224 263
#     4   9  17  30  48  68  91 122 157 189 225 274
#
# _framework density 17.520078999999999
#
# number of rings (size 3 to 8) (size 9 to 14) (size 15 to 20)
#    0.000    3.000    0.000    2.250    0.000    7.500 
#    0.000    0.000    0.000    1.500    0.000    0.000 
#    0.000    0.000    0.000    0.000    0.000    0.000 
#
# Total GULP energy -396725.645879 kJ/mol
# GULP energy per Si atom -12397.676434 kJ/mol
# Density = 1.748020 g / cm^3
# Si number density = 17.520079 Si / 1000 Ang^3
#
#
#
# Elastic Constant Matrix: (Units=GPa)
#
#
# Indices 1 2 3 4 5 6 
#
# 1 138.8635 85.0020 55.7536 -0.0001 -36.7519 -0.0002
# 2 85.0020 122.5332 43.8249 -0.0002 -25.4523 -0.0011
# 3 55.7536 43.8249 63.7676 0.0000 -32.5826 0.0000
# 4 -0.0001 -0.0002 0.0000 17.4759 0.0000 -8.4906
# 5 -36.7519 -25.4523 -32.5826 0.0000 32.1205 0.0000
# 6 -0.0002 -0.0011 0.0000 -8.4906 0.0000 32.0284
#
#
#
# Elastic Compliance Matrix: (Units=1/GPa)
#
#
# Indices 1 2 3 4 5 6 
#
# 1 0.015724 -0.007716 -0.004933 0.000000 0.006873 0.000000
# 2 -0.007716 0.014678 -0.003964 0.000000 -0.001219 0.000001
# 3 -0.004933 -0.003964 0.037847 0.000000 0.029605 0.000000
# 4 0.000000 0.000000 0.000000 0.065681 0.000000 0.017412
# 5 0.006873 -0.001219 0.029605 0.000000 0.068062 0.000000
# 6 0.000000 0.000001 0.000000 0.017412 0.000000 0.035838
#
#
# Mechanical properties :
#
#
# Convention : Reuss Voigt Hill
#
# Bulk Modulus (GPa) = 28.55333 77.14725 52.85029
# Shear Modulus (GPa) = 17.68459 25.69723 21.69091
#
# Velocity S-wave (km/s) = 3.18054 3.83395 3.52242
# Velocity P-wave (km/s) = 5.46083 7.98299 6.83918
#
# Compressibility (1/GPa) = 0.03502218
#
# Stress axis : x y z
#
# Youngs Moduli (GPa) = 63.59648 68.12772 26.42219
#
# Poissons Ratio (x) = 0.52566 0.13035
# Poissons Ratio (y) = 0.49070 0.10475
# Poissons Ratio (z) = 0.31375 0.27008
#
# Static dielectric constant tensor:
#      x y z
#    x 3.310460 0.000000 -0.377920 
#    y 0.000000 3.419640 0.000000 
#    z -0.377920 0.000000 2.923040 
# 
# 
# High freq. dielectric constant tensor:
#      x y z
#    x 1.674640 0.000000 -0.037030 
#    y 0.000000 1.685910 0.000000 
#    z -0.037030 0.000000 1.630060 
# 
# From -- ./inp_files/323675.got.cif
#   From: 2010.06.25/outbox.cif.g09.slc.cpg/sg12_162_cif.got.tgz:323675.got - 2010.06.28 00:19:55.
