data_PCOD8085650
_publ_section_title
;
Structure prediction by ZEFSAII (Michael W. Deem and Ramdas Pophale) SiO2 
 PCOD8085650
Probable space group: C 2/M
;
_chemical_formula_sum "Si O2"
_cell_formula_units_Z 40
_cell_length_a 17.622858
_cell_length_b 9.523807
_cell_length_c 14.887425
_cell_angle_alpha 90.000000
_cell_angle_beta 121.340405
_cell_angle_gamma 90.000000
_cell_volume 2134.082953
_symmetry_space_group_name_H-M "C 2/M"
_symmetry_group_IT_number 12
_symmetry_cell_setting 'monoclinic'
loop_
_space_group_symop_operation_xyz
x,y,z
-x,y,-z
-x,-y,-z
x,-y,z
1/2+x,1/2+y,z
1/2-x,1/2+y,-z
1/2-x,1/2-y,-z
1/2+x,1/2-y,z
loop_
_atom_site_type_symbol
_atom_site_label
_atom_site_fract_x
_atom_site_fract_y
_atom_site_fract_z
Si Si1 0.751564 0.664177 0.786558
Si Si2 0.092244 0.838088 0.823531
Si Si3 0.644326 0.158264 0.594238
Si Si4 0.015953 0.657082 0.365500
Si Si5 0.600700 0.660478 0.032125
O O1 0.767704 0.500000 0.780554
O O2 0.680238 0.693253 0.820692
O O3 0.719371 0.732564 0.672706
O O4 0.842726 0.737566 0.870318
O O5 0.110749 0.787498 0.935859
O O6 0.006116 0.757910 0.731395
O O7 0.065554 0.000000 0.805113
O O8 0.606261 0.203969 0.472892
O O9 0.564101 0.162146 0.614242
O O10 0.683489 0.000000 0.614107
O O11 0.027796 0.500000 0.334948
O O12 0.634765 0.500000 0.063029
O O13 0.500000 0.673629 0.000000
#
# Coordination Sequence:
#
# PCOD8085650 Si02
#       5
#     8   8   8   8   8
#     4  10  19  30  48  74  99 122 152 194 239 277
#     4   9  18  31  48  72  98 123 154 193 236 278
#     4   8  14  26  44  68  98 127 154 184 224 278
#     4   8  14  25  44  70  97 125 154 186 227 274
#     4  10  21  36  51  66  90 127 164 195 232 280
#
# _framework density 18.743414999999999
#
# number of rings (size 3 to 8) (size 9 to 14) (size 15 to 20)
#    0.000    3.000    0.000    2.400    0.000    2.800 
#    0.000    4.000    0.000    1.200    0.000    0.000 
#    0.000    0.000    0.000    0.000    0.000    0.000 
#
# Total GULP energy -247934.467533 kJ/mol
# GULP energy per Si atom -12396.723377 kJ/mol
# Density = 1.870075 g / cm^3
# Si number density = 18.743415 Si / 1000 Ang^3
#
#
#
# Elastic Constant Matrix: (Units=GPa)
#
#
# Indices 1 2 3 4 5 6 
#
# 1 17.3807 15.7012 13.9578 0.0000 6.3927 0.0000
# 2 15.7012 106.3835 86.6252 0.0000 12.7028 0.0000
# 3 13.9578 86.6252 150.3670 0.0000 18.1882 0.0000
# 4 0.0000 0.0000 0.0000 44.1336 0.0000 2.3352
# 5 6.3927 12.7028 18.1882 0.0000 7.5767 0.0000
# 6 0.0000 0.0000 0.0000 2.3352 0.0000 13.7126
#
#
#
# Elastic Compliance Matrix: (Units=1/GPa)
#
#
# Indices 1 2 3 4 5 6 
#
# 1 0.087863 -0.009036 0.005896 0.000000 -0.073137 0.000000
# 2 -0.009036 0.018928 -0.010075 0.000000 0.000074 0.000000
# 3 0.005896 -0.010075 0.014748 0.000000 -0.023487 0.000000
# 4 0.000000 0.000000 0.000000 0.022864 0.000000 -0.003894
# 5 -0.073137 0.000074 -0.023487 0.000000 0.249948 0.000000
# 6 0.000000 0.000000 0.000000 -0.003894 0.000000 0.073589
#
#
# Mechanical properties :
#
#
# Convention : Reuss Voigt Hill
#
# Bulk Modulus (GPa) = 10.51412 56.29997 33.40704
# Shear Modulus (GPa) = 9.50440 23.60773 16.55606
#
# Velocity S-wave (km/s) = 2.25429 3.55282 2.97526
# Velocity P-wave (km/s) = 3.52100 6.85073 5.44655
#
# Compressibility (1/GPa) = 0.09511021
#
# Stress axis : x y z
#
# Youngs Moduli (GPa) = 11.38142 52.83132 67.80595
#
# Poissons Ratio (x) = 0.47737 -0.39980
# Poissons Ratio (y) = 0.10284 0.68312
# Poissons Ratio (z) = -0.06711 0.53225
#
# Static dielectric constant tensor:
#      x y z
#    x 2.937800 0.000000 -0.092620 
#    y 0.000000 3.508820 0.000000 
#    z -0.092620 0.000000 3.798210 
# 
# 
# High freq. dielectric constant tensor:
#      x y z
#    x 1.676510 0.000000 -0.001830 
#    y 0.000000 1.725670 0.000000 
#    z -0.001830 0.000000 1.742380 
# 
# From -- ./inp_files/153898.got.cif
#   From: 2010.06.25/outbox.cif.g09.slc.cpg/sg12_77_cif.got.tgz:153898.got - 2010.06.28 00:19:55.
