data_PCOD8085072
_publ_section_title
;
Structure prediction by ZEFSAII (Michael W. Deem and Ramdas Pophale) SiO2 
 PCOD8085072
Probable space group: C 2/M
;
_chemical_formula_sum "Si O2"
_cell_formula_units_Z 64
_cell_length_a 23.134252
_cell_length_b 9.249663
_cell_length_c 29.657498
_cell_angle_alpha 90.000000
_cell_angle_beta 34.837037
_cell_angle_gamma 90.000000
_cell_volume 3625.248039
_symmetry_space_group_name_H-M "C 2/M"
_symmetry_group_IT_number 12
_symmetry_cell_setting 'monoclinic'
loop_
_space_group_symop_operation_xyz
x,y,z
-x,y,-z
-x,-y,-z
x,-y,z
1/2+x,1/2+y,z
1/2-x,1/2+y,-z
1/2-x,1/2-y,-z
1/2+x,1/2-y,z
loop_
_atom_site_type_symbol
_atom_site_label
_atom_site_fract_x
_atom_site_fract_y
_atom_site_fract_z
Si Si1 0.808055 0.839601 0.326656
Si Si2 0.042560 0.332771 0.088733
Si Si3 0.217225 0.330475 0.215059
Si Si4 0.951828 0.840343 0.829307
Si Si5 0.405187 0.668169 0.031450
Si Si6 0.195437 0.332055 0.756956
Si Si7 0.450908 0.670058 0.729478
Si Si8 0.683332 0.330409 0.578911
O O1 0.768510 0.726027 0.314944
O O2 0.775723 0.788055 0.397389
O O3 0.928141 0.848465 0.248940
O O4 0.764350 0.000000 0.344129
O O5 0.069827 0.500000 0.069884
O O6 0.084843 0.270780 0.108950
O O7 0.923368 0.303932 0.159936
O O8 0.101087 0.255208 0.010904
O O9 0.204267 0.500000 0.231896
O O10 0.303938 0.297812 0.123351
O O11 0.243650 0.255812 0.245009
O O12 0.113071 0.263853 0.264377
O O13 0.914717 0.790506 0.803563
O O14 0.908788 0.000000 0.868252
O O15 0.418474 0.500000 0.011398
O O16 0.500000 0.723907 0.000000
O O17 0.222784 0.500000 0.742845
O O18 0.435140 0.500000 0.730644
O O19 0.566862 0.716035 0.647722
O O20 0.694524 0.500000 0.564293
O O21 0.750000 0.250000 0.500000
#
# Coordination Sequence:
#
# PCOD8085072 Si02
#       8
#     8   8   8   8   8   8   8   8
#     4   8  15  29  49  74 102 131 166 203 240 291
#     4  10  19  29  47  74  99 124 164 218 263 296
#     4  11  22  34  51  73  98 135 175 211 254 303
#     4   8  15  30  51  69  93 131 167 202 249 301
#     4  10  20  34  49  67  96 133 173 214 257 306
#     4  10  19  30  47  73 102 132 167 210 256 298
#     4   9  19  36  54  75 104 136 168 204 249 300
#     4   9  18  33  56  84 110 136 164 199 246 296
#
# _framework density 17.653963999999998
#
# number of rings (size 3 to 8) (size 9 to 14) (size 15 to 20)
#    0.000    2.625    1.250    2.625    0.000    3.750 
#    0.000    3.125    0.000    0.750    0.000    5.250 
#    0.000    0.000    0.000    0.000    0.000    0.000 
#
# Total GULP energy -396764.064315 kJ/mol
# GULP energy per Si atom -12398.877010 kJ/mol
# Density = 1.761378 g / cm^3
# Si number density = 17.653964 Si / 1000 Ang^3
#
#
#
# Elastic Constant Matrix: (Units=GPa)
#
#
# Indices 1 2 3 4 5 6 
#
# 1 113.2474 70.0198 49.8555 0.0016 18.7901 -0.0050
# 2 70.0198 93.6162 50.2958 0.0161 15.6995 0.0137
# 3 49.8555 50.2958 75.1774 -0.0016 20.2703 -0.0006
# 4 0.0016 0.0161 -0.0016 27.2913 -0.0024 5.5681
# 5 18.7901 15.6995 20.2703 -0.0024 28.0929 0.0095
# 6 -0.0050 0.0137 -0.0006 5.5681 0.0095 32.5561
#
#
#
# Elastic Compliance Matrix: (Units=1/GPa)
#
#
# Indices 1 2 3 4 5 6 
#
# 1 0.017531 -0.010607 -0.003683 0.000003 -0.003141 0.000007
# 2 -0.010607 0.023150 -0.008540 -0.000012 0.000319 -0.000010
# 3 -0.003683 -0.008540 0.024218 0.000005 -0.010239 0.000006
# 4 0.000003 -0.000012 0.000005 0.037967 0.000006 -0.006493
# 5 -0.003141 0.000319 -0.010239 0.000006 0.044906 -0.000015
# 6 0.000007 -0.000010 0.000006 -0.006493 -0.000015 0.031827
#
#
# Mechanical properties :
#
#
# Convention : Reuss Voigt Hill
#
# Bulk Modulus (GPa) = 51.97484 69.15368 60.56426
# Shear Modulus (GPa) = 21.58242 25.04606 23.31424
#
# Velocity S-wave (km/s) = 3.50026 3.77068 3.63798
# Velocity P-wave (km/s) = 6.77056 7.62982 7.21300
#
# Compressibility (1/GPa) = 0.01924008
#
# Stress axis : x y z
#
# Youngs Moduli (GPa) = 57.04304 43.19733 41.29103
#
# Poissons Ratio (x) = 0.45818 0.15207
# Poissons Ratio (y) = 0.60503 0.35262
# Poissons Ratio (z) = 0.21008 0.36889
#
# Static dielectric constant tensor:
#      x y z
#    x 3.342020 -0.000030 0.241730 
#    y -0.000030 3.288140 0.000000 
#    z 0.241730 0.000000 3.019010 
# 
# 
# High freq. dielectric constant tensor:
#      x y z
#    x 1.682210 0.000000 0.022300 
#    y 0.000000 1.685000 0.000000 
#    z 0.022300 0.000000 1.649930 
# 
# From -- ./inp_files/281332.got.cif
#   From: 2010.06.25/outbox.cif.g09.slc.cpg/sg12_141_cif.got.tgz:281332.got - 2010.06.28 00:19:55.
