data_PCOD8085228
_publ_section_title
;
Structure prediction by ZEFSAII (Michael W. Deem and Ramdas Pophale) SiO2 
 PCOD8085228
Probable space group: C 2/M
;
_chemical_formula_sum "Si O2"
_cell_formula_units_Z 64
_cell_length_a 27.701935
_cell_length_b 9.294298
_cell_length_c 20.465603
_cell_angle_alpha 90.000000
_cell_angle_beta 47.655266
_cell_angle_gamma 90.000000
_cell_volume 3894.553069
_symmetry_space_group_name_H-M "C 2/M"
_symmetry_group_IT_number 12
_symmetry_cell_setting 'monoclinic'
loop_
_space_group_symop_operation_xyz
x,y,z
-x,y,-z
-x,-y,-z
x,-y,z
1/2+x,1/2+y,z
1/2-x,1/2+y,-z
1/2-x,1/2-y,-z
1/2+x,1/2-y,z
loop_
_atom_site_type_symbol
_atom_site_label
_atom_site_fract_x
_atom_site_fract_y
_atom_site_fract_z
Si Si1 0.676840 0.663248 0.264743
Si Si2 0.054688 0.669921 0.897162
Si Si3 0.681701 0.169084 0.856328
Si Si4 0.006935 0.164931 0.817322
Si Si5 0.044979 0.331707 0.400425
Si Si6 0.353422 0.661107 0.849346
Si Si7 0.354836 0.341350 0.987455
Si Si8 0.020428 0.332690 0.278908
O O1 0.660558 0.500000 0.299963
O O2 0.745501 0.715188 0.234850
O O3 0.615648 0.757808 0.341939
O O4 0.692249 0.673778 0.172574
O O5 0.051064 0.500000 0.887340
O O6 0.125669 0.721373 0.858044
O O7 0.046401 0.752893 0.837277
O O8 0.000000 0.715853 0.000000
O O9 0.678272 0.000000 0.866804
O O10 0.668826 0.225882 0.940220
O O11 0.930917 0.180137 0.902080
O O12 0.022997 0.239197 0.732252
O O13 0.030241 0.000000 0.793658
O O14 0.058883 0.500000 0.394318
O O15 0.005736 0.298152 0.368809
O O16 0.000000 0.273769 0.500000
O O17 0.387121 0.500000 0.818414
O O18 0.316407 0.677776 0.952945
O O19 0.404527 0.790407 0.798217
O O20 0.342143 0.500000 0.028445
O O21 0.010120 0.500000 0.272106
#
# Coordination Sequence:
#
# PCOD8085228 Si02
#       8
#     8   8   8   8   8   8   8   8
#     4   9  18  32  47  65  93 124 154 188 229 276
#     4  10  19  31  46  64  88 123 167 208 243 276
#     4  10  20  31  43  62  89 122 160 201 236 270
#     4  10  19  30  45  65  92 123 158 202 241 273
#     4   9  18  33  53  77 101 122 147 181 224 280
#     4   8  15  28  42  59  87 121 154 189 225 265
#     4   9  17  27  40  59  84 118 157 195 232 270
#     4   9  16  27  46  70  94 120 149 183 226 276
#
# _framework density 16.433208
#
# number of rings (size 3 to 8) (size 9 to 14) (size 15 to 20)
#    0.000    2.750    1.250    1.500    0.000    4.500 
#    0.000    0.000    0.000    0.000    0.000    0.875 
#    0.000    0.000    0.000    0.000    0.000    0.000 
#
# Total GULP energy -396456.497668 kJ/mol
# GULP energy per Si atom -12389.265552 kJ/mol
# Density = 1.639581 g / cm^3
# Si number density = 16.433208 Si / 1000 Ang^3
#
#
#
# Elastic Constant Matrix: (Units=GPa)
#
#
# Indices 1 2 3 4 5 6 
#
# 1 108.2903 45.2427 59.2235 0.0284 1.4315 -0.0391
# 2 45.2427 55.1055 38.2699 0.0362 6.9398 -0.0575
# 3 59.2235 38.2699 73.9505 0.0177 10.2451 -0.0697
# 4 0.0284 0.0362 0.0177 18.0814 -0.0018 3.0181
# 5 1.4315 6.9398 10.2451 -0.0018 19.2435 0.0091
# 6 -0.0391 -0.0575 -0.0697 3.0181 0.0091 20.8255
#
#
#
# Elastic Compliance Matrix: (Units=1/GPa)
#
#
# Indices 1 2 3 4 5 6 
#
# 1 0.019342 -0.008373 -0.012282 0.000005 0.008120 -0.000032
# 2 -0.008373 0.032074 -0.009044 -0.000052 -0.006129 0.000053
# 3 -0.012282 -0.009044 0.029647 -0.000002 -0.011609 0.000057
# 4 0.000005 -0.000052 -0.000002 0.056677 0.000029 -0.008214
# 5 0.008120 -0.006129 -0.011609 0.000029 0.059753 -0.000071
# 6 -0.000032 0.000053 0.000057 -0.008214 -0.000071 0.049209
#
#
# Mechanical properties :
#
#
# Convention : Reuss Voigt Hill
#
# Bulk Modulus (GPa) = 46.15572 58.09095 52.12334
# Shear Modulus (GPa) = 15.95801 17.93742 16.94771
#
# Velocity S-wave (km/s) = 3.11960 3.30742 3.21488
# Velocity P-wave (km/s) = 6.41278 7.07191 6.75039
#
# Compressibility (1/GPa) = 0.02166579
#
# Stress axis : x y z
#
# Youngs Moduli (GPa) = 51.69972 31.17750 33.73002
#
# Poissons Ratio (x) = 0.26106 0.41428
# Poissons Ratio (y) = 0.43290 0.30504
# Poissons Ratio (z) = 0.63498 0.28196
#
# Static dielectric constant tensor:
#      x y z
#    x 3.349910 -0.000020 0.208340 
#    y -0.000020 3.126800 0.000010 
#    z 0.208340 0.000010 2.857980 
# 
# 
# High freq. dielectric constant tensor:
#      x y z
#    x 1.629250 0.000000 0.018030 
#    y 0.000000 1.638500 0.000000 
#    z 0.018030 0.000000 1.586140 
# 
# From -- ./inp_files/326822.got.cif
#   From: 2010.06.25/outbox.cif.g09.slc.cpg/sg12_164_cif.got.tgz:326822.got - 2010.06.28 00:19:55.
