data_PCOD8085928
_publ_section_title
;
Structure prediction by ZEFSAII (Michael W. Deem and Ramdas Pophale) SiO2 
 PCOD8085928
Probable space group: C 2/M
;
_chemical_formula_sum "Si O2"
_cell_formula_units_Z 64
_cell_length_a 31.144050
_cell_length_b 9.163277
_cell_length_c 14.300080
_cell_angle_alpha 90.000000
_cell_angle_beta 89.348372
_cell_angle_gamma 90.000000
_cell_volume 4080.715169
_symmetry_space_group_name_H-M "C 2/M"
_symmetry_group_IT_number 12
_symmetry_cell_setting 'monoclinic'
loop_
_space_group_symop_operation_xyz
x,y,z
-x,y,-z
-x,-y,-z
x,-y,z
1/2+x,1/2+y,z
1/2-x,1/2+y,-z
1/2-x,1/2-y,-z
1/2+x,1/2-y,z
loop_
_atom_site_type_symbol
_atom_site_label
_atom_site_fract_x
_atom_site_fract_y
_atom_site_fract_z
Si Si1 0.833218 0.172311 0.788740
Si Si2 0.704211 0.329177 0.398242
Si Si3 0.248863 0.326037 0.900705
Si Si4 0.500747 0.164595 0.888793
Si Si5 0.208268 0.167196 0.603990
Si Si6 0.416677 0.671189 0.889794
Si Si7 0.672728 0.331138 0.799322
Si Si8 0.415863 0.669272 0.106617
O O1 0.829705 0.223114 0.679994
O O2 0.791328 0.226885 0.845146
O O3 0.876538 0.237230 0.832797
O O4 0.836115 0.000000 0.798255
O O5 0.711270 0.500000 0.386292
O O6 0.749982 0.260137 0.374575
O O7 0.688079 0.287475 0.503326
O O8 0.246878 0.500000 0.911943
O O9 0.207425 0.272082 0.846023
O O10 0.250000 0.250000 0.000000
O O11 0.459207 0.248921 0.850901
O O12 0.544129 0.241685 0.852141
O O13 0.499927 0.000000 0.850819
O O14 0.500000 0.170669 0.000000
O O15 0.173678 0.191499 0.686890
O O16 0.223294 0.000000 0.599027
O O17 0.423274 0.500000 0.873122
O O18 0.407690 0.706180 0.998391
O O19 0.681877 0.500000 0.826227
O O20 0.625963 0.282761 0.834896
O O21 0.426560 0.500000 0.119755
#
# Coordination Sequence:
#
# PCOD8085928 Si02
#       8
#     8   8   8   8   8   8   8   8
#     4   9  17  29  45  64  87 118 154 184 215 263
#     4   9  16  29  46  64  87 117 151 187 226 266
#     4  11  21  32  44  61  89 125 158 186 217 258
#     4   9  17  29  44  64  88 109 137 181 226 263
#     4   9  17  28  45  66  89 115 147 190 231 261
#     4   9  16  28  45  62  82 114 150 179 213 261
#     4  10  19  31  45  66  92 119 152 187 223 263
#     4   9  17  29  45  62  86 118 149 179 214 264
#
# _framework density 15.683526000000001
#
# number of rings (size 3 to 8) (size 9 to 14) (size 15 to 20)
#    0.000    2.625    1.250    1.500    0.000    4.000 
#    0.000    4.375    0.000    0.000    0.000    0.875 
#    0.000    7.000    0.000    0.000    0.000    0.000 
#
# Total GULP energy -396687.203073 kJ/mol
# GULP energy per Si atom -12396.475096 kJ/mol
# Density = 1.564783 g / cm^3
# Si number density = 15.683526 Si / 1000 Ang^3
#
#
#
# Elastic Constant Matrix: (Units=GPa)
#
#
# Indices 1 2 3 4 5 6 
#
# 1 141.2310 47.3556 66.0211 0.0000 3.4302 0.0000
# 2 47.3556 51.5474 32.9729 0.0000 1.4721 0.0000
# 3 66.0211 32.9729 100.0455 0.0000 4.3997 0.0000
# 4 0.0000 0.0000 0.0000 15.6262 0.0000 1.0027
# 5 3.4302 1.4721 4.3997 0.0000 12.0776 0.0000
# 6 0.0000 0.0000 0.0000 1.0027 0.0000 23.7672
#
#
#
# Elastic Compliance Matrix: (Units=1/GPa)
#
#
# Indices 1 2 3 4 5 6 
#
# 1 0.012265 -0.007717 -0.005527 0.000000 -0.000529 0.000000
# 2 -0.007717 0.029437 -0.004622 0.000000 0.000287 0.000000
# 3 -0.005527 -0.004622 0.015318 0.000000 -0.003447 0.000000
# 4 0.000000 0.000000 0.000000 0.064169 0.000000 -0.002707
# 5 -0.000529 0.000287 -0.003447 0.000000 0.084169 0.000000
# 6 0.000000 0.000000 0.000000 -0.002707 0.000000 0.042189
#
#
# Mechanical properties :
#
#
# Convention : Reuss Voigt Hill
#
# Bulk Modulus (GPa) = 46.97530 65.05812 56.01671
# Shear Modulus (GPa) = 17.21916 20.05915 18.63915
#
# Velocity S-wave (km/s) = 3.31707 3.58018 3.45114
# Velocity P-wave (km/s) = 6.68488 7.65912 7.18853
#
# Compressibility (1/GPa) = 0.02128778
#
# Stress axis : x y z
#
# Youngs Moduli (GPa) = 81.53539 33.97050 65.28375
#
# Poissons Ratio (x) = 0.26214 0.36082
# Poissons Ratio (y) = 0.62919 0.30176
# Poissons Ratio (z) = 0.45065 0.15702
#
# Static dielectric constant tensor:
#      x y z
#    x 3.047540 0.000000 0.066810 
#    y 0.000000 2.956140 0.000000 
#    z 0.066810 0.000000 3.146950 
# 
# 
# High freq. dielectric constant tensor:
#      x y z
#    x 1.589180 0.000000 0.001830 
#    y 0.000000 1.595180 0.000000 
#    z 0.001830 0.000000 1.587480 
# 
# From -- ./inp_files/248372.got.cif
#   From: 2010.06.25/outbox.cif.g09.slc.cpg/sg12_125_cif.got.tgz:248372.got - 2010.06.28 00:19:55.
