data_PCOD8085821
_publ_section_title
;
Structure prediction by ZEFSAII (Michael W. Deem and Ramdas Pophale) SiO2 
 PCOD8085821
Probable space group: C 2/M
;
_chemical_formula_sum "Si O2"
_cell_formula_units_Z 64
_cell_length_a 23.957461
_cell_length_b 9.079535
_cell_length_c 21.244995
_cell_angle_alpha 90.000000
_cell_angle_beta 51.224125
_cell_angle_gamma 90.000000
_cell_volume 3602.747509
_symmetry_space_group_name_H-M "C 2/M"
_symmetry_group_IT_number 12
_symmetry_cell_setting 'monoclinic'
loop_
_space_group_symop_operation_xyz
x,y,z
-x,y,-z
-x,-y,-z
x,-y,z
1/2+x,1/2+y,z
1/2-x,1/2+y,-z
1/2-x,1/2-y,-z
1/2+x,1/2-y,z
loop_
_atom_site_type_symbol
_atom_site_label
_atom_site_fract_x
_atom_site_fract_y
_atom_site_fract_z
Si Si1 0.857836 0.171236 0.435891
Si Si2 0.360796 0.828681 0.852844
Si Si3 0.751882 0.327724 0.596918
Si Si4 0.482403 0.831658 0.290224
Si Si5 0.271766 0.329117 0.138017
Si Si6 0.962788 0.670066 0.159276
Si Si7 0.604207 0.329344 0.045490
Si Si8 0.304290 0.173998 0.240880
O O1 0.824560 0.259349 0.517750
O O2 0.813257 0.205234 0.404308
O O3 0.938788 0.226715 0.368101
O O4 0.858114 0.000000 0.452627
O O5 0.433306 0.797243 0.762320
O O6 0.294113 0.776627 0.858549
O O7 0.359839 0.742487 0.918878
O O8 0.355774 0.000000 0.874067
O O9 0.763384 0.500000 0.599528
O O10 0.736696 0.251269 0.673512
O O11 0.458269 0.796936 0.236378
O O12 0.464776 0.000000 0.320126
O O13 0.263474 0.500000 0.162613
O O14 0.269273 0.229344 0.201414
O O15 0.345423 0.300438 0.049572
O O16 0.980150 0.500000 0.134482
O O17 0.887982 0.718715 0.181405
O O18 0.026793 0.762700 0.083020
O O19 0.594811 0.500000 0.066823
O O20 0.294993 0.000000 0.254791
#
# Coordination Sequence:
#
# PCOD8085821 Si02
#       8
#     8   8   8   8   8   8   8   8
#     4  10  19  30  50  80 109 136 168 208 253 303
#     4   9  19  36  56  76 103 138 175 217 264 313
#     4  10  20  33  51  76 108 142 170 205 253 308
#     4   9  16  30  52  76 103 135 170 211 257 307
#     4  10  22  38  53  74 104 140 178 216 264 315
#     4   9  19  34  51  73 105 141 173 210 261 317
#     4  10  20  33  54  80 104 131 172 226 268 305
#     4  11  22  36  54  75 104 141 179 216 255 310
#
# _framework density 17.764219000000001
#
# number of rings (size 3 to 8) (size 9 to 14) (size 15 to 20)
#    0.000    2.250    1.250    2.625    0.000    6.000 
#    0.000    2.500    0.000    0.750    0.000    5.250 
#    0.000    0.000    0.000    0.000    0.000    0.000 
#
# Total GULP energy -396897.909491 kJ/mol
# GULP energy per Si atom -12403.059672 kJ/mol
# Density = 1.772379 g / cm^3
# Si number density = 17.764219 Si / 1000 Ang^3
#
#
#
# Elastic Constant Matrix: (Units=GPa)
#
#
# Indices 1 2 3 4 5 6 
#
# 1 41.6827 22.3054 23.5287 -0.0008 7.4506 0.0006
# 2 22.3054 79.9923 52.8936 -0.0020 4.4054 0.0007
# 3 23.5287 52.8936 95.1738 -0.0013 3.0144 0.0014
# 4 -0.0008 -0.0020 -0.0013 34.5643 0.0002 -0.9756
# 5 7.4506 4.4054 3.0144 0.0002 20.0655 -0.0001
# 6 0.0006 0.0007 0.0014 -0.9756 -0.0001 26.6370
#
#
#
# Elastic Compliance Matrix: (Units=1/GPa)
#
#
# Indices 1 2 3 4 5 6 
#
# 1 0.031019 -0.005134 -0.004508 0.000000 -0.009713 0.000000
# 2 -0.005134 0.020761 -0.010234 0.000001 -0.001114 0.000000
# 3 -0.004508 -0.010234 0.017267 0.000000 0.001327 -0.000001
# 4 0.000000 0.000001 0.000000 0.028962 -0.000001 0.001061
# 5 -0.009713 -0.001114 0.001327 -0.000001 0.053489 0.000000
# 6 0.000000 0.000000 -0.000001 0.001061 0.000000 0.037581
#
#
# Mechanical properties :
#
#
# Convention : Reuss Voigt Hill
#
# Bulk Modulus (GPa) = 34.13391 46.03381 40.08386
# Shear Modulus (GPa) = 20.95622 24.12812 22.54217
#
# Velocity S-wave (km/s) = 3.43838 3.68943 3.56612
# Velocity P-wave (km/s) = 5.91777 6.64223 6.29044
#
# Compressibility (1/GPa) = 0.02929638
#
# Stress axis : x y z
#
# Youngs Moduli (GPa) = 32.23870 48.16751 57.91463
#
# Poissons Ratio (x) = 0.24729 0.26105
# Poissons Ratio (y) = 0.16551 0.59267
# Poissons Ratio (z) = 0.14532 0.49292
#
# Static dielectric constant tensor:
#      x y z
#    x 3.214960 0.000000 -0.181900 
#    y 0.000000 3.289870 0.000000 
#    z -0.181900 0.000000 3.238300 
# 
# 
# High freq. dielectric constant tensor:
#      x y z
#    x 1.663990 0.000000 -0.015000 
#    y 0.000000 1.693330 0.000000 
#    z -0.015000 0.000000 1.687730 
# 
# From -- ./inp_files/295635.got.cif
#   From: 2010.06.25/outbox.cif.g09.slc.cpg/sg12_148_cif.got.tgz:295635.got - 2010.06.28 00:19:55.
