data_PCOD8085361
_publ_section_title
;
Structure prediction by ZEFSAII (Michael W. Deem and Ramdas Pophale) SiO2 
 PCOD8085361
Probable space group: C 2/M
;
_chemical_formula_sum "Si O2"
_cell_formula_units_Z 48
_cell_length_a 13.839234
_cell_length_b 17.341232
_cell_length_c 11.679329
_cell_angle_alpha 90.000000
_cell_angle_beta 78.061472
_cell_angle_gamma 90.000000
_cell_volume 2742.288024
_symmetry_space_group_name_H-M "C 2/M"
_symmetry_group_IT_number 12
_symmetry_cell_setting 'monoclinic'
loop_
_space_group_symop_operation_xyz
x,y,z
-x,y,-z
-x,-y,-z
x,-y,z
1/2+x,1/2+y,z
1/2-x,1/2+y,-z
1/2-x,1/2-y,-z
1/2+x,1/2-y,z
loop_
_atom_site_type_symbol
_atom_site_label
_atom_site_fract_x
_atom_site_fract_y
_atom_site_fract_z
Si Si1 0.179178 0.408550 0.785886
Si Si2 0.090463 0.091547 0.902161
Si Si3 0.725561 0.161164 0.017061
Si Si4 0.967127 0.585544 0.878054
Si Si5 0.146610 0.091541 0.409668
Si Si6 0.550558 0.408243 0.659886
O O1 0.184845 0.500000 0.799685
O O2 0.248271 0.378849 0.664755
O O3 0.065323 0.384319 0.786579
O O4 0.221167 0.373454 0.892001
O O5 0.191706 0.119674 0.929877
O O6 0.079483 0.125919 0.776479
O O7 0.089604 0.000000 0.900706
O O8 0.000000 0.123611 0.000000
O O9 0.622685 0.146009 0.110797
O O10 0.750000 0.250000 0.000000
O O11 0.934545 0.500000 0.842153
O O12 0.000000 0.577872 0.000000
O O13 0.129446 0.120419 0.544362
O O14 0.058266 0.121521 0.349340
O O15 0.144042 0.000000 0.409474
O O16 0.550462 0.500000 0.666118
#
# Coordination Sequence:
#
# PCOD8085361 Si02
#       6
#     8   8   8   8   8   8
#     4   9  16  29  50  69  85 113 157 198 228 265
#     4  10  19  30  46  69  96 123 149 182 231 285
#     4  11  21  30  43  65  95 124 150 184 228 276
#     4   8  15  29  47  64  83 112 151 191 225 259
#     4   8  13  24  44  69  93 116 149 192 232 272
#     4   8  14  24  41  68  98 121 144 185 236 277
#
# _framework density 17.503633000000001
#
# number of rings (size 3 to 8) (size 9 to 14) (size 15 to 20)
#    0.000    3.000    0.000    4.500    0.000    4.667 
#    0.000    0.000    0.000    2.000    0.000    8.167 
#    0.000    0.000    0.000    0.000    0.000    0.000 
#
# Total GULP energy -297380.864971 kJ/mol
# GULP energy per Si atom -12390.869374 kJ/mol
# Density = 1.746379 g / cm^3
# Si number density = 17.503633 Si / 1000 Ang^3
#
#
#
# Elastic Constant Matrix: (Units=GPa)
#
#
# Indices 1 2 3 4 5 6 
#
# 1 145.9465 33.8639 81.2369 0.0000 -29.4731 0.0000
# 2 33.8639 31.1860 21.7635 0.0000 -6.5050 0.0000
# 3 81.2369 21.7635 129.1507 0.0000 -20.3659 0.0000
# 4 0.0000 0.0000 0.0000 3.4439 0.0000 -2.8027
# 5 -29.4731 -6.5050 -20.3659 0.0000 36.2939 0.0000
# 6 0.0000 0.0000 0.0000 -2.8027 0.0000 5.2636
#
#
#
# Elastic Compliance Matrix: (Units=1/GPa)
#
#
# Indices 1 2 3 4 5 6 
#
# 1 0.013566 -0.009279 -0.006028 0.000000 0.005971 0.000000
# 2 -0.009279 0.043066 -0.001527 0.000000 -0.000673 0.000000
# 3 -0.006028 -0.001527 0.012042 0.000000 0.001589 0.000000
# 4 0.000000 0.000000 0.000000 0.512388 0.000000 0.272827
# 5 0.005971 -0.000673 0.001589 0.000000 0.033172 0.000000
# 6 0.000000 0.000000 0.000000 0.272827 0.000000 0.335254
#
#
# Mechanical properties :
#
#
# Convention : Reuss Voigt Hill
#
# Bulk Modulus (GPa) = 28.56533 64.44573 46.50553
# Shear Modulus (GPa) = 5.02601 20.29488 12.66045
#
# Velocity S-wave (km/s) = 1.69636 3.40879 2.69235
# Velocity P-wave (km/s) = 4.49354 7.23820 6.02426
#
# Compressibility (1/GPa) = 0.03500747
#
# Stress axis : x y z
#
# Youngs Moduli (GPa) = 73.71515 23.22004 83.04048
#
# Poissons Ratio (x) = 0.21545 0.50056
# Poissons Ratio (y) = 0.68397 0.12680
# Poissons Ratio (z) = 0.44435 0.03546
#
# Static dielectric constant tensor:
#      x y z
#    x 3.263150 0.000000 -0.373150 
#    y 0.000000 2.784440 0.000000 
#    z -0.373150 0.000000 3.611750 
# 
# 
# High freq. dielectric constant tensor:
#      x y z
#    x 1.682080 0.000000 -0.020770 
#    y 0.000000 1.625800 0.000000 
#    z -0.020770 0.000000 1.663930 
# 
# From -- ./inp_files/131228.got.cif
#   From: 2010.06.25/outbox.cif.g09.slc.cpg/sg12_66_cif.got.tgz:131228.got - 2010.06.28 00:19:55.
