data_PCOD8085026
_publ_section_title
;
Structure prediction by ZEFSAII (Michael W. Deem and Ramdas Pophale) SiO2 
 PCOD8085026
Probable space group: C 2/M
;
_chemical_formula_sum "Si O2"
_cell_formula_units_Z 64
_cell_length_a 12.738606
_cell_length_b 19.084234
_cell_length_c 19.114201
_cell_angle_alpha 90.000000
_cell_angle_beta 59.298961
_cell_angle_gamma 90.000000
_cell_volume 3995.507531
_symmetry_space_group_name_H-M "C 2/M"
_symmetry_group_IT_number 12
_symmetry_cell_setting 'monoclinic'
loop_
_space_group_symop_operation_xyz
x,y,z
-x,y,-z
-x,-y,-z
x,-y,z
1/2+x,1/2+y,z
1/2-x,1/2+y,-z
1/2-x,1/2-y,-z
1/2+x,1/2-y,z
loop_
_atom_site_type_symbol
_atom_site_label
_atom_site_fract_x
_atom_site_fract_y
_atom_site_fract_z
Si Si1 0.476800 0.919706 0.335566
Si Si2 0.879860 0.417496 0.508590
Si Si3 0.712018 0.282507 0.905817
Si Si4 0.696318 0.651571 0.058522
Si Si5 0.258061 0.080236 0.685266
Si Si6 0.567801 0.078517 0.048653
Si Si7 0.022498 0.326951 0.192533
Si Si8 0.936099 0.178987 0.176026
O O1 0.373587 0.895958 0.428455
O O2 0.610845 0.910690 0.323102
O O3 0.456556 0.870541 0.275730
O O4 0.457176 0.000000 0.318549
O O5 0.901118 0.500000 0.502125
O O6 0.766641 0.399897 0.598847
O O7 0.000000 0.380859 0.500000
O O8 0.737860 0.199625 0.905002
O O9 0.606683 0.300074 0.886954
O O10 0.834657 0.320989 0.838085
O O11 0.669811 0.306683 0.996391
O O12 0.560141 0.632072 0.131182
O O13 0.785658 0.586572 0.013070
O O14 0.162753 0.133072 0.750815
O O15 0.212968 0.000000 0.709919
O O16 0.511269 0.132619 0.122881
O O17 0.545828 0.000000 0.083686
O O18 0.500000 0.093141 0.000000
O O19 0.959342 0.251240 0.209524
#
# Coordination Sequence:
#
# PCOD8085026 Si02
#       8
#     8   8   8   8   8   8   8   8
#     4   9  15  28  48  68  92 118 153 193 228 272
#     4   7  12  24  44  66  87 119 153 181 222 279
#     4   9  17  31  44  60  87 121 157 185 226 271
#     4   9  19  30  46  64  83 120 158 195 222 269
#     4   9  17  29  46  68  94 121 149 186 236 281
#     4  10  20  34  49  65  90 122 159 199 233 263
#     4  10  19  29  46  69  92 121 156 193 230 275
#     4  11  19  29  46  68  96 121 152 188 234 285
#
# _framework density 16.017990000000001
#
# number of rings (size 3 to 8) (size 9 to 14) (size 15 to 20)
#    0.000    2.750    1.250    3.750    0.000    0.500 
#    0.000    0.625    0.000    2.250    0.000    0.000 
#    0.000    0.000    0.000   31.375    0.000    0.000 
#
# Total GULP energy -396425.280408 kJ/mol
# GULP energy per Si atom -12388.290013 kJ/mol
# Density = 1.598153 g / cm^3
# Si number density = 16.017990 Si / 1000 Ang^3
#
#
#
# Elastic Constant Matrix: (Units=GPa)
#
#
# Indices 1 2 3 4 5 6 
#
# 1 54.1883 22.0905 25.9217 0.0000 0.2779 0.0000
# 2 22.0905 60.0524 41.4621 0.0000 2.2986 0.0000
# 3 25.9217 41.4621 96.5098 0.0000 5.4279 0.0000
# 4 0.0000 0.0000 0.0000 19.7474 0.0000 -2.6769
# 5 0.2779 2.2986 5.4279 0.0000 14.7932 0.0000
# 6 0.0000 0.0000 0.0000 -2.6769 0.0000 17.8193
#
#
#
# Elastic Compliance Matrix: (Units=1/GPa)
#
#
# Indices 1 2 3 4 5 6 
#
# 1 0.022578 -0.005854 -0.003652 0.000000 0.001826 0.000000
# 2 -0.005854 0.025192 -0.009227 0.000000 -0.000419 0.000000
# 3 -0.003652 -0.009227 0.015543 0.000000 -0.004201 0.000000
# 4 0.000000 0.000000 0.000000 0.051692 0.000000 0.007765
# 5 0.001826 -0.000419 -0.004201 0.000000 0.069171 0.000000
# 6 0.000000 0.000000 0.000000 0.007765 0.000000 0.057285
#
#
# Mechanical properties :
#
#
# Convention : Reuss Voigt Hill
#
# Bulk Modulus (GPa) = 38.68879 43.29990 40.99435
# Shear Modulus (GPa) = 17.38867 18.55707 17.97287
#
# Velocity S-wave (km/s) = 3.29838 3.40739 3.35332
# Velocity P-wave (km/s) = 6.22186 6.52465 6.37505
#
# Compressibility (1/GPa) = 0.02584728
#
# Stress axis : x y z
#
# Youngs Moduli (GPa) = 44.29053 39.69486 64.33793
#
# Poissons Ratio (x) = 0.23237 0.23497
# Poissons Ratio (y) = 0.25927 0.59365
# Poissons Ratio (z) = 0.16175 0.36627
#
# Static dielectric constant tensor:
#      x y z
#    x 2.798310 0.000000 0.030340 
#    y 0.000000 2.850620 0.000000 
#    z 0.030340 0.000000 3.240510 
# 
# 
# High freq. dielectric constant tensor:
#      x y z
#    x 1.588610 0.000000 0.004690 
#    y 0.000000 1.595360 0.000000 
#    z 0.004690 0.000000 1.619320 
# 
# From -- ./inp_files/264814.got.cif
#   From: 2010.06.25/outbox.cif.g09.slc.cpg/sg12_133_cif.got.tgz:264814.got - 2010.06.28 00:19:55.
