data_PCOD8085994
_publ_section_title
;
Structure prediction by ZEFSAII (Michael W. Deem and Ramdas Pophale) SiO2 
 PCOD8085994
Probable space group: C 2/M
;
_chemical_formula_sum "Si O2"
_cell_formula_units_Z 64
_cell_length_a 27.853035
_cell_length_b 9.097519
_cell_length_c 20.875089
_cell_angle_alpha 90.000000
_cell_angle_beta 51.608943
_cell_angle_gamma 90.000000
_cell_volume 4145.947244
_symmetry_space_group_name_H-M "C 2/M"
_symmetry_group_IT_number 12
_symmetry_cell_setting 'monoclinic'
loop_
_space_group_symop_operation_xyz
x,y,z
-x,y,-z
-x,-y,-z
x,-y,z
1/2+x,1/2+y,z
1/2-x,1/2+y,-z
1/2-x,1/2-y,-z
1/2+x,1/2-y,z
loop_
_atom_site_type_symbol
_atom_site_label
_atom_site_fract_x
_atom_site_fract_y
_atom_site_fract_z
Si Si1 0.375232 0.675097 0.971646
Si Si2 0.309466 0.172923 0.923003
Si Si3 0.160500 0.161437 0.598370
Si Si4 0.893591 0.174210 0.225750
Si Si5 0.263942 0.325127 0.278664
Si Si6 0.992413 0.328707 0.931354
Si Si7 0.794036 0.337705 0.548607
Si Si8 0.255303 0.328969 0.145614
O O1 0.377981 0.500000 0.962109
O O2 0.368337 0.748031 0.906159
O O3 0.435621 0.733508 0.954825
O O4 0.317506 0.731476 0.061528
O O5 0.304422 0.198381 0.849976
O O6 0.309364 0.000000 0.939180
O O7 0.250000 0.250000 0.000000
O O8 0.116866 0.221025 0.691333
O O9 0.156378 0.254045 0.536267
O O10 0.229351 0.155858 0.566721
O O11 0.138094 0.000000 0.597945
O O12 0.834089 0.219005 0.233887
O O13 0.948500 0.271199 0.154407
O O14 0.907249 0.000000 0.208419
O O15 0.258394 0.500000 0.287941
O O16 0.217953 0.261580 0.371709
O O17 0.245014 0.259484 0.224777
O O18 0.982166 0.500000 0.924405
O O19 0.000000 0.300407 0.000000
O O20 0.821209 0.500000 0.535102
O O21 0.266710 0.500000 0.146702
#
# Coordination Sequence:
#
# PCOD8085994 Si02
#       8
#     8   8   8   8   8   8   8   8
#     4  10  19  31  47  62  78 109 148 179 209 246
#     4   9  16  27  43  63  85 108 137 174 215 254
#     4   8  14  24  37  54  77 104 136 171 202 234
#     4   9  17  29  44  59  78 111 149 177 200 235
#     4   8  13  23  39  60  84 108 139 172 199 238
#     4  11  23  34  43  60  86 111 137 175 217 248
#     4   8  13  21  36  56  77 104 134 165 201 238
#     4   8  14  24  41  63  83 106 136 169 205 244
#
# _framework density 15.436761000000001
#
# number of rings (size 3 to 8) (size 9 to 14) (size 15 to 20)
#    0.000    3.125    0.000    4.125    0.000    2.500 
#    0.000    1.875    0.000    5.250    0.000    0.000 
#    0.000    1.000    0.000   11.500    0.000    3.375 
#
# Total GULP energy -396424.331003 kJ/mol
# GULP energy per Si atom -12388.260344 kJ/mol
# Density = 1.540163 g / cm^3
# Si number density = 15.436761 Si / 1000 Ang^3
#
#
#
# Elastic Constant Matrix: (Units=GPa)
#
#
# Indices 1 2 3 4 5 6 
#
# 1 84.1705 37.0235 43.7754 0.0044 21.3066 -0.0029
# 2 37.0235 64.6722 38.2421 0.0215 8.7895 -0.0043
# 3 43.7754 38.2421 104.3551 0.0040 23.0198 -0.0072
# 4 0.0044 0.0215 0.0040 21.2640 -0.0016 -0.6500
# 5 21.3066 8.7895 23.0198 -0.0016 20.8253 -0.0001
# 6 -0.0029 -0.0043 -0.0072 -0.6500 -0.0001 19.0924
#
#
#
# Elastic Compliance Matrix: (Units=1/GPa)
#
#
# Indices 1 2 3 4 5 6 
#
# 1 0.020529 -0.008398 -0.002225 0.000004 -0.014999 0.000000
# 2 -0.008398 0.023179 -0.006227 -0.000020 0.005692 0.000001
# 3 -0.002225 -0.006227 0.015494 0.000003 -0.012222 0.000004
# 4 0.000004 -0.000020 0.000003 0.047077 0.000005 0.001603
# 5 -0.014999 0.005692 -0.012222 0.000005 0.074472 -0.000005
# 6 0.000000 0.000001 0.000004 0.001603 -0.000005 0.052431
#
#
# Mechanical properties :
#
#
# Convention : Reuss Voigt Hill
#
# Bulk Modulus (GPa) = 39.21395 54.58666 46.90031
# Shear Modulus (GPa) = 18.15657 21.18012 19.66835
#
# Velocity S-wave (km/s) = 3.43328 3.70815 3.57336
# Velocity P-wave (km/s) = 6.41675 7.33294 6.89009
#
# Compressibility (1/GPa) = 0.02550113
#
# Stress axis : x y z
#
# Youngs Moduli (GPa) = 48.71230 43.14292 64.54029
#
# Poissons Ratio (x) = 0.36231 0.14362
# Poissons Ratio (y) = 0.40908 0.40190
# Poissons Ratio (z) = 0.10840 0.26865
#
# Static dielectric constant tensor:
#      x y z
#    x 3.073870 -0.000020 0.383350 
#    y -0.000020 2.960810 0.000020 
#    z 0.383350 0.000020 3.133610 
# 
# 
# High freq. dielectric constant tensor:
#      x y z
#    x 1.562250 0.000000 0.028540 
#    y 0.000000 1.578860 0.000000 
#    z 0.028540 0.000000 1.579510 
# 
# From -- ./inp_files/326800.got.cif
#   From: 2010.06.25/outbox.cif.g09.slc.cpg/sg12_164_cif.got.tgz:326800.got - 2010.06.28 00:19:55.
