data_PCOD8085983
_publ_section_title
;
Structure prediction by ZEFSAII (Michael W. Deem and Ramdas Pophale) SiO2 
 PCOD8085983
Probable space group: C 2/M
;
_chemical_formula_sum "Si O2"
_cell_formula_units_Z 64
_cell_length_a 27.607712
_cell_length_b 9.300964
_cell_length_c 14.350791
_cell_angle_alpha 90.000000
_cell_angle_beta 107.437808
_cell_angle_gamma 90.000000
_cell_volume 3515.621188
_symmetry_space_group_name_H-M "C 2/M"
_symmetry_group_IT_number 12
_symmetry_cell_setting 'monoclinic'
loop_
_space_group_symop_operation_xyz
x,y,z
-x,y,-z
-x,-y,-z
x,-y,z
1/2+x,1/2+y,z
1/2-x,1/2+y,-z
1/2-x,1/2-y,-z
1/2+x,1/2-y,z
loop_
_atom_site_type_symbol
_atom_site_label
_atom_site_fract_x
_atom_site_fract_y
_atom_site_fract_z
Si Si1 0.151069 0.331745 0.233980
Si Si2 0.111100 0.663088 0.699184
Si Si3 0.313047 0.331838 0.125385
Si Si4 0.911601 0.833844 0.661548
Si Si5 0.754842 0.339166 0.594420
Si Si6 0.997450 0.664067 0.605936
Si Si7 0.142180 0.841108 0.554119
Si Si8 0.303034 0.166434 0.933629
O O1 0.141042 0.500000 0.243792
O O2 0.103997 0.244385 0.250898
O O3 0.202677 0.277552 0.312564
O O4 0.159034 0.297818 0.129584
O O5 0.131039 0.500000 0.717003
O O6 0.145712 0.762412 0.783178
O O7 0.051733 0.672531 0.689706
O O8 0.113651 0.717673 0.594143
O O9 0.324568 0.500000 0.127329
O O10 0.255662 0.301178 0.127651
O O11 0.321086 0.265829 0.028015
O O12 0.865812 0.813807 0.560809
O O13 0.961676 0.765321 0.646217
O O14 0.922360 0.000000 0.690384
O O15 0.769394 0.500000 0.573082
O O16 0.750000 0.250000 0.500000
O O17 0.701154 0.335006 0.616378
O O18 0.977094 0.500000 0.595170
O O19 0.000000 0.718335 0.500000
O O20 0.120506 0.000000 0.567055
O O21 0.307881 0.000000 0.966316
#
# Coordination Sequence:
#
# PCOD8085983 Si02
#       8
#     8   8   8   8   8   8   8   8
#     4  10  20  34  54  75 106 150 186 221 266 319
#     4  11  22  35  56  81 106 141 183 227 273 328
#     4  10  20  36  59  86 116 143 175 227 278 323
#     4  11  22  34  52  77 107 142 182 227 272 322
#     4  10  19  31  46  69 104 143 179 214 255 307
#     4  10  21  38  56  76 106 143 187 231 272 325
#     4  10  20  33  48  72 108 143 178 222 268 316
#     4   9  19  37  59  83 112 148 186 220 265 327
#
# _framework density 18.204464000000002
#
# number of rings (size 3 to 8) (size 9 to 14) (size 15 to 20)
#    0.000    1.875    2.500    1.875    0.000    5.250 
#    0.000    1.250    0.000    0.750    0.000    5.250 
#    0.000    0.000    0.000    0.000    0.000    0.000 
#
# Total GULP energy -396762.262606 kJ/mol
# GULP energy per Si atom -12398.820706 kJ/mol
# Density = 1.816303 g / cm^3
# Si number density = 18.204464 Si / 1000 Ang^3
#
#
#
# Elastic Constant Matrix: (Units=GPa)
#
#
# Indices 1 2 3 4 5 6 
#
# 1 89.4767 53.0699 33.9643 0.0000 -19.9071 0.0000
# 2 53.0699 103.3551 48.1036 0.0000 -16.6557 0.0000
# 3 33.9643 48.1036 67.7635 0.0000 -12.4675 0.0000
# 4 0.0000 0.0000 0.0000 32.3154 0.0000 -2.0021
# 5 -19.9071 -16.6557 -12.4675 0.0000 28.8418 0.0000
# 6 0.0000 0.0000 0.0000 -2.0021 0.0000 30.4048
#
#
#
# Elastic Compliance Matrix: (Units=1/GPa)
#
#
# Indices 1 2 3 4 5 6 
#
# 1 0.017816 -0.006642 -0.002888 0.000000 0.007213 0.000000
# 2 -0.006642 0.017421 -0.008724 0.000000 0.001705 0.000000
# 3 -0.002888 -0.008724 0.022927 0.000000 0.002880 0.000000
# 4 0.000000 0.000000 0.000000 0.031072 0.000000 0.002046
# 5 0.007213 0.001705 0.002880 0.000000 0.041880 0.000000
# 6 0.000000 0.000000 0.000000 0.002046 0.000000 0.033024
#
#
# Mechanical properties :
#
#
# Convention : Reuss Voigt Hill
#
# Bulk Modulus (GPa) = 46.17362 58.98566 52.57964
# Shear Modulus (GPa) = 24.05381 26.67622 25.36502
#
# Velocity S-wave (km/s) = 3.63893 3.83216 3.73680
# Velocity P-wave (km/s) = 6.56313 7.21476 6.89665
#
# Compressibility (1/GPa) = 0.02165739
#
# Stress axis : x y z
#
# Youngs Moduli (GPa) = 56.12775 57.40289 43.61578
#
# Poissons Ratio (x) = 0.38125 0.12596
# Poissons Ratio (y) = 0.37278 0.38050
# Poissons Ratio (z) = 0.16210 0.50078
#
# Static dielectric constant tensor:
#      x y z
#    x 3.334870 0.000000 -0.023990 
#    y 0.000000 3.406610 0.000000 
#    z -0.023990 0.000000 3.231050 
# 
# 
# High freq. dielectric constant tensor:
#      x y z
#    x 1.695730 0.000000 -0.003660 
#    y 0.000000 1.711530 0.000000 
#    z -0.003660 0.000000 1.685080 
# 
# From -- ./inp_files/244191.got.cif
#   From: 2010.06.25/outbox.cif.g09.slc.cpg/sg12_123_cif.got.tgz:244191.got - 2010.06.28 00:19:55.
