data_PCOD8085022
_publ_section_title
;
Structure prediction by ZEFSAII (Michael W. Deem and Ramdas Pophale) SiO2 
 PCOD8085022
Probable space group: C 2/M
;
_chemical_formula_sum "Si O2"
_cell_formula_units_Z 56
_cell_length_a 18.543340
_cell_length_b 21.197147
_cell_length_c 7.907677
_cell_angle_alpha 90.000000
_cell_angle_beta 97.723773
_cell_angle_gamma 90.000000
_cell_volume 3080.038782
_symmetry_space_group_name_H-M "C 2/M"
_symmetry_group_IT_number 12
_symmetry_cell_setting 'monoclinic'
loop_
_space_group_symop_operation_xyz
x,y,z
-x,y,-z
-x,-y,-z
x,-y,z
1/2+x,1/2+y,z
1/2-x,1/2+y,-z
1/2-x,1/2-y,-z
1/2+x,1/2-y,z
loop_
_atom_site_type_symbol
_atom_site_label
_atom_site_fract_x
_atom_site_fract_y
_atom_site_fract_z
Si Si1 0.064443 0.072464 0.706868
Si Si2 0.217816 0.071941 0.849304
Si Si3 0.311165 0.814234 0.362879
Si Si4 0.304352 0.807863 0.995702
Si Si5 0.764216 0.930198 0.543151
Si Si6 0.415146 0.381127 0.650823
Si Si7 0.348573 0.254133 0.690257
O O1 0.131189 0.083190 0.859279
O O2 0.073290 0.117841 0.547885
O O3 0.985723 0.088082 0.766118
O O4 0.066648 0.000000 0.643252
O O5 0.263486 0.124775 0.961801
O O6 0.226739 0.082217 0.652610
O O7 0.240769 0.000000 0.908933
O O8 0.299816 0.886800 0.407646
O O9 0.363095 0.782825 0.519213
O O10 0.233090 0.780254 0.336677
O O11 0.347978 0.811357 0.187812
O O12 0.357607 0.793046 0.854321
O O13 0.250000 0.750000 0.000000
O O14 0.840490 0.918590 0.665927
O O15 0.737721 0.000000 0.574053
O O16 0.407436 0.309803 0.716854
#
# Coordination Sequence:
#
# PCOD8085022 Si02
#       7
#     8   8   8   8   8   8   8
#     4   9  16  26  43  71  96 125 173 202 228 276
#     4   9  17  29  45  67  98 130 160 201 238 278
#     4   9  17  27  43  62  85 115 151 195 234 285
#     4  10  19  29  46  67  90 123 160 196 243 285
#     4   9  15  25  43  63  90 123 154 191 234 277
#     4   9  15  24  43  64  92 123 163 202 227 271
#     4   9  17  29  42  64  89 112 156 197 237 280
#
# _framework density 18.18159
#
# number of rings (size 3 to 8) (size 9 to 14) (size 15 to 20)
#    0.000    2.857    1.429    2.571    6.000    0.571 
#    0.000    0.000    0.000    7.714    0.000   19.000 
#    0.000    0.000    0.000   14.143    0.286    0.286 
#
# Total GULP energy -346870.933925 kJ/mol
# GULP energy per Si atom -12388.247640 kJ/mol
# Density = 1.814021 g / cm^3
# Si number density = 18.181590 Si / 1000 Ang^3
#
#
#
# Elastic Constant Matrix: (Units=GPa)
#
#
# Indices 1 2 3 4 5 6 
#
# 1 22.1412 21.9860 15.1396 0.0000 -2.5595 0.0000
# 2 21.9860 110.0855 46.2305 0.0000 -4.3207 0.0000
# 3 15.1396 46.2305 94.6341 0.0000 -5.8800 0.0000
# 4 0.0000 0.0000 0.0000 23.1492 0.0000 -4.1723
# 5 -2.5595 -4.3207 -5.8800 0.0000 5.3493 0.0000
# 6 0.0000 0.0000 0.0000 -4.1723 0.0000 28.7250
#
#
#
# Elastic Compliance Matrix: (Units=1/GPa)
#
#
# Indices 1 2 3 4 5 6 
#
# 1 0.059158 -0.009592 -0.003757 0.000000 0.016428 0.000000
# 2 -0.009592 0.013039 -0.004793 0.000000 0.000673 0.000000
# 3 -0.003757 -0.004793 0.014122 0.000000 0.009854 0.000000
# 4 0.000000 0.000000 0.000000 0.044359 0.000000 0.006443
# 5 0.016428 0.000673 0.009854 0.000000 0.206177 0.000000
# 6 0.000000 0.000000 0.000000 0.006443 0.000000 0.035749
#
#
# Mechanical properties :
#
#
# Convention : Reuss Voigt Hill
#
# Bulk Modulus (GPa) = 19.98683 43.73034 31.85858
# Shear Modulus (GPa) = 11.74901 21.01168 16.38034
#
# Velocity S-wave (km/s) = 2.54481 3.40318 3.00481
# Velocity P-wave (km/s) = 4.43300 6.28859 5.44049
#
# Compressibility (1/GPa) = 0.05003295
#
# Stress axis : x y z
#
# Youngs Moduli (GPa) = 16.90392 76.69311 70.81129
#
# Poissons Ratio (x) = 0.73565 0.26607
# Poissons Ratio (y) = 0.16215 0.33943
# Poissons Ratio (z) = 0.06352 0.36762
#
# Static dielectric constant tensor:
#      x y z
#    x 2.978100 0.000000 -0.147320 
#    y 0.000000 3.466820 0.000000 
#    z -0.147320 0.000000 3.513450 
# 
# 
# High freq. dielectric constant tensor:
#      x y z
#    x 1.632220 0.000000 -0.012350 
#    y 0.000000 1.707710 0.000000 
#    z -0.012350 0.000000 1.693570 
# 
# From -- ./inp_files/88825.got.cif
#   From: 2010.06.25/outbox.cif.g09.slc.cpg/sg12_45_cif.got.tgz:88825.got - 2010.06.28 00:19:55.
