data_PCOD8085046
_publ_section_title
;
Structure prediction by ZEFSAII (Michael W. Deem and Ramdas Pophale) SiO2 
 PCOD8085046
Probable space group: C 2/M
;
_chemical_formula_sum "Si O2"
_cell_formula_units_Z 56
_cell_length_a 18.971656
_cell_length_b 13.833523
_cell_length_c 12.499417
_cell_angle_alpha 90.000000
_cell_angle_beta 99.923810
_cell_angle_gamma 90.000000
_cell_volume 3231.325356
_symmetry_space_group_name_H-M "C 2/M"
_symmetry_group_IT_number 12
_symmetry_cell_setting 'monoclinic'
loop_
_space_group_symop_operation_xyz
x,y,z
-x,y,-z
-x,-y,-z
x,-y,z
1/2+x,1/2+y,z
1/2-x,1/2+y,-z
1/2-x,1/2-y,-z
1/2+x,1/2-y,z
loop_
_atom_site_type_symbol
_atom_site_label
_atom_site_fract_x
_atom_site_fract_y
_atom_site_fract_z
Si Si1 0.604629 0.612757 0.593255
Si Si2 0.859414 0.730966 0.019689
Si Si3 0.757127 0.391707 0.703323
Si Si4 0.730245 0.394242 0.943367
Si Si5 0.981728 0.605760 0.118922
Si Si6 0.957591 0.114027 0.652733
Si Si7 0.891981 0.723504 0.779695
O O1 0.610973 0.500000 0.616571
O O2 0.682952 0.656834 0.641398
O O3 0.539759 0.648723 0.653249
O O4 0.587078 0.634888 0.466171
O O5 0.792054 0.661304 0.023509
O O6 0.876760 0.745047 0.899675
O O7 0.844063 0.836863 0.063398
O O8 0.920943 0.686751 0.110014
O O9 0.770511 0.500000 0.657579
O O10 0.753204 0.403873 0.828158
O O11 0.822981 0.318190 0.697179
O O12 0.720242 0.500000 0.991838
O O13 0.957308 0.500000 0.155366
O O14 0.048030 0.639959 0.208674
O O15 0.000000 0.594477 0.000000
O O16 0.920857 0.177391 0.735516
O O17 0.953986 0.000000 0.681927
#
# Coordination Sequence:
#
# PCOD8085046 Si02
#       7
#     8   8   8   8   8   8   8
#     4   8  16  32  51  69  91 122 159 195 234 284
#     4   9  18  30  43  67  96 126 161 190 228 285
#     4   9  17  30  49  71  92 118 158 204 235 267
#     4   9  17  29  46  66  94 126 157 195 233 272
#     4   9  17  30  46  63  91 124 154 190 228 270
#     4   9  18  32  49  71  97 124 154 192 239 288
#     4  10  19  29  46  73  96 121 156 199 236 276
#
# _framework density 17.330349999999999
#
# number of rings (size 3 to 8) (size 9 to 14) (size 15 to 20)
#    0.000    3.000    0.000    1.714    2.000    4.571 
#    0.000    0.000    0.000    2.571    0.000    8.000 
#    0.000    0.000    0.000    0.000    0.000    0.000 
#
# Total GULP energy -346933.822938 kJ/mol
# GULP energy per Si atom -12390.493676 kJ/mol
# Density = 1.729091 g / cm^3
# Si number density = 17.330350 Si / 1000 Ang^3
#
#
#
# Elastic Constant Matrix: (Units=GPa)
#
#
# Indices 1 2 3 4 5 6 
#
# 1 121.0377 60.0305 31.6400 0.0000 21.3391 0.0000
# 2 60.0305 112.6047 26.6548 0.0000 -5.8502 0.0000
# 3 31.6400 26.6548 24.6152 0.0000 9.7218 0.0000
# 4 0.0000 0.0000 0.0000 11.5117 0.0000 -6.9229
# 5 21.3391 -5.8502 9.7218 0.0000 28.5996 0.0000
# 6 0.0000 0.0000 0.0000 -6.9229 0.0000 24.8387
#
#
#
# Elastic Compliance Matrix: (Units=1/GPa)
#
#
# Indices 1 2 3 4 5 6 
#
# 1 0.015748 -0.006830 -0.008842 0.000000 -0.010142 0.000000
# 2 -0.006830 0.016678 -0.014601 0.000000 0.013471 0.000000
# 3 -0.008842 -0.014601 0.076669 0.000000 -0.022451 0.000000
# 4 0.000000 0.000000 0.000000 0.104361 0.000000 0.029087
# 5 -0.010142 0.013471 -0.022451 0.000000 0.052920 0.000000
# 6 0.000000 0.000000 0.000000 0.029087 0.000000 0.048367
#
#
# Mechanical properties :
#
#
# Convention : Reuss Voigt Hill
#
# Bulk Modulus (GPa) = 20.59748 54.98981 37.79364
# Shear Modulus (GPa) = 12.77236 22.31881 17.54558
#
# Velocity S-wave (km/s) = 2.71771 3.59255 3.18531
# Velocity P-wave (km/s) = 4.66465 7.00056 5.94839
#
# Compressibility (1/GPa) = 0.04854962
#
# Stress axis : x y z
#
# Youngs Moduli (GPa) = 63.49832 59.96070 13.04317
#
# Poissons Ratio (x) = 0.40951 0.11533
# Poissons Ratio (y) = 0.43367 0.19044
# Poissons Ratio (z) = 0.56144 0.87549
#
# Static dielectric constant tensor:
#      x y z
#    x 3.536610 0.000000 0.271380 
#    y 0.000000 3.335520 0.000000 
#    z 0.271380 0.000000 2.907530 
# 
# 
# High freq. dielectric constant tensor:
#      x y z
#    x 1.675500 0.000000 0.021950 
#    y 0.000000 1.659830 0.000000 
#    z 0.021950 0.000000 1.630320 
# 
# From -- ./inp_files/165012.got.cif
#   From: 2010.06.25/outbox.cif.g09.slc.cpg/sg12_83_cif.got.tgz:165012.got - 2010.06.28 00:19:55.
