data_PCOD8085855
_publ_section_title
;
Structure prediction by ZEFSAII (Michael W. Deem and Ramdas Pophale) SiO2 
 PCOD8085855
Probable space group: C 2/M
;
_chemical_formula_sum "Si O2"
_cell_formula_units_Z 52
_cell_length_a 17.377740
_cell_length_b 14.814531
_cell_length_c 15.009674
_cell_angle_alpha 90.000000
_cell_angle_beta 43.743947
_cell_angle_gamma 90.000000
_cell_volume 2671.805953
_symmetry_space_group_name_H-M "C 2/M"
_symmetry_group_IT_number 12
_symmetry_cell_setting 'monoclinic'
loop_
_space_group_symop_operation_xyz
x,y,z
-x,y,-z
-x,-y,-z
x,-y,z
1/2+x,1/2+y,z
1/2-x,1/2+y,-z
1/2-x,1/2-y,-z
1/2+x,1/2-y,z
loop_
_atom_site_type_symbol
_atom_site_label
_atom_site_fract_x
_atom_site_fract_y
_atom_site_fract_z
Si Si1 0.438072 0.900785 0.696404
Si Si2 0.480087 0.226242 0.914083
Si Si3 0.000000 0.262207 0.500000
Si Si4 0.121844 0.165175 0.549598
Si Si5 0.949262 0.100518 0.825324
Si Si6 0.305893 0.103274 0.980649
Si Si7 0.634206 0.845701 0.646318
O O1 0.430972 0.825971 0.625278
O O2 0.559289 0.905639 0.642632
O O3 0.415081 0.000000 0.674418
O O4 0.344239 0.875229 0.847217
O O5 0.483488 0.326125 0.869440
O O6 0.575361 0.162650 0.791721
O O7 0.500000 0.239886 0.000000
O O8 0.363375 0.174808 0.998084
O O9 0.914202 0.198940 0.518330
O O10 0.241436 0.113712 0.443746
O O11 0.139995 0.246802 0.601119
O O12 0.026650 0.102743 0.672257
O O13 0.824250 0.120168 0.898744
O O14 0.958393 0.000000 0.859745
O O15 0.338481 0.000000 0.977636
#
# Coordination Sequence:
#
# PCOD8085855 Si02
#       7
#     8   8   4   8   8   8   8
#     4   9  17  31  52  78 104 130 164 211 264 310
#     4  10  20  33  56  84 107 135 174 224 272 309
#     4  10  19  30  51  80 104 128 166 218 262 306
#     4   9  18  33  50  69 100 138 173 208 251 303
#     4  10  21  37  55  75 106 147 181 212 259 322
#     4   9  19  36  56  78 106 141 179 214 259 321
#     4   8  17  33  49  70 101 138 172 203 250 313
#
# _framework density 19.462491
#
# number of rings (size 3 to 8) (size 9 to 14) (size 15 to 20)
#    0.000    2.769    0.000    1.615    0.000    3.692 
#    0.000    0.385    0.000    4.615    0.000    0.000 
#    0.000    0.000    0.000    0.000    0.000    0.000 
#
# Total GULP energy -322267.179197 kJ/mol
# GULP energy per Si atom -12394.891508 kJ/mol
# Density = 1.941819 g / cm^3
# Si number density = 19.462491 Si / 1000 Ang^3
#
#
#
# Elastic Constant Matrix: (Units=GPa)
#
#
# Indices 1 2 3 4 5 6 
#
# 1 89.5717 24.7034 68.2652 0.0000 8.5928 0.0000
# 2 24.7034 62.9079 30.2693 0.0000 10.4728 0.0000
# 3 68.2652 30.2693 112.5213 0.0000 -18.0625 0.0000
# 4 0.0000 0.0000 0.0000 18.7431 0.0000 -0.5220
# 5 8.5928 10.4728 -18.0625 0.0000 36.4541 0.0000
# 6 0.0000 0.0000 0.0000 -0.5220 0.0000 13.5915
#
#
#
# Elastic Compliance Matrix: (Units=1/GPa)
#
#
# Indices 1 2 3 4 5 6 
#
# 1 0.027305 0.001483 -0.019627 0.000000 -0.016587 0.000000
# 2 0.001483 0.021019 -0.008234 0.000000 -0.010468 0.000000
# 3 -0.019627 -0.008234 0.026217 0.000000 0.019982 0.000000
# 4 0.000000 0.000000 0.000000 0.053410 0.000000 0.002051
# 5 -0.016587 -0.010468 0.019982 0.000000 0.044250 0.000000
# 6 0.000000 0.000000 0.000000 0.002051 0.000000 0.073654
#
#
# Mechanical properties :
#
#
# Convention : Reuss Voigt Hill
#
# Bulk Modulus (GPa) = 45.90484 56.83073 51.36779
# Shear Modulus (GPa) = 16.34663 23.20861 19.77762
#
# Velocity S-wave (km/s) = 2.90125 3.45698 3.19123
# Velocity P-wave (km/s) = 5.90428 6.72293 6.32686
#
# Compressibility (1/GPa) = 0.02178419
#
# Stress axis : x y z
#
# Youngs Moduli (GPa) = 36.62350 47.57681 38.14251
#
# Poissons Ratio (x) = -0.07055 0.74863
# Poissons Ratio (y) = -0.05431 0.31408
# Poissons Ratio (z) = 0.71881 0.39176
#
# Static dielectric constant tensor:
#      x y z
#    x 3.351810 0.000000 -0.296820 
#    y 0.000000 3.519090 0.000000 
#    z -0.296820 0.000000 3.870890 
# 
# 
# High freq. dielectric constant tensor:
#      x y z
#    x 1.730450 0.000000 -0.012210 
#    y 0.000000 1.752380 0.000000 
#    z -0.012210 0.000000 1.762830 
# 
# From -- ./inp_files/225609.got.cif
#   From: 2010.06.25/outbox.cif.g09.slc.cpg/sg12_113_cif.got.tgz:225609.got - 2010.06.28 00:19:55.
