data_PCOD8085247
_publ_section_title
;
Structure prediction by ZEFSAII (Michael W. Deem and Ramdas Pophale) SiO2 
 PCOD8085247
Probable space group: C 2/M
;
_chemical_formula_sum "Si O2"
_cell_formula_units_Z 44
_cell_length_a 13.040273
_cell_length_b 15.641642
_cell_length_c 21.051985
_cell_angle_alpha 90.000000
_cell_angle_beta 35.146137
_cell_angle_gamma 90.000000
_cell_volume 2471.900888
_symmetry_space_group_name_H-M "C 2/M"
_symmetry_group_IT_number 12
_symmetry_cell_setting 'monoclinic'
loop_
_space_group_symop_operation_xyz
x,y,z
-x,y,-z
-x,-y,-z
x,-y,z
1/2+x,1/2+y,z
1/2-x,1/2+y,-z
1/2-x,1/2-y,-z
1/2+x,1/2-y,z
loop_
_atom_site_type_symbol
_atom_site_label
_atom_site_fract_x
_atom_site_fract_y
_atom_site_fract_z
Si Si1 0.762823 0.596812 0.836314
Si Si2 0.580706 0.331989 0.041338
Si Si3 0.029731 0.398164 0.385002
Si Si4 0.850295 0.100081 0.859145
Si Si5 0.771766 0.899297 0.375691
Si Si6 0.000000 0.680450 0.000000
O O1 0.806336 0.500000 0.833124
O O2 0.575636 0.599325 0.892319
O O3 0.918446 0.635933 0.711725
O O4 0.747578 0.651197 0.908822
O O5 0.649118 0.340440 0.078252
O O6 0.504504 0.238107 0.061909
O O7 0.044324 0.500000 0.374578
O O8 0.832221 0.367344 0.507729
O O9 0.174290 0.362235 0.362422
O O10 0.020413 0.126146 0.729723
O O11 0.855426 0.000000 0.875277
O O12 0.673891 0.120359 0.908378
O O13 0.749101 0.000000 0.385408
#
# Coordination Sequence:
#
# PCOD8085247 Si02
#       6
#     8   8   8   8   8   4
#     4   9  14  23  42  70  96 120 152 193 231 277
#     4  10  19  30  45  66  96 126 154 188 238 277
#     4   8  12  21  37  67  98 116 144 193 238 270
#     4  11  19  33  52  72  92 123 162 197 227 273
#     4   8  14  22  40  67  93 117 148 194 238 264
#     4  10  23  34  45  68 102 130 154 186 237 286
#
# _framework density 17.800066000000001
#
# number of rings (size 3 to 8) (size 9 to 14) (size 15 to 20)
#    0.000    2.909    1.818    4.091    0.000    0.000 
#    0.000    0.000    0.000    4.364    0.000    1.273 
#    0.000    7.273    0.000    0.000    0.000    0.000 
#
# Total GULP energy -272538.361210 kJ/mol
# GULP energy per Si atom -12388.107328 kJ/mol
# Density = 1.775955 g / cm^3
# Si number density = 17.800066 Si / 1000 Ang^3
#
#
#
# Elastic Constant Matrix: (Units=GPa)
#
#
# Indices 1 2 3 4 5 6 
#
# 1 55.2407 16.9987 53.9130 -0.0005 -5.8091 0.0002
# 2 16.9987 28.3020 19.3681 0.0016 -2.8006 0.0001
# 3 53.9130 19.3681 174.8950 0.0098 6.7504 -0.0003
# 4 -0.0005 0.0016 0.0098 5.6623 -0.0013 -0.7505
# 5 -5.8091 -2.8006 6.7504 -0.0013 30.4524 -0.0003
# 6 0.0002 0.0001 -0.0003 -0.7505 -0.0003 11.9525
#
#
#
# Elastic Compliance Matrix: (Units=1/GPa)
#
#
# Indices 1 2 3 4 5 6 
#
# 1 0.030679 -0.012039 -0.008379 0.000023 0.006602 0.000001
# 2 -0.012039 0.043574 -0.001190 -0.000011 0.001975 -0.000001
# 3 -0.008379 -0.001190 0.008572 -0.000016 -0.003608 -0.000001
# 4 0.000023 -0.000011 -0.000016 0.178090 0.000015 0.011183
# 5 0.006602 0.001975 -0.003608 0.000015 0.035079 0.000002
# 6 0.000001 -0.000001 -0.000001 0.011183 0.000002 0.084367
#
#
# Mechanical properties :
#
#
# Convention : Reuss Voigt Hill
#
# Bulk Modulus (GPa) = 25.24740 48.77748 37.01244
# Shear Modulus (GPa) = 11.44743 20.82398 16.13570
#
# Velocity S-wave (km/s) = 2.53872 3.42406 3.01407
# Velocity P-wave (km/s) = 4.77578 6.56466 5.74033
#
# Compressibility (1/GPa) = 0.03960804
#
# Stress axis : x y z
#
# Youngs Moduli (GPa) = 32.59574 22.94938 116.66445
#
# Poissons Ratio (x) = 0.27629 0.97749
# Poissons Ratio (y) = 0.39243 0.13889
# Poissons Ratio (z) = 0.27311 0.02732
#
# Static dielectric constant tensor:
#      x y z
#    x 2.923160 0.000000 0.120830 
#    y 0.000000 2.893410 0.000000 
#    z 0.120830 0.000000 3.818800 
# 
# 
# High freq. dielectric constant tensor:
#      x y z
#    x 1.643850 0.000000 0.008800 
#    y 0.000000 1.647860 0.000000 
#    z 0.008800 0.000000 1.701920 
# 
# From -- ./inp_files/339875.got.cif
#   From: 2010.06.25/outbox.cif.g09.slc.cpg/sg12_170_cif.got.tgz:339875.got - 2010.06.28 00:19:55.
