data_PCOD8085985
_publ_section_title
;
Structure prediction by ZEFSAII (Michael W. Deem and Ramdas Pophale) SiO2 
 PCOD8085985
Probable space group: C 2/M
;
_chemical_formula_sum "Si O2"
_cell_formula_units_Z 56
_cell_length_a 27.933337
_cell_length_b 9.066874
_cell_length_c 14.030607
_cell_angle_alpha 90.000000
_cell_angle_beta 118.989786
_cell_angle_gamma 90.000000
_cell_volume 3108.272072
_symmetry_space_group_name_H-M "C 2/M"
_symmetry_group_IT_number 12
_symmetry_cell_setting 'monoclinic'
loop_
_space_group_symop_operation_xyz
x,y,z
-x,y,-z
-x,-y,-z
x,-y,z
1/2+x,1/2+y,z
1/2-x,1/2+y,-z
1/2-x,1/2-y,-z
1/2+x,1/2-y,z
loop_
_atom_site_type_symbol
_atom_site_label
_atom_site_fract_x
_atom_site_fract_y
_atom_site_fract_z
Si Si1 0.778534 0.332603 0.444671
Si Si2 0.679611 0.327113 0.854587
Si Si3 0.381675 0.172933 0.647980
Si Si4 0.195877 0.327448 0.062834
Si Si5 0.179035 0.826289 0.235361
Si Si6 0.536693 0.325834 0.395956
Si Si7 0.077716 0.826333 0.637025
O O1 0.768266 0.500000 0.460337
O O2 0.750000 0.250000 0.500000
O O3 0.843155 0.297445 0.516285
O O4 0.744717 0.294766 0.315901
O O5 0.671846 0.500000 0.868517
O O6 0.739404 0.293514 0.870687
O O7 0.634806 0.267146 0.735560
O O8 0.669807 0.238641 0.942298
O O9 0.358291 0.253415 0.718902
O O10 0.439710 0.242364 0.674133
O O11 0.387765 0.000000 0.676613
O O12 0.183565 0.500000 0.055088
O O13 0.165645 0.248892 0.121904
O O14 0.166095 0.000000 0.218479
O O15 0.545448 0.500000 0.391405
O O16 0.566967 0.264840 0.520579
O O17 0.472565 0.284530 0.341592
O O18 0.080236 0.000000 0.629425
#
# Coordination Sequence:
#
# PCOD8085985 Si02
#       7
#     8   8   8   8   8   8   8
#     4   8  16  28  41  61  91 126 161 193 229 279
#     4   9  18  34  53  72  98 133 168 202 244 293
#     4  10  19  31  46  70 103 133 162 201 247 293
#     4  10  20  32  49  76 103 128 163 206 250 293
#     4  10  19  32  49  69  96 133 170 202 241 292
#     4   9  17  31  52  76 100 129 168 205 241 289
#     4   8  16  32  53  75  98 129 169 208 241 284
#
# _framework density 18.016439999999999
#
# number of rings (size 3 to 8) (size 9 to 14) (size 15 to 20)
#    0.000    2.857    0.000    2.143    2.000    1.714 
#    0.000    2.857    0.000    0.857    0.000    6.000 
#    0.000    0.000    0.000    0.000    0.000    0.000 
#
# Total GULP energy -346888.836830 kJ/mol
# GULP energy per Si atom -12388.887030 kJ/mol
# Density = 1.797543 g / cm^3
# Si number density = 18.016440 Si / 1000 Ang^3
#
#
#
# Elastic Constant Matrix: (Units=GPa)
#
#
# Indices 1 2 3 4 5 6 
#
# 1 73.0928 26.6304 26.9086 0.0000 -11.4306 0.0000
# 2 26.6304 60.3752 24.1686 0.0000 -13.8116 0.0000
# 3 26.9086 24.1686 66.1200 0.0000 -3.7206 0.0000
# 4 0.0000 0.0000 0.0000 23.8532 0.0000 -5.0662
# 5 -11.4306 -13.8116 -3.7206 0.0000 29.2266 0.0000
# 6 0.0000 0.0000 0.0000 -5.0662 0.0000 24.0424
#
#
#
# Elastic Compliance Matrix: (Units=1/GPa)
#
#
# Indices 1 2 3 4 5 6 
#
# 1 0.018067 -0.004904 -0.005331 0.000000 0.004070 0.000000
# 2 -0.004904 0.022977 -0.005943 0.000000 0.008184 0.000000
# 3 -0.005331 -0.005943 0.019329 0.000000 -0.002433 0.000000
# 4 0.000000 0.000000 0.000000 0.043887 0.000000 0.009248
# 5 0.004070 0.008184 -0.002433 0.000000 0.039365 0.000000
# 6 0.000000 0.000000 0.000000 0.009248 0.000000 0.043542
#
#
# Mechanical properties :
#
#
# Convention : Reuss Voigt Hill
#
# Bulk Modulus (GPa) = 35.69146 39.44480 37.56813
# Shear Modulus (GPa) = 21.84727 23.54979 22.69853
#
# Velocity S-wave (km/s) = 3.48606 3.61934 3.55333
# Velocity P-wave (km/s) = 6.00475 6.27754 6.14266
#
# Compressibility (1/GPa) = 0.02801791
#
# Stress axis : x y z
#
# Youngs Moduli (GPa) = 55.34952 43.52153 51.73608
#
# Poissons Ratio (x) = 0.21342 0.27581
# Poissons Ratio (y) = 0.27143 0.30744
# Poissons Ratio (z) = 0.29508 0.25863
#
# Static dielectric constant tensor:
#      x y z
#    x 3.209690 0.000000 0.175970 
#    y 0.000000 3.152460 0.000000 
#    z 0.175970 0.000000 3.430420 
# 
# 
# High freq. dielectric constant tensor:
#      x y z
#    x 1.684000 0.000000 -0.006300 
#    y 0.000000 1.690950 0.000000 
#    z -0.006300 0.000000 1.679310 
# 
# From -- ./inp_files/243251.got.cif
#   From: 2010.06.25/outbox.cif.g09.slc.cpg/sg12_122_cif.got.tgz:243251.got - 2010.06.28 00:19:55.
