data_PCOD8085526
_publ_section_title
;
Structure prediction by ZEFSAII (Michael W. Deem and Ramdas Pophale) SiO2 
 PCOD8085526
Probable space group: C 2/M
;
_chemical_formula_sum "Si O2"
_cell_formula_units_Z 64
_cell_length_a 20.761455
_cell_length_b 13.198754
_cell_length_c 26.389314
_cell_angle_alpha 90.000000
_cell_angle_beta 30.167450
_cell_angle_gamma 90.000000
_cell_volume 3633.957432
_symmetry_space_group_name_H-M "C 2/M"
_symmetry_group_IT_number 12
_symmetry_cell_setting 'monoclinic'
loop_
_space_group_symop_operation_xyz
x,y,z
-x,y,-z
-x,-y,-z
x,-y,z
1/2+x,1/2+y,z
1/2-x,1/2+y,-z
1/2-x,1/2-y,-z
1/2+x,1/2-y,z
loop_
_atom_site_type_symbol
_atom_site_label
_atom_site_fract_x
_atom_site_fract_y
_atom_site_fract_z
Si Si1 0.291152 0.305543 0.665004
Si Si2 0.545601 0.264247 0.023244
Si Si3 0.579248 0.383906 0.327472
Si Si4 0.025833 0.381809 0.729345
Si Si5 0.812351 0.116724 0.544552
Si Si6 0.517036 0.115296 0.849412
Si Si7 0.313846 0.798662 0.801782
Si Si8 0.798783 0.883788 0.218831
O O1 0.395737 0.350318 0.631879
O O2 0.341239 0.313071 0.573689
O O3 0.167411 0.375740 0.757879
O O4 0.256720 0.187625 0.699098
O O5 0.558486 0.179667 0.057604
O O6 0.445313 0.352264 0.106499
O O7 0.500000 0.217505 0.000000
O O8 0.688297 0.308854 0.922053
O O9 0.617438 0.500000 0.291293
O O10 0.424949 0.367435 0.426408
O O11 0.663318 0.316862 0.232000
O O12 0.000249 0.500000 0.742710
O O13 0.173810 0.354956 0.615407
O O14 0.990148 0.344706 0.810509
O O15 0.938856 0.327660 0.747556
O O16 0.809576 0.000000 0.565030
O O17 0.472327 0.000000 0.885788
O O18 0.292761 0.871274 0.767863
O O19 0.796753 0.000000 0.238443
#
# Coordination Sequence:
#
# PCOD8085526 Si02
#       8
#     8   8   8   8   8   8   8   8
#     4   9  16  28  49  74  96 119 151 191 237 281
#     4   9  19  31  46  72  96 121 154 188 234 283
#     4  10  19  30  47  72  98 124 155 191 235 283
#     4   9  18  32  49  67  87 118 160 198 230 269
#     4   9  17  30  50  73  95 121 154 193 235 281
#     4   9  17  30  48  70  96 122 150 189 234 281
#     4  10  20  31  47  68  93 126 160 195 230 270
#     4   9  18  32  49  70  95 122 156 196 234 275
#
# _framework density 17.611654000000001
#
# number of rings (size 3 to 8) (size 9 to 14) (size 15 to 20)
#    0.000    2.750    0.000    3.375    0.000    5.500 
#    0.000    0.000    0.000   13.500    0.000    0.000 
#    0.000    0.000    0.000    0.000    0.000    0.000 
#
# Total GULP energy -396655.201048 kJ/mol
# GULP energy per Si atom -12395.475033 kJ/mol
# Density = 1.757157 g / cm^3
# Si number density = 17.611654 Si / 1000 Ang^3
#
#
#
# Elastic Constant Matrix: (Units=GPa)
#
#
# Indices 1 2 3 4 5 6 
#
# 1 69.4309 28.9445 20.6047 0.0016 -17.6192 -0.0001
# 2 28.9445 86.6005 22.6763 0.0022 -0.1580 0.0001
# 3 20.6047 22.6763 53.3225 0.0070 -8.9603 0.0003
# 4 0.0016 0.0022 0.0070 18.2374 -0.0002 -1.0161
# 5 -17.6192 -0.1580 -8.9603 -0.0002 21.0097 -0.0002
# 6 -0.0001 0.0001 0.0003 -1.0161 -0.0002 17.0052
#
#
#
# Elastic Compliance Matrix: (Units=1/GPa)
#
#
# Indices 1 2 3 4 5 6 
#
# 1 0.022544 -0.006749 -0.002879 0.000000 0.017627 0.000000
# 2 -0.006749 0.015131 -0.005126 0.000001 -0.007732 0.000000
# 3 -0.002879 -0.005126 0.023304 -0.000008 0.007486 -0.000001
# 4 0.000000 0.000001 -0.000008 0.055015 -0.000003 0.003287
# 5 0.017627 -0.007732 0.007486 -0.000003 0.065514 0.000000
# 6 0.000000 0.000000 -0.000001 0.003287 0.000000 0.059002
#
#
# Mechanical properties :
#
#
# Convention : Reuss Voigt Hill
#
# Bulk Modulus (GPa) = 31.77546 39.31165 35.54355
# Shear Modulus (GPa) = 17.82472 20.39236 19.10854
#
# Velocity S-wave (km/s) = 3.18480 3.40647 3.29750
# Velocity P-wave (km/s) = 5.62187 6.15158 5.89268
#
# Compressibility (1/GPa) = 0.03147083
#
# Stress axis : x y z
#
# Youngs Moduli (GPa) = 44.35798 66.08895 42.91048
#
# Poissons Ratio (x) = 0.44602 0.12355
# Poissons Ratio (y) = 0.29936 0.21997
# Poissons Ratio (z) = 0.12772 0.33879
#
# Static dielectric constant tensor:
#      x y z
#    x 3.202310 0.000000 -0.080220 
#    y 0.000000 3.069460 0.000010 
#    z -0.080220 0.000010 3.275970 
# 
# 
# High freq. dielectric constant tensor:
#      x y z
#    x 1.666140 0.000000 -0.010390 
#    y 0.000000 1.661390 0.000000 
#    z -0.010390 0.000000 1.678890 
# 
# From -- ./inp_files/321268.got.cif
#   From: 2010.06.25/outbox.cif.g09.slc.cpg/sg12_161_cif.got.tgz:321268.got - 2010.06.28 00:19:55.
