data_PCOD8085101
_publ_section_title
;
Structure prediction by ZEFSAII (Michael W. Deem and Ramdas Pophale) SiO2 
 PCOD8085101
Probable space group: C 2/M
;
_chemical_formula_sum "Si O2"
_cell_formula_units_Z 56
_cell_length_a 23.183515
_cell_length_b 11.606080
_cell_length_c 11.568253
_cell_angle_alpha 90.000000
_cell_angle_beta 88.914044
_cell_angle_gamma 90.000000
_cell_volume 3112.107635
_symmetry_space_group_name_H-M "C 2/M"
_symmetry_group_IT_number 12
_symmetry_cell_setting 'monoclinic'
loop_
_space_group_symop_operation_xyz
x,y,z
-x,y,-z
-x,-y,-z
x,-y,z
1/2+x,1/2+y,z
1/2-x,1/2+y,-z
1/2-x,1/2-y,-z
1/2+x,1/2-y,z
loop_
_atom_site_type_symbol
_atom_site_label
_atom_site_fract_x
_atom_site_fract_y
_atom_site_fract_z
Si Si1 0.576695 0.725148 0.737024
Si Si2 0.612330 0.864376 0.270891
Si Si3 0.409817 0.500000 0.966221
Si Si4 0.431688 0.865878 0.484219
Si Si5 0.795926 0.627751 0.904532
Si Si6 0.491381 0.135390 0.874745
Si Si7 0.484503 0.500000 0.191437
Si Si8 0.832769 0.815352 0.074202
O O1 0.590835 0.774162 0.609690
O O2 0.546912 0.833449 0.798946
O O3 0.534020 0.613708 0.735379
O O4 0.634839 0.696274 0.804689
O O5 0.601952 0.819489 0.400874
O O6 0.674812 0.828369 0.217088
O O7 0.565138 0.811998 0.183893
O O8 0.602243 0.000000 0.278473
O O9 0.446695 0.500000 0.844449
O O10 0.452210 0.500000 0.072073
O O11 0.368697 0.388397 0.978560
O O12 0.500000 0.854031 0.500000
O O13 0.416712 0.000000 0.454518
O O14 0.819285 0.500000 0.926389
O O15 0.727550 0.625075 0.891860
O O16 0.818096 0.694330 0.016194
O O17 0.486714 0.000000 0.887780
O O18 0.500000 0.194402 0.000000
#
# Coordination Sequence:
#
# PCOD8085101 Si02
#       8
#     8   8   4   8   8   8   4   8
#     4  11  21  34  53  78 110 144 183 219 259 322
#     4   9  18  32  52  78 107 138 173 214 272 328
#     4   9  18  36  52  74 112 142 184 210 263 324
#     4  10  19  34  56  80 108 142 174 221 280 325
#     4  10  20  36  55  80 108 138 178 225 272 320
#     4  10  19  29  49  83 112 133 161 219 281 324
#     4   9  22  32  51  78 106 152 182 214 252 328
#     4  10  21  34  55  80 107 145 178 220 270 317
#
# _framework density 17.994236999999998
#
# number of rings (size 3 to 8) (size 9 to 14) (size 15 to 20)
#    0.000    2.143    2.143    1.286    6.000    2.286 
#    0.000    1.071    0.000    0.857    0.000    0.000 
#    0.000    0.000    0.000    0.000    0.000    0.000 
#
# Total GULP energy -347004.567147 kJ/mol
# GULP energy per Si atom -12393.020255 kJ/mol
# Density = 1.795328 g / cm^3
# Si number density = 17.994237 Si / 1000 Ang^3
#
#
#
# Elastic Constant Matrix: (Units=GPa)
#
#
# Indices 1 2 3 4 5 6 
#
# 1 94.3872 32.0527 50.5475 0.0000 -8.0526 0.0000
# 2 32.0527 61.4226 43.9731 0.0000 0.4004 0.0000
# 3 50.5475 43.9731 126.2147 0.0000 -11.6690 0.0000
# 4 0.0000 0.0000 0.0000 21.5404 0.0000 -4.0420
# 5 -8.0526 0.4004 -11.6690 0.0000 26.6470 0.0000
# 6 0.0000 0.0000 0.0000 -4.0420 0.0000 14.7609
#
#
#
# Elastic Compliance Matrix: (Units=1/GPa)
#
#
# Indices 1 2 3 4 5 6 
#
# 1 0.014554 -0.004827 -0.003891 0.000000 0.002767 0.000000
# 2 -0.004827 0.023665 -0.006753 0.000000 -0.004771 0.000000
# 3 -0.003891 -0.006753 0.012230 0.000000 0.004281 0.000000
# 4 0.000000 0.000000 0.000000 0.048939 0.000000 0.013401
# 5 0.002767 -0.004771 0.004281 0.000000 0.040310 0.000000
# 6 0.000000 0.000000 0.000000 0.013401 0.000000 0.071416
#
#
# Mechanical properties :
#
#
# Convention : Reuss Voigt Hill
#
# Bulk Modulus (GPa) = 51.26447 59.46346 55.36397
# Shear Modulus (GPa) = 20.11602 22.95308 21.53455
#
# Velocity S-wave (km/s) = 3.34715 3.57540 3.46316
# Velocity P-wave (km/s) = 6.59463 7.08253 6.84293
#
# Compressibility (1/GPa) = 0.01950669
#
# Stress axis : x y z
#
# Youngs Moduli (GPa) = 68.71108 42.25618 81.76724
#
# Poissons Ratio (x) = 0.20397 0.31816
# Poissons Ratio (y) = 0.33167 0.55216
# Poissons Ratio (z) = 0.26736 0.28535
#
# Static dielectric constant tensor:
#      x y z
#    x 3.407190 0.000000 -0.132870 
#    y 0.000000 3.294100 0.000000 
#    z -0.132870 0.000000 3.421070 
# 
# 
# High freq. dielectric constant tensor:
#      x y z
#    x 1.687630 0.000000 -0.015430 
#    y 0.000000 1.689390 0.000000 
#    z -0.015430 0.000000 1.679120 
# 
# From -- ./inp_files/173946.got.cif
#   From: 2010.06.25/outbox.cif.g09.slc.cpg/sg12_87_cif.got.tgz:173946.got - 2010.06.28 00:19:55.
