data_PCOD8085713
_publ_section_title
;
Structure prediction by ZEFSAII (Michael W. Deem and Ramdas Pophale) SiO2 
 PCOD8085713
Probable space group: C 2/M
;
_chemical_formula_sum "Si O2"
_cell_formula_units_Z 56
_cell_length_a 29.865239
_cell_length_b 9.113053
_cell_length_c 18.925398
_cell_angle_alpha 90.000000
_cell_angle_beta 36.853933
_cell_angle_gamma 90.000000
_cell_volume 3089.333324
_symmetry_space_group_name_H-M "C 2/M"
_symmetry_group_IT_number 12
_symmetry_cell_setting 'monoclinic'
loop_
_space_group_symop_operation_xyz
x,y,z
-x,y,-z
-x,-y,-z
x,-y,z
1/2+x,1/2+y,z
1/2-x,1/2+y,-z
1/2-x,1/2-y,-z
1/2+x,1/2-y,z
loop_
_atom_site_type_symbol
_atom_site_label
_atom_site_fract_x
_atom_site_fract_y
_atom_site_fract_z
Si Si1 0.732160 0.338123 0.238042
Si Si2 0.406098 0.666552 0.347857
Si Si3 0.096477 0.664883 0.935044
Si Si4 0.928422 0.831513 0.897445
Si Si5 0.307193 0.170051 0.582222
Si Si6 0.285570 0.174362 0.022260
Si Si7 0.139967 0.171843 0.748134
O O1 0.697132 0.500000 0.290527
O O2 0.817393 0.339839 0.153854
O O3 0.685586 0.229273 0.346628
O O4 0.731189 0.288756 0.157250
O O5 0.377983 0.500000 0.391665
O O6 0.495182 0.676505 0.242922
O O7 0.371165 0.760943 0.453936
O O8 0.379560 0.727453 0.305415
O O9 0.063100 0.500000 0.975346
O O10 0.087655 0.739518 0.869238
O O11 0.055110 0.762674 0.046177
O O12 0.901929 0.000000 0.940486
O O13 0.867499 0.740490 0.930994
O O14 0.226725 0.208009 0.651364
O O15 0.322683 0.000000 0.566044
O O16 0.293324 0.000000 0.002054
O O17 0.250000 0.250000 0.000000
O O18 0.122733 0.000000 0.779589
#
# Coordination Sequence:
#
# PCOD8085713 Si02
#       7
#     8   8   8   8   8   8   8
#     4   8  16  31  50  72  99 129 160 194 240 294
#     4  10  21  34  48  67  98 139 175 209 252 298
#     4   9  17  30  48  70  97 130 166 210 257 297
#     4  10  20  34  51  72 100 135 169 202 247 303
#     4  10  19  30  49  73  97 130 173 216 251 284
#     4  10  20  35  58  85 107 128 155 196 246 298
#     4   9  18  32  48  69  96 131 176 218 254 295
#
# _framework density 18.126888999999998
#
# number of rings (size 3 to 8) (size 9 to 14) (size 15 to 20)
#    0.000    2.571    0.000    3.000    0.000    6.857 
#    0.000    2.857    0.000    0.857    0.000    6.000 
#    0.000    0.000    0.000    0.000    0.000    0.000 
#
# Total GULP energy -347189.640255 kJ/mol
# GULP energy per Si atom -12399.630009 kJ/mol
# Density = 1.808563 g / cm^3
# Si number density = 18.126889 Si / 1000 Ang^3
#
#
#
# Elastic Constant Matrix: (Units=GPa)
#
#
# Indices 1 2 3 4 5 6 
#
# 1 88.5946 47.1360 45.0576 -0.0020 25.2447 0.0007
# 2 47.1360 114.3895 60.9100 -0.0384 14.4588 0.0264
# 3 45.0576 60.9100 89.0906 -0.0418 21.3319 0.0291
# 4 -0.0020 -0.0384 -0.0418 34.1215 0.0010 6.6508
# 5 25.2447 14.4588 21.3319 0.0010 23.9613 -0.0005
# 6 0.0007 0.0264 0.0291 6.6508 -0.0005 23.5196
#
#
#
# Elastic Compliance Matrix: (Units=1/GPa)
#
#
# Indices 1 2 3 4 5 6 
#
# 1 0.019603 -0.004427 -0.003282 -0.000010 -0.015060 0.000011
# 2 -0.004427 0.014746 -0.008679 0.000007 0.003492 -0.000008
# 3 -0.003282 -0.008679 0.021270 0.000021 -0.010242 -0.000023
# 4 -0.000010 0.000007 0.000021 0.031017 -0.000014 -0.008771
# 5 -0.015060 0.003492 -0.010242 -0.000014 0.064611 0.000015
# 6 0.000011 -0.000008 -0.000023 -0.008771 0.000015 0.044998
#
#
# Mechanical properties :
#
#
# Convention : Reuss Voigt Hill
#
# Bulk Modulus (GPa) = 43.77463 66.47578 55.12521
# Shear Modulus (GPa) = 21.12961 25.58523 23.35742
#
# Velocity S-wave (km/s) = 3.41787 3.76101 3.59353
# Velocity P-wave (km/s) = 6.30691 7.45737 6.90614
#
# Compressibility (1/GPa) = 0.02284428
#
# Stress axis : x y z
#
# Youngs Moduli (GPa) = 51.01297 67.81414 47.01374
#
# Poissons Ratio (x) = 0.30019 0.15429
# Poissons Ratio (y) = 0.22582 0.40804
# Poissons Ratio (z) = 0.16741 0.58857
#
# Static dielectric constant tensor:
#      x y z
#    x 3.158720 0.000000 0.255300 
#    y 0.000000 3.501810 0.000030 
#    z 0.255300 0.000030 3.330800 
# 
# 
# High freq. dielectric constant tensor:
#      x y z
#    x 1.674000 0.000000 0.016120 
#    y 0.000000 1.712220 0.000000 
#    z 0.016120 0.000000 1.696080 
# 
# From -- ./inp_files/280931.got.cif
#   From: 2010.06.25/outbox.cif.g09.slc.cpg/sg12_141_cif.got.tgz:280931.got - 2010.06.28 00:19:55.
