data_PCOD8085949
_publ_section_title
;
Structure prediction by ZEFSAII (Michael W. Deem and Ramdas Pophale) SiO2 
 PCOD8085949
Probable space group: C 2/M
;
_chemical_formula_sum "Si O2"
_cell_formula_units_Z 48
_cell_length_a 23.517969
_cell_length_b 9.138164
_cell_length_c 17.210461
_cell_angle_alpha 90.000000
_cell_angle_beta 122.424776
_cell_angle_gamma 90.000000
_cell_volume 3122.073915
_symmetry_space_group_name_H-M "C 2/M"
_symmetry_group_IT_number 12
_symmetry_cell_setting 'monoclinic'
loop_
_space_group_symop_operation_xyz
x,y,z
-x,y,-z
-x,-y,-z
x,-y,z
1/2+x,1/2+y,z
1/2-x,1/2+y,-z
1/2-x,1/2-y,-z
1/2+x,1/2-y,z
loop_
_atom_site_type_symbol
_atom_site_label
_atom_site_fract_x
_atom_site_fract_y
_atom_site_fract_z
Si Si1 0.784368 0.330501 0.131872
Si Si2 0.757201 0.171903 0.731574
Si Si3 0.851453 0.171729 0.051069
Si Si4 0.492118 0.327899 0.083925
Si Si5 0.119891 0.333967 0.220957
Si Si6 0.262749 0.165746 0.588132
O O1 0.795213 0.500000 0.121902
O O2 0.789334 0.297948 0.227534
O O3 0.842814 0.243019 0.130010
O O4 0.710660 0.279868 0.048654
O O5 0.831753 0.240944 0.802019
O O6 0.724493 0.250716 0.631622
O O7 0.765648 0.000000 0.722292
O O8 0.919927 0.227223 0.061364
O O9 0.854148 0.000000 0.064823
O O10 0.502130 0.500000 0.103420
O O11 0.547858 0.243135 0.175211
O O12 0.500000 0.283600 0.000000
O O13 0.111959 0.500000 0.184381
O O14 0.157012 0.333734 0.332857
O O15 0.250000 0.250000 0.500000
O O16 0.235249 0.000000 0.561329
#
# Coordination Sequence:
#
# PCOD8085949 Si02
#       6
#     8   8   8   8   8   8
#     4   9  17  30  45  63  87 120 157 193 231 269
#     4   9  16  28  47  66  90 120 149 186 230 275
#     4   9  18  29  43  63  88 120 159 195 226 266
#     4  10  19  31  46  64  90 126 161 190 227 277
#     4   9  19  30  43  67  94 119 151 188 228 274
#     4   9  18  30  46  71  97 120 150 187 234 282
#
# _framework density 15.374397
#
# number of rings (size 3 to 8) (size 9 to 14) (size 15 to 20)
#    1.000    1.833    0.000    2.000    0.000    5.000 
#    0.000    3.333    0.000    0.000    0.000    1.167 
#    0.000    9.333    0.000    0.000    0.000    0.000 
#
# Total GULP energy -297389.599376 kJ/mol
# GULP energy per Si atom -12391.233307 kJ/mol
# Density = 1.533940 g / cm^3
# Si number density = 15.374397 Si / 1000 Ang^3
#
#
#
# Elastic Constant Matrix: (Units=GPa)
#
#
# Indices 1 2 3 4 5 6 
#
# 1 113.2091 46.1919 40.7511 0.0000 -14.3478 0.0000
# 2 46.1919 80.5034 36.9767 0.0000 -11.5487 0.0000
# 3 40.7511 36.9767 64.3985 0.0000 -16.2658 0.0000
# 4 0.0000 0.0000 0.0000 25.7107 0.0000 -1.7292
# 5 -14.3478 -11.5487 -16.2658 0.0000 23.7985 0.0000
# 6 0.0000 0.0000 0.0000 -1.7292 0.0000 26.1663
#
#
#
# Elastic Compliance Matrix: (Units=1/GPa)
#
#
# Indices 1 2 3 4 5 6 
#
# 1 0.012799 -0.004844 -0.004789 0.000000 0.002092 0.000000
# 2 -0.004844 0.018775 -0.007435 0.000000 0.001109 0.000000
# 3 -0.004789 -0.007435 0.025608 0.000000 0.011007 0.000000
# 4 0.000000 0.000000 0.000000 0.039068 0.000000 0.002582
# 5 0.002092 0.001109 0.011007 0.000000 0.051342 0.000000
# 6 0.000000 0.000000 0.000000 0.002582 0.000000 0.038388
#
#
# Mechanical properties :
#
#
# Convention : Reuss Voigt Hill
#
# Bulk Modulus (GPa) = 43.39188 56.21672 49.80430
# Shear Modulus (GPa) = 21.94912 24.08117 23.01515
#
# Velocity S-wave (km/s) = 3.78251 3.96197 3.87328
# Velocity P-wave (km/s) = 6.88195 7.58776 7.24346
#
# Compressibility (1/GPa) = 0.02304579
#
# Stress axis : x y z
#
# Youngs Moduli (GPa) = 78.13286 53.26112 39.04957
#
# Poissons Ratio (x) = 0.25799 0.18702
# Poissons Ratio (y) = 0.37846 0.29035
# Poissons Ratio (z) = 0.37420 0.39601
#
# Static dielectric constant tensor:
#      x y z
#    x 2.856850 0.000000 -0.080560 
#    y 0.000000 2.979620 0.000000 
#    z -0.080560 0.000000 2.713300 
# 
# 
# High freq. dielectric constant tensor:
#      x y z
#    x 1.568260 0.000000 -0.013910 
#    y 0.000000 1.601230 0.000000 
#    z -0.013910 0.000000 1.560240 
# 
# From -- ./inp_files/287955.got.cif
#   From: 2010.06.25/outbox.cif.g09.slc.cpg/sg12_144_cif.got.tgz:287955.got - 2010.06.28 00:19:55.
