data_PCOD8085866
_publ_section_title
;
Structure prediction by ZEFSAII (Michael W. Deem and Ramdas Pophale) SiO2 
 PCOD8085866
Probable space group: C 2/M
;
_chemical_formula_sum "Si O2"
_cell_formula_units_Z 56
_cell_length_a 29.723130
_cell_length_b 9.125954
_cell_length_c 12.374708
_cell_angle_alpha 90.000000
_cell_angle_beta 105.599875
_cell_angle_gamma 90.000000
_cell_volume 3233.014379
_symmetry_space_group_name_H-M "C 2/M"
_symmetry_group_IT_number 12
_symmetry_cell_setting 'monoclinic'
loop_
_space_group_symop_operation_xyz
x,y,z
-x,y,-z
-x,-y,-z
x,-y,z
1/2+x,1/2+y,z
1/2-x,1/2+y,-z
1/2-x,1/2-y,-z
1/2+x,1/2-y,z
loop_
_atom_site_type_symbol
_atom_site_label
_atom_site_fract_x
_atom_site_fract_y
_atom_site_fract_z
Si Si1 0.801913 0.832030 0.430791
Si Si2 0.050412 0.829307 0.361703
Si Si3 0.453017 0.669190 0.030959
Si Si4 0.544117 0.173500 0.743910
Si Si5 0.302880 0.170279 0.651618
Si Si6 0.614281 0.669215 0.205615
Si Si7 0.604475 0.332420 0.616479
O O1 0.750735 0.795954 0.349822
O O2 0.813704 0.731277 0.539996
O O3 0.840140 0.804370 0.362549
O O4 0.804394 0.000000 0.473159
O O5 0.079894 0.773987 0.277769
O O6 0.079125 0.796656 0.487770
O O7 0.002805 0.739210 0.337182
O O8 0.037738 0.000000 0.341071
O O9 0.456418 0.500000 0.069840
O O10 0.408994 0.696647 0.925187
O O11 0.500000 0.715411 0.000000
O O12 0.446625 0.771082 0.129678
O O13 0.587348 0.224093 0.698261
O O14 0.540836 0.000000 0.742031
O O15 0.336822 0.244782 0.760848
O O16 0.313830 0.000000 0.657689
O O17 0.625275 0.500000 0.232838
O O18 0.594582 0.500000 0.644632
#
# Coordination Sequence:
#
# PCOD8085866 Si02
#       7
#     8   8   8   8   8   8   8
#     4   9  18  34  53  76 106 143 181 213 252 312
#     4  10  19  35  56  77 103 143 184 214 249 309
#     4  10  20  38  60  76  97 138 187 222 250 306
#     4  12  25  36  50  77 113 141 171 221 273 315
#     4  10  19  30  51  82 113 138 166 215 273 316
#     4  10  19  34  57  80 105 137 178 219 256 309
#     4  10  20  36  57  75 102 145 187 216 246 308
#
# _framework density 17.321296
#
# number of rings (size 3 to 8) (size 9 to 14) (size 15 to 20)
#    0.000    1.857    2.857    2.143    0.000    4.857 
#    0.000    0.000    0.000    0.857    0.000    0.000 
#    0.000    0.000    0.000    0.000    0.000    0.000 
#
# Total GULP energy -347291.391424 kJ/mol
# GULP energy per Si atom -12403.263979 kJ/mol
# Density = 1.728187 g / cm^3
# Si number density = 17.321296 Si / 1000 Ang^3
#
#
#
# Elastic Constant Matrix: (Units=GPa)
#
#
# Indices 1 2 3 4 5 6 
#
# 1 116.5612 53.5433 47.4540 0.0000 5.7150 0.0000
# 2 53.5433 83.3306 41.7946 0.0000 1.3521 0.0000
# 3 47.4540 41.7946 69.7089 0.0000 -1.3291 0.0000
# 4 0.0000 0.0000 0.0000 24.8418 0.0000 4.5318
# 5 5.7150 1.3521 -1.3291 0.0000 27.3234 0.0000
# 6 0.0000 0.0000 0.0000 4.5318 0.0000 26.0798
#
#
#
# Elastic Compliance Matrix: (Units=1/GPa)
#
#
# Indices 1 2 3 4 5 6 
#
# 1 0.013839 -0.005852 -0.005967 0.000000 -0.002895 0.000000
# 2 -0.005852 0.019686 -0.007821 0.000000 -0.000131 0.000000
# 3 -0.005967 -0.007821 0.023149 0.000000 0.002761 0.000000
# 4 0.000000 0.000000 0.000000 0.041573 0.000000 -0.007224
# 5 -0.002895 -0.000131 0.002761 0.000000 0.037345 0.000000
# 6 0.000000 0.000000 0.000000 -0.007224 0.000000 0.039599
#
#
# Mechanical properties :
#
#
# Convention : Reuss Voigt Hill
#
# Bulk Modulus (GPa) = 57.49593 61.68716 59.59155
# Shear Modulus (GPa) = 22.69953 24.10292 23.40122
#
# Velocity S-wave (km/s) = 3.62401 3.73435 3.67959
# Velocity P-wave (km/s) = 7.12580 7.36781 7.24782
#
# Compressibility (1/GPa) = 0.01739254
#
# Stress axis : x y z
#
# Youngs Moduli (GPa) = 72.26136 50.79876 43.19756
#
# Poissons Ratio (x) = 0.29728 0.25776
# Poissons Ratio (y) = 0.42288 0.33786
# Poissons Ratio (z) = 0.43119 0.39731
#
# Static dielectric constant tensor:
#      x y z
#    x 3.365510 0.000000 0.098390 
#    y 0.000000 3.178440 0.000000 
#    z 0.098390 0.000000 3.089260 
# 
# 
# High freq. dielectric constant tensor:
#      x y z
#    x 1.670620 0.000000 0.010630 
#    y 0.000000 1.663940 0.000000 
#    z 0.010630 0.000000 1.651830 
# 
# From -- ./inp_files/186864.got.cif
#   From: 2010.06.25/outbox.cif.g09.slc.cpg/sg12_94_cif.got.tgz:186864.got - 2010.06.28 00:19:55.
