data_PCOD8085420
_publ_section_title
;
Structure prediction by ZEFSAII (Michael W. Deem and Ramdas Pophale) SiO2 
 PCOD8085420
Probable space group: C 2/M
;
_chemical_formula_sum "Si O2"
_cell_formula_units_Z 48
_cell_length_a 25.327994
_cell_length_b 24.244623
_cell_length_c 12.833108
_cell_angle_alpha 90.000000
_cell_angle_beta 160.320387
_cell_angle_gamma 90.000000
_cell_volume 2653.804298
_symmetry_space_group_name_H-M "C 2/M"
_symmetry_group_IT_number 12
_symmetry_cell_setting 'monoclinic'
loop_
_space_group_symop_operation_xyz
x,y,z
-x,y,-z
-x,-y,-z
x,-y,z
1/2+x,1/2+y,z
1/2-x,1/2+y,-z
1/2-x,1/2-y,-z
1/2+x,1/2-y,z
loop_
_atom_site_type_symbol
_atom_site_label
_atom_site_fract_x
_atom_site_fract_y
_atom_site_fract_z
Si Si1 0.843597 0.857573 0.772457
Si Si2 0.855108 0.646817 0.950419
Si Si3 0.081893 0.276771 0.250926
Si Si4 0.399439 0.770762 0.219508
Si Si5 0.442365 0.064443 0.775615
Si Si6 0.970925 0.185090 0.696379
O O1 0.748210 0.807224 0.539341
O O2 0.730375 0.910266 0.564547
O O3 0.000000 0.872294 0.000000
O O4 0.888137 0.842061 0.975012
O O5 0.667507 0.641326 0.584409
O O6 0.878562 0.677683 0.103629
O O7 0.949376 0.679795 0.037328
O O8 0.933802 0.586474 0.082722
O O9 0.118571 0.232307 0.406042
O O10 0.000000 0.246819 0.000000
O O11 0.500000 0.795057 0.500000
O O12 0.466330 0.715183 0.289987
O O13 0.250000 0.750000 0.000000
O O14 0.427147 0.000000 0.728577
O O15 0.500000 0.078097 0.000000
#
# Coordination Sequence:
#
# PCOD8085420 Si02
#       6
#     8   8   8   8   8   8
#     4  11  21  32  51  79 109 144 184 224 271 325
#     4  10  20  35  54  77 107 144 182 220 269 326
#     4  10  19  30  46  72 112 148 175 207 256 330
#     4  11  22  36  55  85 116 149 183 218 264 326
#     4  10  22  40  59  78 105 143 189 238 284 328
#     4  11  21  32  50  78 113 145 180 217 266 328
#
# _framework density 18.087240999999999
#
# number of rings (size 3 to 8) (size 9 to 14) (size 15 to 20)
#    0.000    1.500    1.667    6.500    4.667    2.333 
#    0.000    1.667    0.000    0.500    0.000    1.167 
#    0.000    0.000    0.000    0.000    0.000    0.000 
#
# Total GULP energy -297393.287137 kJ/mol
# GULP energy per Si atom -12391.386964 kJ/mol
# Density = 1.804607 g / cm^3
# Si number density = 18.087241 Si / 1000 Ang^3
#
#
#
# Elastic Constant Matrix: (Units=GPa)
#
#
# Indices 1 2 3 4 5 6 
#
# 1 100.1122 33.7391 53.3945 0.0000 9.4920 0.0000
# 2 33.7391 91.9609 51.8759 0.0000 10.6525 0.0000
# 3 53.3945 51.8759 141.5522 0.0000 1.8557 0.0000
# 4 0.0000 0.0000 0.0000 14.8013 0.0000 -2.6629
# 5 9.4920 10.6525 1.8557 0.0000 29.6749 0.0000
# 6 0.0000 0.0000 0.0000 -2.6629 0.0000 22.5348
#
#
#
# Elastic Compliance Matrix: (Units=1/GPa)
#
#
# Indices 1 2 3 4 5 6 
#
# 1 0.013235 -0.002133 -0.004169 0.000000 -0.003207 0.000000
# 2 -0.002133 0.014712 -0.004531 0.000000 -0.004316 0.000000
# 3 -0.004169 -0.004531 0.010267 0.000000 0.002318 0.000000
# 4 0.000000 0.000000 0.000000 0.069029 0.000000 0.008157
# 5 -0.003207 -0.004316 0.002318 0.000000 0.036129 0.000000
# 6 0.000000 0.000000 0.000000 0.008157 0.000000 0.045340
#
#
# Mechanical properties :
#
#
# Convention : Reuss Voigt Hill
#
# Bulk Modulus (GPa) = 60.42214 67.96048 64.19131
# Shear Modulus (GPa) = 23.15965 26.37660 24.76812
#
# Velocity S-wave (km/s) = 3.58221 3.82291 3.70451
# Velocity P-wave (km/s) = 7.11253 7.55920 7.33926
#
# Compressibility (1/GPa) = 0.01655023
#
# Stress axis : x y z
#
# Youngs Moduli (GPa) = 75.55744 67.96993 97.39896
#
# Poissons Ratio (x) = 0.14495 0.40603
# Poissons Ratio (y) = 0.16113 0.44129
# Poissons Ratio (z) = 0.31498 0.30796
#
# Static dielectric constant tensor:
#      x y z
#    x 3.391350 0.000000 0.022510 
#    y 0.000000 3.514130 0.000000 
#    z 0.022510 0.000000 3.588270 
# 
# 
# High freq. dielectric constant tensor:
#      x y z
#    x 1.691140 0.000000 0.007240 
#    y 0.000000 1.658880 0.000000 
#    z 0.007240 0.000000 1.726920 
# 
# From -- ./inp_files/123022.got.cif
#   From: 2010.06.25/outbox.cif.g09.slc.cpg/sg12_62_cif.got.tgz:123022.got - 2010.06.28 00:19:55.
