data_PCOD8085044
_publ_section_title
;
Structure prediction by ZEFSAII (Michael W. Deem and Ramdas Pophale) SiO2 
 PCOD8085044
Probable space group: C 2/M
;
_chemical_formula_sum "Si O2"
_cell_formula_units_Z 48
_cell_length_a 21.742159
_cell_length_b 14.133070
_cell_length_c 9.578723
_cell_angle_alpha 90.000000
_cell_angle_beta 97.876273
_cell_angle_gamma 90.000000
_cell_volume 2915.616094
_symmetry_space_group_name_H-M "C 2/M"
_symmetry_group_IT_number 12
_symmetry_cell_setting 'monoclinic'
loop_
_space_group_symop_operation_xyz
x,y,z
-x,y,-z
-x,-y,-z
x,-y,z
1/2+x,1/2+y,z
1/2-x,1/2+y,-z
1/2-x,1/2-y,-z
1/2+x,1/2-y,z
loop_
_atom_site_type_symbol
_atom_site_label
_atom_site_fract_x
_atom_site_fract_y
_atom_site_fract_z
Si Si1 0.603863 0.109619 0.752195
Si Si2 0.153336 0.301540 0.235976
Si Si3 0.523576 0.890903 0.161779
Si Si4 0.185164 0.392548 0.524487
Si Si5 0.292600 0.397532 0.775417
Si Si6 0.208104 0.340732 0.976449
O O1 0.531371 0.133752 0.746615
O O2 0.624103 0.128725 0.599302
O O3 0.644379 0.174470 0.869690
O O4 0.616196 0.000000 0.798195
O O5 0.080795 0.324766 0.219966
O O6 0.185704 0.322997 0.393095
O O7 0.159112 0.189341 0.201464
O O8 0.187487 0.366346 0.128273
O O9 0.544330 0.000000 0.180967
O O10 0.500000 0.867876 0.000000
O O11 0.182602 0.500000 0.468980
O O12 0.246545 0.374193 0.633592
O O13 0.325982 0.500000 0.761809
O O14 0.251711 0.413046 0.904306
O O15 0.250000 0.250000 0.000000
#
# Coordination Sequence:
#
# PCOD8085044 Si02
#       6
#     8   8   8   8   8   8
#     4   9  17  31  45  64  99 129 144 175 239 295
#     4  11  19  29  48  74  95 121 164 196 222 277
#     4  10  19  29  46  72  99 124 150 188 235 283
#     4   9  18  30  47  71  99 122 147 191 238 284
#     4   9  19  34  48  65  95 130 157 191 240 278
#     4   9  17  28  46  69  89 119 154 192 228 273
#
# _framework density 16.463073000000001
#
# number of rings (size 3 to 8) (size 9 to 14) (size 15 to 20)
#    0.000    2.500    1.667    2.500    0.000    2.667 
#    0.000    2.500    0.000    0.500    0.000    2.333 
#    0.000    0.000    0.000    0.000    0.000    0.000 
#
# Total GULP energy -297360.916930 kJ/mol
# GULP energy per Si atom -12390.038205 kJ/mol
# Density = 1.642560 g / cm^3
# Si number density = 16.463073 Si / 1000 Ang^3
#
#
#
# Elastic Constant Matrix: (Units=GPa)
#
#
# Indices 1 2 3 4 5 6 
#
# 1 83.6339 41.6436 28.9709 0.0000 -2.2536 0.0000
# 2 41.6436 74.6976 31.3895 0.0000 2.5245 0.0000
# 3 28.9709 31.3895 89.2280 0.0000 -8.2593 0.0000
# 4 0.0000 0.0000 0.0000 18.5258 0.0000 2.4624
# 5 -2.2536 2.5245 -8.2593 0.0000 20.4564 0.0000
# 6 0.0000 0.0000 0.0000 2.4624 0.0000 24.0508
#
#
#
# Elastic Compliance Matrix: (Units=1/GPa)
#
#
# Indices 1 2 3 4 5 6 
#
# 1 0.017117 -0.008629 -0.002336 0.000000 0.002007 0.000000
# 2 -0.008629 0.020438 -0.004893 0.000000 -0.005448 0.000000
# 3 -0.002336 -0.004893 0.014252 0.000000 0.006101 0.000000
# 4 0.000000 0.000000 0.000000 0.054724 0.000000 -0.005603
# 5 0.002007 -0.005448 0.006101 0.000000 0.052241 0.000000
# 6 0.000000 0.000000 0.000000 -0.005603 0.000000 0.042152
#
#
# Mechanical properties :
#
#
# Convention : Reuss Voigt Hill
#
# Bulk Modulus (GPa) = 49.77277 50.17418 49.97348
# Shear Modulus (GPa) = 20.89125 22.31030 21.60078
#
# Velocity S-wave (km/s) = 3.56613 3.68526 3.62619
# Velocity P-wave (km/s) = 6.87423 6.97504 6.92482
#
# Compressibility (1/GPa) = 0.02009131
#
# Stress axis : x y z
#
# Youngs Moduli (GPa) = 58.42275 48.92905 70.16741
#
# Poissons Ratio (x) = 0.42219 0.16393
# Poissons Ratio (y) = 0.50410 0.34330
# Poissons Ratio (z) = 0.13649 0.23939
#
# Static dielectric constant tensor:
#      x y z
#    x 3.100700 0.000000 -0.248830 
#    y 0.000000 2.948490 0.000000 
#    z -0.248830 0.000000 3.339890 
# 
# 
# High freq. dielectric constant tensor:
#      x y z
#    x 1.620450 0.000000 -0.011490 
#    y 0.000000 1.605100 0.000000 
#    z -0.011490 0.000000 1.641350 
# 
# From -- ./inp_files/85152.got.cif
#   From: 2010.06.25/outbox.cif.g09.slc.cpg/sg12_43_cif.got.tgz:85152.got - 2010.06.28 00:19:55.
