data_PCOD8085894
_publ_section_title
;
Structure prediction by ZEFSAII (Michael W. Deem and Ramdas Pophale) SiO2 
 PCOD8085894
Probable space group: C 2/M
;
_chemical_formula_sum "Si O2"
_cell_formula_units_Z 48
_cell_length_a 28.320427
_cell_length_b 20.236074
_cell_length_c 11.438630
_cell_angle_alpha 90.000000
_cell_angle_beta 157.573264
_cell_angle_gamma 90.000000
_cell_volume 2500.901636
_symmetry_space_group_name_H-M "C 2/M"
_symmetry_group_IT_number 12
_symmetry_cell_setting 'monoclinic'
loop_
_space_group_symop_operation_xyz
x,y,z
-x,y,-z
-x,-y,-z
x,-y,z
1/2+x,1/2+y,z
1/2-x,1/2+y,-z
1/2-x,1/2-y,-z
1/2+x,1/2-y,z
loop_
_atom_site_type_symbol
_atom_site_label
_atom_site_fract_x
_atom_site_fract_y
_atom_site_fract_z
Si Si1 0.290457 0.361981 0.294880
Si Si2 0.037054 0.312213 0.784841
Si Si3 0.906202 0.261301 0.687504
Si Si4 0.221999 0.324075 0.896761
Si Si5 0.333456 0.322952 0.903438
Si Si6 0.510493 0.425244 0.891153
O O1 0.368626 0.297135 0.512580
O O2 0.370199 0.424288 0.520040
O O3 0.153539 0.361126 0.037765
O O4 0.279193 0.369308 0.129334
O O5 0.984650 0.316609 0.796820
O O6 0.927153 0.332132 0.444803
O O7 0.075327 0.235992 0.852030
O O8 0.778174 0.295659 0.436512
O O9 0.000000 0.233614 0.000000
O O10 0.278432 0.347153 0.901890
O O11 0.250000 0.250000 0.000000
O O12 0.399405 0.380733 0.982351
O O13 0.561180 0.500000 0.003563
O O14 0.500000 0.398918 0.000000
#
# Coordination Sequence:
#
# PCOD8085894 Si02
#       6
#     8   8   8   8   8   8
#     4  11  21  32  55  84 118 151 190 231 287 347
#     4  10  19  30  53  86 121 150 175 231 297 358
#     4  10  20  31  51  88 119 146 182 237 303 351
#     4  11  18  33  53  89 124 152 180 221 298 363
#     4  10  21  35  57  83 118 154 190 235 288 348
#     4  11  25  44  60  78 111 159 208 243 279 331
#
# _framework density 19.193079000000001
#
# number of rings (size 3 to 8) (size 9 to 14) (size 15 to 20)
#    0.000    1.500    6.667    1.000    2.333    3.333 
#    0.000    1.667    0.000    6.500    0.000    0.000 
#    0.000    0.000    0.000    0.000    0.000    0.000 
#
# Total GULP energy -297324.338808 kJ/mol
# GULP energy per Si atom -12388.514117 kJ/mol
# Density = 1.914939 g / cm^3
# Si number density = 19.193079 Si / 1000 Ang^3
#
#
#
# Elastic Constant Matrix: (Units=GPa)
#
#
# Indices 1 2 3 4 5 6 
#
# 1 111.7896 31.5591 57.6744 0.0000 2.0132 0.0000
# 2 31.5591 47.4591 21.6364 0.0000 4.3590 0.0000
# 3 57.6744 21.6364 149.8730 0.0000 -8.9433 0.0000
# 4 0.0000 0.0000 0.0000 18.3994 0.0000 3.3354
# 5 2.0132 4.3590 -8.9433 0.0000 37.7536 0.0000
# 6 0.0000 0.0000 0.0000 3.3354 0.0000 16.3349
#
#
#
# Elastic Compliance Matrix: (Units=1/GPa)
#
#
# Indices 1 2 3 4 5 6 
#
# 1 0.012945 -0.006671 -0.004071 0.000000 -0.000885 0.000000
# 2 -0.006671 0.026438 -0.001431 0.000000 -0.003036 0.000000
# 3 -0.004071 -0.001431 0.008590 0.000000 0.002417 0.000000
# 4 0.000000 0.000000 0.000000 0.056439 0.000000 -0.011524
# 5 -0.000885 -0.003036 0.002417 0.000000 0.027458 0.000000
# 6 0.000000 0.000000 0.000000 -0.011524 0.000000 0.063572
#
#
# Mechanical properties :
#
#
# Convention : Reuss Voigt Hill
#
# Bulk Modulus (GPa) = 42.32456 58.98461 50.65458
# Shear Modulus (GPa) = 21.96237 27.71436 24.83837
#
# Velocity S-wave (km/s) = 3.38640 3.80409 3.60131
# Velocity P-wave (km/s) = 6.11475 7.07769 6.61377
#
# Compressibility (1/GPa) = 0.02362694
#
# Stress axis : x y z
#
# Youngs Moduli (GPa) = 77.25014 37.82469 116.41688
#
# Poissons Ratio (x) = 0.25232 0.47396
# Poissons Ratio (y) = 0.51532 0.16657
# Poissons Ratio (z) = 0.31451 0.05412
#
# Static dielectric constant tensor:
#      x y z
#    x 3.812050 0.000000 0.027150 
#    y 0.000000 2.967730 0.000000 
#    z 0.027150 0.000000 4.256690 
# 
# 
# High freq. dielectric constant tensor:
#      x y z
#    x 1.756930 0.000000 0.005040 
#    y 0.000000 1.669420 0.000000 
#    z 0.005040 0.000000 1.773050 
# 
# From -- ./inp_files/134495.got.cif
#   From: 2010.06.25/outbox.cif.g09.slc.cpg/sg12_68_cif.got.tgz:134495.got - 2010.06.28 00:19:55.
