data_PCOD8085616
_publ_section_title
;
Structure prediction by ZEFSAII (Michael W. Deem and Ramdas Pophale) SiO2 
 PCOD8085616
Probable space group: C 2/M
;
_chemical_formula_sum "Si O2"
_cell_formula_units_Z 56
_cell_length_a 18.096857
_cell_length_b 17.243188
_cell_length_c 14.227541
_cell_angle_alpha 90.000000
_cell_angle_beta 40.721683
_cell_angle_gamma 90.000000
_cell_volume 2896.374447
_symmetry_space_group_name_H-M "C 2/M"
_symmetry_group_IT_number 12
_symmetry_cell_setting 'monoclinic'
loop_
_space_group_symop_operation_xyz
x,y,z
-x,y,-z
-x,-y,-z
x,-y,z
1/2+x,1/2+y,z
1/2-x,1/2+y,-z
1/2-x,1/2-y,-z
1/2+x,1/2-y,z
loop_
_atom_site_type_symbol
_atom_site_label
_atom_site_fract_x
_atom_site_fract_y
_atom_site_fract_z
Si Si1 0.269994 0.585913 0.544075
Si Si2 0.708735 0.092561 0.318325
Si Si3 0.581692 0.415717 0.783377
Si Si4 0.886791 0.907417 0.851924
Si Si5 0.961834 0.822686 0.433441
Si Si6 0.345686 0.091574 0.836601
Si Si7 0.919884 0.660932 0.386513
O O1 0.227284 0.500000 0.617477
O O2 0.349580 0.575538 0.378614
O O3 0.348501 0.624057 0.549739
O O4 0.164957 0.641581 0.617586
O O5 0.834290 0.127783 0.224128
O O6 0.677111 0.123559 0.246454
O O7 0.614418 0.118220 0.483904
O O8 0.715111 0.000000 0.316483
O O9 0.553419 0.500000 0.853415
O O10 0.462143 0.376445 0.869388
O O11 0.930608 0.867606 0.714563
O O12 0.901587 0.000000 0.828496
O O13 0.757112 0.884162 0.995865
O O14 0.926569 0.752053 0.399627
O O15 0.000000 0.795264 0.500000
O O16 0.458323 0.131339 0.766198
O O17 0.361653 0.000000 0.818983
#
# Coordination Sequence:
#
# PCOD8085616 Si02
#       7
#     8   8   8   8   8   8   8
#     4   9  18  34  56  78 101 135 178 221 262 305
#     4   9  16  27  47  74 103 137 174 212 255 308
#     4   7  12  25  44  66  94 125 162 210 253 292
#     4   9  19  34  49  70 100 137 183 224 261 306
#     4  11  22  35  55  80 106 138 177 223 268 307
#     4  10  19  30  48  73 104 143 179 213 256 311
#     4  11  20  33  51  78 111 138 167 207 264 327
#
# _framework density 19.334517999999999
#
# number of rings (size 3 to 8) (size 9 to 14) (size 15 to 20)
#    0.000    2.571    0.000    5.143    0.000    3.429 
#    0.000    2.857    0.000    0.857    0.000    3.000 
#    0.000    0.000    0.000    0.000    0.000    0.000 
#
# Total GULP energy -346914.009966 kJ/mol
# GULP energy per Si atom -12389.786070 kJ/mol
# Density = 1.929051 g / cm^3
# Si number density = 19.334518 Si / 1000 Ang^3
#
#
#
# Elastic Constant Matrix: (Units=GPa)
#
#
# Indices 1 2 3 4 5 6 
#
# 1 92.5221 28.5164 36.3276 0.0000 -24.4992 0.0000
# 2 28.5164 66.6593 25.2514 0.0000 -13.8329 0.0000
# 3 36.3276 25.2514 83.6991 0.0000 -24.0542 0.0000
# 4 0.0000 0.0000 0.0000 8.7972 0.0000 -2.7443
# 5 -24.4992 -13.8329 -24.0542 0.0000 24.8794 0.0000
# 6 0.0000 0.0000 0.0000 -2.7443 0.0000 24.0620
#
#
#
# Elastic Compliance Matrix: (Units=1/GPa)
#
#
# Indices 1 2 3 4 5 6 
#
# 1 0.015864 -0.003477 -0.002635 0.000000 0.011142 0.000000
# 2 -0.003477 0.018419 -0.002892 0.000000 0.004021 0.000000
# 3 -0.002635 -0.002892 0.017664 0.000000 0.012876 0.000000
# 4 0.000000 0.000000 0.000000 0.117866 0.000000 0.013443
# 5 0.011142 0.004021 0.012876 0.000000 0.065850 0.000000
# 6 0.000000 0.000000 0.000000 0.013443 0.000000 0.043092
#
#
# Mechanical properties :
#
#
# Convention : Reuss Voigt Hill
#
# Bulk Modulus (GPa) = 29.46354 47.00792 38.23573
# Shear Modulus (GPa) = 16.22973 21.73339 18.98156
#
# Velocity S-wave (km/s) = 2.90041 3.35636 3.13668
# Velocity P-wave (km/s) = 5.14669 6.27582 5.73909
#
# Compressibility (1/GPa) = 0.03394025
#
# Stress axis : x y z
#
# Youngs Moduli (GPa) = 63.03383 54.29175 56.61235
#
# Poissons Ratio (x) = 0.18875 0.14916
# Poissons Ratio (y) = 0.21914 0.16374
# Poissons Ratio (z) = 0.16608 0.15703
#
# Static dielectric constant tensor:
#      x y z
#    x 3.731100 0.000000 -0.375180 
#    y 0.000000 3.366850 0.000000 
#    z -0.375180 0.000000 3.327220 
# 
# 
# High freq. dielectric constant tensor:
#      x y z
#    x 1.750650 0.000000 -0.030290 
#    y 0.000000 1.726220 0.000000 
#    z -0.030290 0.000000 1.723250 
# 
# From -- ./inp_files/226559.got.cif
#   From: 2010.06.25/outbox.cif.g09.slc.cpg/sg12_114_cif.got.tgz:226559.got - 2010.06.28 00:19:55.
