data_PCOD8085449
_publ_section_title
;
Structure prediction by ZEFSAII (Michael W. Deem and Ramdas Pophale) SiO2 
 PCOD8085449
Probable space group: C 2/M
;
_chemical_formula_sum "Si O2"
_cell_formula_units_Z 56
_cell_length_a 16.902002
_cell_length_b 9.766442
_cell_length_c 21.458336
_cell_angle_alpha 90.000000
_cell_angle_beta 126.428705
_cell_angle_gamma 90.000000
_cell_volume 2850.024858
_symmetry_space_group_name_H-M "C 2/M"
_symmetry_group_IT_number 12
_symmetry_cell_setting 'monoclinic'
loop_
_space_group_symop_operation_xyz
x,y,z
-x,y,-z
-x,-y,-z
x,-y,z
1/2+x,1/2+y,z
1/2-x,1/2+y,-z
1/2-x,1/2-y,-z
1/2+x,1/2-y,z
loop_
_atom_site_type_symbol
_atom_site_label
_atom_site_fract_x
_atom_site_fract_y
_atom_site_fract_z
Si Si1 0.248348 0.652958 0.090324
Si Si2 0.800867 0.653367 0.672778
Si Si3 0.933928 0.341679 0.613966
Si Si4 0.112735 0.153756 0.964110
Si Si5 0.074772 0.845921 0.745759
Si Si6 0.062933 0.846873 0.198814
Si Si7 0.603749 0.342610 0.516798
O O1 0.208074 0.500000 0.081345
O O2 0.314331 0.659193 0.059837
O O3 0.315425 0.696679 0.180848
O O4 0.153950 0.751616 0.039116
O O5 0.811201 0.500000 0.703314
O O6 0.859370 0.669834 0.635985
O O7 0.843249 0.749465 0.747308
O O8 0.687443 0.690343 0.606976
O O9 0.956038 0.500000 0.607327
O O10 0.882322 0.263364 0.532950
O O11 0.036549 0.263970 0.677528
O O12 0.004454 0.203343 0.890871
O O13 0.106069 0.000000 0.987268
O O14 0.003609 0.845012 0.771264
O O15 0.075846 0.000000 0.717258
O O16 0.101743 0.000000 0.204478
O O17 0.500000 0.316450 0.500000
O O18 0.614494 0.500000 0.498002
#
# Coordination Sequence:
#
# PCOD8085449 Si02
#       7
#     8   8   8   8   8   8   8
#     4   8  13  20  31  49  75 110 147 178 210 249
#     4   9  18  31  47  68  90 114 148 186 222 261
#     4  10  19  30  47  70  92 114 145 186 226 262
#     4   8  13  20  30  48  77 111 144 176 212 254
#     4   8  14  25  39  56  82 115 149 181 214 258
#     4   8  14  24  38  57  82 114 148 180 217 259
#     4  10  21  36  51  66  88 118 148 179 220 270
#
# _framework density 19.648951
#
# number of rings (size 3 to 8) (size 9 to 14) (size 15 to 20)
#    0.000    3.286    0.000    2.571    0.000    2.571 
#    0.000    5.714    0.000    0.000    0.000    0.000 
#    0.000    1.143    0.000   12.857    0.000   18.714 
#
# Total GULP energy -347024.923740 kJ/mol
# GULP energy per Si atom -12393.747276 kJ/mol
# Density = 1.960423 g / cm^3
# Si number density = 19.648951 Si / 1000 Ang^3
#
#
#
# Elastic Constant Matrix: (Units=GPa)
#
#
# Indices 1 2 3 4 5 6 
#
# 1 19.1161 22.4595 30.2713 0.0000 16.0714 0.0000
# 2 22.4595 123.2526 87.2940 0.0000 31.8408 0.0000
# 3 30.2713 87.2940 134.4158 0.0000 52.5744 0.0000
# 4 0.0000 0.0000 0.0000 46.3584 0.0000 6.8399
# 5 16.0714 31.8408 52.5744 0.0000 21.7759 0.0000
# 6 0.0000 0.0000 0.0000 6.8399 0.0000 8.3506
#
#
#
# Elastic Compliance Matrix: (Units=1/GPa)
#
#
# Indices 1 2 3 4 5 6 
#
# 1 -0.229530 0.039997 -0.317319 0.000000 0.877030 0.000000
# 2 0.039997 0.009110 0.032907 0.000000 -0.122289 0.000000
# 3 -0.317319 0.032907 -0.273889 0.000000 0.847335 0.000000
# 4 0.000000 0.000000 0.000000 0.024536 0.000000 -0.020097
# 5 0.877030 -0.122289 0.847335 0.000000 -2.468293 0.000000
# 6 0.000000 0.000000 0.000000 -0.020097 0.000000 0.136213
#
#
# Mechanical properties :
#
#
# Convention : Reuss Voigt Hill
#
# Bulk Modulus (GPa) = -1.01715 61.87046 30.42665
# Shear Modulus (GPa) = -1.89341 24.41431 11.26045
#
# Velocity S-wave (km/s) = -0.98271 3.52877 2.39651
# Velocity P-wave (km/s) = 1.34402 6.93969 4.81419
#
# Compressibility (1/GPa) = -0.98313782
#
# Stress axis : x y z
#
# Youngs Moduli (GPa) = -4.35673 109.76366 -3.65112
#
# Poissons Ratio (x) = -4.39027 -1.15857
# Poissons Ratio (y) = 0.17426 0.12015
# Poissons Ratio (z) = -1.38247 -3.61196
#
# Static dielectric constant tensor:
#      x y z
#    x 2.959420 0.000000 0.320140 
#    y 0.000000 3.801010 0.000000 
#    z 0.320140 0.000000 3.909180 
# 
# 
# High freq. dielectric constant tensor:
#      x y z
#    x 1.707900 0.000000 0.020520 
#    y 0.000000 1.762700 0.000000 
#    z 0.020520 0.000000 1.774920 
# 
# From -- ./inp_files/342602.got.cif
#   From: 2010.06.25/outbox.cif.g09.slc.cpg/sg12_172_cif.got.tgz:342602.got - 2010.06.28 00:19:55.
