data_PCOD8085680
_publ_section_title
;
Structure prediction by ZEFSAII (Michael W. Deem and Ramdas Pophale) SiO2 
 PCOD8085680
Probable space group: C 2/M
;
_chemical_formula_sum "Si O2"
_cell_formula_units_Z 64
_cell_length_a 21.957201
_cell_length_b 8.936526
_cell_length_c 28.191959
_cell_angle_alpha 90.000000
_cell_angle_beta 35.639375
_cell_angle_gamma 90.000000
_cell_volume 3223.311449
_symmetry_space_group_name_H-M "C 2/M"
_symmetry_group_IT_number 12
_symmetry_cell_setting 'monoclinic'
loop_
_space_group_symop_operation_xyz
x,y,z
-x,y,-z
-x,-y,-z
x,-y,z
1/2+x,1/2+y,z
1/2-x,1/2+y,-z
1/2-x,1/2-y,-z
1/2+x,1/2-y,z
loop_
_atom_site_type_symbol
_atom_site_label
_atom_site_fract_x
_atom_site_fract_y
_atom_site_fract_z
Si Si1 0.714696 0.827746 0.707639
Si Si2 0.602702 0.176492 0.462364
Si Si3 0.986312 0.327247 0.812527
Si Si4 0.457302 0.822764 0.727384
Si Si5 0.888118 0.326002 0.135035
Si Si6 0.853293 0.321508 0.457955
Si Si7 0.896995 0.678911 0.964251
Si Si8 0.749165 0.826219 0.864457
O O1 0.798766 0.720781 0.631083
O O2 0.606227 0.804120 0.749315
O O3 0.698002 0.770134 0.772135
O O4 0.752442 0.000000 0.680336
O O5 0.500000 0.241840 0.500000
O O6 0.621651 0.236376 0.504327
O O7 0.592378 0.000000 0.471735
O O8 0.959092 0.500000 0.824176
O O9 0.968995 0.249972 0.772567
O O10 0.908036 0.261693 0.902904
O O11 0.548688 0.764519 0.635368
O O12 0.344256 0.766870 0.782117
O O13 0.460464 0.000000 0.725788
O O14 0.900375 0.500000 0.138810
O O15 0.850172 0.295254 0.106190
O O16 0.002556 0.254987 0.070837
O O17 0.840042 0.500000 0.464910
O O18 0.750000 0.250000 0.500000
O O19 0.899489 0.500000 0.963971
O O20 0.790149 0.730712 0.058468
O O21 0.780462 0.000000 0.844889
#
# Coordination Sequence:
#
# PCOD8085680 Si02
#       8
#     8   8   8   8   8   8   8   8
#     4   9  17  32  55  78  97 126 171 217 255 298
#     4  10  22  37  53  77 110 141 170 212 270 330
#     4   8  15  30  51  73  97 128 170 211 247 296
#     4  10  21  35  51  72 101 136 168 203 255 311
#     4   8  15  28  49  76 103 129 165 212 254 295
#     4  10  22  40  60  80 104 141 184 222 265 320
#     4   8  14  27  49  74  99 131 168 207 252 296
#     4  10  19  30  48  76 105 132 166 208 251 297
#
# _framework density 19.855357000000001
#
# number of rings (size 3 to 8) (size 9 to 14) (size 15 to 20)
#    0.000    2.875    0.000    2.625    1.750    4.250 
#    0.000    0.625    0.000    4.500    0.000    0.000 
#    0.000    0.000    0.000    0.000    0.000    0.000 
#
# Total GULP energy -396452.238323 kJ/mol
# GULP energy per Si atom -12389.132448 kJ/mol
# Density = 1.981016 g / cm^3
# Si number density = 19.855357 Si / 1000 Ang^3
#
#
#
# Elastic Constant Matrix: (Units=GPa)
#
#
# Indices 1 2 3 4 5 6 
#
# 1 81.8934 14.5602 41.3518 0.0003 10.0572 -0.0055
# 2 14.5602 5.5437 14.3682 0.0004 1.3860 -0.0101
# 3 41.3518 14.3682 147.7949 0.0004 11.8031 -0.0002
# 4 0.0003 0.0004 0.0004 22.3184 0.0003 -0.7327
# 5 10.0572 1.3860 11.8031 0.0003 25.0179 0.0006
# 6 -0.0055 -0.0101 -0.0002 -0.7327 0.0006 18.2682
#
#
#
# Elastic Compliance Matrix: (Units=1/GPa)
#
#
# Indices 1 2 3 4 5 6 
#
# 1 0.023831 -0.060220 -0.000327 0.000000 -0.006090 -0.000026
# 2 -0.060220 0.393460 -0.022440 0.000001 0.012998 0.000199
# 3 -0.000327 -0.022440 0.009279 0.000000 -0.003003 -0.000012
# 4 0.000000 0.000001 0.000000 0.044865 -0.000001 0.001800
# 5 -0.006090 0.012998 -0.003003 -0.000001 0.043116 0.000004
# 6 -0.000026 0.000199 -0.000012 0.001800 0.000004 0.054812
#
#
# Mechanical properties :
#
#
# Convention : Reuss Voigt Hill
#
# Bulk Modulus (GPa) = 3.83737 41.75472 22.79604
# Shear Modulus (GPa) = 6.08123 24.11766 15.09945
#
# Velocity S-wave (km/s) = 1.75197 3.48899 2.76066
# Velocity P-wave (km/s) = 2.45548 6.10785 4.65485
#
# Compressibility (1/GPa) = 0.26059533
#
# Stress axis : x y z
#
# Youngs Moduli (GPa) = 41.96260 2.54156 107.77052
#
# Poissons Ratio (x) = 0.15305 0.03523
# Poissons Ratio (y) = 2.52700 2.41836
# Poissons Ratio (z) = 0.01372 0.05703
#
# Static dielectric constant tensor:
#      x y z
#    x 3.835910 0.000000 0.298960 
#    y 0.000000 3.034590 0.000000 
#    z 0.298960 0.000000 3.861660 
# 
# 
# High freq. dielectric constant tensor:
#      x y z
#    x 1.780430 0.000000 0.010920 
#    y 0.000000 1.713430 0.000000 
#    z 0.010920 0.000000 1.791150 
# 
# From -- ./inp_files/382309.got.cif
#   From: 2010.06.25/outbox.cif.g09.slc.cpg/sg12_192_cif.got.tgz:382309.got - 2010.06.28 00:19:55.
