data_PCOD8085296
_publ_section_title
;
Structure prediction by ZEFSAII (Michael W. Deem and Ramdas Pophale) SiO2 
 PCOD8085296
Probable space group: C 2/M
;
_chemical_formula_sum "Si O2"
_cell_formula_units_Z 56
_cell_length_a 22.084331
_cell_length_b 9.714824
_cell_length_c 19.498020
_cell_angle_alpha 90.000000
_cell_angle_beta 51.556774
_cell_angle_gamma 90.000000
_cell_volume 3276.393276
_symmetry_space_group_name_H-M "C 2/M"
_symmetry_group_IT_number 12
_symmetry_cell_setting 'monoclinic'
loop_
_space_group_symop_operation_xyz
x,y,z
-x,y,-z
-x,-y,-z
x,-y,z
1/2+x,1/2+y,z
1/2-x,1/2+y,-z
1/2-x,1/2-y,-z
1/2+x,1/2-y,z
loop_
_atom_site_type_symbol
_atom_site_label
_atom_site_fract_x
_atom_site_fract_y
_atom_site_fract_z
Si Si1 0.839070 0.852080 0.485904
Si Si2 0.732839 0.846891 0.282683
Si Si3 0.052268 0.650476 0.825442
Si Si4 0.555305 0.656654 0.026574
Si Si5 0.417998 0.159553 0.530937
Si Si6 0.665718 0.844040 0.872755
Si Si7 0.183073 0.242454 0.645885
O O1 0.894664 0.735728 0.477400
O O2 0.838649 0.849529 0.403934
O O3 0.751766 0.844820 0.576054
O O4 0.872063 0.000000 0.485297
O O5 0.645062 0.812344 0.365609
O O6 0.757849 0.732019 0.209985
O O7 0.788120 0.849649 0.310646
O O8 0.738532 0.000000 0.246127
O O9 0.012534 0.500000 0.844695
O O10 0.103012 0.646420 0.857806
O O11 0.106230 0.675606 0.721675
O O12 0.988225 0.770230 0.878810
O O13 0.578609 0.500000 0.030667
O O14 0.500000 0.651600 0.000000
O O15 0.631120 0.749298 0.957900
O O16 0.500000 0.215065 0.500000
O O17 0.422611 0.000000 0.508125
O O18 0.686176 0.000000 0.883611
#
# Coordination Sequence:
#
# PCOD8085296 Si02
#       7
#     8   8   8   8   8   8   8
#     4  10  19  30  46  66  87 114 149 186 219 255
#     4   9  16  27  44  62  83 113 145 177 212 254
#     4   9  16  25  37  53  78 112 144 173 207 249
#     4   9  16  24  35  52  76 108 143 175 207 245
#     4   9  19  34  48  63  86 116 147 180 222 266
#     4   9  16  25  37  55  80 108 140 175 210 250
#     4   9  18  28  42  63  90 116 144 177 217 261
#
# _framework density 17.091964999999998
#
# number of rings (size 3 to 8) (size 9 to 14) (size 15 to 20)
#    0.000    2.857    0.000    1.714    0.000   13.429 
#    0.000    0.000    0.000    0.000    0.000    0.000 
#    0.000    1.143    0.000    2.714    0.000    6.143 
#
# Total GULP energy -347020.261317 kJ/mol
# GULP energy per Si atom -12393.580761 kJ/mol
# Density = 1.705306 g / cm^3
# Si number density = 17.091965 Si / 1000 Ang^3
#
#
#
# Elastic Constant Matrix: (Units=GPa)
#
#
# Indices 1 2 3 4 5 6 
#
# 1 50.5386 29.1264 30.1296 0.0000 -12.7271 0.0000
# 2 29.1264 136.9245 56.1915 0.0000 -16.1513 0.0001
# 3 30.1296 56.1915 99.0403 0.0000 -16.8879 0.0000
# 4 0.0000 0.0000 0.0000 13.8844 0.0000 -3.6034
# 5 -12.7271 -16.1513 -16.8879 0.0000 14.0533 0.0000
# 6 0.0000 0.0001 0.0000 -3.6034 0.0000 10.2741
#
#
#
# Elastic Compliance Matrix: (Units=1/GPa)
#
#
# Indices 1 2 3 4 5 6 
#
# 1 0.028049 -0.002098 -0.004304 0.000000 0.017818 0.000000
# 2 -0.002098 0.010040 -0.004295 0.000000 0.004478 0.000000
# 3 -0.004304 -0.004295 0.015516 0.000000 0.009812 0.000000
# 4 0.000000 0.000000 0.000000 0.079235 0.000000 0.027790
# 5 0.017818 0.004478 0.009812 0.000000 0.104232 0.000000
# 6 0.000000 0.000000 0.000000 0.027790 0.000000 0.107078
#
#
# Mechanical properties :
#
#
# Convention : Reuss Voigt Hill
#
# Bulk Modulus (GPa) = 31.04497 57.48872 44.26684
# Shear Modulus (GPa) = 13.28788 19.04609 16.16699
#
# Velocity S-wave (km/s) = 2.79128 3.34178 3.07886
# Velocity P-wave (km/s) = 5.34708 6.97122 6.21245
#
# Compressibility (1/GPa) = 0.03221133
#
# Stress axis : x y z
#
# Youngs Moduli (GPa) = 35.65130 99.59870 64.44988
#
# Poissons Ratio (x) = 0.20900 0.27741
# Poissons Ratio (y) = 0.07481 0.27678
# Poissons Ratio (z) = 0.15345 0.42773
#
# Static dielectric constant tensor:
#      x y z
#    x 2.644210 0.000000 -0.225190 
#    y 0.000000 3.388930 0.000000 
#    z -0.225190 0.000000 3.271700 
# 
# 
# High freq. dielectric constant tensor:
#      x y z
#    x 1.580640 0.000000 -0.023710 
#    y 0.000000 1.673840 0.000000 
#    z -0.023710 0.000000 1.658990 
# 
# From -- ./inp_files/280874.got.cif
#   From: 2010.06.25/outbox.cif.g09.slc.cpg/sg12_141_cif.got.tgz:280874.got - 2010.06.28 00:19:55.
