data_PCOD8085494
_publ_section_title
;
Structure prediction by ZEFSAII (Michael W. Deem and Ramdas Pophale) SiO2 
 PCOD8085494
Probable space group: C 2/M
;
_chemical_formula_sum "Si O2"
_cell_formula_units_Z 64
_cell_length_a 27.705860
_cell_length_b 8.970018
_cell_length_c 16.063272
_cell_angle_alpha 90.000000
_cell_angle_beta 68.919001
_cell_angle_gamma 90.000000
_cell_volume 3724.899202
_symmetry_space_group_name_H-M "C 2/M"
_symmetry_group_IT_number 12
_symmetry_cell_setting 'monoclinic'
loop_
_space_group_symop_operation_xyz
x,y,z
-x,y,-z
-x,-y,-z
x,-y,z
1/2+x,1/2+y,z
1/2-x,1/2+y,-z
1/2-x,1/2-y,-z
1/2+x,1/2-y,z
loop_
_atom_site_type_symbol
_atom_site_label
_atom_site_fract_x
_atom_site_fract_y
_atom_site_fract_z
Si Si1 0.439368 0.665498 0.547927
Si Si2 0.711017 0.171592 0.964038
Si Si3 0.828169 0.826482 0.423489
Si Si4 0.280426 0.324657 0.780749
Si Si5 0.072702 0.324360 0.611178
Si Si6 0.359487 0.171968 0.854069
Si Si7 0.226684 0.325915 0.390945
Si Si8 0.043082 0.672206 0.300703
O O1 0.500000 0.652785 0.500000
O O2 0.414203 0.500000 0.559996
O O3 0.416863 0.769138 0.489378
O O4 0.427777 0.740269 0.643690
O O5 0.724738 0.217603 0.860118
O O6 0.724508 0.000000 0.962155
O O7 0.750000 0.250000 0.000000
O O8 0.653909 0.204952 0.039082
O O9 0.882553 0.752070 0.360842
O O10 0.810321 0.756050 0.521464
O O11 0.786450 0.794519 0.377359
O O12 0.836935 0.000000 0.432484
O O13 0.284709 0.500000 0.758934
O O14 0.326944 0.277068 0.812820
O O15 0.284495 0.235018 0.693310
O O16 0.079084 0.500000 0.612014
O O17 0.015810 0.272313 0.678915
O O18 0.421134 0.198638 0.802906
O O19 0.345869 0.000000 0.841070
O O20 0.213773 0.500000 0.402513
O O21 0.040328 0.500000 0.329339
#
# Coordination Sequence:
#
# PCOD8085494 Si02
#       8
#     8   8   8   8   8   8   8   8
#     4   9  17  28  41  58  84 118 155 192 224 258
#     4   8  15  28  45  66  92 123 154 187 226 269
#     4  10  21  36  52  69  90 117 153 195 234 273
#     4  10  19  30  47  71  97 123 154 190 230 275
#     4  10  19  31  47  65  89 121 154 189 233 276
#     4   9  17  30  47  67  96 129 159 189 224 268
#     4  10  21  36  52  70  91 118 152 190 234 280
#     4   9  18  30  44  65  91 122 158 191 224 270
#
# _framework density 17.181671999999999
#
# number of rings (size 3 to 8) (size 9 to 14) (size 15 to 20)
#    0.000    2.625    0.000    1.875    1.750    4.500 
#    0.000    0.000    0.000    0.000    0.000    0.875 
#    0.000    7.000    0.000    0.000    0.000    0.000 
#
# Total GULP energy -396449.005824 kJ/mol
# GULP energy per Si atom -12389.031432 kJ/mol
# Density = 1.714257 g / cm^3
# Si number density = 17.181672 Si / 1000 Ang^3
#
#
#
# Elastic Constant Matrix: (Units=GPa)
#
#
# Indices 1 2 3 4 5 6 
#
# 1 69.3583 24.5531 17.1605 0.0000 -16.2998 0.0000
# 2 24.5531 61.0968 16.5537 0.0000 -6.7001 0.0000
# 3 17.1605 16.5537 58.0979 0.0000 -16.9150 0.0000
# 4 0.0000 0.0000 0.0000 15.6546 0.0000 -1.1520
# 5 -16.2998 -6.7001 -16.9150 0.0000 24.1169 0.0000
# 6 0.0000 0.0000 0.0000 -1.1520 0.0000 24.3310
#
#
#
# Elastic Compliance Matrix: (Units=1/GPa)
#
#
# Indices 1 2 3 4 5 6 
#
# 1 0.019416 -0.006411 -0.000762 0.000000 0.010807 0.000000
# 2 -0.006411 0.019912 -0.004311 0.000000 -0.001825 0.000000
# 3 -0.000762 -0.004311 0.022829 0.000000 0.014299 0.000000
# 4 0.000000 0.000000 0.000000 0.064103 0.000000 0.003035
# 5 0.010807 -0.001825 0.014299 0.000000 0.058291 0.000000
# 6 0.000000 0.000000 0.000000 0.003035 0.000000 0.041243
#
#
# Mechanical properties :
#
#
# Convention : Reuss Voigt Hill
#
# Bulk Modulus (GPa) = 25.51770 33.89863 29.70817
# Shear Modulus (GPa) = 19.09682 21.50621 20.30151
#
# Velocity S-wave (km/s) = 3.33748 3.54177 3.44114
# Velocity P-wave (km/s) = 5.45304 6.04135 5.75472
#
# Compressibility (1/GPa) = 0.03918848
#
# Stress axis : x y z
#
# Youngs Moduli (GPa) = 51.50490 50.22138 43.80440
#
# Poissons Ratio (x) = 0.32197 0.03337
# Poissons Ratio (y) = 0.33020 0.18884
# Poissons Ratio (z) = 0.03923 0.21651
#
# Static dielectric constant tensor:
#      x y z
#    x 3.199660 0.000000 -0.352510 
#    y 0.000000 3.317520 0.000000 
#    z -0.352510 0.000000 3.482480 
# 
# 
# High freq. dielectric constant tensor:
#      x y z
#    x 1.637960 0.000000 -0.030730 
#    y 0.000000 1.675190 0.000000 
#    z -0.030730 0.000000 1.645060 
# 
# From -- ./inp_files/243764.got.cif
#   From: 2010.06.25/outbox.cif.g09.slc.cpg/sg12_122_cif.got.tgz:243764.got - 2010.06.28 00:19:55.
