data_PCOD8085229
_publ_section_title
;
Structure prediction by ZEFSAII (Michael W. Deem and Ramdas Pophale) SiO2 
 PCOD8085229
Probable space group: C 2/M
;
_chemical_formula_sum "Si O2"
_cell_formula_units_Z 64
_cell_length_a 30.361146
_cell_length_b 14.838533
_cell_length_c 17.987274
_cell_angle_alpha 90.000000
_cell_angle_beta 26.263460
_cell_angle_gamma 90.000000
_cell_volume 3585.808866
_symmetry_space_group_name_H-M "C 2/M"
_symmetry_group_IT_number 12
_symmetry_cell_setting 'monoclinic'
loop_
_space_group_symop_operation_xyz
x,y,z
-x,y,-z
-x,-y,-z
x,-y,z
1/2+x,1/2+y,z
1/2-x,1/2+y,-z
1/2-x,1/2-y,-z
1/2+x,1/2-y,z
loop_
_atom_site_type_symbol
_atom_site_label
_atom_site_fract_x
_atom_site_fract_y
_atom_site_fract_z
Si Si1 0.404536 0.247513 0.918744
Si Si2 0.739394 0.598690 0.649356
Si Si3 0.743629 0.396691 0.115203
Si Si4 0.626854 0.736989 0.539899
Si Si5 0.954438 0.170956 0.993638
Si Si6 0.909026 0.898211 0.528840
Si Si7 0.350602 0.600309 0.368709
Si Si8 0.371792 0.396834 0.851928
O O1 0.514599 0.229430 0.721322
O O2 0.411214 0.258591 0.998238
O O3 0.363253 0.336442 0.939003
O O4 0.333735 0.163777 0.008372
O O5 0.783891 0.500000 0.599725
O O6 0.811880 0.674002 0.570919
O O7 0.728758 0.611079 0.576929
O O8 0.632840 0.604737 0.849609
O O9 0.778751 0.500000 0.069980
O O10 0.640298 0.381484 0.316268
O O11 0.719123 0.373777 0.066265
O O12 0.643470 0.671743 0.445850
O O13 0.671550 0.680867 0.541083
O O14 0.036672 0.108910 0.830574
O O15 0.000000 0.218924 0.000000
O O16 0.027280 0.880556 0.348198
O O17 0.887152 0.000000 0.534804
O O18 0.341215 0.500000 0.418737
O O19 0.365767 0.500000 0.888262
#
# Coordination Sequence:
#
# PCOD8085229 Si02
#       8
#     8   8   8   8   8   8   8   8
#     4  10  20  32  49  71  97 128 158 191 231 280
#     4  10  19  30  45  65  92 125 157 190 230 278
#     4  10  19  32  50  71  97 127 157 191 232 281
#     4  10  19  30  45  67  94 123 155 191 229 276
#     4   9  18  32  50  71  94 121 156 199 242 276
#     4   9  17  30  49  71  92 116 150 193 239 278
#     4   9  17  30  48  68  89 116 153 199 244 276
#     4   9  18  32  51  74  96 119 153 199 244 279
#
# _framework density 17.848136
#
# number of rings (size 3 to 8) (size 9 to 14) (size 15 to 20)
#    0.000    2.500    0.000    2.625    0.000    7.000 
#    0.000    0.000    0.000    0.375    0.000    0.000 
#    0.000   14.000    0.000    0.000    0.000    0.000 
#
# Total GULP energy -396599.652226 kJ/mol
# GULP energy per Si atom -12393.739132 kJ/mol
# Density = 1.780751 g / cm^3
# Si number density = 17.848136 Si / 1000 Ang^3
#
#
#
# Elastic Constant Matrix: (Units=GPa)
#
#
# Indices 1 2 3 4 5 6 
#
# 1 106.4271 57.3096 19.6137 0.0000 1.0378 0.0000
# 2 57.3096 112.9441 28.3125 0.0000 -7.2547 0.0000
# 3 19.6137 28.3125 27.7615 0.0000 1.8094 0.0000
# 4 0.0000 0.0000 0.0000 22.7127 0.0000 -5.8127
# 5 1.0378 -7.2547 1.8094 0.0000 20.9773 0.0000
# 6 0.0000 0.0000 0.0000 -5.8127 0.0000 28.0127
#
#
#
# Elastic Compliance Matrix: (Units=1/GPa)
#
#
# Indices 1 2 3 4 5 6 
#
# 1 0.013282 -0.006169 -0.002927 0.000000 -0.002538 0.000000
# 2 -0.006169 0.015349 -0.011728 0.000000 0.006625 0.000000
# 3 -0.002927 -0.011728 0.050589 0.000000 -0.008275 0.000000
# 4 0.000000 0.000000 0.000000 0.046497 0.000000 0.009648
# 5 -0.002538 0.006625 -0.008275 0.000000 0.050801 0.000000
# 6 0.000000 0.000000 0.000000 0.009648 0.000000 0.037700
#
#
# Mechanical properties :
#
#
# Convention : Reuss Voigt Hill
#
# Bulk Modulus (GPa) = 26.61472 50.84492 38.72982
# Shear Modulus (GPa) = 18.62951 23.80032 21.21492
#
# Velocity S-wave (km/s) = 3.23426 3.65566 3.45140
# Velocity P-wave (km/s) = 5.37507 6.80939 6.13430
#
# Compressibility (1/GPa) = 0.03757319
#
# Stress axis : x y z
#
# Youngs Moduli (GPa) = 75.28913 65.14873 19.76713
#
# Poissons Ratio (x) = 0.40189 0.05786
# Poissons Ratio (y) = 0.46444 0.23182
# Poissons Ratio (z) = 0.22039 0.76404
#
# Static dielectric constant tensor:
#      x y z
#    x 3.443430 0.000000 0.073910 
#    y 0.000000 3.167930 0.000000 
#    z 0.073910 0.000000 3.086430 
# 
# 
# High freq. dielectric constant tensor:
#      x y z
#    x 1.693680 0.000000 0.004150 
#    y 0.000000 1.679930 0.000000 
#    z 0.004150 0.000000 1.670660 
# 
# From -- ./inp_files/296455.got.cif
#   From: 2010.06.25/outbox.cif.g09.slc.cpg/sg12_149_cif.got.tgz:296455.got - 2010.06.28 00:19:55.
