data_PCOD8085312
_publ_section_title
;
Structure prediction by ZEFSAII (Michael W. Deem and Ramdas Pophale) SiO2 
 PCOD8085312
Probable space group: C 2/M
;
_chemical_formula_sum "Si O2"
_cell_formula_units_Z 64
_cell_length_a 15.125859
_cell_length_b 17.434538
_cell_length_c 13.801178
_cell_angle_alpha 90.000000
_cell_angle_beta 69.058873
_cell_angle_gamma 90.000000
_cell_volume 3399.142896
_symmetry_space_group_name_H-M "C 2/M"
_symmetry_group_IT_number 12
_symmetry_cell_setting 'monoclinic'
loop_
_space_group_symop_operation_xyz
x,y,z
-x,y,-z
-x,-y,-z
x,-y,z
1/2+x,1/2+y,z
1/2-x,1/2+y,-z
1/2-x,1/2-y,-z
1/2+x,1/2-y,z
loop_
_atom_site_type_symbol
_atom_site_label
_atom_site_fract_x
_atom_site_fract_y
_atom_site_fract_z
Si Si1 0.399313 0.854308 0.432632
Si Si2 0.104614 0.911664 0.272239
Si Si3 0.603967 0.087622 0.364533
Si Si4 0.054264 0.817334 0.579595
Si Si5 0.228251 0.591591 0.919340
Si Si6 0.288393 0.587671 0.570819
Si Si7 0.874486 0.591782 0.853378
Si Si8 0.945145 0.417056 0.120533
O O1 0.362274 0.858891 0.559497
O O2 0.491171 0.907875 0.391202
O O3 0.423153 0.767742 0.393530
O O4 0.320560 0.885130 0.389491
O O5 0.165166 0.885707 0.153777
O O6 0.173118 0.899929 0.336829
O O7 0.011712 0.858988 0.314896
O O8 0.071632 0.000000 0.278110
O O9 0.654144 0.116451 0.244799
O O10 0.631429 0.000000 0.377044
O O11 0.151499 0.863808 0.530364
O O12 0.000000 0.815193 0.500000
O O13 0.217220 0.500000 0.919547
O O14 0.152752 0.626638 0.870041
O O15 0.204205 0.621089 0.038045
O O16 0.296654 0.500000 0.535047
O O17 0.882619 0.500000 0.855941
O O18 0.980283 0.626129 0.836835
O O19 0.918720 0.500000 0.176950
O O20 0.000000 0.431051 0.000000
#
# Coordination Sequence:
#
# PCOD8085312 Si02
#       8
#     8   8   8   8   8   8   8   8
#     4  11  20  33  47  69  97 130 165 201 236 290
#     4   9  18  30  50  76 102 126 157 200 243 287
#     4  10  19  30  46  67  97 131 162 202 242 279
#     4  10  19  35  50  68  97 133 163 195 244 292
#     4   8  13  23  39  66  96 122 154 195 240 287
#     4  10  20  32  51  75  98 123 161 205 244 288
#     4   8  14  23  39  62  93 128 158 193 243 287
#     4   7  10  17  31  55  89 121 146 180 228 279
#
# _framework density 18.828275999999999
#
# number of rings (size 3 to 8) (size 9 to 14) (size 15 to 20)
#    0.000    2.875    1.250    3.750    1.750    1.500 
#    0.000    0.000    0.000    0.750    0.000    0.875 
#    3.750    5.000    0.000    0.000    0.000    0.000 
#
# Total GULP energy -396435.573901 kJ/mol
# GULP energy per Si atom -12388.611684 kJ/mol
# Density = 1.878542 g / cm^3
# Si number density = 18.828276 Si / 1000 Ang^3
#
#
#
# Elastic Constant Matrix: (Units=GPa)
#
#
# Indices 1 2 3 4 5 6 
#
# 1 35.8463 17.3173 6.3273 0.0000 -4.4811 0.0000
# 2 17.3173 60.2593 21.0858 0.0000 -2.1940 0.0000
# 3 6.3273 21.0858 89.4152 0.0000 -1.9040 0.0000
# 4 0.0000 0.0000 0.0000 7.9067 0.0000 -3.5847
# 5 -4.4811 -2.1940 -1.9040 0.0000 23.5559 0.0000
# 6 0.0000 0.0000 0.0000 -3.5847 0.0000 18.1263
#
#
#
# Elastic Compliance Matrix: (Units=1/GPa)
#
#
# Indices 1 2 3 4 5 6 
#
# 1 0.033071 -0.009295 -0.000033 0.000000 0.005423 0.000000
# 2 -0.009295 0.020742 -0.004238 0.000000 -0.000179 0.000000
# 3 -0.000033 -0.004238 0.012198 0.000000 0.000585 0.000000
# 4 0.000000 0.000000 0.000000 0.138931 0.000000 0.027475
# 5 0.005423 -0.000179 0.000585 0.000000 0.043514 0.000000
# 6 0.000000 0.000000 0.000000 0.027475 0.000000 0.060602
#
#
# Mechanical properties :
#
#
# Convention : Reuss Voigt Hill
#
# Bulk Modulus (GPa) = 25.71977 30.55352 28.13665
# Shear Modulus (GPa) = 14.32054 19.30383 16.81218
#
# Velocity S-wave (km/s) = 2.76087 3.20544 2.99142
# Velocity P-wave (km/s) = 4.88395 5.47380 5.18727
#
# Compressibility (1/GPa) = 0.03888059
#
# Stress axis : x y z
#
# Youngs Moduli (GPa) = 30.23802 48.21041 81.98170
#
# Poissons Ratio (x) = 0.44812 0.00269
# Poissons Ratio (y) = 0.28106 0.34740
# Poissons Ratio (z) = 0.00099 0.20429
#
# Static dielectric constant tensor:
#      x y z
#    x 3.340340 0.000000 -0.045000 
#    y 0.000000 3.069160 0.000000 
#    z -0.045000 0.000000 3.739880 
# 
# 
# High freq. dielectric constant tensor:
#      x y z
#    x 1.702320 0.000000 -0.008250 
#    y 0.000000 1.682730 0.000000 
#    z -0.008250 0.000000 1.732860 
# 
# From -- ./inp_files/216344.got.cif
#   From: 2010.06.25/outbox.cif.g09.slc.cpg/sg12_109_cif.got.tgz:216344.got - 2010.06.28 00:19:55.
