data_PCOD8085892
_publ_section_title
;
Structure prediction by ZEFSAII (Michael W. Deem and Ramdas Pophale) SiO2 
 PCOD8085892
Probable space group: C 2/M
;
_chemical_formula_sum "Si O2"
_cell_formula_units_Z 64
_cell_length_a 19.936298
_cell_length_b 9.153539
_cell_length_c 20.283245
_cell_angle_alpha 90.000000
_cell_angle_beta 66.617560
_cell_angle_gamma 90.000000
_cell_volume 3397.466209
_symmetry_space_group_name_H-M "C 2/M"
_symmetry_group_IT_number 12
_symmetry_cell_setting 'monoclinic'
loop_
_space_group_symop_operation_xyz
x,y,z
-x,y,-z
-x,-y,-z
x,-y,z
1/2+x,1/2+y,z
1/2-x,1/2+y,-z
1/2-x,1/2-y,-z
1/2+x,1/2-y,z
loop_
_atom_site_type_symbol
_atom_site_label
_atom_site_fract_x
_atom_site_fract_y
_atom_site_fract_z
Si Si1 0.919221 0.171696 0.898169
Si Si2 0.364764 0.830479 0.445616
Si Si3 0.456726 0.164618 0.084866
Si Si4 0.503738 0.329289 0.423192
Si Si5 0.661552 0.332129 0.305112
Si Si6 0.770394 0.833014 0.586112
Si Si7 0.837810 0.167892 0.062929
Si Si8 0.823543 0.670040 0.833455
O O1 0.887106 0.240567 0.844471
O O2 0.998763 0.242087 0.878841
O O3 0.928861 0.000000 0.884543
O O4 0.865157 0.210635 0.979463
O O5 0.441999 0.751422 0.404044
O O6 0.313173 0.800532 0.402255
O O7 0.325892 0.770715 0.526153
O O8 0.379769 0.000000 0.450213
O O9 0.377690 0.236218 0.103363
O O10 0.446184 0.000000 0.115212
O O11 0.500000 0.167223 0.000000
O O12 0.500000 0.273848 0.500000
O O13 0.487513 0.500000 0.426170
O O14 0.581805 0.289205 0.362672
O O15 0.663046 0.500000 0.280464
O O16 0.721060 0.305845 0.339416
O O17 0.683935 0.225260 0.237942
O O18 0.792051 0.000000 0.560113
O O19 0.752064 0.199616 0.099122
O O20 0.856640 0.000000 0.070837
O O21 0.843832 0.500000 0.825975
#
# Coordination Sequence:
#
# PCOD8085892 Si02
#       8
#     8   8   8   8   8   8   8   8
#     4  10  19  34  57  81 108 144 186 225 270 328
#     4  10  19  30  53  85 109 131 169 221 268 309
#     4   9  17  30  52  82 111 138 174 224 275 318
#     4  10  19  35  57  78 104 141 178 215 260 316
#     4  10  21  38  57  74 101 145 188 219 265 328
#     4   9  18  35  54  75 106 140 172 210 260 320
#     4   9  19  35  55  80 109 144 184 228 273 324
#     4  11  23  37  53  78 112 144 180 228 278 322
#
# _framework density 18.837568000000001
#
# number of rings (size 3 to 8) (size 9 to 14) (size 15 to 20)
#    0.000    2.250    1.250    1.875    0.000    4.750 
#    0.000    1.250    0.000    6.000    0.000    0.000 
#    0.000    0.000    0.000    0.000    0.000    0.000 
#
# Total GULP energy -396883.651933 kJ/mol
# GULP energy per Si atom -12402.614123 kJ/mol
# Density = 1.879469 g / cm^3
# Si number density = 18.837568 Si / 1000 Ang^3
#
#
#
# Elastic Constant Matrix: (Units=GPa)
#
#
# Indices 1 2 3 4 5 6 
#
# 1 111.6869 53.1860 19.0036 0.0000 21.2836 -0.0001
# 2 53.1860 90.0984 23.6391 0.0000 11.2723 -0.0003
# 3 19.0036 23.6391 45.3932 0.0000 14.1284 0.0000
# 4 0.0000 0.0000 0.0000 26.2812 0.0000 1.9204
# 5 21.2836 11.2723 14.1284 0.0000 22.3660 0.0000
# 6 -0.0001 -0.0003 0.0000 1.9204 0.0000 37.6490
#
#
#
# Elastic Compliance Matrix: (Units=1/GPa)
#
#
# Indices 1 2 3 4 5 6 
#
# 1 0.014316 -0.007432 0.001184 0.000000 -0.010626 0.000000
# 2 -0.007432 0.016857 -0.006502 0.000000 0.002685 0.000000
# 3 0.001184 -0.006502 0.030186 0.000000 -0.016918 0.000000
# 4 0.000000 0.000000 0.000000 0.038192 0.000000 -0.001948
# 5 -0.010626 0.002685 -0.016918 0.000000 0.064156 0.000000
# 6 0.000000 0.000000 0.000000 -0.001948 0.000000 0.026661
#
#
# Mechanical properties :
#
#
# Convention : Reuss Voigt Hill
#
# Bulk Modulus (GPa) = 27.88802 48.75955 38.32378
# Shear Modulus (GPa) = 21.94706 27.34921 24.64814
#
# Velocity S-wave (km/s) = 3.41701 3.81444 3.62118
# Velocity P-wave (km/s) = 5.51404 6.73352 6.15406
#
# Compressibility (1/GPa) = 0.03585769
#
# Stress axis : x y z
#
# Youngs Moduli (GPa) = 69.85023 59.32415 33.12834
#
# Poissons Ratio (x) = 0.44092 -0.03923
# Poissons Ratio (y) = 0.51916 0.21541
# Poissons Ratio (z) = -0.08272 0.38574
#
# Static dielectric constant tensor:
#      x y z
#    x 3.617510 0.000000 0.059030 
#    y 0.000000 3.493770 0.000000 
#    z 0.059030 0.000000 3.099460 
# 
# 
# High freq. dielectric constant tensor:
#      x y z
#    x 1.746010 0.000000 0.005890 
#    y 0.000000 1.736800 0.000000 
#    z 0.005890 0.000000 1.692620 
# 
# From -- ./inp_files/319804.got.cif
#   From: 2010.06.25/outbox.cif.g09.slc.cpg/sg12_160_cif.got.tgz:319804.got - 2010.06.28 00:19:55.
