data_PCOD8085489
_publ_section_title
;
Structure prediction by ZEFSAII (Michael W. Deem and Ramdas Pophale) SiO2 
 PCOD8085489
Probable space group: C 2/M
;
_chemical_formula_sum "Si O2"
_cell_formula_units_Z 64
_cell_length_a 18.242901
_cell_length_b 9.449108
_cell_length_c 20.395544
_cell_angle_alpha 90.000000
_cell_angle_beta 86.933996
_cell_angle_gamma 90.000000
_cell_volume 3510.733839
_symmetry_space_group_name_H-M "C 2/M"
_symmetry_group_IT_number 12
_symmetry_cell_setting 'monoclinic'
loop_
_space_group_symop_operation_xyz
x,y,z
-x,y,-z
-x,-y,-z
x,-y,z
1/2+x,1/2+y,z
1/2-x,1/2+y,-z
1/2-x,1/2-y,-z
1/2+x,1/2-y,z
loop_
_atom_site_type_symbol
_atom_site_label
_atom_site_fract_x
_atom_site_fract_y
_atom_site_fract_z
Si Si1 0.339827 0.336834 0.328677
Si Si2 0.405975 0.159441 0.939076
Si Si3 0.065052 0.164175 0.797631
Si Si4 0.605579 0.666232 0.182961
Si Si5 0.079719 0.341802 0.917749
Si Si6 0.826223 0.335219 0.704236
Si Si7 0.909400 0.667495 0.436156
Si Si8 0.074799 0.667279 0.418797
O O1 0.354272 0.500000 0.345293
O O2 0.396311 0.282857 0.270505
O O3 0.258323 0.312412 0.307269
O O4 0.350808 0.245887 0.393533
O O5 0.371980 0.269753 0.888917
O O6 0.492903 0.162322 0.928954
O O7 0.377413 0.000000 0.926019
O O8 0.384330 0.205905 0.014420
O O9 0.103892 0.240182 0.857511
O O10 0.979080 0.199617 0.796269
O O11 0.079558 0.000000 0.808315
O O12 0.622034 0.500000 0.181614
O O13 0.655861 0.742664 0.233526
O O14 0.106054 0.500000 0.899273
O O15 0.844527 0.500000 0.716910
O O16 0.873652 0.273809 0.641241
O O17 0.899009 0.500000 0.429079
O O18 0.896000 0.718664 0.511629
O O19 0.991183 0.715998 0.410815
O O20 0.077266 0.500000 0.419738
#
# Coordination Sequence:
#
# PCOD8085489 Si02
#       8
#     8   8   8   8   8   8   8   8
#     4  10  21  34  47  68  98 129 159 191 232 281
#     4   8  14  26  44  68  97 123 150 189 236 282
#     4   9  18  31  46  67  97 127 153 190 239 282
#     4  10  19  30  47  71  96 122 156 197 236 277
#     4   8  14  25  44  70  95 120 154 193 230 276
#     4  10  20  34  50  66  92 130 163 192 230 279
#     4   9  17  32  54  75  95 120 154 197 237 276
#     4   8  16  32  53  75  95 120 157 195 233 278
#
# _framework density 18.229807999999998
#
# number of rings (size 3 to 8) (size 9 to 14) (size 15 to 20)
#    0.000    3.000    0.000    2.625    0.000    2.500 
#    0.000    4.375    0.000    0.750    0.000    0.000 
#    0.000    0.000    0.000    0.000    0.000    0.000 
#
# Total GULP energy -396693.380360 kJ/mol
# GULP energy per Si atom -12396.668136 kJ/mol
# Density = 1.818832 g / cm^3
# Si number density = 18.229808 Si / 1000 Ang^3
#
#
#
# Elastic Constant Matrix: (Units=GPa)
#
#
# Indices 1 2 3 4 5 6 
#
# 1 39.8954 29.0018 31.6168 0.0000 14.4211 0.0000
# 2 29.0018 71.5422 59.4865 0.0000 19.1281 0.0000
# 3 31.6168 59.4865 123.3154 0.0000 30.7354 0.0000
# 4 0.0000 0.0000 0.0000 29.9433 0.0000 4.1596
# 5 14.4211 19.1281 30.7354 0.0000 16.1881 0.0000
# 6 0.0000 0.0000 0.0000 4.1596 0.0000 15.5629
#
#
#
# Elastic Compliance Matrix: (Units=1/GPa)
#
#
# Indices 1 2 3 4 5 6 
#
# 1 0.041516 -0.010666 0.001097 0.000000 -0.026463 0.000000
# 2 -0.010666 0.027325 -0.009050 0.000000 -0.005602 0.000000
# 3 0.001097 -0.009050 0.018550 0.000000 -0.025504 0.000000
# 4 0.000000 0.000000 0.000000 0.034684 0.000000 -0.009270
# 5 -0.026463 -0.005602 -0.025504 0.000000 0.140390 0.000000
# 6 0.000000 0.000000 0.000000 -0.009270 0.000000 0.066733
#
#
# Mechanical properties :
#
#
# Convention : Reuss Voigt Hill
#
# Bulk Modulus (GPa) = 19.93948 52.77370 36.35659
# Shear Modulus (GPa) = 13.04952 19.98203 16.51578
#
# Velocity S-wave (km/s) = 2.67841 3.31436 3.01321
# Velocity P-wave (km/s) = 4.53065 6.60747 5.66504
#
# Compressibility (1/GPa) = 0.05015176
#
# Stress axis : x y z
#
# Youngs Moduli (GPa) = 24.08706 36.59692 53.90704
#
# Poissons Ratio (x) = 0.39036 -0.05913
# Poissons Ratio (y) = 0.25692 0.48787
# Poissons Ratio (z) = -0.02642 0.33121
#
# Static dielectric constant tensor:
#      x y z
#    x 3.076770 0.000000 -0.102420 
#    y 0.000000 3.222010 0.000000 
#    z -0.102420 0.000000 3.775120 
# 
# 
# High freq. dielectric constant tensor:
#      x y z
#    x 1.672290 0.000000 0.004650 
#    y 0.000000 1.689140 0.000000 
#    z 0.004650 0.000000 1.721350 
# 
# From -- ./inp_files/314188.got.cif
#   From: 2010.06.25/outbox.cif.g09.slc.cpg/sg12_158_cif.got.tgz:314188.got - 2010.06.28 00:19:55.
