data_PCOD8085711
_publ_section_title
;
Structure prediction by ZEFSAII (Michael W. Deem and Ramdas Pophale) SiO2 
 PCOD8085711
Probable space group: C 2/M
;
_chemical_formula_sum "Si O2"
_cell_formula_units_Z 64
_cell_length_a 22.609395
_cell_length_b 13.420037
_cell_length_c 16.322234
_cell_angle_alpha 90.000000
_cell_angle_beta 55.354467
_cell_angle_gamma 90.000000
_cell_volume 4074.325764
_symmetry_space_group_name_H-M "C 2/M"
_symmetry_group_IT_number 12
_symmetry_cell_setting 'monoclinic'
loop_
_space_group_symop_operation_xyz
x,y,z
-x,y,-z
-x,-y,-z
x,-y,z
1/2+x,1/2+y,z
1/2-x,1/2+y,-z
1/2-x,1/2-y,-z
1/2+x,1/2-y,z
loop_
_atom_site_type_symbol
_atom_site_label
_atom_site_fract_x
_atom_site_fract_y
_atom_site_fract_z
Si Si1 0.081733 0.882094 0.922038
Si Si2 0.274579 0.613525 0.928198
Si Si3 0.085394 0.113261 0.278233
Si Si4 0.082668 0.758524 0.437687
Si Si5 0.577608 0.383537 0.601881
Si Si6 0.786180 0.803511 0.094864
Si Si7 0.346933 0.616663 0.298146
Si Si8 0.792286 0.617080 0.685050
O O1 0.130793 0.824933 0.949385
O O2 0.102963 0.844333 0.815009
O O3 0.095289 0.000000 0.922154
O O4 0.000000 0.851609 0.000000
O O5 0.252229 0.500000 0.926056
O O6 0.357994 0.633943 0.838896
O O7 0.223483 0.685728 0.914985
O O8 0.263977 0.634052 0.032357
O O9 0.104808 0.180259 0.340381
O O10 0.005427 0.135989 0.308003
O O11 0.089974 0.000000 0.305613
O O12 0.098850 0.826566 0.503069
O O13 0.131270 0.660163 0.402656
O O14 0.000000 0.724343 0.500000
O O15 0.592209 0.500000 0.574949
O O16 0.626885 0.337777 0.636063
O O17 0.734248 0.836872 0.208874
O O18 0.359118 0.500000 0.295598
O O19 0.264325 0.642902 0.342873
O O20 0.800077 0.500000 0.691099
#
# Coordination Sequence:
#
# PCOD8085711 Si02
#       8
#     8   8   8   8   8   8   8   8
#     4   9  17  28  46  71  99 125 155 191 230 281
#     4  10  19  30  49  73  96 123 157 189 226 283
#     4   9  17  29  46  69  97 120 143 187 236 282
#     4  10  19  31  46  67  90 120 161 191 232 275
#     4   9  17  29  47  69  94 118 146 191 242 285
#     4  10  19  32  48  71  99 126 152 188 237 282
#     4   8  16  29  44  66  91 119 150 185 234 277
#     4  10  19  33  48  63  93 126 156 193 231 274
#
# _framework density 15.708121
#
# number of rings (size 3 to 8) (size 9 to 14) (size 15 to 20)
#    0.000    2.625    1.250    2.250    1.750    2.250 
#    0.000    0.000    0.000    0.375    0.000    0.000 
#    0.000    0.000    0.000    0.000    0.000    0.000 
#
# Total GULP energy -396723.538548 kJ/mol
# GULP energy per Si atom -12397.610580 kJ/mol
# Density = 1.567237 g / cm^3
# Si number density = 15.708121 Si / 1000 Ang^3
#
#
#
# Elastic Constant Matrix: (Units=GPa)
#
#
# Indices 1 2 3 4 5 6 
#
# 1 112.5795 54.6369 46.5473 0.0000 7.4199 0.0000
# 2 54.6369 76.8305 35.4214 0.0000 -1.5085 0.0000
# 3 46.5473 35.4214 55.9835 0.0000 1.7820 0.0000
# 4 0.0000 0.0000 0.0000 20.1602 0.0000 -2.8464
# 5 7.4199 -1.5085 1.7820 0.0000 26.3412 0.0000
# 6 0.0000 0.0000 0.0000 -2.8464 0.0000 23.5419
#
#
#
# Elastic Compliance Matrix: (Units=1/GPa)
#
#
# Indices 1 2 3 4 5 6 
#
# 1 0.016594 -0.007900 -0.008654 0.000000 -0.004541 0.000000
# 2 -0.007900 0.022227 -0.007622 0.000000 0.004014 0.000000
# 3 -0.008654 -0.007622 0.029881 0.000000 -0.000020 0.000000
# 4 0.000000 0.000000 0.000000 0.050464 0.000000 0.006101
# 5 -0.004541 0.004014 -0.000020 0.000000 0.039474 0.000000
# 6 0.000000 0.000000 0.000000 0.006101 0.000000 0.043215
#
#
# Mechanical properties :
#
#
# Convention : Reuss Voigt Hill
#
# Bulk Modulus (GPa) = 49.14254 57.62276 53.38265
# Shear Modulus (GPa) = 19.45595 21.26119 20.35857
#
# Velocity S-wave (km/s) = 3.52318 3.68301 3.60398
# Velocity P-wave (km/s) = 6.92121 7.40602 7.16771
#
# Compressibility (1/GPa) = 0.02034897
#
# Stress axis : x y z
#
# Youngs Moduli (GPa) = 60.26251 44.99121 33.46580
#
# Poissons Ratio (x) = 0.35543 0.28962
# Poissons Ratio (y) = 0.47607 0.25509
# Poissons Ratio (z) = 0.52152 0.34294
#
# Static dielectric constant tensor:
#      x y z
#    x 3.093520 0.000000 0.058360 
#    y 0.000000 2.816700 0.000000 
#    z 0.058360 0.000000 3.020290 
# 
# 
# High freq. dielectric constant tensor:
#      x y z
#    x 1.601770 0.000000 0.004770 
#    y 0.000000 1.576610 0.000000 
#    z 0.004770 0.000000 1.606670 
# 
# From -- ./inp_files/282886.got.cif
#   From: 2010.06.25/outbox.cif.g09.slc.cpg/sg12_142_cif.got.tgz:282886.got - 2010.06.28 00:19:55.
