data_PCOD8085775
_publ_section_title
;
Structure prediction by ZEFSAII (Michael W. Deem and Ramdas Pophale) SiO2 
 PCOD8085775
Probable space group: C 2/M
;
_chemical_formula_sum "Si O2"
_cell_formula_units_Z 56
_cell_length_a 8.715236
_cell_length_b 18.444172
_cell_length_c 21.568317
_cell_angle_alpha 90.000000
_cell_angle_beta 54.876038
_cell_angle_gamma 90.000000
_cell_volume 2835.695869
_symmetry_space_group_name_H-M "C 2/M"
_symmetry_group_IT_number 12
_symmetry_cell_setting 'monoclinic'
loop_
_space_group_symop_operation_xyz
x,y,z
-x,y,-z
-x,-y,-z
x,-y,z
1/2+x,1/2+y,z
1/2-x,1/2+y,-z
1/2-x,1/2-y,-z
1/2+x,1/2-y,z
loop_
_atom_site_type_symbol
_atom_site_label
_atom_site_fract_x
_atom_site_fract_y
_atom_site_fract_z
Si Si1 0.751338 0.687497 0.237225
Si Si2 0.322266 0.299952 0.318886
Si Si3 0.470061 0.917463 0.628769
Si Si4 0.666849 0.648363 0.927289
Si Si5 0.214849 0.195196 0.452338
Si Si6 0.505412 0.792300 0.068498
Si Si7 0.976640 0.420129 0.770797
O O1 0.532634 0.673559 0.280395
O O2 0.789947 0.768057 0.256736
O O3 0.845822 0.672072 0.148824
O O4 0.842983 0.630325 0.262952
O O5 0.272318 0.234541 0.376004
O O6 0.194039 0.369479 0.363988
O O7 0.666674 0.878608 0.567317
O O8 0.421724 0.919283 0.712243
O O9 0.473080 0.000000 0.601489
O O10 0.545044 0.707472 0.918390
O O11 0.792981 0.601983 0.852356
O O12 0.792500 0.692848 0.947887
O O13 0.500000 0.601270 0.000000
O O14 0.250000 0.250000 0.500000
O O15 0.000000 0.170753 0.500000
O O16 0.500000 0.825373 0.000000
O O17 0.034362 0.500000 0.779558
#
# Coordination Sequence:
#
# PCOD8085775 Si02
#       7
#     8   8   8   8   8   8   8
#     4  11  20  35  63  86 118 160 208 250 302 367
#     4  12  21  39  64  94 117 159 207 244 302 367
#     4  11  24  42  63  94 130 159 202 256 309 358
#     4  10  19  32  53  79 114 154 198 250 307 360
#     4  12  23  41  67  93 122 156 201 251 295 370
#     4  10  19  30  49  85 117 143 192 259 304 346
#     4  10  22  39  57  84 120 160 207 257 305 365
#
# _framework density 19.748239000000002
#
# number of rings (size 3 to 8) (size 9 to 14) (size 15 to 20)
#    0.000    1.143    4.286    4.286    0.000    2.286 
#    0.000    1.429    0.000    6.857    0.000    0.000 
#    0.000    0.571    0.000    0.000    0.000    0.000 
#
# Total GULP energy -347067.824356 kJ/mol
# GULP energy per Si atom -12395.279441 kJ/mol
# Density = 1.970329 g / cm^3
# Si number density = 19.748239 Si / 1000 Ang^3
#
#
#
# Elastic Constant Matrix: (Units=GPa)
#
#
# Indices 1 2 3 4 5 6 
#
# 1 83.0322 31.6516 39.6120 -0.0001 -36.1038 0.0002
# 2 31.6516 112.1611 28.0697 0.0000 -17.7563 0.0000
# 3 39.6120 28.0697 89.5620 -0.0001 -19.9633 0.0001
# 4 -0.0001 0.0000 -0.0001 20.3305 0.0001 -3.7125
# 5 -36.1038 -17.7563 -19.9633 0.0001 49.7152 -0.0001
# 6 0.0002 0.0000 0.0001 -3.7125 -0.0001 22.6912
#
#
#
# Elastic Compliance Matrix: (Units=1/GPa)
#
#
# Indices 1 2 3 4 5 6 
#
# 1 0.021022 -0.002576 -0.005813 0.000000 0.012012 0.000000
# 2 -0.002576 0.010272 -0.001844 0.000000 0.001057 0.000000
# 3 -0.005813 -0.001844 0.014527 0.000000 0.000953 0.000000
# 4 0.000000 0.000000 0.000000 0.050702 0.000000 0.008295
# 5 0.012012 0.001057 0.000953 0.000000 0.029598 0.000000
# 6 0.000000 0.000000 0.000000 0.008295 0.000000 0.045427
#
#
# Mechanical properties :
#
#
# Convention : Reuss Voigt Hill
#
# Bulk Modulus (GPa) = 39.44121 53.71352 46.57737
# Shear Modulus (GPa) = 24.94207 30.90885 27.92546
#
# Velocity S-wave (km/s) = 3.55773 3.96048 3.76450
# Velocity P-wave (km/s) = 6.07388 6.94061 6.52166
#
# Compressibility (1/GPa) = 0.02535419
#
# Stress axis : x y z
#
# Youngs Moduli (GPa) = 47.57029 97.35576 68.83809
#
# Poissons Ratio (x) = 0.25078 0.40014
# Poissons Ratio (y) = 0.12254 0.12695
# Poissons Ratio (z) = 0.27651 0.17955
#
# Static dielectric constant tensor:
#      x y z
#    x 3.584540 0.000000 0.003520 
#    y 0.000000 3.506660 0.000000 
#    z 0.003520 0.000000 3.942000 
# 
# 
# High freq. dielectric constant tensor:
#      x y z
#    x 1.772910 0.000000 -0.007460 
#    y 0.000000 1.737870 0.000000 
#    z -0.007460 0.000000 1.790580 
# 
# From -- ./inp_files/333299.got.cif
#   From: 2010.06.25/outbox.cif.g09.slc.cpg/sg12_167_cif.got.tgz:333299.got - 2010.06.28 00:19:55.
