data_PCOD8085595
_publ_section_title
;
Structure prediction by ZEFSAII (Michael W. Deem and Ramdas Pophale) SiO2 
 PCOD8085595
Probable space group: C 2/M
;
_chemical_formula_sum "Si O2"
_cell_formula_units_Z 64
_cell_length_a 24.548582
_cell_length_b 9.182461
_cell_length_c 15.439690
_cell_angle_alpha 90.000000
_cell_angle_beta 80.829860
_cell_angle_gamma 90.000000
_cell_volume 3435.878396
_symmetry_space_group_name_H-M "C 2/M"
_symmetry_group_IT_number 12
_symmetry_cell_setting 'monoclinic'
loop_
_space_group_symop_operation_xyz
x,y,z
-x,y,-z
-x,-y,-z
x,-y,z
1/2+x,1/2+y,z
1/2-x,1/2+y,-z
1/2-x,1/2-y,-z
1/2+x,1/2-y,z
loop_
_atom_site_type_symbol
_atom_site_label
_atom_site_fract_x
_atom_site_fract_y
_atom_site_fract_z
Si Si1 0.462625 0.834760 0.936934
Si Si2 0.568556 0.172923 0.236341
Si Si3 0.668048 0.170938 0.478309
Si Si4 0.948730 0.327636 0.567701
Si Si5 0.790615 0.336457 0.200671
Si Si6 0.785031 0.829777 0.372516
Si Si7 0.326174 0.663395 0.844881
Si Si8 0.335179 0.166367 0.008387
O O1 0.467763 0.770786 0.837166
O O2 0.483654 0.000000 0.926387
O O3 0.500000 0.751920 0.000000
O O4 0.400393 0.822952 0.983241
O O5 0.541357 0.218210 0.334518
O O6 0.628681 0.242427 0.216220
O O7 0.577436 0.000000 0.227287
O O8 0.610929 0.229261 0.450223
O O9 0.720011 0.205125 0.402650
O O10 0.676874 0.254591 0.565468
O O11 0.664525 0.000000 0.499318
O O12 0.948901 0.500000 0.558957
O O13 0.000000 0.261051 0.500000
O O14 0.812265 0.500000 0.215109
O O15 0.805516 0.231237 0.275685
O O16 0.725252 0.339274 0.205672
O O17 0.819276 0.273715 0.106899
O O18 0.796647 0.000000 0.373145
O O19 0.348067 0.500000 0.857094
O O20 0.307737 0.735038 0.940908
O O21 0.314013 0.000000 0.003622
#
# Coordination Sequence:
#
# PCOD8085595 Si02
#       8
#     8   8   8   8   8   8   8   8
#     4   8  14  27  47  71  95 122 160 201 240 288
#     4   9  17  31  51  73  99 129 166 209 250 298
#     4   9  18  34  53  73 101 131 166 214 260 304
#     4   9  17  31  52  80 104 126 168 222 269 304
#     4  10  20  32  46  72 104 131 163 204 250 298
#     4  10  20  33  52  75 100 135 173 206 249 309
#     4  10  19  30  48  72 100 132 167 203 243 298
#     4   9  18  32  48  69  99 130 163 205 250 295
#
# _framework density 18.626968999999999
#
# number of rings (size 3 to 8) (size 9 to 14) (size 15 to 20)
#    0.000    2.750    0.000    2.625    0.000    3.000 
#    2.250    0.625    0.000    7.500    0.000    0.000 
#    0.000    0.000    0.000    0.000    0.000    0.000 
#
# Total GULP energy -396630.473195 kJ/mol
# GULP energy per Si atom -12394.702287 kJ/mol
# Density = 1.858457 g / cm^3
# Si number density = 18.626969 Si / 1000 Ang^3
#
#
#
# Elastic Constant Matrix: (Units=GPa)
#
#
# Indices 1 2 3 4 5 6 
#
# 1 70.5870 11.1896 45.6581 0.0000 16.0797 0.0000
# 2 11.1896 45.5938 36.7007 0.0000 6.7206 0.0000
# 3 45.6581 36.7007 163.2039 0.0000 7.7816 0.0000
# 4 0.0000 0.0000 0.0000 23.2987 0.0000 3.1261
# 5 16.0797 6.7206 7.7816 0.0000 25.7110 0.0000
# 6 0.0000 0.0000 0.0000 3.1261 0.0000 17.1634
#
#
#
# Elastic Compliance Matrix: (Units=1/GPa)
#
#
# Indices 1 2 3 4 5 6 
#
# 1 0.019962 0.000991 -0.005276 0.000000 -0.011146 0.000000
# 2 0.000991 0.027548 -0.006188 0.000000 -0.005947 0.000000
# 3 -0.005276 -0.006188 0.008889 0.000000 0.002227 0.000000
# 4 0.000000 0.000000 0.000000 0.043996 0.000000 -0.008013
# 5 -0.011146 -0.005947 0.002227 0.000000 0.046745 0.000000
# 6 0.000000 0.000000 0.000000 -0.008013 0.000000 0.059723
#
#
# Mechanical properties :
#
#
# Convention : Reuss Voigt Hill
#
# Bulk Modulus (GPa) = 28.20791 51.83126 40.01959
# Shear Modulus (GPa) = 20.86581 25.62369 23.24475
#
# Velocity S-wave (km/s) = 3.35056 3.71296 3.53641
# Velocity P-wave (km/s) = 5.49043 6.80204 6.18112
#
# Compressibility (1/GPa) = 0.03545105
#
# Stress axis : x y z
#
# Youngs Moduli (GPa) = 50.09629 36.30075 112.50215
#
# Poissons Ratio (x) = -0.03597 0.59354
# Poissons Ratio (y) = -0.04964 0.69621
# Poissons Ratio (z) = 0.26430 0.22464
#
# Static dielectric constant tensor:
#      x y z
#    x 3.354950 0.000000 0.099070 
#    y 0.000000 3.215430 0.000000 
#    z 0.099070 0.000000 3.654980 
# 
# 
# High freq. dielectric constant tensor:
#      x y z
#    x 1.705880 0.000000 0.009060 
#    y 0.000000 1.690230 0.000000 
#    z 0.009060 0.000000 1.735070 
# 
# From -- ./inp_files/243785.got.cif
#   From: 2010.06.25/outbox.cif.g09.slc.cpg/sg12_122_cif.got.tgz:243785.got - 2010.06.28 00:19:55.
