data_PCOD8085849
_publ_section_title
;
Structure prediction by ZEFSAII (Michael W. Deem and Ramdas Pophale) SiO2 
 PCOD8085849
Probable space group: C 2/M
;
_chemical_formula_sum "Si O2"
_cell_formula_units_Z 64
_cell_length_a 19.831606
_cell_length_b 8.914014
_cell_length_c 24.382724
_cell_angle_alpha 90.000000
_cell_angle_beta 125.289116
_cell_angle_gamma 90.000000
_cell_volume 3518.318909
_symmetry_space_group_name_H-M "C 2/M"
_symmetry_group_IT_number 12
_symmetry_cell_setting 'monoclinic'
loop_
_space_group_symop_operation_xyz
x,y,z
-x,y,-z
-x,-y,-z
x,-y,z
1/2+x,1/2+y,z
1/2-x,1/2+y,-z
1/2-x,1/2-y,-z
1/2+x,1/2-y,z
loop_
_atom_site_type_symbol
_atom_site_label
_atom_site_fract_x
_atom_site_fract_y
_atom_site_fract_z
Si Si1 0.791908 0.825351 0.327772
Si Si2 0.233104 0.324659 0.178016
Si Si3 0.355376 0.674619 0.689206
Si Si4 0.888112 0.672935 0.210762
Si Si5 0.477135 0.324559 0.652049
Si Si6 0.011098 0.672155 0.176047
Si Si7 0.451309 0.823369 0.925772
Si Si8 0.467749 0.177200 0.425862
O O1 0.752013 0.790248 0.250225
O O2 0.729172 0.767031 0.345006
O O3 0.876642 0.737688 0.372947
O O4 0.808720 0.000000 0.344653
O O5 0.241166 0.500000 0.169137
O O6 0.295592 0.236270 0.167727
O O7 0.142055 0.261501 0.121673
O O8 0.335779 0.500000 0.686759
O O9 0.394739 0.710431 0.648174
O O10 0.419759 0.721486 0.766130
O O11 0.889186 0.500000 0.229144
O O12 0.924242 0.694101 0.166421
O O13 0.941804 0.764323 0.279502
O O14 0.490488 0.500000 0.649572
O O15 0.469274 0.244657 0.589588
O O16 0.042718 0.500000 0.196312
O O17 0.999187 0.715817 0.106816
O O18 0.446195 0.000000 0.931779
O O19 0.500000 0.749548 0.000000
O O20 0.500000 0.230082 0.500000
O O21 0.467237 0.000000 0.420074
#
# Coordination Sequence:
#
# PCOD8085849 Si02
#       8
#     8   8   8   8   8   8   8   8
#     4  11  21  35  57  83 111 142 181 226 268 318
#     4  10  19  32  52  79 107 135 178 228 265 313
#     4  10  20  33  54  83 112 141 178 225 272 316
#     4  10  19  30  51  78 107 140 174 223 273 317
#     4  10  20  35  55  81 111 143 180 221 267 320
#     4   9  17  32  51  76 106 138 182 223 266 321
#     4   9  17  32  54  76 102 140 183 223 264 316
#     4  11  24  40  58  82 112 144 179 220 268 324
#
# _framework density 18.190505999999999
#
# number of rings (size 3 to 8) (size 9 to 14) (size 15 to 20)
#    0.000    2.000    2.500    1.875    0.000    3.500 
#    0.000    1.250    0.000    1.500    0.000    0.000 
#    0.000    0.000    0.000    0.000    0.000    0.000 
#
# Total GULP energy -396838.446516 kJ/mol
# GULP energy per Si atom -12401.201454 kJ/mol
# Density = 1.814910 g / cm^3
# Si number density = 18.190506 Si / 1000 Ang^3
#
#
#
# Elastic Constant Matrix: (Units=GPa)
#
#
# Indices 1 2 3 4 5 6 
#
# 1 108.2613 33.6193 25.1122 0.0000 -16.8378 0.0000
# 2 33.6193 55.9573 23.6968 0.0000 -9.2722 0.0000
# 3 25.1122 23.6968 66.8655 0.0000 -19.2001 0.0000
# 4 0.0000 0.0000 0.0000 17.3880 0.0000 3.0524
# 5 -16.8378 -9.2722 -19.2001 0.0000 26.4694 0.0000
# 6 0.0000 0.0000 0.0000 3.0524 0.0000 31.9482
#
#
#
# Elastic Compliance Matrix: (Units=1/GPa)
#
#
# Indices 1 2 3 4 5 6 
#
# 1 0.012101 -0.006038 -0.001013 0.000000 0.004848 0.000000
# 2 -0.006038 0.024169 -0.006277 0.000000 0.000072 0.000000
# 3 -0.001013 -0.006277 0.021149 0.000000 0.012498 0.000000
# 4 0.000000 0.000000 0.000000 0.058492 0.000000 -0.005588
# 5 0.004848 0.000072 0.012498 0.000000 0.049954 0.000000
# 6 0.000000 0.000000 0.000000 -0.005588 0.000000 0.031835
#
#
# Mechanical properties :
#
#
# Convention : Reuss Voigt Hill
#
# Bulk Modulus (GPa) = 32.50642 43.99340 38.24991
# Shear Modulus (GPa) = 21.31211 25.07151 23.19181
#
# Velocity S-wave (km/s) = 3.42659 3.71654 3.57450
# Velocity P-wave (km/s) = 5.79345 6.53102 6.17326
#
# Compressibility (1/GPa) = 0.03076316
#
# Stress axis : x y z
#
# Youngs Moduli (GPa) = 82.63870 41.37617 47.28386
#
# Poissons Ratio (x) = 0.24983 0.04788
# Poissons Ratio (y) = 0.49898 0.29679
# Poissons Ratio (z) = 0.08369 0.25971
#
# Static dielectric constant tensor:
#      x y z
#    x 3.671690 0.000000 -0.143960 
#    y 0.000000 3.305040 0.000000 
#    z -0.143960 0.000000 3.271620 
# 
# 
# High freq. dielectric constant tensor:
#      x y z
#    x 1.722190 0.000000 -0.008330 
#    y 0.000000 1.701050 0.000000 
#    z -0.008330 0.000000 1.672800 
# 
# From -- ./inp_files/346197.got.cif
#   From: 2010.06.25/outbox.cif.g09.slc.cpg/sg12_174_cif.got.tgz:346197.got - 2010.06.28 00:19:55.
