data_PCOD8085614
_publ_section_title
;
Structure prediction by ZEFSAII (Michael W. Deem and Ramdas Pophale) SiO2 
 PCOD8085614
Probable space group: C 2/M
;
_chemical_formula_sum "Si O2"
_cell_formula_units_Z 56
_cell_length_a 20.318600
_cell_length_b 9.131078
_cell_length_c 18.730937
_cell_angle_alpha 90.000000
_cell_angle_beta 122.704533
_cell_angle_gamma 90.000000
_cell_volume 2924.239647
_symmetry_space_group_name_H-M "C 2/M"
_symmetry_group_IT_number 12
_symmetry_cell_setting 'monoclinic'
loop_
_space_group_symop_operation_xyz
x,y,z
-x,y,-z
-x,-y,-z
x,-y,z
1/2+x,1/2+y,z
1/2-x,1/2+y,-z
1/2-x,1/2-y,-z
1/2+x,1/2-y,z
loop_
_atom_site_type_symbol
_atom_site_label
_atom_site_fract_x
_atom_site_fract_y
_atom_site_fract_z
Si Si1 0.667224 0.676100 0.934913
Si Si2 0.152954 0.159763 0.493712
Si Si3 0.781481 0.159802 0.622741
Si Si4 0.074487 0.337421 0.247183
Si Si5 0.034327 0.667416 0.945891
Si Si6 0.418684 0.830682 0.237236
Si Si7 0.496099 0.170783 0.578523
O O1 0.673005 0.500000 0.941023
O O2 0.604370 0.731852 0.956556
O O3 0.642219 0.726526 0.839922
O O4 0.750000 0.750000 0.000000
O O5 0.202397 0.142726 0.451239
O O6 0.203625 0.241654 0.584722
O O7 0.076395 0.249237 0.427422
O O8 0.130549 0.000000 0.510847
O O9 0.854065 0.226523 0.707431
O O10 0.764559 0.000000 0.646362
O O11 0.106035 0.500000 0.283179
O O12 0.040814 0.328195 0.148354
O O13 0.005649 0.295861 0.260976
O O14 0.065751 0.500000 0.971613
O O15 0.000000 0.728857 0.000000
O O16 0.425529 0.799455 0.327110
O O17 0.395921 0.000000 0.207887
O O18 0.500000 0.231550 0.500000
O O19 0.477034 0.000000 0.567153
#
# Coordination Sequence:
#
# PCOD8085614 Si02
#       7
#     8   8   8   8   8   8   8
#     4  11  22  37  60  87 115 147 190 237 284 339
#     4  10  20  32  48  71 101 134 170 213 260 307
#     4  10  19  30  48  73 100 131 170 215 257 303
#     4   9  16  29  52  78 104 137 173 216 265 318
#     4   9  19  37  59  84 115 148 181 223 281 341
#     4   9  18  34  55  79 108 141 182 227 274 328
#     4  10  20  35  55  77 105 142 181 223 270 320
#
# _framework density 19.150276000000002
#
# number of rings (size 3 to 8) (size 9 to 14) (size 15 to 20)
#    0.000    2.286    1.429    3.000    0.000    4.571 
#    0.000    1.429    0.000    0.000    0.000    0.000 
#    0.000    0.000    0.000    0.000    0.000    0.000 
#
# Total GULP energy -347001.445042 kJ/mol
# GULP energy per Si atom -12392.908751 kJ/mol
# Density = 1.910669 g / cm^3
# Si number density = 19.150276 Si / 1000 Ang^3
#
#
#
# Elastic Constant Matrix: (Units=GPa)
#
#
# Indices 1 2 3 4 5 6 
#
# 1 40.3480 32.4237 41.7990 0.0000 -0.8303 0.0000
# 2 32.4237 111.8382 62.6555 0.0000 15.2176 0.0000
# 3 41.7990 62.6555 126.4001 0.0000 6.0535 0.0000
# 4 0.0000 0.0000 0.0000 31.5478 0.0000 5.2019
# 5 -0.8303 15.2176 6.0535 0.0000 33.7103 0.0000
# 6 0.0000 0.0000 0.0000 5.2019 0.0000 19.7913
#
#
#
# Elastic Compliance Matrix: (Units=1/GPa)
#
#
# Indices 1 2 3 4 5 6 
#
# 1 0.041393 -0.006910 -0.010552 0.000000 0.006034 0.000000
# 2 -0.006910 0.014257 -0.004505 0.000000 -0.005797 0.000000
# 3 -0.010552 -0.004505 0.013666 0.000000 -0.000681 0.000000
# 4 0.000000 0.000000 0.000000 0.033134 0.000000 -0.008709
# 5 0.006034 -0.005797 -0.000681 0.000000 0.032552 0.000000
# 6 0.000000 0.000000 0.000000 -0.008709 0.000000 0.052816
#
#
# Mechanical properties :
#
#
# Convention : Reuss Voigt Hill
#
# Bulk Modulus (GPa) = 39.39560 61.37141 50.38351
# Shear Modulus (GPa) = 20.81494 26.45709 23.63601
#
# Velocity S-wave (km/s) = 3.30043 3.72095 3.51698
# Velocity P-wave (km/s) = 5.92792 7.11179 6.54667
#
# Compressibility (1/GPa) = 0.02538354
#
# Stress axis : x y z
#
# Youngs Moduli (GPa) = 24.15894 70.14005 73.17327
#
# Poissons Ratio (x) = 0.48466 0.77211
# Poissons Ratio (y) = 0.16693 0.32961
# Poissons Ratio (z) = 0.25492 0.31595
#
# Static dielectric constant tensor:
#      x y z
#    x 3.182840 0.000000 -0.108220 
#    y 0.000000 3.667820 0.000000 
#    z -0.108220 0.000000 3.724640 
# 
# 
# High freq. dielectric constant tensor:
#      x y z
#    x 1.704500 0.000000 0.005220 
#    y 0.000000 1.746100 0.000000 
#    z 0.005220 0.000000 1.751260 
# 
# From -- ./inp_files/320254.got.cif
#   From: 2010.06.25/outbox.cif.g09.slc.cpg/sg12_161_cif.got.tgz:320254.got - 2010.06.28 00:19:55.
