data_PCOD8085601
_publ_section_title
;
Structure prediction by ZEFSAII (Michael W. Deem and Ramdas Pophale) SiO2 
 PCOD8085601
Probable space group: C 2/M
;
_chemical_formula_sum "Si O2"
_cell_formula_units_Z 48
_cell_length_a 22.880132
_cell_length_b 8.822542
_cell_length_c 26.569957
_cell_angle_alpha 90.000000
_cell_angle_beta 30.300368
_cell_angle_gamma 90.000000
_cell_volume 2706.031419
_symmetry_space_group_name_H-M "C 2/M"
_symmetry_group_IT_number 12
_symmetry_cell_setting 'monoclinic'
loop_
_space_group_symop_operation_xyz
x,y,z
-x,y,-z
-x,-y,-z
x,-y,z
1/2+x,1/2+y,z
1/2-x,1/2+y,-z
1/2-x,1/2-y,-z
1/2+x,1/2-y,z
loop_
_atom_site_type_symbol
_atom_site_label
_atom_site_fract_x
_atom_site_fract_y
_atom_site_fract_z
Si Si1 0.412235 0.167108 0.605376
Si Si2 0.888344 0.679262 0.114314
Si Si3 0.163924 0.832429 0.745170
Si Si4 0.356855 0.325709 0.741666
Si Si5 0.923038 0.322571 0.389061
Si Si6 0.774311 0.321500 0.403440
O O1 0.500000 0.230866 0.500000
O O2 0.293193 0.147367 0.666131
O O3 0.413424 0.298828 0.645373
O O4 0.448599 0.000000 0.600260
O O5 0.878207 0.500000 0.128513
O O6 0.902568 0.748240 0.159667
O O7 0.775721 0.736470 0.165657
O O8 0.000000 0.729731 0.000000
O O9 0.165398 0.739806 0.692094
O O10 0.108486 0.000000 0.777780
O O11 0.357767 0.500000 0.757053
O O12 0.442874 0.235128 0.715093
O O13 0.923017 0.500000 0.397630
O O14 0.863182 0.276529 0.381452
O O15 0.851229 0.250330 0.489450
O O16 0.756878 0.500000 0.411107
#
# Coordination Sequence:
#
# PCOD8085601 Si02
#       6
#     8   8   8   8   8   8
#     4   9  17  28  42  63  94 128 156 187 234 288
#     4   9  19  36  55  74  98 128 162 204 254 302
#     4  10  19  30  48  74 101 128 160 202 248 293
#     4  10  19  30  48  72  95 124 162 201 242 291
#     4  10  20  33  49  71 102 137 168 201 240 282
#     4  10  20  33  50  72 100 136 172 201 234 284
#
# _framework density 17.738151999999999
#
# number of rings (size 3 to 8) (size 9 to 14) (size 15 to 20)
#    0.000    2.333    0.000    3.000    0.000    5.333 
#    0.000    0.000    0.000    1.000    0.000    0.000 
#    0.000    0.000    0.000    0.000    0.000    0.000 
#
# Total GULP energy -297351.373223 kJ/mol
# GULP energy per Si atom -12389.640551 kJ/mol
# Density = 1.769778 g / cm^3
# Si number density = 17.738152 Si / 1000 Ang^3
#
#
#
# Elastic Constant Matrix: (Units=GPa)
#
#
# Indices 1 2 3 4 5 6 
#
# 1 73.7900 26.2850 30.3018 -0.0006 1.6725 0.0003
# 2 26.2850 68.9791 28.9799 -0.0028 3.1533 0.0031
# 3 30.3018 28.9799 90.1034 -0.0013 7.5252 0.0005
# 4 -0.0006 -0.0028 -0.0013 24.7762 0.0006 2.7830
# 5 1.6725 3.1533 7.5252 0.0006 26.4315 -0.0002
# 6 0.0003 0.0031 0.0005 2.7830 -0.0002 29.4623
#
#
#
# Elastic Compliance Matrix: (Units=1/GPa)
#
#
# Indices 1 2 3 4 5 6 
#
# 1 0.016958 -0.004710 -0.004246 0.000000 0.000698 0.000000
# 2 -0.004710 0.018076 -0.004174 0.000002 -0.000670 -0.000002
# 3 -0.004246 -0.004174 0.014141 0.000000 -0.003259 0.000000
# 4 0.000000 0.000002 0.000000 0.040794 -0.000001 -0.003853
# 5 0.000698 -0.000670 -0.003259 -0.000001 0.038797 0.000001
# 6 0.000000 -0.000002 0.000000 -0.003853 0.000001 0.034306
#
#
# Mechanical properties :
#
#
# Convention : Reuss Voigt Hill
#
# Bulk Modulus (GPa) = 43.64008 44.88954 44.26481
# Shear Modulus (GPa) = 25.38457 25.95440 25.66948
#
# Velocity S-wave (km/s) = 3.78705 3.82932 3.80825
# Velocity P-wave (km/s) = 6.61651 6.70174 6.65926
#
# Compressibility (1/GPa) = 0.02291471
#
# Stress axis : x y z
#
# Youngs Moduli (GPa) = 58.97069 55.32188 70.71601
#
# Poissons Ratio (x) = 0.26055 0.30028
# Poissons Ratio (y) = 0.27774 0.29516
# Poissons Ratio (z) = 0.25041 0.23091
#
# Static dielectric constant tensor:
#      x y z
#    x 3.334630 0.000000 -0.179550 
#    y 0.000000 3.371590 0.000000 
#    z -0.179550 0.000000 3.162640 
# 
# 
# High freq. dielectric constant tensor:
#      x y z
#    x 1.681310 0.000000 -0.005760 
#    y 0.000000 1.693000 0.000000 
#    z -0.005760 0.000000 1.659710 
# 
# From -- ./inp_files/236314.got.cif
#   From: 2010.06.25/outbox.cif.g09.slc.cpg/sg12_119_cif.got.tgz:236314.got - 2010.06.28 00:19:55.
