data_PCOD8085308
_publ_section_title
;
Structure prediction by ZEFSAII (Michael W. Deem and Ramdas Pophale) SiO2 
 PCOD8085308
Probable space group: C 2/M
;
_chemical_formula_sum "Si O2"
_cell_formula_units_Z 64
_cell_length_a 31.269118
_cell_length_b 9.269667
_cell_length_c 25.738294
_cell_angle_alpha 90.000000
_cell_angle_beta 30.176513
_cell_angle_gamma 90.000000
_cell_volume 3750.064184
_symmetry_space_group_name_H-M "C 2/M"
_symmetry_group_IT_number 12
_symmetry_cell_setting 'monoclinic'
loop_
_space_group_symop_operation_xyz
x,y,z
-x,y,-z
-x,-y,-z
x,-y,z
1/2+x,1/2+y,z
1/2-x,1/2+y,-z
1/2-x,1/2-y,-z
1/2+x,1/2-y,z
loop_
_atom_site_type_symbol
_atom_site_label
_atom_site_fract_x
_atom_site_fract_y
_atom_site_fract_z
Si Si1 0.269966 0.667779 0.555783
Si Si2 0.693025 0.166588 0.275060
Si Si3 0.063041 0.832879 0.147181
Si Si4 0.482264 0.157130 0.578918
Si Si5 0.186779 0.832018 0.103637
Si Si6 0.143507 0.830405 0.427506
Si Si7 0.280399 0.668286 0.084179
Si Si8 0.125889 0.170259 0.654288
O O1 0.247484 0.500000 0.576422
O O2 0.305110 0.711147 0.575067
O O3 0.183549 0.756016 0.637611
O O4 0.339762 0.709540 0.439135
O O5 0.615774 0.208387 0.316618
O O6 0.694172 0.263726 0.325312
O O7 0.776997 0.190029 0.150623
O O8 0.684732 0.000000 0.301676
O O9 0.094000 0.810402 0.174539
O O10 0.969383 0.763647 0.240022
O O11 0.053598 0.000000 0.144803
O O12 0.130798 0.770840 0.033406
O O13 0.500000 0.141727 0.500000
O O14 0.547576 0.270757 0.535327
O O15 0.494231 0.000000 0.593398
O O16 0.199164 0.755760 0.146159
O O17 0.209824 0.000000 0.083752
O O18 0.250000 0.750000 0.000000
O O19 0.136651 0.000000 0.426227
O O20 0.269439 0.500000 0.081012
O O21 0.127752 0.000000 0.661539
#
# Coordination Sequence:
#
# PCOD8085308 Si02
#       8
#     8   8   8   8   8   8   8   8
#     4   9  19  33  47  68  94 114 139 184 235 274
#     4   9  18  31  46  65  93 127 157 187 221 261
#     4   8  15  28  47  69  91 117 149 186 224 263
#     4   8  15  28  43  61  88 120 153 185 217 256
#     4   9  16  27  43  64  92 123 154 187 221 260
#     4  10  19  30  46  67  92 120 151 189 229 270
#     4   9  17  30  46  66  95 126 155 188 224 261
#     4   9  17  32  52  69  87 114 147 181 225 279
#
# _framework density 17.066374
#
# number of rings (size 3 to 8) (size 9 to 14) (size 15 to 20)
#    0.000    3.125    0.000    2.250    0.000    4.750 
#    0.000    4.375    0.000    0.750    0.000    5.250 
#    0.000    0.000    0.000    0.000    0.000    0.000 
#
# Total GULP energy -396421.089421 kJ/mol
# GULP energy per Si atom -12388.159044 kJ/mol
# Density = 1.702753 g / cm^3
# Si number density = 17.066374 Si / 1000 Ang^3
#
#
#
# Elastic Constant Matrix: (Units=GPa)
#
#
# Indices 1 2 3 4 5 6 
#
# 1 113.3623 53.5711 56.7379 0.0002 -5.5577 0.0000
# 2 53.5711 62.9540 32.4413 -0.0042 -1.9986 0.0021
# 3 56.7379 32.4413 89.9361 0.0028 -6.9222 -0.0002
# 4 0.0002 -0.0042 0.0028 10.6702 -0.0008 -0.3944
# 5 -5.5577 -1.9986 -6.9222 -0.0008 23.9986 0.0005
# 6 0.0000 0.0021 -0.0002 -0.3944 0.0005 28.6727
#
#
#
# Elastic Compliance Matrix: (Units=1/GPa)
#
#
# Indices 1 2 3 4 5 6 
#
# 1 0.017829 -0.011528 -0.007001 -0.000003 0.001150 0.000001
# 2 -0.011528 0.026969 -0.002545 0.000011 -0.001158 -0.000002
# 3 -0.007001 -0.002545 0.016683 -0.000005 0.002979 0.000000
# 4 -0.000003 0.000011 -0.000005 0.093766 0.000002 0.001290
# 5 0.001150 -0.001158 0.002979 0.000002 0.042698 -0.000001
# 6 0.000001 -0.000002 0.000000 0.001290 -0.000001 0.034894
#
#
# Mechanical properties :
#
#
# Convention : Reuss Voigt Hill
#
# Bulk Modulus (GPa) = 51.72269 61.30586 56.51428
# Shear Modulus (GPa) = 17.76631 20.90177 19.33404
#
# Velocity S-wave (km/s) = 3.22997 3.50342 3.36947
# Velocity P-wave (km/s) = 6.65454 7.23638 6.95155
#
# Compressibility (1/GPa) = 0.01933387
#
# Stress axis : x y z
#
# Youngs Moduli (GPa) = 56.08739 37.08008 59.94089
#
# Poissons Ratio (x) = 0.42744 0.41967
# Poissons Ratio (y) = 0.64655 0.15253
# Poissons Ratio (z) = 0.39269 0.09436
#
# Static dielectric constant tensor:
#      x y z
#    x 3.144800 0.000000 -0.179060 
#    y 0.000000 3.239430 0.000070 
#    z -0.179060 0.000070 3.815470 
# 
# 
# High freq. dielectric constant tensor:
#      x y z
#    x 1.636690 0.000000 0.004710 
#    y 0.000000 1.647700 0.000000 
#    z 0.004710 0.000000 1.651440 
# 
# From -- ./inp_files/353382.got.cif
#   From: 2010.06.25/outbox.cif.g09.slc.cpg/sg12_177_cif.got.tgz:353382.got - 2010.06.28 00:19:55.
