data_PCOD8085375
_publ_section_title
;
Structure prediction by ZEFSAII (Michael W. Deem and Ramdas Pophale) SiO2 
 PCOD8085375
Probable space group: C 2/M
;
_chemical_formula_sum "Si O2"
_cell_formula_units_Z 64
_cell_length_a 22.991454
_cell_length_b 9.052017
_cell_length_c 18.259820
_cell_angle_alpha 90.000000
_cell_angle_beta 92.895092
_cell_angle_gamma 90.000000
_cell_volume 3795.365807
_symmetry_space_group_name_H-M "C 2/M"
_symmetry_group_IT_number 12
_symmetry_cell_setting 'monoclinic'
loop_
_space_group_symop_operation_xyz
x,y,z
-x,y,-z
-x,-y,-z
x,-y,z
1/2+x,1/2+y,z
1/2-x,1/2+y,-z
1/2-x,1/2-y,-z
1/2+x,1/2-y,z
loop_
_atom_site_type_symbol
_atom_site_label
_atom_site_fract_x
_atom_site_fract_y
_atom_site_fract_z
Si Si1 0.302255 0.829620 0.083165
Si Si2 0.609800 0.328177 0.350598
Si Si3 0.318289 0.171791 0.931026
Si Si4 0.811462 0.828309 0.507529
Si Si5 0.873161 0.669410 0.382229
Si Si6 0.995937 0.669260 0.583609
Si Si7 0.671506 0.175715 0.225517
Si Si8 0.795139 0.328362 0.242740
O O1 0.247203 0.726399 0.073061
O O2 0.328364 0.803442 0.166221
O O3 0.282570 0.000000 0.074236
O O4 0.344556 0.791117 0.014801
O O5 0.603852 0.500000 0.333118
O O6 0.660849 0.296534 0.411800
O O7 0.548382 0.271859 0.376165
O O8 0.624658 0.243908 0.277086
O O9 0.349018 0.230102 0.858253
O O10 0.316172 0.000000 0.918575
O O11 0.750000 0.750000 0.500000
O O12 0.854916 0.767851 0.449343
O O13 0.801841 0.000000 0.492992
O O14 0.857338 0.500000 0.399421
O O15 0.941802 0.687461 0.373221
O O16 0.840056 0.724242 0.307473
O O17 0.973994 0.500000 0.584886
O O18 0.000000 0.722588 0.500000
O O19 0.736310 0.234820 0.246404
O O20 0.671667 0.000000 0.235271
O O21 0.778284 0.500000 0.251683
#
# Coordination Sequence:
#
# PCOD8085375 Si02
#       8
#     8   8   8   8   8   8   8   8
#     4   8  13  23  40  62  91 125 154 181 220 268
#     4  11  23  36  50  69  93 121 156 197 237 276
#     4   8  14  24  39  62  91 123 156 186 218 264
#     4  11  23  35  49  69  94 124 155 187 228 277
#     4  10  20  34  51  71  94 120 154 192 232 277
#     4  10  20  36  56  72  88 117 155 197 240 280
#     4  10  19  30  46  69  98 128 158 192 229 274
#     4   9  17  29  46  70 100 128 153 187 230 277
#
# _framework density 16.862670000000001
#
# number of rings (size 3 to 8) (size 9 to 14) (size 15 to 20)
#    0.000    2.375    1.250    1.875    0.000    6.250 
#    0.000    0.000    0.000    0.000    0.000    0.875 
#    0.000    7.000    0.000    0.000    0.000    0.000 
#
# Total GULP energy -396426.273912 kJ/mol
# GULP energy per Si atom -12388.321060 kJ/mol
# Density = 1.682429 g / cm^3
# Si number density = 16.862670 Si / 1000 Ang^3
#
#
#
# Elastic Constant Matrix: (Units=GPa)
#
#
# Indices 1 2 3 4 5 6 
#
# 1 58.0801 30.9390 30.3698 0.0000 -15.1255 0.0000
# 2 30.9390 36.5601 40.5423 0.0000 -13.2797 0.0000
# 3 30.3698 40.5423 126.4577 0.0000 -28.9752 0.0000
# 4 0.0000 0.0000 0.0000 20.0520 0.0000 -2.7269
# 5 -15.1255 -13.2797 -28.9752 0.0000 16.5901 0.0000
# 6 0.0000 0.0000 0.0000 -2.7269 0.0000 22.4269
#
#
#
# Elastic Compliance Matrix: (Units=1/GPa)
#
#
# Indices 1 2 3 4 5 6 
#
# 1 0.033956 -0.027718 0.004570 0.000000 0.016753 0.000000
# 2 -0.027718 0.068159 -0.014145 0.000000 0.004583 0.000000
# 3 0.004570 -0.014145 0.016181 0.000000 0.021105 0.000000
# 4 0.000000 0.000000 0.000000 0.050709 0.000000 0.006166
# 5 0.016753 0.004583 0.021105 0.000000 0.116079 0.000000
# 6 0.000000 0.000000 0.000000 0.006166 0.000000 0.045339
#
#
# Mechanical properties :
#
#
# Convention : Reuss Voigt Hill
#
# Bulk Modulus (GPa) = 22.87802 47.20002 35.03902
# Shear Modulus (GPa) = 11.91673 19.76358 15.84016
#
# Velocity S-wave (km/s) = 2.66125 3.42721 3.06823
# Velocity P-wave (km/s) = 4.79997 6.61155 5.77721
#
# Compressibility (1/GPa) = 0.04371008
#
# Stress axis : x y z
#
# Youngs Moduli (GPa) = 29.44982 14.67162 61.80197
#
# Poissons Ratio (x) = 0.40667 -0.28245
# Poissons Ratio (y) = 0.81629 0.87418
# Poissons Ratio (z) = -0.13459 0.20753
#
# Static dielectric constant tensor:
#      x y z
#    x 2.806930 0.000000 -0.017100 
#    y 0.000000 3.225790 0.000000 
#    z -0.017100 0.000000 3.974000 
# 
# 
# High freq. dielectric constant tensor:
#      x y z
#    x 1.600690 0.000000 -0.010030 
#    y 0.000000 1.654590 0.000000 
#    z -0.010030 0.000000 1.673060 
# 
# From -- ./inp_files/287620.got.cif
#   From: 2010.06.25/outbox.cif.g09.slc.cpg/sg12_144_cif.got.tgz:287620.got - 2010.06.28 00:19:55.
