data_PCOD8085884
_publ_section_title
;
Structure prediction by ZEFSAII (Michael W. Deem and Ramdas Pophale) SiO2 
 PCOD8085884
Probable space group: C 2/M
;
_chemical_formula_sum "Si O2"
_cell_formula_units_Z 56
_cell_length_a 18.132628
_cell_length_b 18.754392
_cell_length_c 17.883415
_cell_angle_alpha 90.000000
_cell_angle_beta 28.997110
_cell_angle_gamma 90.000000
_cell_volume 2948.125068
_symmetry_space_group_name_H-M "C 2/M"
_symmetry_group_IT_number 12
_symmetry_cell_setting 'monoclinic'
loop_
_space_group_symop_operation_xyz
x,y,z
-x,y,-z
-x,-y,-z
x,-y,z
1/2+x,1/2+y,z
1/2-x,1/2+y,-z
1/2-x,1/2-y,-z
1/2+x,1/2-y,z
loop_
_atom_site_type_symbol
_atom_site_label
_atom_site_fract_x
_atom_site_fract_y
_atom_site_fract_z
Si Si1 0.284704 0.081646 0.000941
Si Si2 0.733000 0.825968 0.119690
Si Si3 0.965382 0.186641 0.725498
Si Si4 0.435127 0.292547 0.206760
Si Si5 0.132524 0.846976 0.425899
Si Si6 0.668321 0.191076 0.341208
Si Si7 0.540510 0.134560 0.877246
O O1 0.340672 0.118539 0.873711
O O2 0.422923 0.085754 0.937128
O O3 0.246662 0.000000 0.018143
O O4 0.132572 0.115879 0.171698
O O5 0.660322 0.748515 0.170726
O O6 0.717987 0.844599 0.219653
O O7 0.911157 0.834052 0.946540
O O8 0.083283 0.206269 0.687312
O O9 0.077014 0.178177 0.556352
O O10 0.288637 0.331323 0.299225
O O11 0.461407 0.214361 0.151364
O O12 0.163666 0.777466 0.345319
O O13 0.286436 0.893799 0.291102
O O14 0.000000 0.890926 0.500000
O O15 0.500000 0.159108 0.500000
O O16 0.500000 0.132394 0.000000
#
# Coordination Sequence:
#
# PCOD8085884 Si02
#       7
#     8   8   8   8   8   8   8
#     4  11  24  39  57  80 113 155 195 232 278 338
#     4  11  18  37  58  84 111 146 187 239 282 331
#     4  11  19  36  58  86 113 146 189 240 287 331
#     4  10  19  30  54  85 113 145 180 233 285 332
#     4  10  19  31  53  90 119 142 181 236 286 332
#     4  10  19  30  52  88 120 135 176 235 292 327
#     4  11  20  33  56  82 118 149 185 227 280 338
#
# _framework density 18.995123
#
# number of rings (size 3 to 8) (size 9 to 14) (size 15 to 20)
#    0.000    1.429    5.714    3.857    0.000    3.714 
#    0.000    0.714    0.000    9.000    0.000    0.000 
#    0.000    0.000    0.000    0.000    0.000    0.000 
#
# Total GULP energy -346960.779473 kJ/mol
# GULP energy per Si atom -12391.456410 kJ/mol
# Density = 1.895189 g / cm^3
# Si number density = 18.995123 Si / 1000 Ang^3
#
#
#
# Elastic Constant Matrix: (Units=GPa)
#
#
# Indices 1 2 3 4 5 6 
#
# 1 156.3407 21.8425 57.5953 0.0044 -5.0863 0.0005
# 2 21.8425 61.9851 19.2489 0.0028 2.9284 0.0015
# 3 57.5953 19.2489 97.7634 0.0070 -4.4346 -0.0015
# 4 0.0044 0.0028 0.0070 7.0714 0.0042 -2.3422
# 5 -5.0863 2.9284 -4.4346 0.0042 39.2015 -0.0028
# 6 0.0005 0.0015 -0.0015 -2.3422 -0.0028 7.5091
#
#
#
# Elastic Compliance Matrix: (Units=1/GPa)
#
#
# Indices 1 2 3 4 5 6 
#
# 1 0.008316 -0.001545 -0.004564 -0.000001 0.000678 -0.000001
# 2 -0.001545 0.017581 -0.002633 -0.000004 -0.001812 -0.000006
# 3 -0.004564 -0.002633 0.013487 -0.000010 0.001130 0.000001
# 4 -0.000001 -0.000004 -0.000010 0.157709 -0.000014 0.049193
# 5 0.000678 -0.001812 0.001130 -0.000014 0.025860 0.000006
# 6 -0.000001 -0.000006 0.000001 0.049193 0.000006 0.148517
#
#
# Mechanical properties :
#
#
# Convention : Reuss Voigt Hill
#
# Bulk Modulus (GPa) = 45.66484 57.05141 51.35812
# Shear Modulus (GPa) = 12.61817 25.24990 18.93404
#
# Velocity S-wave (km/s) = 2.58017 3.64989 3.16061
# Velocity P-wave (km/s) = 5.74185 6.91825 6.35732
#
# Compressibility (1/GPa) = 0.02189869
#
# Stress axis : x y z
#
# Youngs Moduli (GPa) = 120.25662 56.88043 74.14367
#
# Poissons Ratio (x) = 0.08788 0.33839
# Poissons Ratio (y) = 0.18580 0.19526
# Poissons Ratio (z) = 0.54885 0.14979
#
# Static dielectric constant tensor:
#      x y z
#    x 4.361760 -0.000010 -0.287160 
#    y -0.000010 2.812980 0.000010 
#    z -0.287160 0.000010 3.770900 
# 
# 
# High freq. dielectric constant tensor:
#      x y z
#    x 1.769090 0.000000 -0.004480 
#    y 0.000000 1.660100 0.000000 
#    z -0.004480 0.000000 1.747880 
# 
# From -- ./inp_files/278993.got.cif
#   From: 2010.06.25/outbox.cif.g09.slc.cpg/sg12_140_cif.got.tgz:278993.got - 2010.06.28 00:19:55.
