data_PCOD8085788
_publ_section_title
;
Structure prediction by ZEFSAII (Michael W. Deem and Ramdas Pophale) SiO2 
 PCOD8085788
Probable space group: C 2/M
;
_chemical_formula_sum "Si O2"
_cell_formula_units_Z 56
_cell_length_a 19.090529
_cell_length_b 9.159651
_cell_length_c 32.801087
_cell_angle_alpha 90.000000
_cell_angle_beta 33.436049
_cell_angle_gamma 90.000000
_cell_volume 3160.395037
_symmetry_space_group_name_H-M "C 2/M"
_symmetry_group_IT_number 12
_symmetry_cell_setting 'monoclinic'
loop_
_space_group_symop_operation_xyz
x,y,z
-x,y,-z
-x,-y,-z
x,-y,z
1/2+x,1/2+y,z
1/2-x,1/2+y,-z
1/2-x,1/2-y,-z
1/2+x,1/2-y,z
loop_
_atom_site_type_symbol
_atom_site_label
_atom_site_fract_x
_atom_site_fract_y
_atom_site_fract_z
Si Si1 0.437796 0.666386 0.909409
Si Si2 0.860032 0.169194 0.080489
Si Si3 0.727843 0.168730 0.948424
Si Si4 0.063154 0.829331 0.510403
Si Si5 0.688122 0.827244 0.568428
Si Si6 0.539527 0.326719 0.352408
Si Si7 0.786448 0.833169 0.208087
O O1 0.415928 0.500000 0.934813
O O2 0.360761 0.701643 0.906019
O O3 0.586070 0.691760 0.827258
O O4 0.390745 0.767248 0.968913
O O5 0.759666 0.255788 0.101460
O O6 0.826219 0.205771 0.143008
O O7 0.845967 0.000000 0.077623
O O8 0.000000 0.224701 0.000000
O O9 0.701339 0.000000 0.955413
O O10 0.216259 0.797844 0.439492
O O11 0.000000 0.757472 0.500000
O O12 0.995958 0.772317 0.584573
O O13 0.037744 0.000000 0.520486
O O14 0.750000 0.750000 0.500000
O O15 0.548990 0.752616 0.639181
O O16 0.674114 0.000000 0.567878
O O17 0.523418 0.500000 0.355653
O O18 0.683157 0.279743 0.274402
O O19 0.736872 0.000000 0.235879
#
# Coordination Sequence:
#
# PCOD8085788 Si02
#       7
#     8   8   8   8   8   8   8
#     4   9  18  34  51  69  97 134 169 204 255 316
#     4  10  19  34  53  71  95 131 173 214 256 310
#     4  10  19  30  50  76  99 124 163 217 265 305
#     4   8  15  30  53  79 103 130 165 204 242 286
#     4   9  16  29  52  77 103 135 169 203 241 293
#     4  10  20  33  51  76 105 134 167 212 257 299
#     4  10  20  35  54  71  96 137 175 209 255 311
#
# _framework density 17.719304000000001
#
# number of rings (size 3 to 8) (size 9 to 14) (size 15 to 20)
#    0.000    2.571    1.429    2.143    0.000    2.000 
#    0.000    1.429    0.000   20.571    0.000    0.000 
#    0.000    0.000    0.000    0.000    0.000    0.000 
#
# Total GULP energy -347009.653563 kJ/mol
# GULP energy per Si atom -12393.201913 kJ/mol
# Density = 1.767897 g / cm^3
# Si number density = 17.719304 Si / 1000 Ang^3
#
#
#
# Elastic Constant Matrix: (Units=GPa)
#
#
# Indices 1 2 3 4 5 6 
#
# 1 125.6806 45.9429 44.8686 0.0017 -10.3897 0.0502
# 2 45.9429 62.2899 30.5530 -0.0006 -4.0526 0.0084
# 3 44.8686 30.5530 77.5982 -0.0013 -13.5436 0.0024
# 4 0.0017 -0.0006 -0.0013 28.3166 -0.0018 -3.3548
# 5 -10.3897 -4.0526 -13.5436 -0.0018 22.7600 0.0075
# 6 0.0502 0.0084 0.0024 -3.3548 0.0075 27.1577
#
#
#
# Elastic Compliance Matrix: (Units=1/GPa)
#
#
# Indices 1 2 3 4 5 6 
#
# 1 0.012005 -0.006803 -0.003925 -0.000003 0.001933 -0.000021
# 2 -0.006803 0.023784 -0.005840 0.000001 -0.002346 0.000006
# 3 -0.003925 -0.005840 0.018928 0.000002 0.008431 0.000005
# 4 -0.000003 0.000001 0.000002 0.035840 0.000001 0.004427
# 5 0.001933 -0.002346 0.008431 0.000001 0.049418 -0.000017
# 6 -0.000021 0.000006 0.000005 0.004427 -0.000017 0.037369
#
#
# Mechanical properties :
#
#
# Convention : Reuss Voigt Hill
#
# Bulk Modulus (GPa) = 46.34206 56.47752 51.40979
# Shear Modulus (GPa) = 22.97018 25.26046 24.11532
#
# Velocity S-wave (km/s) = 3.60437 3.77979 3.69313
# Velocity P-wave (km/s) = 6.59789 7.14085 6.87474
#
# Compressibility (1/GPa) = 0.02157867
#
# Stress axis : x y z
#
# Youngs Moduli (GPa) = 83.30028 42.04553 52.83266
#
# Poissons Ratio (x) = 0.28604 0.20739
# Poissons Ratio (y) = 0.56670 0.30855
# Poissons Ratio (z) = 0.32698 0.24556
#
# Static dielectric constant tensor:
#      x y z
#    x 3.921750 -0.000010 -0.406020 
#    y -0.000010 3.240730 -0.000050 
#    z -0.406020 -0.000050 3.383000 
# 
# 
# High freq. dielectric constant tensor:
#      x y z
#    x 1.697670 0.000000 -0.016360 
#    y 0.000000 1.677960 0.000000 
#    z -0.016360 0.000000 1.651210 
# 
# From -- ./inp_files/377669.got.cif
#   From: 2010.06.25/outbox.cif.g09.slc.cpg/sg12_189_cif.got.tgz:377669.got - 2010.06.28 00:19:55.
