data_PCOD8085697
_publ_section_title
;
Structure prediction by ZEFSAII (Michael W. Deem and Ramdas Pophale) SiO2 
 PCOD8085697
Probable space group: C 2/M
;
_chemical_formula_sum "Si O2"
_cell_formula_units_Z 56
_cell_length_a 19.896892
_cell_length_b 9.151988
_cell_length_c 21.345109
_cell_angle_alpha 90.000000
_cell_angle_beta 125.922330
_cell_angle_gamma 90.000000
_cell_volume 3147.631139
_symmetry_space_group_name_H-M "C 2/M"
_symmetry_group_IT_number 12
_symmetry_cell_setting 'monoclinic'
loop_
_space_group_symop_operation_xyz
x,y,z
-x,y,-z
-x,-y,-z
x,-y,z
1/2+x,1/2+y,z
1/2-x,1/2+y,-z
1/2-x,1/2-y,-z
1/2+x,1/2-y,z
loop_
_atom_site_type_symbol
_atom_site_label
_atom_site_fract_x
_atom_site_fract_y
_atom_site_fract_z
Si Si1 0.253807 0.169498 0.301411
Si Si2 0.007670 0.171918 0.135889
Si Si3 0.910747 0.672636 0.460192
Si Si4 0.109545 0.670034 0.289495
Si Si5 0.679218 0.672735 0.002706
Si Si6 0.335741 0.830097 0.545890
Si Si7 0.154734 0.830887 0.128196
O O1 0.348556 0.213262 0.368978
O O2 0.196734 0.268798 0.313328
O O3 0.232808 0.198071 0.216942
O O4 0.236417 0.000000 0.308605
O O5 0.912172 0.211478 0.072669
O O6 0.032907 0.248399 0.214671
O O7 0.069047 0.229506 0.113259
O O8 0.021842 0.000000 0.151217
O O9 0.920070 0.500000 0.469271
O O10 0.881056 0.734408 0.510175
O O11 0.000000 0.747316 0.500000
O O12 0.103816 0.500000 0.269951
O O13 0.106307 0.699259 0.362050
O O14 0.696703 0.500000 0.009994
O O15 0.750000 0.750000 0.000000
O O16 0.678603 0.737141 0.073660
O O17 0.250000 0.750000 0.500000
O O18 0.316006 0.000000 0.528253
O O19 0.138966 0.000000 0.106410
#
# Coordination Sequence:
#
# PCOD8085697 Si02
#       7
#     8   8   8   8   8   8   8
#     4   9  16  30  53  75  96 130 170 206 248 292
#     4   9  18  34  56  75  96 131 173 208 243 292
#     4   9  17  30  48  72 100 129 167 208 242 286
#     4  10  19  30  48  78 106 127 159 209 259 294
#     4  10  20  35  53  76 106 134 163 203 252 302
#     4  10  19  31  50  75 101 131 165 206 252 294
#     4   8  15  30  54  79  94 121 172 216 241 278
#
# _framework density 17.791156000000001
#
# number of rings (size 3 to 8) (size 9 to 14) (size 15 to 20)
#    0.000    2.714    1.429    1.714    0.000    2.857 
#    2.571    2.857    0.000    6.000    0.000    0.000 
#    0.000    0.000    0.000    0.000    0.000    0.000 
#
# Total GULP energy -346981.762909 kJ/mol
# GULP energy per Si atom -12392.205818 kJ/mol
# Density = 1.775066 g / cm^3
# Si number density = 17.791156 Si / 1000 Ang^3
#
#
#
# Elastic Constant Matrix: (Units=GPa)
#
#
# Indices 1 2 3 4 5 6 
#
# 1 139.2212 31.8390 92.5874 0.0000 6.3345 0.0000
# 2 31.8390 36.1665 43.4230 0.0000 -0.5185 0.0000
# 3 92.5874 43.4230 157.1614 0.0000 6.4677 0.0000
# 4 0.0000 0.0000 0.0000 22.7891 0.0000 0.1641
# 5 6.3345 -0.5185 6.4677 0.0000 28.0426 0.0000
# 6 0.0000 0.0000 0.0000 0.1641 0.0000 21.9785
#
#
#
# Elastic Compliance Matrix: (Units=1/GPa)
#
#
# Indices 1 2 3 4 5 6 
#
# 1 0.012092 -0.003261 -0.006166 0.000000 -0.001370 0.000000
# 2 -0.003261 0.042585 -0.010002 0.000000 0.003831 0.000000
# 3 -0.006166 -0.010002 0.012831 0.000000 -0.001751 0.000000
# 4 0.000000 0.000000 0.000000 0.043883 0.000000 -0.000328
# 5 -0.001370 0.003831 -0.001751 0.000000 0.036444 0.000000
# 6 0.000000 0.000000 0.000000 -0.000328 0.000000 0.045502
#
#
# Mechanical properties :
#
#
# Convention : Reuss Voigt Hill
#
# Bulk Modulus (GPa) = 34.90588 74.24976 54.57782
# Shear Modulus (GPa) = 20.68292 25.54203 23.11248
#
# Velocity S-wave (km/s) = 3.41330 3.79312 3.60821
# Velocity P-wave (km/s) = 5.93267 7.81078 6.93559
#
# Compressibility (1/GPa) = 0.02864847
#
# Stress axis : x y z
#
# Youngs Moduli (GPa) = 82.70214 23.48236 77.93534
#
# Poissons Ratio (x) = 0.07658 0.48055
# Poissons Ratio (y) = 0.26971 0.77955
# Poissons Ratio (z) = 0.50994 0.23488
#
# Static dielectric constant tensor:
#      x y z
#    x 3.456130 0.000000 -0.030230 
#    y 0.000000 3.014260 0.000000 
#    z -0.030230 0.000000 3.599800 
# 
# 
# High freq. dielectric constant tensor:
#      x y z
#    x 1.671910 0.000000 -0.000660 
#    y 0.000000 1.653680 0.000000 
#    z -0.000660 0.000000 1.707600 
# 
# From -- ./inp_files/314415.got.cif
#   From: 2010.06.25/outbox.cif.g09.slc.cpg/sg12_158_cif.got.tgz:314415.got - 2010.06.28 00:19:55.
