data_PCOD8085030
_publ_section_title
;
Structure prediction by ZEFSAII (Michael W. Deem and Ramdas Pophale) SiO2 
 PCOD8085030
Probable space group: C 2/M
;
_chemical_formula_sum "Si O2"
_cell_formula_units_Z 64
_cell_length_a 32.827026
_cell_length_b 13.380695
_cell_length_c 9.188858
_cell_angle_alpha 90.000000
_cell_angle_beta 96.751594
_cell_angle_gamma 90.000000
_cell_volume 4008.201149
_symmetry_space_group_name_H-M "C 2/M"
_symmetry_group_IT_number 12
_symmetry_cell_setting 'monoclinic'
loop_
_space_group_symop_operation_xyz
x,y,z
-x,y,-z
-x,-y,-z
x,-y,z
1/2+x,1/2+y,z
1/2-x,1/2+y,-z
1/2-x,1/2-y,-z
1/2+x,1/2-y,z
loop_
_atom_site_type_symbol
_atom_site_label
_atom_site_fract_x
_atom_site_fract_y
_atom_site_fract_z
Si Si1 0.080056 0.618054 0.372214
Si Si2 0.258474 0.214659 0.664155
Si Si3 0.997563 0.618682 0.835195
Si Si4 0.258599 0.111848 0.137902
Si Si5 0.798842 0.887232 0.154792
Si Si6 0.843985 0.300671 0.096827
Si Si7 0.841615 0.382280 0.778343
Si Si8 0.920927 0.618513 0.298001
O O1 0.075311 0.500000 0.374337
O O2 0.122897 0.649834 0.318405
O O3 0.078180 0.658382 0.536180
O O4 0.042549 0.663204 0.262152
O O5 0.250000 0.250000 0.500000
O O6 0.264905 0.312703 0.765986
O O7 0.219130 0.150049 0.698786
O O8 0.298922 0.147078 0.686278
O O9 0.994545 0.500000 0.841055
O O10 0.037141 0.652094 0.760967
O O11 0.000000 0.662413 0.000000
O O12 0.306537 0.136423 0.148029
O O13 0.253082 0.000000 0.197268
O O14 0.239824 0.121936 0.969717
O O15 0.835812 0.817662 0.114578
O O16 0.815598 0.000000 0.173501
O O17 0.884481 0.327651 0.199901
O O18 0.849882 0.323795 0.930313
O O19 0.842141 0.500000 0.811740
O O20 0.914374 0.500000 0.286517
#
# Coordination Sequence:
#
# PCOD8085030 Si02
#       8
#     8   8   8   8   8   8   8   8
#     4   9  19  30  43  66  99 134 160 193 238 286
#     4  11  22  33  48  71  98 129 164 206 249 294
#     4   9  16  29  46  66  94 130 165 193 231 286
#     4  10  19  34  52  68  92 126 168 207 245 287
#     4  10  20  37  54  68  93 129 168 211 253 289
#     4  11  19  32  50  73  92 123 166 204 241 289
#     4  11  20  32  48  69  99 131 166 203 243 287
#     4  10  19  29  46  71 100 130 160 196 238 286
#
# _framework density 15.967263000000001
#
# number of rings (size 3 to 8) (size 9 to 14) (size 15 to 20)
#    0.000    1.875    2.500    3.375    3.500    4.500 
#    0.000    0.000    0.000    0.000    0.000    0.000 
#    0.000    7.500    0.000    0.000    0.000    0.250 
#
# Total GULP energy -396850.054320 kJ/mol
# GULP energy per Si atom -12401.564197 kJ/mol
# Density = 1.593092 g / cm^3
# Si number density = 15.967263 Si / 1000 Ang^3
#
#
#
# Elastic Constant Matrix: (Units=GPa)
#
#
# Indices 1 2 3 4 5 6 
#
# 1 95.7670 28.2886 49.9527 0.0000 -10.0876 0.0000
# 2 28.2886 76.6919 28.9497 0.0000 -9.6101 0.0000
# 3 49.9527 28.9497 124.5064 0.0000 -10.4057 0.0000
# 4 0.0000 0.0000 0.0000 17.0817 0.0000 0.7703
# 5 -10.0876 -9.6101 -10.4057 0.0000 28.4171 0.0000
# 6 0.0000 0.0000 0.0000 0.7703 0.0000 17.2790
#
#
#
# Elastic Compliance Matrix: (Units=1/GPa)
#
#
# Indices 1 2 3 4 5 6 
#
# 1 0.014066 -0.003126 -0.004732 0.000000 0.002203 0.000000
# 2 -0.003126 0.015382 -0.002043 0.000000 0.003344 0.000000
# 3 -0.004732 -0.002043 0.010530 0.000000 0.001485 0.000000
# 4 0.000000 0.000000 0.000000 0.058660 0.000000 -0.002615
# 5 0.002203 0.003344 0.001485 0.000000 0.037647 0.000000
# 6 0.000000 0.000000 0.000000 -0.002615 0.000000 0.057990
#
#
# Mechanical properties :
#
#
# Convention : Reuss Voigt Hill
#
# Bulk Modulus (GPa) = 49.56568 56.81637 53.19102
# Shear Modulus (GPa) = 22.64464 25.20718 23.92591
#
# Velocity S-wave (km/s) = 3.76997 3.97757 3.87516
# Velocity P-wave (km/s) = 7.07529 7.53359 7.30804
#
# Compressibility (1/GPa) = 0.02017525
#
# Stress axis : x y z
#
# Youngs Moduli (GPa) = 71.09411 65.00905 94.97125
#
# Poissons Ratio (x) = 0.20321 0.44944
# Poissons Ratio (y) = 0.22223 0.19403
# Poissons Ratio (z) = 0.33644 0.13282
#
# Static dielectric constant tensor:
#      x y z
#    x 3.066800 0.000000 -0.057790 
#    y 0.000000 2.873280 0.000000 
#    z -0.057790 0.000000 3.182260 
# 
# 
# High freq. dielectric constant tensor:
#      x y z
#    x 1.610530 0.000000 -0.005070 
#    y 0.000000 1.572280 0.000000 
#    z -0.005070 0.000000 1.624300 
# 
# From -- ./inp_files/111268.got.cif
#   From: 2010.06.25/outbox.cif.g09.slc.cpg/sg12_56_cif.got.tgz:111268.got - 2010.06.28 00:19:55.
