data_PCOD8085145
_publ_section_title
;
Structure prediction by ZEFSAII (Michael W. Deem and Ramdas Pophale) SiO2 
 PCOD8085145
Probable space group: C 2/M
;
_chemical_formula_sum "Si O2"
_cell_formula_units_Z 64
_cell_length_a 28.603371
_cell_length_b 8.919142
_cell_length_c 21.348201
_cell_angle_alpha 90.000000
_cell_angle_beta 132.278833
_cell_angle_gamma 90.000000
_cell_volume 4029.606882
_symmetry_space_group_name_H-M "C 2/M"
_symmetry_group_IT_number 12
_symmetry_cell_setting 'monoclinic'
loop_
_space_group_symop_operation_xyz
x,y,z
-x,y,-z
-x,-y,-z
x,-y,z
1/2+x,1/2+y,z
1/2-x,1/2+y,-z
1/2-x,1/2-y,-z
1/2+x,1/2-y,z
loop_
_atom_site_type_symbol
_atom_site_label
_atom_site_fract_x
_atom_site_fract_y
_atom_site_fract_z
Si Si1 0.813357 0.176041 0.338744
Si Si2 0.648786 0.826174 0.406960
Si Si3 0.025542 0.822450 0.333845
Si Si4 0.257955 0.673361 0.415680
Si Si5 0.448656 0.678530 0.502625
Si Si6 0.200865 0.672638 0.999370
Si Si7 0.706984 0.322742 0.817559
Si Si8 0.395421 0.176773 0.184033
O O1 0.760898 0.213724 0.344448
O O2 0.880710 0.243712 0.420942
O O3 0.792378 0.241984 0.252656
O O4 0.821291 0.000000 0.338151
O O5 0.584359 0.732799 0.345142
O O6 0.691130 0.774967 0.503396
O O7 0.687474 0.795936 0.377483
O O8 0.632378 0.000000 0.400406
O O9 0.034177 0.763382 0.412637
O O10 0.962618 0.754785 0.248080
O O11 0.021535 0.000000 0.327266
O O12 0.277501 0.500000 0.444628
O O13 0.500000 0.741199 0.500000
O O14 0.448040 0.500000 0.502071
O O15 0.211387 0.500000 0.996817
O O16 0.222365 0.712146 0.090125
O O17 0.250000 0.750000 0.000000
O O18 0.130852 0.714374 0.910616
O O19 0.692402 0.500000 0.806211
O O20 0.651623 0.240979 0.805756
O O21 0.402896 0.000000 0.201637
#
# Coordination Sequence:
#
# PCOD8085145 Si02
#       8
#     8   8   8   8   8   8   8   8
#     4   9  15  26  45  67  88 113 150 187 213 251
#     4  10  19  30  46  66  89 114 145 186 229 265
#     4  11  20  31  47  64  86 117 155 187 216 262
#     4   9  17  31  48  65  86 117 150 182 222 265
#     4   9  16  25  40  61  84 112 146 180 208 240
#     4   8  15  27  43  64  88 115 145 182 221 257
#     4   9  16  28  48  69  88 116 154 184 213 258
#     4  10  19  30  43  63  95 123 146 181 224 262
#
# _framework density 15.882443
#
# number of rings (size 3 to 8) (size 9 to 14) (size 15 to 20)
#    0.000    2.625    1.250    1.875    0.000    3.000 
#    0.000    0.625    0.000    1.500    0.000    0.875 
#    0.000    7.000    0.000    0.000    0.000    0.000 
#
# Total GULP energy -396490.817182 kJ/mol
# GULP energy per Si atom -12390.338037 kJ/mol
# Density = 1.584629 g / cm^3
# Si number density = 15.882443 Si / 1000 Ang^3
#
#
#
# Elastic Constant Matrix: (Units=GPa)
#
#
# Indices 1 2 3 4 5 6 
#
# 1 107.6761 27.9972 66.6357 0.0000 2.9573 0.0000
# 2 27.9972 40.6722 35.1901 0.0000 4.5122 0.0001
# 3 66.6357 35.1901 141.7134 0.0000 5.4341 0.0000
# 4 0.0000 0.0000 0.0000 19.6227 0.0000 4.0638
# 5 2.9573 4.5122 5.4341 0.0000 14.8368 0.0000
# 6 0.0000 0.0001 0.0000 4.0638 0.0000 19.8823
#
#
#
# Elastic Compliance Matrix: (Units=1/GPa)
#
#
# Indices 1 2 3 4 5 6 
#
# 1 0.013850 -0.005036 -0.005289 0.000000 0.000708 0.000000
# 2 -0.005036 0.033831 -0.005758 0.000000 -0.007176 0.000000
# 3 -0.005289 -0.005758 0.011020 0.000000 -0.001231 0.000000
# 4 0.000000 0.000000 0.000000 0.053214 0.000000 -0.010876
# 5 0.000708 -0.007176 -0.001231 0.000000 0.069892 0.000000
# 6 0.000000 0.000000 0.000000 -0.010876 0.000000 0.052519
#
#
# Mechanical properties :
#
#
# Convention : Reuss Voigt Hill
#
# Bulk Modulus (GPa) = 37.68476 61.07860 49.38168
# Shear Modulus (GPa) = 18.15942 21.55094 19.85518
#
# Velocity S-wave (km/s) = 3.38504 3.68761 3.53956
# Velocity P-wave (km/s) = 6.24954 7.52805 6.91839
#
# Compressibility (1/GPa) = 0.02653593
#
# Stress axis : x y z
#
# Youngs Moduli (GPa) = 72.19995 29.55833 90.74015
#
# Poissons Ratio (x) = 0.14887 0.47994
# Poissons Ratio (y) = 0.36363 0.52245
# Poissons Ratio (z) = 0.38188 0.17019
#
# Static dielectric constant tensor:
#      x y z
#    x 3.013650 0.000000 -0.084590 
#    y 0.000000 2.899170 0.000000 
#    z -0.084590 0.000000 3.541730 
# 
# 
# High freq. dielectric constant tensor:
#      x y z
#    x 1.590030 0.000000 0.000110 
#    y 0.000000 1.596630 0.000000 
#    z 0.000110 0.000000 1.606380 
# 
# From -- ./inp_files/326915.got.cif
#   From: 2010.06.25/outbox.cif.g09.slc.cpg/sg12_164_cif.got.tgz:326915.got - 2010.06.28 00:19:55.
