data_PCOD8085588
_publ_section_title
;
Structure prediction by ZEFSAII (Michael W. Deem and Ramdas Pophale) SiO2 
 PCOD8085588
Probable space group: C 2/M
;
_chemical_formula_sum "Si O2"
_cell_formula_units_Z 48
_cell_length_a 23.527495
_cell_length_b 9.144490
_cell_length_c 20.665398
_cell_angle_alpha 90.000000
_cell_angle_beta 141.005803
_cell_angle_gamma 90.000000
_cell_volume 2797.669660
_symmetry_space_group_name_H-M "C 2/M"
_symmetry_group_IT_number 12
_symmetry_cell_setting 'monoclinic'
loop_
_space_group_symop_operation_xyz
x,y,z
-x,y,-z
-x,-y,-z
x,-y,z
1/2+x,1/2+y,z
1/2-x,1/2+y,-z
1/2-x,1/2-y,-z
1/2+x,1/2-y,z
loop_
_atom_site_type_symbol
_atom_site_label
_atom_site_fract_x
_atom_site_fract_y
_atom_site_fract_z
Si Si1 0.957367 0.667750 0.648652
Si Si2 0.234914 0.826304 0.720367
Si Si3 0.418688 0.672575 0.881019
Si Si4 0.564140 0.827584 0.616891
Si Si5 0.722749 0.835246 0.579223
Si Si6 0.926867 0.835602 0.743034
O O1 0.978091 0.500000 0.679331
O O2 0.852105 0.697569 0.540726
O O3 0.982298 0.747266 0.737889
O O4 0.016401 0.724486 0.640782
O O5 0.330489 0.758504 0.827218
O O6 0.157058 0.761941 0.697238
O O7 0.212258 0.780811 0.627155
O O8 0.238626 0.000000 0.729776
O O9 0.396690 0.500000 0.861479
O O10 0.445119 0.724112 0.831751
O O11 0.500000 0.714013 0.000000
O O12 0.500000 0.785560 0.500000
O O13 0.584324 0.000000 0.634477
O O14 0.820472 0.823294 0.633119
O O15 0.707938 0.000000 0.594673
O O16 0.962161 0.000000 0.769354
#
# Coordination Sequence:
#
# PCOD8085588 Si02
#       6
#     8   8   8   8   8   8
#     4  10  19  30  48  70  98 139 176 205 242 293
#     4  11  21  31  49  79 108 131 164 216 264 294
#     4   9  19  38  61  78  96 130 171 207 252 313
#     4  10  19  34  52  68  98 145 185 209 234 291
#     4   9  17  32  48  66  98 141 178 201 236 299
#     4   9  18  30  48  74 102 127 159 209 259 301
#
# _framework density 17.157138
#
# number of rings (size 3 to 8) (size 9 to 14) (size 15 to 20)
#    0.000    2.333    1.667    3.000    0.000    4.667 
#    0.000    0.000    0.000    1.000    0.000    0.000 
#    0.000    0.000    0.000    0.000    0.000    0.000 
#
# Total GULP energy -297551.814814 kJ/mol
# GULP energy per Si atom -12397.992284 kJ/mol
# Density = 1.711809 g / cm^3
# Si number density = 17.157138 Si / 1000 Ang^3
#
#
#
# Elastic Constant Matrix: (Units=GPa)
#
#
# Indices 1 2 3 4 5 6 
#
# 1 120.7606 52.8040 58.2457 0.0000 -11.5014 0.0000
# 2 52.8040 73.6027 43.2771 0.0000 1.8268 0.0000
# 3 58.2457 43.2771 93.6526 0.0000 -3.2451 0.0000
# 4 0.0000 0.0000 0.0000 18.0447 0.0000 -3.7439
# 5 -11.5014 1.8268 -3.2451 0.0000 17.2412 0.0000
# 6 0.0000 0.0000 0.0000 -3.7439 0.0000 30.1916
#
#
#
# Elastic Compliance Matrix: (Units=1/GPa)
#
#
# Indices 1 2 3 4 5 6 
#
# 1 0.015440 -0.008085 -0.005516 0.000000 0.010119 0.000000
# 2 -0.008085 0.023116 -0.005964 0.000000 -0.008965 0.000000
# 3 -0.005516 -0.005964 0.016869 0.000000 0.000127 0.000000
# 4 0.000000 0.000000 0.000000 0.056881 0.000000 0.007054
# 5 0.010119 -0.008965 0.000127 0.000000 0.065724 0.000000
# 6 0.000000 0.000000 0.000000 0.007054 0.000000 0.033996
#
#
# Mechanical properties :
#
#
# Convention : Reuss Voigt Hill
#
# Bulk Modulus (GPa) = 61.37028 66.29661 63.83345
# Shear Modulus (GPa) = 19.48629 22.00811 20.74720
#
# Velocity S-wave (km/s) = 3.37375 3.58542 3.48119
# Velocity P-wave (km/s) = 7.14307 7.47429 7.31056
#
# Compressibility (1/GPa) = 0.01629453
#
# Stress axis : x y z
#
# Youngs Moduli (GPa) = 64.76522 43.25960 59.28005
#
# Poissons Ratio (x) = 0.34975 0.32700
# Poissons Ratio (y) = 0.52362 0.35357
# Poissons Ratio (z) = 0.35726 0.25802
#
# Static dielectric constant tensor:
#      x y z
#    x 3.192310 0.000000 0.021240 
#    y 0.000000 3.082100 0.000000 
#    z 0.021240 0.000000 2.987790 
# 
# 
# High freq. dielectric constant tensor:
#      x y z
#    x 1.660910 0.000000 -0.002760 
#    y 0.000000 1.653610 0.000000 
#    z -0.002760 0.000000 1.631480 
# 
# From -- ./inp_files/229946.got.cif
#   From: 2010.06.25/outbox.cif.g09.slc.cpg/sg12_115_cif.got.tgz:229946.got - 2010.06.28 00:19:55.
