data_PCOD8085144
_publ_section_title
;
Structure prediction by ZEFSAII (Michael W. Deem and Ramdas Pophale) SiO2 
 PCOD8085144
Probable space group: C 2/M
;
_chemical_formula_sum "Si O2"
_cell_formula_units_Z 56
_cell_length_a 29.039594
_cell_length_b 8.812407
_cell_length_c 13.532520
_cell_angle_alpha 90.000000
_cell_angle_beta 76.845988
_cell_angle_gamma 90.000000
_cell_volume 3372.224900
_symmetry_space_group_name_H-M "C 2/M"
_symmetry_group_IT_number 12
_symmetry_cell_setting 'monoclinic'
loop_
_space_group_symop_operation_xyz
x,y,z
-x,y,-z
-x,-y,-z
x,-y,z
1/2+x,1/2+y,z
1/2-x,1/2+y,-z
1/2-x,1/2-y,-z
1/2+x,1/2-y,z
loop_
_atom_site_type_symbol
_atom_site_label
_atom_site_fract_x
_atom_site_fract_y
_atom_site_fract_z
Si Si1 0.445859 0.320537 0.639032
Si Si2 0.855588 0.673979 0.751902
Si Si3 0.269699 0.321995 0.891913
Si Si4 0.719237 0.178205 0.717208
Si Si5 0.050715 0.179117 0.585153
Si Si6 0.354933 0.321257 0.366303
Si Si7 0.803895 0.324751 0.572208
O O1 0.437882 0.500000 0.648661
O O2 0.408535 0.240617 0.729948
O O3 0.439691 0.257802 0.530014
O O4 0.498706 0.273850 0.649433
O O5 0.856506 0.500000 0.783911
O O6 0.822289 0.761390 0.845277
O O7 0.836520 0.697653 0.651348
O O8 0.272778 0.500000 0.904168
O O9 0.233962 0.276358 0.820910
O O10 0.250000 0.250000 0.000000
O O11 0.665824 0.234605 0.719994
O O12 0.751605 0.265485 0.622102
O O13 0.724418 0.000000 0.697869
O O14 0.091073 0.235637 0.641534
O O15 0.053004 0.000000 0.573565
O O16 0.352759 0.500000 0.348533
O O17 0.324600 0.279366 0.476831
O O18 0.801557 0.500000 0.539700
#
# Coordination Sequence:
#
# PCOD8085144 Si02
#       7
#     8   8   8   8   8   8   8
#     4   9  15  29  47  65  92 128 168 202 234 274
#     4  10  19  30  47  72  99 126 159 197 238 283
#     4  10  21  37  56  74  94 120 152 194 241 289
#     4  10  21  34  47  66  92 123 155 189 234 285
#     4   8  16  27  44  66  92 129 168 202 233 270
#     4  11  19  29  45  66  93 128 165 197 230 271
#     4  10  19  30  43  63  93 128 162 196 229 270
#
# _framework density 16.606245999999999
#
# number of rings (size 3 to 8) (size 9 to 14) (size 15 to 20)
#    0.000    2.286    1.429    3.429    0.000    2.857 
#    0.000    2.857    0.000    0.000    0.000    1.000 
#    0.000    8.000    0.000    0.000    0.000    0.000 
#
# Total GULP energy -347139.206997 kJ/mol
# GULP energy per Si atom -12397.828821 kJ/mol
# Density = 1.656845 g / cm^3
# Si number density = 16.606246 Si / 1000 Ang^3
#
#
#
# Elastic Constant Matrix: (Units=GPa)
#
#
# Indices 1 2 3 4 5 6 
#
# 1 139.8001 37.6881 52.4498 0.0000 -7.1231 0.0000
# 2 37.6881 58.6058 30.2872 0.0000 -3.7934 0.0000
# 3 52.4498 30.2872 75.5950 0.0000 -11.2846 0.0000
# 4 0.0000 0.0000 0.0000 23.9271 0.0000 -1.4415
# 5 -7.1231 -3.7934 -11.2846 0.0000 17.0003 0.0000
# 6 0.0000 0.0000 0.0000 -1.4415 0.0000 25.6277
#
#
#
# Elastic Compliance Matrix: (Units=1/GPa)
#
#
# Indices 1 2 3 4 5 6 
#
# 1 0.010266 -0.003679 -0.005693 0.000000 -0.000299 0.000000
# 2 -0.003679 0.022853 -0.006741 0.000000 -0.000916 0.000000
# 3 -0.005693 -0.006741 0.021421 0.000000 0.010329 0.000000
# 4 0.000000 0.000000 0.000000 0.041936 0.000000 0.002359
# 5 -0.000299 -0.000916 0.010329 0.000000 0.065349 0.000000
# 6 0.000000 0.000000 0.000000 0.002359 0.000000 0.039153
#
#
# Mechanical properties :
#
#
# Convention : Reuss Voigt Hill
#
# Bulk Modulus (GPa) = 44.81334 57.20567 51.00951
# Shear Modulus (GPa) = 20.77787 23.54940 22.16363
#
# Velocity S-wave (km/s) = 3.54108 3.76986 3.65726
# Velocity P-wave (km/s) = 6.61539 7.31247 6.97265
#
# Compressibility (1/GPa) = 0.02231478
#
# Stress axis : x y z
#
# Youngs Moduli (GPa) = 97.41340 43.75801 46.68309
#
# Poissons Ratio (x) = 0.16097 0.26578
# Poissons Ratio (y) = 0.35835 0.31467
# Poissons Ratio (z) = 0.55460 0.29495
#
# Static dielectric constant tensor:
#      x y z
#    x 3.556060 0.000000 0.070460 
#    y 0.000000 3.057370 0.000000 
#    z 0.070460 0.000000 2.781780 
# 
# 
# High freq. dielectric constant tensor:
#      x y z
#    x 1.647310 0.000000 0.000490 
#    y 0.000000 1.639880 0.000000 
#    z 0.000490 0.000000 1.591250 
# 
# From -- ./inp_files/247809.got.cif
#   From: 2010.06.25/outbox.cif.g09.slc.cpg/sg12_124_cif.got.tgz:247809.got - 2010.06.28 00:19:55.
