data_PCOD8085205
_publ_section_title
;
Structure prediction by ZEFSAII (Michael W. Deem and Ramdas Pophale) SiO2 
 PCOD8085205
Probable space group: C 2/M
;
_chemical_formula_sum "Si O2"
_cell_formula_units_Z 64
_cell_length_a 24.582860
_cell_length_b 8.562488
_cell_length_c 31.727262
_cell_angle_alpha 90.000000
_cell_angle_beta 149.928847
_cell_angle_gamma 90.000000
_cell_volume 3346.322496
_symmetry_space_group_name_H-M "C 2/M"
_symmetry_group_IT_number 12
_symmetry_cell_setting 'monoclinic'
loop_
_space_group_symop_operation_xyz
x,y,z
-x,y,-z
-x,-y,-z
x,-y,z
1/2+x,1/2+y,z
1/2-x,1/2+y,-z
1/2-x,1/2-y,-z
1/2+x,1/2-y,z
loop_
_atom_site_type_symbol
_atom_site_label
_atom_site_fract_x
_atom_site_fract_y
_atom_site_fract_z
Si Si1 0.642884 0.184933 0.407154
Si Si2 0.079587 0.185330 0.277575
Si Si3 0.892317 0.685430 0.792206
Si Si4 0.919842 0.185059 0.287357
Si Si5 0.153987 0.814604 0.852983
Si Si6 0.618420 0.669168 0.065228
Si Si7 0.116345 0.678968 0.978507
Si Si8 0.754742 0.316114 0.235180
O O1 0.750000 0.250000 0.500000
O O2 0.643397 0.238143 0.358920
O O3 0.542139 0.256029 0.364953
O O4 0.639062 0.000000 0.407369
O O5 0.133405 0.246864 0.270939
O O6 0.953225 0.240832 0.194104
O O7 0.089361 0.000000 0.287592
O O8 0.897551 0.500000 0.794867
O O9 0.792118 0.735888 0.754379
O O10 0.009915 0.758799 0.886002
O O11 0.851711 0.242959 0.199971
O O12 0.873378 0.255381 0.300163
O O13 0.920518 0.000000 0.290636
O O14 0.159460 0.000000 0.855785
O O15 0.262246 0.750529 0.950363
O O16 0.668309 0.500000 0.083506
O O17 0.680301 0.738632 0.146728
O O18 0.500000 0.629216 0.000000
O O19 0.612806 0.802163 0.026300
O O20 0.111687 0.500000 0.962459
O O21 0.756268 0.500000 0.243980
#
# Coordination Sequence:
#
# PCOD8085205 Si02
#       8
#     8   8   8   8   8   8   8   8
#     4  11  22  40  67  97 122 143 175 217 270 332
#     4  10  21  39  59  80 111 149 188 231 283 337
#     4  11  23  35  50  75 109 153 201 242 284 336
#     4  10  19  34  57  86 118 147 182 230 284 331
#     4   8  16  31  51  74 103 141 186 236 287 331
#     4  10  19  30  44  68 102 140 190 246 291 327
#     4  10  19  31  48  71 102 145 196 242 288 334
#     4  11  21  33  51  76 109 150 194 239 287 336
#
# _framework density 19.125471999999998
#
# number of rings (size 3 to 8) (size 9 to 14) (size 15 to 20)
#    0.000    1.875    2.500    3.375    0.000    1.750 
#    0.000    0.625    0.000    0.750    0.000    5.250 
#    0.000    0.000    0.000    0.000    0.000    0.000 
#
# Total GULP energy -396515.255291 kJ/mol
# GULP energy per Si atom -12391.101728 kJ/mol
# Density = 1.908194 g / cm^3
# Si number density = 19.125472 Si / 1000 Ang^3
#
#
#
# Elastic Constant Matrix: (Units=GPa)
#
#
# Indices 1 2 3 4 5 6 
#
# 1 46.6574 -49.1012 -0.7588 0.0012 -5.4360 -0.0017
# 2 -49.1012 -2.9133 -25.3939 0.0023 -2.4624 -0.0093
# 3 -0.7588 -25.3939 62.7213 0.0002 5.1346 -0.0007
# 4 0.0012 0.0023 0.0002 22.9650 0.0001 -0.4473
# 5 -5.4360 -2.4624 5.1346 0.0001 17.6040 0.0001
# 6 -0.0017 -0.0093 -0.0007 -0.4473 0.0001 31.5165
#
#
#
# Elastic Compliance Matrix: (Units=1/GPa)
#
#
# Indices 1 2 3 4 5 6 
#
# 1 0.004333 -0.016256 -0.006610 0.000001 0.000992 -0.000005
# 2 -0.016256 -0.014759 -0.005729 0.000002 -0.005413 -0.000005
# 3 -0.006610 -0.005729 0.014114 0.000001 -0.006959 -0.000002
# 4 0.000001 0.000002 0.000001 0.043557 0.000000 0.000618
# 5 0.000992 -0.005413 -0.006959 0.000000 0.058384 -0.000002
# 6 -0.000005 -0.000005 -0.000002 0.000618 -0.000002 0.031738
#
#
# Mechanical properties :
#
#
# Convention : Reuss Voigt Hill
#
# Bulk Modulus (GPa) = -18.69063 -4.89362 -11.79213
# Shear Modulus (GPa) = 28.29275 26.53173 27.41224
#
# Velocity S-wave (km/s) = 3.85037 3.72862 3.78998
# Velocity P-wave (km/s) = 3.15805 3.99656 3.60179
#
# Compressibility (1/GPa) = -0.05350273
#
# Stress axis : x y z
#
# Youngs Moduli (GPa) = 230.76235 -67.75479 70.85280
#
# Poissons Ratio (x) = -1.10142 0.46836
# Poissons Ratio (y) = 3.75128 0.40592
# Poissons Ratio (z) = 1.52542 -0.38817
#
# Static dielectric constant tensor:
#      x y z
#    x 3.587620 0.000000 0.200090 
#    y 0.000000 3.403590 0.000000 
#    z 0.200090 0.000000 3.428130 
# 
# 
# High freq. dielectric constant tensor:
#      x y z
#    x 1.741350 0.000000 0.014210 
#    y 0.000000 1.740710 0.000000 
#    z 0.014210 0.000000 1.715340 
# 
# From -- ./inp_files/382554.got.cif
#   From: 2010.06.25/outbox.cif.g09.slc.cpg/sg12_192_cif.got.tgz:382554.got - 2010.06.28 00:19:55.
