data_PCOD8085344
_publ_section_title
;
Structure prediction by ZEFSAII (Michael W. Deem and Ramdas Pophale) SiO2 
 PCOD8085344
Probable space group: C 2/M
;
_chemical_formula_sum "Si O2"
_cell_formula_units_Z 56
_cell_length_a 22.278552
_cell_length_b 9.040269
_cell_length_c 34.906670
_cell_angle_alpha 90.000000
_cell_angle_beta 152.557882
_cell_angle_gamma 90.000000
_cell_volume 3239.951322
_symmetry_space_group_name_H-M "C 2/M"
_symmetry_group_IT_number 12
_symmetry_cell_setting 'monoclinic'
loop_
_space_group_symop_operation_xyz
x,y,z
-x,y,-z
-x,-y,-z
x,-y,z
1/2+x,1/2+y,z
1/2-x,1/2+y,-z
1/2-x,1/2-y,-z
1/2+x,1/2-y,z
loop_
_atom_site_type_symbol
_atom_site_label
_atom_site_fract_x
_atom_site_fract_y
_atom_site_fract_z
Si Si1 0.384228 0.828030 0.120835
Si Si2 0.245878 0.663784 0.555473
Si Si3 0.133314 0.671636 0.756538
Si Si4 0.945176 0.835459 0.598517
Si Si5 0.981312 0.824294 0.737208
Si Si6 0.617279 0.171799 0.968572
Si Si7 0.938705 0.170332 0.925109
O O1 0.495519 0.744194 0.207862
O O2 0.416209 0.799455 0.094700
O O3 0.383880 0.000000 0.131366
O O4 0.244323 0.762483 0.053041
O O5 0.190471 0.500000 0.531892
O O6 0.122914 0.770225 0.478344
O O7 0.339882 0.660252 0.572304
O O8 0.333634 0.718337 0.641020
O O9 0.096543 0.500000 0.739946
O O10 0.086065 0.757301 0.767299
O O11 0.285785 0.697403 0.839259
O O12 0.066181 0.734663 0.680038
O O13 0.995879 0.000000 0.617806
O O14 0.999619 0.000000 0.747869
O O15 0.495397 0.227721 0.923790
O O16 0.644263 0.000000 0.991771
O O17 0.973344 0.000000 0.936103
O O18 0.000000 0.220681 0.000000
#
# Coordination Sequence:
#
# PCOD8085344 Si02
#       7
#     8   8   8   8   8   8   8
#     4  10  20  34  51  71  96 124 155 193 236 281
#     4   8  15  26  40  62  92 122 153 190 232 278
#     4  10  19  30  46  68  97 131 160 192 237 283
#     4   9  16  26  41  62  90 124 160 194 229 276
#     4  10  19  30  47  72  98 125 158 195 235 279
#     4  10  21  35  52  72  93 123 160 196 234 274
#     4  10  21  35  50  70  96 126 159 194 234 279
#
# _framework density 17.284210000000002
#
# number of rings (size 3 to 8) (size 9 to 14) (size 15 to 20)
#    0.000    2.429    0.000    3.857    0.000    8.286 
#    0.000    0.000    0.000    0.000    0.000    1.000 
#    0.000    8.000    0.000    0.000    0.000    0.000 
#
# Total GULP energy -347210.291809 kJ/mol
# GULP energy per Si atom -12400.367565 kJ/mol
# Density = 1.724487 g / cm^3
# Si number density = 17.284210 Si / 1000 Ang^3
#
#
#
# Elastic Constant Matrix: (Units=GPa)
#
#
# Indices 1 2 3 4 5 6 
#
# 1 49.7030 36.0533 33.9025 -0.0007 -3.7904 0.0016
# 2 36.0533 111.2147 69.0758 -0.0010 -8.2133 0.0030
# 3 33.9025 69.0758 142.9018 -0.0004 -16.4548 0.0007
# 4 -0.0007 -0.0010 -0.0004 33.9412 -0.0001 -2.6472
# 5 -3.7904 -8.2133 -16.4548 -0.0001 17.2066 -0.0005
# 6 0.0016 0.0030 0.0007 -2.6472 -0.0005 23.6451
#
#
#
# Elastic Compliance Matrix: (Units=1/GPa)
#
#
# Indices 1 2 3 4 5 6 
#
# 1 0.027257 -0.006889 -0.003173 0.000000 -0.000318 -0.000001
# 2 -0.006889 0.014591 -0.005384 0.000000 0.000298 -0.000001
# 3 -0.003173 -0.005384 0.011212 0.000000 0.007452 0.000001
# 4 0.000000 0.000000 0.000000 0.029722 0.000000 0.003328
# 5 -0.000318 0.000298 0.007452 0.000000 0.065316 0.000001
# 6 -0.000001 -0.000001 0.000001 0.003328 0.000001 0.042665
#
#
# Mechanical properties :
#
#
# Convention : Reuss Voigt Hill
#
# Bulk Modulus (GPa) = 45.11305 64.65364 54.88335
# Shear Modulus (GPa) = 21.82992 25.94443 23.88717
#
# Velocity S-wave (km/s) = 3.55772 3.87854 3.72159
# Velocity P-wave (km/s) = 6.56002 7.58583 7.09150
#
# Compressibility (1/GPa) = 0.02216653
#
# Stress axis : x y z
#
# Youngs Moduli (GPa) = 36.68844 68.53528 89.19397
#
# Poissons Ratio (x) = 0.47211 0.28304
# Poissons Ratio (y) = 0.25273 0.48026
# Poissons Ratio (z) = 0.11643 0.36902
#
# Static dielectric constant tensor:
#      x y z
#    x 2.758180 0.000000 -0.164000 
#    y 0.000000 3.415560 0.000000 
#    z -0.164000 0.000000 3.497820 
# 
# 
# High freq. dielectric constant tensor:
#      x y z
#    x 1.612010 0.000000 -0.012330 
#    y 0.000000 1.682810 0.000000 
#    z -0.012330 0.000000 1.680740 
# 
# From -- ./inp_files/319716.got.cif
#   From: 2010.06.25/outbox.cif.g09.slc.cpg/sg12_160_cif.got.tgz:319716.got - 2010.06.28 00:19:55.
