data_PCOD8085899
_publ_section_title
;
Structure prediction by ZEFSAII (Michael W. Deem and Ramdas Pophale) SiO2 
 PCOD8085899
Probable space group: C 2/M
;
_chemical_formula_sum "Si O2"
_cell_formula_units_Z 64
_cell_length_a 20.515994
_cell_length_b 9.328537
_cell_length_c 24.678152
_cell_angle_alpha 90.000000
_cell_angle_beta 130.058356
_cell_angle_gamma 90.000000
_cell_volume 3614.940551
_symmetry_space_group_name_H-M "C 2/M"
_symmetry_group_IT_number 12
_symmetry_cell_setting 'monoclinic'
loop_
_space_group_symop_operation_xyz
x,y,z
-x,y,-z
-x,-y,-z
x,-y,z
1/2+x,1/2+y,z
1/2-x,1/2+y,-z
1/2-x,1/2-y,-z
1/2+x,1/2-y,z
loop_
_atom_site_type_symbol
_atom_site_label
_atom_site_fract_x
_atom_site_fract_y
_atom_site_fract_z
Si Si1 0.519447 0.166060 0.424065
Si Si2 0.783788 0.331253 0.714565
Si Si3 0.363401 0.166666 0.415357
Si Si4 0.281476 0.332315 0.201892
Si Si5 0.741150 0.334089 0.079782
Si Si6 0.628903 0.337109 0.920470
Si Si7 0.548774 0.664271 0.221078
Si Si8 0.976458 0.833179 0.299666
O O1 0.434018 0.214772 0.409483
O O2 0.601101 0.196281 0.505474
O O3 0.530407 0.253600 0.374733
O O4 0.513534 0.000000 0.406205
O O5 0.784111 0.500000 0.705028
O O6 0.720977 0.260319 0.637222
O O7 0.752853 0.289682 0.757788
O O8 0.877706 0.271295 0.756769
O O9 0.340889 0.000000 0.395974
O O10 0.271819 0.500000 0.185114
O O11 0.225279 0.246958 0.127813
O O12 0.378892 0.280875 0.248483
O O13 0.758670 0.500000 0.100809
O O14 0.823501 0.270299 0.094068
O O15 0.657679 0.311311 0.997796
O O16 0.650996 0.500000 0.913737
O O17 0.528127 0.311248 0.862414
O O18 0.580867 0.500000 0.236246
O O19 0.517232 0.704793 0.264068
O O20 0.980767 0.000000 0.315062
#
# Coordination Sequence:
#
# PCOD8085899 Si02
#       8
#     8   8   8   8   8   8   8   8
#     4   9  18  32  54  83 111 137 173 224 267 309
#     4  11  23  37  55  80 109 142 180 223 267 316
#     4   9  18  34  54  79 111 144 174 212 271 323
#     4  10  20  36  54  77 111 143 175 221 272 318
#     4  10  19  30  54  86 108 135 180 227 265 311
#     4   9  18  35  54  77 111 145 176 217 272 320
#     4  10  21  38  57  75 106 148 179 214 268 325
#     4  10  19  34  56  80 106 141 181 219 268 318
#
# _framework density 17.704302999999999
#
# number of rings (size 3 to 8) (size 9 to 14) (size 15 to 20)
#    0.000    2.250    2.500    1.500    0.000    3.500 
#    0.000    2.500    0.000    3.750    0.000    0.000 
#    0.000    0.000    0.000    0.000    0.000    0.000 
#
# Total GULP energy -396873.982237 kJ/mol
# GULP energy per Si atom -12402.311945 kJ/mol
# Density = 1.766401 g / cm^3
# Si number density = 17.704303 Si / 1000 Ang^3
#
#
#
# Elastic Constant Matrix: (Units=GPa)
#
#
# Indices 1 2 3 4 5 6 
#
# 1 85.2197 45.2516 50.9210 0.0000 5.1212 0.0000
# 2 45.2516 75.1330 63.0143 0.0000 -0.3480 0.0000
# 3 50.9210 63.0143 127.1557 0.0000 0.2506 0.0000
# 4 0.0000 0.0000 0.0000 34.7416 0.0000 -2.9309
# 5 5.1212 -0.3480 0.2506 0.0000 24.6795 0.0000
# 6 0.0000 0.0000 0.0000 -2.9309 0.0000 29.4262
#
#
#
# Elastic Compliance Matrix: (Units=1/GPa)
#
#
# Indices 1 2 3 4 5 6 
#
# 1 0.018318 -0.008393 -0.003169 0.000000 -0.003887 0.000000
# 2 -0.008393 0.026627 -0.009839 0.000000 0.002217 0.000000
# 3 -0.003169 -0.009839 0.014008 0.000000 0.000377 0.000000
# 4 0.000000 0.000000 0.000000 0.029028 0.000000 0.002891
# 5 -0.003887 0.002217 0.000377 0.000000 0.041353 0.000000
# 6 0.000000 0.000000 0.000000 0.002891 0.000000 0.034271
#
#
# Mechanical properties :
#
#
# Convention : Reuss Voigt Hill
#
# Bulk Modulus (GPa) = 61.91088 67.32026 64.61557
# Shear Modulus (GPa) = 23.60822 26.32424 24.96623
#
# Velocity S-wave (km/s) = 3.65564 3.86020 3.75931
# Velocity P-wave (km/s) = 7.27073 7.61416 7.44443
#
# Compressibility (1/GPa) = 0.01615225
#
# Stress axis : x y z
#
# Youngs Moduli (GPa) = 54.59073 37.55620 71.38664
#
# Poissons Ratio (x) = 0.31522 0.22620
# Poissons Ratio (y) = 0.45819 0.70234
# Poissons Ratio (z) = 0.17298 0.36950
#
# Static dielectric constant tensor:
#      x y z
#    x 3.014690 0.000000 -0.047820 
#    y 0.000000 3.233280 0.000000 
#    z -0.047820 0.000000 3.427280 
# 
# 
# High freq. dielectric constant tensor:
#      x y z
#    x 1.654740 0.000000 -0.005240 
#    y 0.000000 1.685730 0.000000 
#    z -0.005240 0.000000 1.697670 
# 
# From -- ./inp_files/346119.got.cif
#   From: 2010.06.25/outbox.cif.g09.slc.cpg/sg12_174_cif.got.tgz:346119.got - 2010.06.28 00:19:55.
