data_PCOD8085893
_publ_section_title
;
Structure prediction by ZEFSAII (Michael W. Deem and Ramdas Pophale) SiO2 
 PCOD8085893
Probable space group: C 2/M
;
_chemical_formula_sum "Si O2"
_cell_formula_units_Z 64
_cell_length_a 19.865022
_cell_length_b 8.790095
_cell_length_c 19.733016
_cell_angle_alpha 90.000000
_cell_angle_beta 90.602260
_cell_angle_gamma 90.000000
_cell_volume 3445.498730
_symmetry_space_group_name_H-M "C 2/M"
_symmetry_group_IT_number 12
_symmetry_cell_setting 'monoclinic'
loop_
_space_group_symop_operation_xyz
x,y,z
-x,y,-z
-x,-y,-z
x,-y,z
1/2+x,1/2+y,z
1/2-x,1/2+y,-z
1/2-x,1/2-y,-z
1/2+x,1/2-y,z
loop_
_atom_site_type_symbol
_atom_site_label
_atom_site_fract_x
_atom_site_fract_y
_atom_site_fract_z
Si Si1 0.581263 0.823614 0.314921
Si Si2 0.589844 0.321722 0.172829
Si Si3 0.344312 0.323825 0.053393
Si Si4 0.194303 0.674704 0.417480
Si Si5 0.842685 0.176166 0.446687
Si Si6 0.519789 0.823516 0.923035
Si Si7 0.304268 0.176798 0.914215
Si Si8 0.522915 0.820430 0.573012
O O1 0.572396 0.720646 0.249257
O O2 0.655837 0.798664 0.346567
O O3 0.526962 0.764204 0.368815
O O4 0.569502 0.000000 0.295945
O O5 0.602174 0.500000 0.166399
O O6 0.528085 0.274128 0.125024
O O7 0.658241 0.233469 0.152768
O O8 0.364610 0.500000 0.053362
O O9 0.403423 0.228035 0.089254
O O10 0.275590 0.295226 0.094672
O O11 0.334417 0.272003 0.976316
O O12 0.186465 0.500000 0.441531
O O13 0.160908 0.777258 0.474809
O O14 0.272646 0.716992 0.408257
O O15 0.901922 0.264990 0.408880
O O16 0.859385 0.000000 0.442345
O O17 0.511956 0.000000 0.904371
O O18 0.500000 0.790237 0.000000
O O19 0.320018 0.000000 0.927868
O O20 0.500000 0.752378 0.500000
O O21 0.521387 0.000000 0.569520
#
# Coordination Sequence:
#
# PCOD8085893 Si02
#       8
#     8   8   8   8   8   8   8   8
#     4  10  21  39  60  78 108 154 197 233 282 348
#     4  12  25  39  58  84 117 153 194 241 290 344
#     4  10  20  34  58  89 117 145 185 239 287 328
#     4   9  18  35  55  78 109 148 187 224 276 341
#     4  10  19  30  53  86 115 140 178 237 286 323
#     4  11  22  37  60  87 116 153 194 236 286 345
#     4  10  20  36  57  84 116 150 188 229 283 344
#     4  10  19  35  58  82 110 150 192 230 280 343
#
# _framework density 18.574959
#
# number of rings (size 3 to 8) (size 9 to 14) (size 15 to 20)
#    0.000    1.750    2.500    2.625    0.000    3.750 
#    0.000    1.250    0.000    4.500    0.000    0.000 
#    0.000    0.000    0.000    0.000    0.000    0.000 
#
# Total GULP energy -396896.103759 kJ/mol
# GULP energy per Si atom -12403.003242 kJ/mol
# Density = 1.853268 g / cm^3
# Si number density = 18.574959 Si / 1000 Ang^3
#
#
#
# Elastic Constant Matrix: (Units=GPa)
#
#
# Indices 1 2 3 4 5 6 
#
# 1 128.1737 30.9416 46.1748 0.0000 -9.3266 0.0000
# 2 30.9416 35.0296 25.5610 0.0000 -4.4314 0.0000
# 3 46.1748 25.5610 85.6104 0.0000 -7.3764 0.0000
# 4 0.0000 0.0000 0.0000 26.0870 0.0000 0.0020
# 5 -9.3266 -4.4314 -7.3764 0.0000 24.5281 0.0000
# 6 0.0000 0.0000 0.0000 0.0020 0.0000 33.9595
#
#
#
# Elastic Compliance Matrix: (Units=1/GPa)
#
#
# Indices 1 2 3 4 5 6 
#
# 1 0.010885 -0.006668 -0.003724 0.000000 0.001814 0.000000
# 2 -0.006668 0.040863 -0.008404 0.000000 0.002320 0.000000
# 3 -0.003724 -0.008404 0.016370 0.000000 0.001989 0.000000
# 4 0.000000 0.000000 0.000000 0.038333 0.000000 -0.000002
# 5 0.001814 0.002320 0.001989 0.000000 0.042477 0.000000
# 6 0.000000 0.000000 0.000000 -0.000002 0.000000 0.029447
#
#
# Mechanical properties :
#
#
# Convention : Reuss Voigt Hill
#
# Bulk Modulus (GPa) = 32.75899 50.46317 41.61108
# Shear Modulus (GPa) = 22.10995 26.65734 24.38364
#
# Velocity S-wave (km/s) = 3.45383 3.79241 3.62707
# Velocity P-wave (km/s) = 5.79479 6.81196 6.32386
#
# Compressibility (1/GPa) = 0.03052597
#
# Stress axis : x y z
#
# Youngs Moduli (GPa) = 91.86848 24.47191 61.08775
#
# Poissons Ratio (x) = 0.16318 0.22748
# Poissons Ratio (y) = 0.61259 0.51340
# Poissons Ratio (z) = 0.34209 0.20567
#
# Static dielectric constant tensor:
#      x y z
#    x 3.709810 0.000000 -0.030250 
#    y 0.000000 3.399910 0.000000 
#    z -0.030250 0.000000 3.208470 
# 
# 
# High freq. dielectric constant tensor:
#      x y z
#    x 1.737210 0.000000 -0.002030 
#    y 0.000000 1.724710 0.000000 
#    z -0.002030 0.000000 1.687180 
# 
# From -- ./inp_files/281408.got.cif
#   From: 2010.06.25/outbox.cif.g09.slc.cpg/sg12_141_cif.got.tgz:281408.got - 2010.06.28 00:19:55.
