data_PCOD8085987
_publ_section_title
;
Structure prediction by ZEFSAII (Michael W. Deem and Ramdas Pophale) SiO2 
 PCOD8085987
Probable space group: C 2/M
;
_chemical_formula_sum "Si O2"
_cell_formula_units_Z 48
_cell_length_a 24.558952
_cell_length_b 9.282275
_cell_length_c 12.590534
_cell_angle_alpha 90.000000
_cell_angle_beta 96.353117
_cell_angle_gamma 90.000000
_cell_volume 2852.548897
_symmetry_space_group_name_H-M "C 2/M"
_symmetry_group_IT_number 12
_symmetry_cell_setting 'monoclinic'
loop_
_space_group_symop_operation_xyz
x,y,z
-x,y,-z
-x,-y,-z
x,-y,z
1/2+x,1/2+y,z
1/2-x,1/2+y,-z
1/2-x,1/2-y,-z
1/2+x,1/2-y,z
loop_
_atom_site_type_symbol
_atom_site_label
_atom_site_fract_x
_atom_site_fract_y
_atom_site_fract_z
Si Si1 0.683513 0.330952 0.081473
Si Si2 0.386645 0.833539 0.330369
Si Si3 0.989588 0.667224 0.683570
Si Si4 0.597523 0.662846 0.235642
Si Si5 0.808402 0.331590 0.126034
Si Si6 0.913152 0.836763 0.534897
O O1 0.677761 0.500000 0.060836
O O2 0.643019 0.276143 0.165278
O O3 0.745028 0.290401 0.129965
O O4 0.667150 0.251145 0.969864
O O5 0.445867 0.807342 0.289832
O O6 0.341175 0.781479 0.237124
O O7 0.378827 0.739321 0.434543
O O8 0.378683 0.000000 0.359650
O O9 0.974443 0.500000 0.672001
O O10 0.957452 0.737529 0.777967
O O11 0.969197 0.747383 0.571207
O O12 0.580777 0.500000 0.200427
O O13 0.621825 0.664860 0.362012
O O14 0.816726 0.500000 0.106815
O O15 0.927665 0.000000 0.504153
#
# Coordination Sequence:
#
# PCOD8085987 Si02
#       6
#     8   8   8   8   8   8
#     4   9  17  35  55  69  91 122 158 198 238 277
#     4  10  19  31  46  71 102 125 153 192 234 278
#     4   9  17  29  47  70  96 128 157 187 230 278
#     4   8  17  31  48  70  94 124 158 192 232 275
#     4   9  19  33  52  73  93 121 156 197 238 277
#     4   9  18  30  47  71  98 127 157 189 229 277
#
# _framework density 16.827055999999999
#
# number of rings (size 3 to 8) (size 9 to 14) (size 15 to 20)
#    1.000    2.000    0.000    1.000    0.000    4.667 
#    0.000    1.667    0.000    5.000    0.000    0.000 
#    0.000    0.000    0.000    0.000    0.000    0.000 
#
# Total GULP energy -297399.500256 kJ/mol
# GULP energy per Si atom -12391.645844 kJ/mol
# Density = 1.678876 g / cm^3
# Si number density = 16.827056 Si / 1000 Ang^3
#
#
#
# Elastic Constant Matrix: (Units=GPa)
#
#
# Indices 1 2 3 4 5 6 
#
# 1 23.9878 12.6990 13.7269 0.0000 -8.4334 0.0000
# 2 12.6990 61.8988 21.1470 0.0000 -2.0928 0.0000
# 3 13.7269 21.1470 36.1676 0.0000 0.2172 0.0000
# 4 0.0000 0.0000 0.0000 30.2013 0.0000 -2.8051
# 5 -8.4334 -2.0928 0.2172 0.0000 32.7661 0.0000
# 6 0.0000 0.0000 0.0000 -2.8051 0.0000 19.5519
#
#
#
# Elastic Compliance Matrix: (Units=1/GPa)
#
#
# Indices 1 2 3 4 5 6 
#
# 1 0.061634 -0.005112 -0.020497 0.000000 0.015673 0.000000
# 2 -0.005112 0.020674 -0.010148 0.000000 0.000072 0.000000
# 3 -0.020497 -0.010148 0.041399 0.000000 -0.006198 0.000000
# 4 0.000000 0.000000 0.000000 0.033558 0.000000 0.004815
# 5 0.015673 0.000072 -0.006198 0.000000 0.034599 0.000000
# 6 0.000000 0.000000 0.000000 0.004815 0.000000 0.051837
#
#
# Mechanical properties :
#
#
# Convention : Reuss Voigt Hill
#
# Bulk Modulus (GPa) = 19.16007 24.13334 21.64671
# Shear Modulus (GPa) = 15.03251 21.46929 18.25090
#
# Velocity S-wave (km/s) = 2.99215 3.57582 3.29692
# Velocity P-wave (km/s) = 4.83202 5.60551 5.23308
#
# Compressibility (1/GPa) = 0.05219186
#
# Stress axis : x y z
#
# Youngs Moduli (GPa) = 16.22483 48.37110 24.15511
#
# Poissons Ratio (x) = 0.24728 0.49512
# Poissons Ratio (y) = 0.08294 0.24512
# Poissons Ratio (z) = 0.33257 0.49086
#
# Static dielectric constant tensor:
#      x y z
#    x 3.004740 0.000000 -0.072990 
#    y 0.000000 3.165370 0.000000 
#    z -0.072990 0.000000 3.041520 
# 
# 
# High freq. dielectric constant tensor:
#      x y z
#    x 1.626920 0.000000 -0.010140 
#    y 0.000000 1.653240 0.000000 
#    z -0.010140 0.000000 1.634310 
# 
# From -- ./inp_files/172422.got.cif
#   From: 2010.06.25/outbox.cif.g09.slc.cpg/sg12_87_cif.got.tgz:172422.got - 2010.06.28 00:19:55.
