data_PCOD8085597
_publ_section_title
;
Structure prediction by ZEFSAII (Michael W. Deem and Ramdas Pophale) SiO2 
 PCOD8085597
Probable space group: C 2/M
;
_chemical_formula_sum "Si O2"
_cell_formula_units_Z 56
_cell_length_a 27.677814
_cell_length_b 9.146914
_cell_length_c 14.129242
_cell_angle_alpha 90.000000
_cell_angle_beta 120.208041
_cell_angle_gamma 90.000000
_cell_volume 3091.303303
_symmetry_space_group_name_H-M "C 2/M"
_symmetry_group_IT_number 12
_symmetry_cell_setting 'monoclinic'
loop_
_space_group_symop_operation_xyz
x,y,z
-x,y,-z
-x,-y,-z
x,-y,z
1/2+x,1/2+y,z
1/2-x,1/2+y,-z
1/2-x,1/2-y,-z
1/2+x,1/2-y,z
loop_
_atom_site_type_symbol
_atom_site_label
_atom_site_fract_x
_atom_site_fract_y
_atom_site_fract_z
Si Si1 0.169365 0.168448 0.898089
Si Si2 0.053645 0.169083 0.866193
Si Si3 0.748574 0.328996 0.142854
Si Si4 0.163704 0.170951 0.436869
Si Si5 0.751190 0.830018 0.642980
Si Si6 0.565698 0.840776 0.057776
Si Si7 0.438634 0.172952 0.737325
O O1 0.102700 0.192647 0.838011
O O2 0.193128 0.255805 0.831876
O O3 0.183892 0.000000 0.896720
O O4 0.198702 0.223299 0.024544
O O5 0.000435 0.262326 0.781448
O O6 0.036533 0.000000 0.859017
O O7 0.079608 0.220390 0.992553
O O8 0.758231 0.500000 0.146625
O O9 0.733200 0.282756 0.234780
O O10 0.195871 0.204759 0.370745
O O11 0.198353 0.234421 0.558803
O O12 0.103905 0.251587 0.377242
O O13 0.153943 0.000000 0.443047
O O14 0.734545 0.000000 0.619277
O O15 0.585032 0.789223 0.181015
O O16 0.591990 0.000000 0.057336
O O17 0.500000 0.861471 0.000000
O O18 0.441569 0.000000 0.722851
#
# Coordination Sequence:
#
# PCOD8085597 Si02
#       7
#     8   8   8   8   8   8   8
#     4   9  19  33  50  76 105 132 168 210 250 295
#     4  10  19  30  48  72 101 134 168 207 252 298
#     4   9  18  34  54  74 100 135 170 206 250 298
#     4  10  20  33  53  78 103 132 170 208 250 302
#     4   9  19  35  54  75 103 134 167 209 253 299
#     4   8  16  29  42  62  95 131 165 200 239 289
#     4  10  20  33  48  69 102 136 169 207 249 299
#
# _framework density 18.115337
#
# number of rings (size 3 to 8) (size 9 to 14) (size 15 to 20)
#    0.000    2.714    0.000    2.143    2.000    5.429 
#    0.000    0.000    0.000    0.857    0.000    6.000 
#    0.000    0.000    0.000    0.000    0.000    0.000 
#
# Total GULP energy -347124.530417 kJ/mol
# GULP energy per Si atom -12397.304658 kJ/mol
# Density = 1.807411 g / cm^3
# Si number density = 18.115337 Si / 1000 Ang^3
#
#
#
# Elastic Constant Matrix: (Units=GPa)
#
#
# Indices 1 2 3 4 5 6 
#
# 1 68.1717 34.0387 24.3016 0.0000 5.7211 0.0000
# 2 34.0387 72.0829 26.5129 0.0000 9.5029 0.0000
# 3 24.3016 26.5129 61.0907 0.0000 3.1910 0.0000
# 4 0.0000 0.0000 0.0000 25.6355 0.0000 -0.0136
# 5 5.7211 9.5029 3.1910 0.0000 26.8688 0.0000
# 6 0.0000 0.0000 0.0000 -0.0136 0.0000 28.0987
#
#
#
# Elastic Compliance Matrix: (Units=1/GPa)
#
#
# Indices 1 2 3 4 5 6 
#
# 1 0.020272 -0.007724 -0.004658 0.000000 -0.001032 0.000000
# 2 -0.007724 0.020152 -0.005421 0.000000 -0.004839 0.000000
# 3 -0.004658 -0.005421 0.020550 0.000000 0.000468 0.000000
# 4 0.000000 0.000000 0.000000 0.039008 0.000000 0.000019
# 5 -0.001032 -0.004839 0.000468 0.000000 0.039093 0.000000
# 6 0.000000 0.000000 0.000000 0.000019 0.000000 0.035589
#
#
# Mechanical properties :
#
#
# Convention : Reuss Voigt Hill
#
# Bulk Modulus (GPa) = 39.41765 41.22797 40.32281
# Shear Modulus (GPa) = 22.85957 23.88673 23.37315
#
# Velocity S-wave (km/s) = 3.55616 3.63518 3.59589
# Velocity P-wave (km/s) = 6.21838 6.35825 6.28871
#
# Compressibility (1/GPa) = 0.02536935
#
# Stress axis : x y z
#
# Youngs Moduli (GPa) = 49.32798 49.62344 48.66121
#
# Poissons Ratio (x) = 0.38327 0.22669
# Poissons Ratio (y) = 0.38099 0.26377
# Poissons Ratio (z) = 0.22979 0.26899
#
# Static dielectric constant tensor:
#      x y z
#    x 3.161100 0.000000 -0.016470 
#    y 0.000000 3.357060 0.000000 
#    z -0.016470 0.000000 3.324960 
# 
# 
# High freq. dielectric constant tensor:
#      x y z
#    x 1.684680 0.000000 0.010410 
#    y 0.000000 1.708390 0.000000 
#    z 0.010410 0.000000 1.678170 
# 
# From -- ./inp_files/243282.got.cif
#   From: 2010.06.25/outbox.cif.g09.slc.cpg/sg12_122_cif.got.tgz:243282.got - 2010.06.28 00:19:55.
