data_PCOD8085483
_publ_section_title
;
Structure prediction by ZEFSAII (Michael W. Deem and Ramdas Pophale) SiO2 
 PCOD8085483
Probable space group: C 2/M
;
_chemical_formula_sum "Si O2"
_cell_formula_units_Z 56
_cell_length_a 29.128552
_cell_length_b 9.196403
_cell_length_c 11.648777
_cell_angle_alpha 90.000000
_cell_angle_beta 91.476591
_cell_angle_gamma 90.000000
_cell_volume 3119.413768
_symmetry_space_group_name_H-M "C 2/M"
_symmetry_group_IT_number 12
_symmetry_cell_setting 'monoclinic'
loop_
_space_group_symop_operation_xyz
x,y,z
-x,y,-z
-x,-y,-z
x,-y,z
1/2+x,1/2+y,z
1/2-x,1/2+y,-z
1/2-x,1/2-y,-z
1/2+x,1/2-y,z
loop_
_atom_site_type_symbol
_atom_site_label
_atom_site_fract_x
_atom_site_fract_y
_atom_site_fract_z
Si Si1 0.835909 0.666351 0.681406
Si Si2 0.363146 0.670559 0.897396
Si Si3 0.187209 0.663931 0.920211
Si Si4 0.952677 0.169536 0.046865
Si Si5 0.656065 0.170118 0.578614
Si Si6 0.769177 0.830897 0.272760
Si Si7 0.094112 0.339577 0.771207
O O1 0.847737 0.500000 0.713334
O O2 0.863941 0.771779 0.767564
O O3 0.852407 0.705724 0.554664
O O4 0.781872 0.694466 0.686017
O O5 0.353163 0.500000 0.900246
O O6 0.412263 0.708511 0.955923
O O7 0.322024 0.752890 0.961140
O O8 0.204309 0.500000 0.947892
O O9 0.225347 0.750204 0.849483
O O10 0.140914 0.661856 0.845194
O O11 0.957689 0.000000 0.067066
O O12 0.942961 0.234705 0.172523
O O13 0.000000 0.235062 0.000000
O O14 0.698009 0.265136 0.627932
O O15 0.608678 0.209339 0.643410
O O16 0.668427 0.000000 0.598571
O O17 0.781228 0.000000 0.256644
O O18 0.072238 0.500000 0.768674
#
# Coordination Sequence:
#
# PCOD8085483 Si02
#       7
#     8   8   8   8   8   8   8
#     4  10  21  34  47  66  97 134 165 198 240 281
#     4  10  20  33  50  72  96 123 158 197 239 290
#     4   9  17  31  49  67  94 129 160 197 243 285
#     4   9  18  33  53  76  99 119 143 185 240 292
#     4   9  18  33  50  68  95 131 167 201 236 274
#     4  10  19  30  47  71  95 124 167 210 241 272
#     4   8  15  28  48  73  95 118 153 193 230 273
#
# _framework density 17.952092
#
# number of rings (size 3 to 8) (size 9 to 14) (size 15 to 20)
#    0.000    2.714    0.000    2.571    0.000    6.571 
#    0.000    0.000    0.000    0.857    0.000    6.000 
#    0.000    0.000    0.000    0.000    0.000    0.000 
#
# Total GULP energy -347175.262874 kJ/mol
# GULP energy per Si atom -12399.116531 kJ/mol
# Density = 1.791123 g / cm^3
# Si number density = 17.952092 Si / 1000 Ang^3
#
#
#
# Elastic Constant Matrix: (Units=GPa)
#
#
# Indices 1 2 3 4 5 6 
#
# 1 42.0422 39.8459 52.6384 0.0000 -15.2227 0.0000
# 2 39.8459 94.6176 63.8450 0.0000 -6.7614 0.0000
# 3 52.6384 63.8450 152.4124 0.0000 -18.4847 0.0000
# 4 0.0000 0.0000 0.0000 31.4539 0.0000 -2.2664
# 5 -15.2227 -6.7614 -18.4847 0.0000 25.0303 0.0000
# 6 0.0000 0.0000 0.0000 -2.2664 0.0000 20.1286
#
#
#
# Elastic Compliance Matrix: (Units=1/GPa)
#
#
# Indices 1 2 3 4 5 6 
#
# 1 0.064253 -0.017218 -0.011866 0.000000 0.025663 0.000000
# 2 -0.017218 0.019356 -0.003073 0.000000 -0.007512 0.000000
# 3 -0.011866 -0.003073 0.012050 0.000000 0.000852 0.000000
# 4 0.000000 0.000000 0.000000 0.032053 0.000000 0.003609
# 5 0.025663 -0.007512 0.000852 0.000000 0.054159 0.000000
# 6 0.000000 0.000000 0.000000 0.003609 0.000000 0.050087
#
#
# Mechanical properties :
#
#
# Convention : Reuss Voigt Hill
#
# Bulk Modulus (GPa) = 31.90243 66.85901 49.38072
# Shear Modulus (GPa) = 16.30154 24.17209 20.23681
#
# Velocity S-wave (km/s) = 3.01667 3.67342 3.36112
# Velocity P-wave (km/s) = 5.47204 7.43746 6.52913
#
# Compressibility (1/GPa) = 0.03134557
#
# Stress axis : x y z
#
# Youngs Moduli (GPa) = 15.56354 51.66245 82.98863
#
# Poissons Ratio (x) = 0.88952 0.98474
# Poissons Ratio (y) = 0.26797 0.25502
# Poissons Ratio (z) = 0.18468 0.15875
#
# Static dielectric constant tensor:
#      x y z
#    x 3.003660 0.000000 -0.216940 
#    y 0.000000 3.408420 0.000000 
#    z -0.216940 0.000000 3.619870 
# 
# 
# High freq. dielectric constant tensor:
#      x y z
#    x 1.653230 0.000000 -0.013420 
#    y 0.000000 1.699440 0.000000 
#    z -0.013420 0.000000 1.703040 
# 
# From -- ./inp_files/186418.got.cif
#   From: 2010.06.25/outbox.cif.g09.slc.cpg/sg12_94_cif.got.tgz:186418.got - 2010.06.28 00:19:55.
