data_PCOD8085084
_publ_section_title
;
Structure prediction by ZEFSAII (Michael W. Deem and Ramdas Pophale) SiO2 
 PCOD8085084
Probable space group: C 2/M
;
_chemical_formula_sum "Si O2"
_cell_formula_units_Z 64
_cell_length_a 23.345016
_cell_length_b 8.766013
_cell_length_c 17.037016
_cell_angle_alpha 90.000000
_cell_angle_beta 94.096991
_cell_angle_gamma 90.000000
_cell_volume 3477.591561
_symmetry_space_group_name_H-M "C 2/M"
_symmetry_group_IT_number 12
_symmetry_cell_setting 'monoclinic'
loop_
_space_group_symop_operation_xyz
x,y,z
-x,y,-z
-x,-y,-z
x,-y,z
1/2+x,1/2+y,z
1/2-x,1/2+y,-z
1/2-x,1/2-y,-z
1/2+x,1/2-y,z
loop_
_atom_site_type_symbol
_atom_site_label
_atom_site_fract_x
_atom_site_fract_y
_atom_site_fract_z
Si Si1 0.939528 0.319758 0.963466
Si Si2 0.046838 0.179294 0.754889
Si Si3 0.781244 0.331519 0.174712
Si Si4 0.686435 0.319410 0.278277
Si Si5 0.860881 0.328530 0.333864
Si Si6 0.929007 0.680462 0.784592
Si Si7 0.264407 0.318933 0.417974
Si Si8 0.127107 0.823727 0.908640
O O1 0.941820 0.500000 0.966578
O O2 0.928977 0.261685 0.874411
O O3 0.887785 0.263995 0.013189
O O4 0.000000 0.250870 0.000000
O O5 0.081832 0.234351 0.681868
O O6 0.081668 0.221899 0.837100
O O7 0.987943 0.271922 0.749206
O O8 0.035187 0.000000 0.748002
O O9 0.777499 0.500000 0.136725
O O10 0.718734 0.276346 0.199169
O O11 0.820602 0.335251 0.254818
O O12 0.808334 0.219767 0.112362
O O13 0.690733 0.500000 0.293971
O O14 0.621233 0.265725 0.266446
O O15 0.715246 0.232336 0.353125
O O16 0.877095 0.500000 0.362516
O O17 0.827256 0.242227 0.399671
O O18 0.920608 0.500000 0.777812
O O19 0.266364 0.500000 0.422121
O O20 0.250000 0.250000 0.500000
O O21 0.125717 0.000000 0.927722
#
# Coordination Sequence:
#
# PCOD8085084 Si02
#       8
#     8   8   8   8   8   8   8   8
#     4  10  20  34  50  70 101 140 182 227 274 324
#     4  10  19  31  49  76 107 141 180 226 272 318
#     4   8  16  31  51  71  98 135 172 214 267 321
#     4  10  21  38  57  80 109 142 178 220 268 321
#     4   9  17  31  52  80 110 140 177 221 264 310
#     4  11  22  35  53  76 104 144 185 225 274 327
#     4  11  21  36  60  89 117 144 176 215 260 312
#     4  10  19  29  48  75 101 130 174 230 277 315
#
# _framework density 18.403542000000002
#
# number of rings (size 3 to 8) (size 9 to 14) (size 15 to 20)
#    0.000    2.125    1.250    3.750    0.000    5.750 
#    0.000    0.625    0.000    0.750    0.000    5.250 
#    0.000    0.000    0.000    0.000    0.000    0.000 
#
# Total GULP energy -396813.867664 kJ/mol
# GULP energy per Si atom -12400.433364 kJ/mol
# Density = 1.836165 g / cm^3
# Si number density = 18.403542 Si / 1000 Ang^3
#
#
#
# Elastic Constant Matrix: (Units=GPa)
#
#
# Indices 1 2 3 4 5 6 
#
# 1 91.5678 23.0302 41.9730 0.0000 -20.0687 0.0000
# 2 23.0302 71.7236 31.6550 0.0000 -8.4888 0.0000
# 3 41.9730 31.6550 82.3069 0.0000 -25.0124 0.0000
# 4 0.0000 0.0000 0.0000 26.0071 0.0000 -6.3701
# 5 -20.0687 -8.4888 -25.0124 0.0000 27.3426 0.0000
# 6 0.0000 0.0000 0.0000 -6.3701 0.0000 31.0167
#
#
#
# Elastic Compliance Matrix: (Units=1/GPa)
#
#
# Indices 1 2 3 4 5 6 
#
# 1 0.015025 -0.001846 -0.005229 0.000000 0.005672 0.000000
# 2 -0.001846 0.017038 -0.006116 0.000000 -0.001660 0.000000
# 3 -0.005229 -0.006116 0.021364 0.000000 0.013807 0.000000
# 4 0.000000 0.000000 0.000000 0.040488 0.000000 0.008315
# 5 0.005672 -0.001660 0.013807 0.000000 0.052851 0.000000
# 6 0.000000 0.000000 0.000000 0.008315 0.000000 0.033948
#
#
# Mechanical properties :
#
#
# Convention : Reuss Voigt Hill
#
# Bulk Modulus (GPa) = 36.97332 48.76831 42.87082
# Shear Modulus (GPa) = 23.13641 26.80261 24.96951
#
# Velocity S-wave (km/s) = 3.54951 3.82040 3.68744
# Velocity P-wave (km/s) = 6.07722 6.78362 6.44011
#
# Compressibility (1/GPa) = 0.02704653
#
# Stress axis : x y z
#
# Youngs Moduli (GPa) = 66.55657 58.69297 46.80761
#
# Poissons Ratio (x) = 0.10832 0.24474
# Poissons Ratio (y) = 0.12283 0.28627
# Poissons Ratio (z) = 0.34800 0.35896
#
# Static dielectric constant tensor:
#      x y z
#    x 3.495150 0.000000 -0.296060 
#    y 0.000000 3.423550 0.000000 
#    z -0.296060 0.000000 3.158440 
# 
# 
# High freq. dielectric constant tensor:
#      x y z
#    x 1.710860 0.000000 -0.028120 
#    y 0.000000 1.723130 0.000000 
#    z -0.028120 0.000000 1.682150 
# 
# From -- ./inp_files/281274.got.cif
#   From: 2010.06.25/outbox.cif.g09.slc.cpg/sg12_141_cif.got.tgz:281274.got - 2010.06.28 00:19:55.
