data_PCOD8085067
_publ_section_title
;
Structure prediction by ZEFSAII (Michael W. Deem and Ramdas Pophale) SiO2 
 PCOD8085067
Probable space group: C 2/M
;
_chemical_formula_sum "Si O2"
_cell_formula_units_Z 64
_cell_length_a 20.303925
_cell_length_b 9.089698
_cell_length_c 25.290667
_cell_angle_alpha 90.000000
_cell_angle_beta 49.498971
_cell_angle_gamma 90.000000
_cell_volume 3549.184627
_symmetry_space_group_name_H-M "C 2/M"
_symmetry_group_IT_number 12
_symmetry_cell_setting 'monoclinic'
loop_
_space_group_symop_operation_xyz
x,y,z
-x,y,-z
-x,-y,-z
x,-y,z
1/2+x,1/2+y,z
1/2-x,1/2+y,-z
1/2-x,1/2-y,-z
1/2+x,1/2-y,z
loop_
_atom_site_type_symbol
_atom_site_label
_atom_site_fract_x
_atom_site_fract_y
_atom_site_fract_z
Si Si1 0.378920 0.329010 0.570039
Si Si2 0.108084 0.330179 0.867459
Si Si3 0.110481 0.828107 0.169752
Si Si4 0.278841 0.669715 0.720826
Si Si5 0.937345 0.827452 0.922113
Si Si6 0.028067 0.329087 0.557284
Si Si7 0.191774 0.671716 0.935974
Si Si8 0.574273 0.830045 0.290824
O O1 0.392354 0.500000 0.550250
O O2 0.292454 0.303365 0.650515
O O3 0.380620 0.237632 0.513221
O O4 0.455678 0.267898 0.566383
O O5 0.079917 0.500000 0.878964
O O6 0.179766 0.291461 0.785801
O O7 0.145459 0.291350 0.905195
O O8 0.024988 0.231217 0.901815
O O9 0.065045 0.786484 0.138447
O O10 0.209582 0.773150 0.118353
O O11 0.057490 0.747672 0.243737
O O12 0.106595 0.000000 0.183378
O O13 0.298444 0.500000 0.725491
O O14 0.341668 0.767094 0.723696
O O15 0.932362 0.000000 0.933722
O O16 0.854060 0.757420 0.992982
O O17 0.020190 0.500000 0.545790
O O18 0.012909 0.308343 0.627982
O O19 0.187780 0.500000 0.951358
O O20 0.592652 0.000000 0.271070
#
# Coordination Sequence:
#
# PCOD8085067 Si02
#       8
#     8   8   8   8   8   8   8   8
#     4   9  15  23  40  65  92 127 168 202 237 286
#     4  10  20  36  56  75 100 137 172 204 249 303
#     4  10  21  38  55  73 101 136 169 206 254 303
#     4   9  17  31  49  70  99 134 170 207 247 295
#     4  11  24  37  52  77 106 131 163 212 259 297
#     4   9  16  25  37  61  99 132 157 195 250 296
#     4  10  20  37  59  76  95 132 173 205 250 307
#     4  10  19  29  47  74 100 130 168 209 250 295
#
# _framework density 18.032311
#
# number of rings (size 3 to 8) (size 9 to 14) (size 15 to 20)
#    0.000    2.250    1.250    3.000    0.000    6.000 
#    0.000    0.000    0.000    0.000    0.000    0.875 
#    0.000    0.000    0.000    0.000    0.000    0.000 
#
# Total GULP energy -396644.450389 kJ/mol
# GULP energy per Si atom -12395.139075 kJ/mol
# Density = 1.799127 g / cm^3
# Si number density = 18.032311 Si / 1000 Ang^3
#
#
#
# Elastic Constant Matrix: (Units=GPa)
#
#
# Indices 1 2 3 4 5 6 
#
# 1 34.5841 18.1222 -1.8064 -0.0001 8.0182 -0.0004
# 2 18.1222 69.2158 45.3233 -0.0004 11.7373 -0.0006
# 3 -1.8064 45.3233 107.9891 0.0001 15.3981 -0.0003
# 4 -0.0001 -0.0004 0.0001 31.9986 0.0000 7.8020
# 5 8.0182 11.7373 15.3981 0.0000 12.5935 -0.0001
# 6 -0.0004 -0.0006 -0.0003 7.8020 -0.0001 12.4035
#
#
#
# Elastic Compliance Matrix: (Units=1/GPa)
#
#
# Indices 1 2 3 4 5 6 
#
# 1 0.042679 -0.013187 0.010138 0.000000 -0.027279 0.000001
# 2 -0.013187 0.025119 -0.010443 0.000000 -0.002247 0.000001
# 3 0.010138 -0.010443 0.016163 0.000000 -0.016485 0.000000
# 4 0.000000 0.000000 0.000000 0.036913 0.000000 -0.023218
# 5 -0.027279 -0.002247 -0.016485 0.000000 0.119025 0.000000
# 6 0.000001 0.000001 0.000000 -0.023218 0.000000 0.095227
#
#
# Mechanical properties :
#
#
# Convention : Reuss Voigt Hill
#
# Bulk Modulus (GPa) = 17.55047 37.22969 27.39008
# Shear Modulus (GPa) = 13.11980 21.40910 17.26445
#
# Velocity S-wave (km/s) = 2.70028 3.44941 3.09757
# Velocity P-wave (km/s) = 4.41316 6.04611 5.29299
#
# Compressibility (1/GPa) = 0.05697852
#
# Stress axis : x y z
#
# Youngs Moduli (GPa) = 23.43059 39.80987 61.86857
#
# Poissons Ratio (x) = 0.52498 -0.62725
# Poissons Ratio (y) = 0.30898 0.64609
# Poissons Ratio (z) = -0.23755 0.41573
#
# Static dielectric constant tensor:
#      x y z
#    x 2.867060 0.000000 0.101490 
#    y 0.000000 3.358110 0.000000 
#    z 0.101490 0.000000 4.219420 
# 
# 
# High freq. dielectric constant tensor:
#      x y z
#    x 1.639210 0.000000 0.009830 
#    y 0.000000 1.704270 0.000000 
#    z 0.009830 0.000000 1.725930 
# 
# From -- ./inp_files/346085.got.cif
#   From: 2010.06.25/outbox.cif.g09.slc.cpg/sg12_174_cif.got.tgz:346085.got - 2010.06.28 00:19:55.
