data_PCOD8085437
_publ_section_title
;
Structure prediction by ZEFSAII (Michael W. Deem and Ramdas Pophale) SiO2 
 PCOD8085437
Probable space group: C 2/M
;
_chemical_formula_sum "Si O2"
_cell_formula_units_Z 64
_cell_length_a 12.827629
_cell_length_b 13.385479
_cell_length_c 23.306333
_cell_angle_alpha 90.000000
_cell_angle_beta 101.842089
_cell_angle_gamma 90.000000
_cell_volume 3916.619162
_symmetry_space_group_name_H-M "C 2/M"
_symmetry_group_IT_number 12
_symmetry_cell_setting 'monoclinic'
loop_
_space_group_symop_operation_xyz
x,y,z
-x,y,-z
-x,-y,-z
x,-y,z
1/2+x,1/2+y,z
1/2-x,1/2+y,-z
1/2-x,1/2-y,-z
1/2+x,1/2-y,z
loop_
_atom_site_type_symbol
_atom_site_label
_atom_site_fract_x
_atom_site_fract_y
_atom_site_fract_z
Si Si1 0.967852 0.755585 0.648784
Si Si2 0.875362 0.885886 0.734100
Si Si3 0.754163 0.115861 0.950586
Si Si4 0.555930 0.384766 0.561888
Si Si5 0.250981 0.736262 0.432367
Si Si6 0.413068 0.615269 0.869426
Si Si7 0.158342 0.384955 0.646142
Si Si8 0.420106 0.730792 0.041466
O O1 0.004945 0.846468 0.614085
O O2 0.055277 0.668274 0.662264
O O3 0.946539 0.804930 0.708287
O O4 0.862449 0.710941 0.607736
O O5 0.884220 0.857450 0.801398
O O6 0.752303 0.875235 0.702810
O O7 0.914260 0.000000 0.726938
O O8 0.808613 0.138561 0.895509
O O9 0.641849 0.173128 0.941349
O O10 0.728864 0.000000 0.956278
O O11 0.834931 0.149808 0.009605
O O12 0.500000 0.333945 0.500000
O O13 0.533258 0.500000 0.558322
O O14 0.680714 0.361505 0.574659
O O15 0.250000 0.750000 0.500000
O O16 0.305859 0.833739 0.409598
O O17 0.445944 0.500000 0.880741
O O18 0.513435 0.681644 0.899555
O O19 0.130523 0.500000 0.629742
O O20 0.500000 0.764740 0.000000
#
# Coordination Sequence:
#
# PCOD8085437 Si02
#       8
#     8   8   8   8   8   8   8   8
#     4  10  19  33  51  67  94 121 150 191 235 281
#     4   9  18  33  51  71  91 120 159 198 239 280
#     4   9  17  29  46  70 101 133 162 199 241 281
#     4  10  19  30  47  69  90 116 148 183 226 276
#     4  10  19  32  47  67  94 118 149 186 226 279
#     4   9  17  30  49  70  93 122 162 202 235 280
#     4   9  20  34  49  69  94 123 155 192 236 286
#     4   9  17  29  46  71  99 130 164 199 239 283
#
# _framework density 16.340623999999998
#
# number of rings (size 3 to 8) (size 9 to 14) (size 15 to 20)
#    0.000    2.625    1.250    0.750    0.000    4.250 
#    0.000    0.625    0.000    0.000    0.000    0.000 
#    0.000    0.000    0.000    0.000    0.000    0.000 
#
# Total GULP energy -396754.471359 kJ/mol
# GULP energy per Si atom -12398.577230 kJ/mol
# Density = 1.630343 g / cm^3
# Si number density = 16.340624 Si / 1000 Ang^3
#
#
#
# Elastic Constant Matrix: (Units=GPa)
#
#
# Indices 1 2 3 4 5 6 
#
# 1 109.6057 54.9911 45.8992 0.0000 1.7362 0.0000
# 2 54.9911 89.7426 43.5505 0.0000 -0.9286 0.0000
# 3 45.8992 43.5505 110.6143 0.0000 -4.2413 0.0000
# 4 0.0000 0.0000 0.0000 15.1929 0.0000 10.1348
# 5 1.7362 -0.9286 -4.2413 0.0000 18.1473 0.0000
# 6 0.0000 0.0000 0.0000 10.1348 0.0000 13.5605
#
#
#
# Elastic Compliance Matrix: (Units=1/GPa)
#
#
# Indices 1 2 3 4 5 6 
#
# 1 0.014037 -0.007114 -0.003117 0.000000 -0.002435 0.000000
# 2 -0.007114 0.017386 -0.003868 0.000000 0.000666 0.000000
# 3 -0.003117 -0.003868 0.011968 0.000000 0.002897 0.000000
# 4 0.000000 0.000000 0.000000 0.131262 0.000000 -0.098102
# 5 -0.002435 0.000666 0.002897 0.000000 0.056049 0.000000
# 6 0.000000 0.000000 0.000000 -0.098102 0.000000 0.147063
#
#
# Mechanical properties :
#
#
# Convention : Reuss Voigt Hill
#
# Bulk Modulus (GPa) = 65.81890 66.53827 66.17858
# Shear Modulus (GPa) = 12.16470 20.41493 16.28981
#
# Velocity S-wave (km/s) = 2.73141 3.53843 3.16078
# Velocity P-wave (km/s) = 7.09325 7.58300 7.34221
#
# Compressibility (1/GPa) = 0.01519321
#
# Stress axis : x y z
#
# Youngs Moduli (GPa) = 71.24252 57.51821 83.55818
#
# Poissons Ratio (x) = 0.40916 0.26046
# Poissons Ratio (y) = 0.50679 0.32318
# Poissons Ratio (z) = 0.22207 0.22246
#
# Static dielectric constant tensor:
#      x y z
#    x 3.113390 0.000000 0.036470 
#    y 0.000000 2.999060 0.000000 
#    z 0.036470 0.000000 3.037810 
# 
# 
# High freq. dielectric constant tensor:
#      x y z
#    x 1.633770 0.000000 -0.000950 
#    y 0.000000 1.620190 0.000000 
#    z -0.000950 0.000000 1.624200 
# 
# From -- ./inp_files/305462.got.cif
#   From: 2010.06.25/outbox.cif.g09.slc.cpg/sg12_153_cif.got.tgz:305462.got - 2010.06.28 00:19:55.
