data_PCOD8085349
_publ_section_title
;
Structure prediction by ZEFSAII (Michael W. Deem and Ramdas Pophale) SiO2 
 PCOD8085349
Probable space group: C 2/M
;
_chemical_formula_sum "Si O2"
_cell_formula_units_Z 64
_cell_length_a 30.354161
_cell_length_b 8.997386
_cell_length_c 31.145181
_cell_angle_alpha 90.000000
_cell_angle_beta 27.838066
_cell_angle_gamma 90.000000
_cell_volume 3972.083433
_symmetry_space_group_name_H-M "C 2/M"
_symmetry_group_IT_number 12
_symmetry_cell_setting 'monoclinic'
loop_
_space_group_symop_operation_xyz
x,y,z
-x,y,-z
-x,-y,-z
x,-y,z
1/2+x,1/2+y,z
1/2-x,1/2+y,-z
1/2-x,1/2-y,-z
1/2+x,1/2-y,z
loop_
_atom_site_type_symbol
_atom_site_label
_atom_site_fract_x
_atom_site_fract_y
_atom_site_fract_z
Si Si1 0.903705 0.172188 0.815265
Si Si2 0.768761 0.328190 0.416356
Si Si3 0.113216 0.169814 0.615014
Si Si4 0.081469 0.824225 0.874915
Si Si5 0.625951 0.323768 0.743404
Si Si6 0.062918 0.675584 0.125777
Si Si7 0.721364 0.173850 0.921455
Si Si8 0.872337 0.175737 0.072756
O O1 0.896985 0.272876 0.863142
O O2 0.821451 0.225119 0.854274
O O3 0.002067 0.196669 0.705352
O O4 0.890224 0.000000 0.840208
O O5 0.784666 0.500000 0.392381
O O6 0.847811 0.278732 0.382287
O O7 0.664668 0.296409 0.525273
O O8 0.781811 0.237180 0.360834
O O9 0.135050 0.000000 0.610347
O O10 0.131234 0.768364 0.788336
O O11 0.139881 0.773261 0.866796
O O12 0.074642 0.000000 0.881365
O O13 0.974226 0.764395 0.968916
O O14 0.622249 0.500000 0.743445
O O15 0.534143 0.259546 0.799338
O O16 0.045506 0.500000 0.141158
O O17 0.138537 0.723667 0.024936
O O18 0.708646 0.251387 0.886315
O O19 0.719448 0.000000 0.915196
O O20 0.864264 0.000000 0.075184
#
# Coordination Sequence:
#
# PCOD8085349 Si02
#       8
#     8   8   8   8   8   8   8   8
#     4  10  20  34  49  64  89 128 164 189 221 273
#     4  10  19  30  46  69  94 116 149 197 235 272
#     4   9  18  32  48  65  88 123 158 188 230 275
#     4   8  16  29  48  69  89 117 156 192 223 273
#     4  11  19  30  48  69  93 125 155 183 229 283
#     4  11  21  31  43  66  97 125 157 194 223 258
#     4  10  21  33  45  67  97 124 155 193 231 267
#     4   9  16  31  50  67  88 119 157 192 225 270
#
# _framework density 16.112451
#
# number of rings (size 3 to 8) (size 9 to 14) (size 15 to 20)
#    0.000    2.250    2.500    2.250    0.000    1.500 
#    0.000    2.500    0.000    0.000    0.000    0.875 
#    0.000    7.000    0.000    0.000    0.000    0.000 
#
# Total GULP energy -396742.078956 kJ/mol
# GULP energy per Si atom -12398.189967 kJ/mol
# Density = 1.607578 g / cm^3
# Si number density = 16.112451 Si / 1000 Ang^3
#
#
#
# Elastic Constant Matrix: (Units=GPa)
#
#
# Indices 1 2 3 4 5 6 
#
# 1 118.3292 34.8064 48.6784 0.0005 17.2671 -0.0030
# 2 34.8064 50.1603 28.7686 0.0171 8.3902 -0.0106
# 3 48.6784 28.7686 77.7237 0.0336 17.2593 -0.0340
# 4 0.0005 0.0171 0.0336 20.7515 0.0003 2.2400
# 5 17.2671 8.3902 17.2593 0.0003 24.6154 0.0044
# 6 -0.0030 -0.0106 -0.0340 2.2400 0.0044 23.6488
#
#
#
# Elastic Compliance Matrix: (Units=1/GPa)
#
#
# Indices 1 2 3 4 5 6 
#
# 1 0.012628 -0.005192 -0.005227 0.000013 -0.003424 -0.000009
# 2 -0.005192 0.027568 -0.006721 -0.000012 -0.001042 0.000003
# 3 -0.005227 -0.006721 0.020496 -0.000031 -0.008413 0.000030
# 4 0.000013 -0.000012 -0.000031 0.048687 0.000016 -0.004612
# 5 -0.003424 -0.001042 -0.008413 0.000016 0.049281 -0.000024
# 6 -0.000009 0.000003 0.000030 -0.004612 -0.000024 0.042722
#
#
# Mechanical properties :
#
#
# Convention : Reuss Voigt Hill
#
# Bulk Modulus (GPa) = 37.86160 52.30221 45.08191
# Shear Modulus (GPa) = 20.45280 22.73380 21.59330
#
# Velocity S-wave (km/s) = 3.56670 3.76033 3.66479
# Velocity P-wave (km/s) = 6.36484 7.16831 6.77849
#
# Compressibility (1/GPa) = 0.02641199
#
# Stress axis : x y z
#
# Youngs Moduli (GPa) = 79.18828 36.27423 48.79103
#
# Poissons Ratio (x) = 0.18834 0.25503
# Poissons Ratio (y) = 0.41116 0.32791
# Poissons Ratio (z) = 0.41391 0.24378
#
# Static dielectric constant tensor:
#      x y z
#    x 3.079360 -0.000090 0.233770 
#    y -0.000090 2.968000 0.000090 
#    z 0.233770 0.000090 3.218930 
# 
# 
# High freq. dielectric constant tensor:
#      x y z
#    x 1.600060 -0.000010 0.016100 
#    y -0.000010 1.615220 0.000010 
#    z 0.016100 0.000010 1.609090 
# 
# From -- ./inp_files/248274.got.cif
#   From: 2010.06.25/outbox.cif.g09.slc.cpg/sg12_125_cif.got.tgz:248274.got - 2010.06.28 00:19:55.
