data_PCOD8085598
_publ_section_title
;
Structure prediction by ZEFSAII (Michael W. Deem and Ramdas Pophale) SiO2 
 PCOD8085598
Probable space group: C 2/M
;
_chemical_formula_sum "Si O2"
_cell_formula_units_Z 56
_cell_length_a 29.014277
_cell_length_b 10.678479
_cell_length_c 27.162501
_cell_angle_alpha 90.000000
_cell_angle_beta 21.280094
_cell_angle_gamma 90.000000
_cell_volume 3054.293739
_symmetry_space_group_name_H-M "C 2/M"
_symmetry_group_IT_number 12
_symmetry_cell_setting 'monoclinic'
loop_
_space_group_symop_operation_xyz
x,y,z
-x,y,-z
-x,-y,-z
x,-y,z
1/2+x,1/2+y,z
1/2-x,1/2+y,-z
1/2-x,1/2-y,-z
1/2+x,1/2-y,z
loop_
_atom_site_type_symbol
_atom_site_label
_atom_site_fract_x
_atom_site_fract_y
_atom_site_fract_z
Si Si1 0.367468 0.852913 0.650475
Si Si2 0.961408 0.236797 0.807047
Si Si3 0.137909 0.357632 0.230795
Si Si4 0.118337 0.357211 0.569985
Si Si5 0.124174 0.147088 0.731900
Si Si6 0.229848 0.863918 0.074202
Si Si7 0.113787 0.149583 0.852605
O O1 0.500000 0.791800 0.500000
O O2 0.347760 0.821701 0.726955
O O3 0.247883 0.797639 0.739505
O O4 0.373774 0.000000 0.634848
O O5 0.882197 0.134780 0.854813
O O6 0.081908 0.282134 0.655457
O O7 0.007715 0.179600 0.812314
O O8 0.866358 0.353212 0.911489
O O9 0.188011 0.500000 0.170755
O O10 0.219864 0.255133 0.120155
O O11 0.991164 0.347541 0.361954
O O12 0.143638 0.500000 0.560387
O O13 0.244600 0.296623 0.420471
O O14 0.096044 0.200744 0.814517
O O15 0.141119 0.000000 0.719723
O O16 0.224169 0.000000 0.106632
O O17 0.112345 0.000000 0.855604
O O18 0.000000 0.202179 0.000000
#
# Coordination Sequence:
#
# PCOD8085598 Si02
#       7
#     8   8   8   8   8   8   8
#     4   9  16  28  48  74 103 134 169 212 260 307
#     4  10  20  32  50  70  97 134 177 211 249 304
#     4   9  18  31  53  79 105 136 171 210 256 307
#     4   9  17  31  48  72 102 130 164 208 254 303
#     4  10  19  30  48  72 102 134 164 206 261 311
#     4  10  21  35  50  73 104 135 172 215 256 305
#     4   9  18  29  42  67 103 132 161 206 258 305
#
# _framework density 18.334842999999999
#
# number of rings (size 3 to 8) (size 9 to 14) (size 15 to 20)
#    0.000    2.571    0.000    2.143    2.000    7.429 
#    0.000    0.000    0.000    1.286    0.000    3.000 
#    0.000    0.000    0.000    0.000    0.000    0.000 
#
# Total GULP energy -347072.858628 kJ/mol
# GULP energy per Si atom -12395.459237 kJ/mol
# Density = 1.829311 g / cm^3
# Si number density = 18.334843 Si / 1000 Ang^3
#
#
#
# Elastic Constant Matrix: (Units=GPa)
#
#
# Indices 1 2 3 4 5 6 
#
# 1 135.1265 22.8603 53.1554 -0.0006 10.0595 0.0003
# 2 22.8603 61.1791 24.2483 -0.0012 14.1452 0.0018
# 3 53.1554 24.2483 126.6582 -0.0002 14.8973 0.0009
# 4 -0.0006 -0.0012 -0.0002 7.7808 0.0006 3.6669
# 5 10.0595 14.1452 14.8973 0.0006 23.9992 -0.0004
# 6 0.0003 0.0018 0.0009 3.6669 -0.0004 16.4812
#
#
#
# Elastic Compliance Matrix: (Units=1/GPa)
#
#
# Indices 1 2 3 4 5 6 
#
# 1 0.009100 -0.001926 -0.003382 0.000000 -0.000580 0.000000
# 2 -0.001926 0.020091 -0.001877 0.000005 -0.009869 -0.000003
# 3 -0.003382 -0.001877 0.010116 0.000000 -0.003755 0.000000
# 4 0.000000 0.000005 0.000000 0.143577 -0.000008 -0.031944
# 5 -0.000580 -0.009869 -0.003755 -0.000008 0.050059 0.000004
# 6 0.000000 -0.000003 0.000000 -0.031944 0.000004 0.067782
#
#
# Mechanical properties :
#
#
# Convention : Reuss Voigt Hill
#
# Bulk Modulus (GPa) = 40.10242 58.16576 49.13409
# Shear Modulus (GPa) = 15.46040 24.49888 19.97964
#
# Velocity S-wave (km/s) = 2.90698 3.65936 3.30465
# Velocity P-wave (km/s) = 5.76083 7.04611 6.43563
#
# Compressibility (1/GPa) = 0.02493615
#
# Stress axis : x y z
#
# Youngs Moduli (GPa) = 109.89168 49.77364 98.85577
#
# Poissons Ratio (x) = 0.09585 0.33434
# Poissons Ratio (y) = 0.21162 0.18559
# Poissons Ratio (z) = 0.37167 0.09344
#
# Static dielectric constant tensor:
#      x y z
#    x 3.435050 0.000000 0.027880 
#    y 0.000000 2.851950 0.000010 
#    z 0.027880 0.000010 3.567620 
# 
# 
# High freq. dielectric constant tensor:
#      x y z
#    x 1.715360 0.000000 -0.000210 
#    y 0.000000 1.646690 0.000000 
#    z -0.000210 0.000000 1.724610 
# 
# From -- ./inp_files/110086.got.cif
#   From: 2010.06.25/outbox.cif.g09.slc.cpg/sg12_56_cif.got.tgz:110086.got - 2010.06.28 00:19:55.
