data_PCOD8085385
_publ_section_title
;
Structure prediction by ZEFSAII (Michael W. Deem and Ramdas Pophale) SiO2 
 PCOD8085385
Probable space group: C 2/M
;
_chemical_formula_sum "Si O2"
_cell_formula_units_Z 48
_cell_length_a 27.518292
_cell_length_b 9.019114
_cell_length_c 11.708882
_cell_angle_alpha 90.000000
_cell_angle_beta 71.498333
_cell_angle_gamma 90.000000
_cell_volume 2755.834522
_symmetry_space_group_name_H-M "C 2/M"
_symmetry_group_IT_number 12
_symmetry_cell_setting 'monoclinic'
loop_
_space_group_symop_operation_xyz
x,y,z
-x,y,-z
-x,-y,-z
x,-y,z
1/2+x,1/2+y,z
1/2-x,1/2+y,-z
1/2-x,1/2-y,-z
1/2+x,1/2-y,z
loop_
_atom_site_type_symbol
_atom_site_label
_atom_site_fract_x
_atom_site_fract_y
_atom_site_fract_z
Si Si1 0.038813 0.668657 0.115548
Si Si2 0.123435 0.170229 0.914277
Si Si3 0.195759 0.324019 0.022526
Si Si4 0.388819 0.166729 0.734959
Si Si5 0.560908 0.670553 0.751920
Si Si6 0.055736 0.174039 0.496334
O O1 0.041704 0.500000 0.066712
O O2 0.059786 0.675516 0.228514
O O3 0.980868 0.724632 0.157556
O O4 0.071484 0.776983 0.012573
O O5 0.113800 0.187806 0.784742
O O6 0.134202 0.000000 0.938781
O O7 0.171557 0.267385 0.921001
O O8 0.200752 0.500000 0.011962
O O9 0.159191 0.274177 0.154592
O O10 0.250000 0.250000 0.000000
O O11 0.398231 0.263090 0.615405
O O12 0.377326 0.000000 0.703974
O O13 0.541629 0.500000 0.769701
O O14 0.569403 0.720943 0.615308
O O15 0.000000 0.237593 0.500000
O O16 0.055983 0.000000 0.479106
#
# Coordination Sequence:
#
# PCOD8085385 Si02
#       6
#     8   8   8   8   8   8
#     4  10  19  30  46  70 102 137 174 213 252 300
#     4  10  20  33  50  72 102 135 168 210 259 306
#     4  10  21  38  59  82 103 126 164 212 264 313
#     4   9  19  33  49  74 104 133 168 210 253 300
#     4  10  20  32  46  70 103 140 176 209 250 300
#     4  10  19  31  49  72 102 141 181 213 242 291
#
# _framework density 17.417591000000002
#
# number of rings (size 3 to 8) (size 9 to 14) (size 15 to 20)
#    0.000    2.167    1.667    3.000    0.000    7.667 
#    0.000    0.000    0.000    1.000    0.000    0.000 
#    0.000    0.000    0.000    0.000    0.000    0.000 
#
# Total GULP energy -297547.237753 kJ/mol
# GULP energy per Si atom -12397.801573 kJ/mol
# Density = 1.737795 g / cm^3
# Si number density = 17.417591 Si / 1000 Ang^3
#
#
#
# Elastic Constant Matrix: (Units=GPa)
#
#
# Indices 1 2 3 4 5 6 
#
# 1 113.7445 42.2371 54.8216 0.0000 7.7115 0.0000
# 2 42.2371 67.3886 33.6654 0.0000 5.7896 0.0000
# 3 54.8216 33.6654 87.3170 0.0000 17.4130 0.0000
# 4 0.0000 0.0000 0.0000 26.0704 0.0000 -3.0007
# 5 7.7115 5.7896 17.4130 0.0000 20.5880 0.0000
# 6 0.0000 0.0000 0.0000 -3.0007 0.0000 27.3436
#
#
#
# Elastic Compliance Matrix: (Units=1/GPa)
#
#
# Indices 1 2 3 4 5 6 
#
# 1 0.014152 -0.005448 -0.007257 0.000000 0.002369 0.000000
# 2 -0.005448 0.020494 -0.004497 0.000000 0.000081 0.000000
# 3 -0.007257 -0.004497 0.020387 0.000000 -0.013260 0.000000
# 4 0.000000 0.000000 0.000000 0.038848 0.000000 0.004263
# 5 0.002369 0.000081 -0.013260 0.000000 0.058877 0.000000
# 6 0.000000 0.000000 0.000000 0.004263 0.000000 0.037039
#
#
# Mechanical properties :
#
#
# Convention : Reuss Voigt Hill
#
# Bulk Modulus (GPa) = 48.47749 58.87761 53.67755
# Shear Modulus (GPa) = 21.63775 23.98213 22.80994
#
# Velocity S-wave (km/s) = 3.52844 3.71467 3.62275
# Velocity P-wave (km/s) = 6.67029 7.23017 6.95586
#
# Compressibility (1/GPa) = 0.02062813
#
# Stress axis : x y z
#
# Youngs Moduli (GPa) = 70.66259 48.79577 49.05063
#
# Poissons Ratio (x) = 0.26584 0.35597
# Poissons Ratio (y) = 0.38497 0.22058
# Poissons Ratio (z) = 0.51281 0.21944
#
# Static dielectric constant tensor:
#      x y z
#    x 3.095390 0.000000 0.215120 
#    y 0.000000 3.257230 0.000000 
#    z 0.215120 0.000000 3.246790 
# 
# 
# High freq. dielectric constant tensor:
#      x y z
#    x 1.646180 0.000000 0.019190 
#    y 0.000000 1.679820 0.000000 
#    z 0.019190 0.000000 1.663370 
# 
# From -- ./inp_files/172151.got.cif
#   From: 2010.06.25/outbox.cif.g09.slc.cpg/sg12_87_cif.got.tgz:172151.got - 2010.06.28 00:19:55.
