data_PCOD8085213
_publ_section_title
;
Structure prediction by ZEFSAII (Michael W. Deem and Ramdas Pophale) SiO2 
 PCOD8085213
Probable space group: C 2/M
;
_chemical_formula_sum "Si O2"
_cell_formula_units_Z 48
_cell_length_a 5.291749
_cell_length_b 26.932235
_cell_length_c 20.759441
_cell_angle_alpha 90.000000
_cell_angle_beta 67.519603
_cell_angle_gamma 90.000000
_cell_volume 2733.783701
_symmetry_space_group_name_H-M "C 2/M"
_symmetry_group_IT_number 12
_symmetry_cell_setting 'monoclinic'
loop_
_space_group_symop_operation_xyz
x,y,z
-x,y,-z
-x,-y,-z
x,-y,z
1/2+x,1/2+y,z
1/2-x,1/2+y,-z
1/2-x,1/2-y,-z
1/2+x,1/2-y,z
loop_
_atom_site_type_symbol
_atom_site_label
_atom_site_fract_x
_atom_site_fract_y
_atom_site_fract_z
Si Si1 0.043103 0.441359 0.804600
Si Si2 0.115231 0.809167 0.423164
Si Si3 0.185428 0.643287 0.376367
Si Si4 0.808345 0.440748 0.961104
Si Si5 0.187525 0.765460 0.708327
Si Si6 0.334439 0.441315 0.277038
O O1 0.035048 0.500000 0.809975
O O2 0.926087 0.419205 0.882611
O O3 0.851007 0.423685 0.764881
O O4 0.354354 0.423684 0.764878
O O5 0.367956 0.844526 0.418513
O O6 0.201184 0.765302 0.365860
O O7 0.000000 0.784199 0.500000
O O8 0.876431 0.844522 0.418520
O O9 0.291561 0.676303 0.305619
O O10 0.222109 0.586013 0.351920
O O11 0.809067 0.500000 0.960622
O O12 0.500000 0.420773 0.000000
O O13 0.000000 0.420773 0.000000
O O14 0.373005 0.750001 0.751341
O O15 0.313106 0.500000 0.291259
#
# Coordination Sequence:
#
# PCOD8085213 Si02
#       6
#     8   8   8   8   8   8
#     4   9  17  28  42  60  81 111 150 184 209 236
#     4  10  19  31  48  68  86 103 129 167 218 279
#     4  10  19  30  45  64  84 109 140 172 212 249
#     4   9  15  23  37  58  83 107 135 175 217 250
#     4   8  16  27  42  64  86 103 125 156 206 262
#     4  10  19  31  45  59  81 115 155 186 200 230
#
# _framework density 17.558084000000001
#
# number of rings (size 3 to 8) (size 9 to 14) (size 15 to 20)
#    0.000    2.667    0.000    2.500    0.000   10.000 
#    0.000    0.000    0.000    3.000    0.000    0.000 
#    0.000    0.000    0.000    0.000    0.000  525.000 
#
# Total GULP energy -297398.381212 kJ/mol
# GULP energy per Si atom -12391.599217 kJ/mol
# Density = 1.751812 g / cm^3
# Si number density = 17.558084 Si / 1000 Ang^3
#
#
#
# Elastic Constant Matrix: (Units=GPa)
#
#
# Indices 1 2 3 4 5 6 
#
# 1 169.4372 17.9251 16.6896 0.0000 -4.4861 0.0000
# 2 17.9251 42.8406 18.6709 0.0000 0.0358 0.0000
# 3 16.6896 18.6709 44.8816 0.0000 -0.1622 0.0000
# 4 0.0000 0.0000 0.0000 4.5279 0.0000 -0.3230
# 5 -4.4861 0.0358 -0.1622 0.0000 16.6262 0.0000
# 6 0.0000 0.0000 0.0000 -0.3230 0.0000 13.1012
#
#
#
# Elastic Compliance Matrix: (Units=1/GPa)
#
#
# Indices 1 2 3 4 5 6 
#
# 1 0.006305 -0.001979 -0.001515 0.000000 0.001691 0.000000
# 2 -0.001979 0.029134 -0.011386 0.000000 -0.000708 0.000000
# 3 -0.001515 -0.011386 0.027581 0.000000 -0.000115 0.000000
# 4 0.000000 0.000000 0.000000 0.221241 0.000000 0.005454
# 5 0.001691 -0.000708 -0.000115 0.000000 0.060603 0.000000
# 6 0.000000 0.000000 0.000000 0.005454 0.000000 0.076464
#
#
# Mechanical properties :
#
#
# Convention : Reuss Voigt Hill
#
# Bulk Modulus (GPa) = 30.06792 40.41452 35.24122
# Shear Modulus (GPa) = 10.81843 20.44264 15.63054
#
# Velocity S-wave (km/s) = 2.48493 3.41587 2.98689
# Velocity P-wave (km/s) = 5.03936 6.21491 5.65775
#
# Compressibility (1/GPa) = 0.03325804
#
# Stress axis : x y z
#
# Youngs Moduli (GPa) = 158.59685 34.32474 36.25741
#
# Poissons Ratio (x) = 0.06794 0.05494
# Poissons Ratio (y) = 0.31391 0.41283
# Poissons Ratio (z) = 0.24030 0.39083
#
# Static dielectric constant tensor:
#      x y z
#    x 4.228120 0.000000 -0.048370 
#    y 0.000000 2.812990 0.000000 
#    z -0.048370 0.000000 2.941130 
# 
# 
# High freq. dielectric constant tensor:
#      x y z
#    x 1.719340 0.000000 -0.003340 
#    y 0.000000 1.627120 0.000000 
#    z -0.003340 0.000000 1.630430 
# 
# From -- ./inp_files/192326.got.cif
#   From: 2010.06.25/outbox.cif.g09.slc.cpg/sg12_97_cif.got.tgz:192326.got - 2010.06.28 00:19:55.
