data_PCOD8085566
_publ_section_title
;
Structure prediction by ZEFSAII (Michael W. Deem and Ramdas Pophale) SiO2 
 PCOD8085566
Probable space group: C 2/M
;
_chemical_formula_sum "Si O2"
_cell_formula_units_Z 48
_cell_length_a 23.570398
_cell_length_b 9.131101
_cell_length_c 12.726516
_cell_angle_alpha 90.000000
_cell_angle_beta 90.109209
_cell_angle_gamma 90.000000
_cell_volume 2739.042692
_symmetry_space_group_name_H-M "C 2/M"
_symmetry_group_IT_number 12
_symmetry_cell_setting 'monoclinic'
loop_
_space_group_symop_operation_xyz
x,y,z
-x,y,-z
-x,-y,-z
x,-y,z
1/2+x,1/2+y,z
1/2-x,1/2+y,-z
1/2-x,1/2-y,-z
1/2+x,1/2-y,z
loop_
_atom_site_type_symbol
_atom_site_label
_atom_site_fract_x
_atom_site_fract_y
_atom_site_fract_z
Si Si1 0.817780 0.328724 0.894800
Si Si2 0.998329 0.825821 0.618604
Si Si3 0.190768 0.828544 0.494915
Si Si4 0.380159 0.328223 0.710216
Si Si5 0.618749 0.326140 0.689996
Si Si6 0.812607 0.171624 0.109294
O O1 0.829666 0.500000 0.901404
O O2 0.860041 0.259064 0.811399
O O3 0.752829 0.295215 0.862365
O O4 0.831952 0.258856 0.007040
O O5 0.942822 0.770854 0.680040
O O6 0.000000 0.761997 0.500000
O O7 0.053696 0.771345 0.682883
O O8 0.996661 0.000000 0.610789
O O9 0.250000 0.750000 0.500000
O O10 0.161453 0.791043 0.385230
O O11 0.151906 0.766174 0.588565
O O12 0.200737 0.000000 0.508817
O O13 0.380229 0.500000 0.736139
O O14 0.620811 0.500000 0.688898
O O15 0.648609 0.267934 0.795704
O O16 0.821823 0.000000 0.088453
#
# Coordination Sequence:
#
# PCOD8085566 Si02
#       6
#     8   8   8   8   8   8
#     4  10  20  34  52  73 101 135 166 204 253 300
#     4   9  15  28  50  76 101 129 166 207 247 287
#     4  10  19  30  47  74 105 132 159 198 248 299
#     4  10  19  31  51  77 102 130 167 206 245 295
#     4   9  16  29  50  74 100 128 163 207 251 290
#     4   9  18  33  53  75  98 129 169 209 248 294
#
# _framework density 17.524370999999999
#
# number of rings (size 3 to 8) (size 9 to 14) (size 15 to 20)
#    0.000    2.500    1.667    1.500    0.000    2.667 
#    0.000    1.667    0.000    7.500    0.000    0.000 
#    0.000    0.000    0.000    0.000    0.000    0.000 
#
# Total GULP energy -297594.231542 kJ/mol
# GULP energy per Si atom -12399.759648 kJ/mol
# Density = 1.748448 g / cm^3
# Si number density = 17.524371 Si / 1000 Ang^3
#
#
#
# Elastic Constant Matrix: (Units=GPa)
#
#
# Indices 1 2 3 4 5 6 
#
# 1 134.7576 30.1033 69.2770 0.0000 -14.4831 0.0000
# 2 30.1033 32.1264 39.0622 0.0000 -9.2946 0.0000
# 3 69.2770 39.0622 131.9064 0.0000 -16.8305 0.0000
# 4 0.0000 0.0000 0.0000 15.5360 0.0000 -1.1033
# 5 -14.4831 -9.2946 -16.8305 0.0000 31.9116 0.0000
# 6 0.0000 0.0000 0.0000 -1.1033 0.0000 21.2649
#
#
#
# Elastic Compliance Matrix: (Units=1/GPa)
#
#
# Indices 1 2 3 4 5 6 
#
# 1 0.010702 -0.004708 -0.004054 0.000000 0.001347 0.000000
# 2 -0.004708 0.052236 -0.012145 0.000000 0.006672 0.000000
# 3 -0.004054 -0.012145 0.013531 0.000000 0.001759 0.000000
# 4 0.000000 0.000000 0.000000 0.064605 0.000000 0.003352
# 5 0.001347 0.006672 0.001759 0.000000 0.034819 0.000000
# 6 0.000000 0.000000 0.000000 0.003352 0.000000 0.047200
#
#
# Mechanical properties :
#
#
# Convention : Reuss Voigt Hill
#
# Bulk Modulus (GPa) = 28.85653 63.96394 46.41023
# Shear Modulus (GPa) = 18.08587 24.43236 21.25911
#
# Velocity S-wave (km/s) = 3.21603 3.73794 3.48676
# Velocity P-wave (km/s) = 5.50388 7.43026 6.53841
#
# Compressibility (1/GPa) = 0.03465420
#
# Stress axis : x y z
#
# Youngs Moduli (GPa) = 93.44448 19.14385 73.90217
#
# Poissons Ratio (x) = 0.09014 0.29961
# Poissons Ratio (y) = 0.43997 0.89753
# Poissons Ratio (z) = 0.37884 0.23250
#
# Static dielectric constant tensor:
#      x y z
#    x 3.419350 0.000000 0.062840 
#    y 0.000000 2.901100 0.000000 
#    z 0.062840 0.000000 3.327060 
# 
# 
# High freq. dielectric constant tensor:
#      x y z
#    x 1.682300 0.000000 -0.000240 
#    y 0.000000 1.639280 0.000000 
#    z -0.000240 0.000000 1.682910 
# 
# From -- ./inp_files/172021.got.cif
#   From: 2010.06.25/outbox.cif.g09.slc.cpg/sg12_87_cif.got.tgz:172021.got - 2010.06.28 00:19:55.
