data_PCOD8085638
_publ_section_title
;
Structure prediction by ZEFSAII (Michael W. Deem and Ramdas Pophale) SiO2 
 PCOD8085638
Probable space group: C 2/M
;
_chemical_formula_sum "Si O2"
_cell_formula_units_Z 64
_cell_length_a 20.673678
_cell_length_b 8.921142
_cell_length_c 23.452150
_cell_angle_alpha 90.000000
_cell_angle_beta 128.236563
_cell_angle_gamma 90.000000
_cell_volume 3397.395421
_symmetry_space_group_name_H-M "C 2/M"
_symmetry_group_IT_number 12
_symmetry_cell_setting 'monoclinic'
loop_
_space_group_symop_operation_xyz
x,y,z
-x,y,-z
-x,-y,-z
x,-y,z
1/2+x,1/2+y,z
1/2-x,1/2+y,-z
1/2-x,1/2-y,-z
1/2+x,1/2-y,z
loop_
_atom_site_type_symbol
_atom_site_label
_atom_site_fract_x
_atom_site_fract_y
_atom_site_fract_z
Si Si1 0.922143 0.666318 0.496416
Si Si2 0.274510 0.823586 0.344410
Si Si3 0.121758 0.332312 0.304623
Si Si4 0.020143 0.828145 0.834129
Si Si5 0.772993 0.821489 0.805818
Si Si6 0.868149 0.174189 0.206610
Si Si7 0.959366 0.174660 0.921583
Si Si8 0.484854 0.828303 0.647429
O O1 0.890170 0.500000 0.495794
O O2 0.850856 0.750120 0.420974
O O3 0.950389 0.747091 0.570348
O O4 0.000000 0.654215 0.500000
O O5 0.194053 0.785629 0.336402
O O6 0.266015 0.761865 0.275138
O O7 0.286899 0.000000 0.347349
O O8 0.150617 0.500000 0.304185
O O9 0.093083 0.323763 0.353823
O O10 0.046594 0.288468 0.223574
O O11 0.105181 0.798171 0.845480
O O12 0.023443 0.798568 0.903997
O O13 0.991601 0.000000 0.807072
O O14 0.718187 0.757013 0.827932
O O15 0.867205 0.760085 0.860696
O O16 0.771320 0.000000 0.807989
O O17 0.938913 0.233996 0.287258
O O18 0.855714 0.000000 0.212034
O O19 0.947363 0.000000 0.926088
O O20 0.000000 0.249812 0.000000
O O21 0.515785 0.000000 0.654601
#
# Coordination Sequence:
#
# PCOD8085638 Si02
#       8
#     8   8   8   8   8   8   8   8
#     4   9  17  30  49  69  91 126 172 217 255 296
#     4  10  19  32  52  74  96 130 174 214 253 302
#     4  10  19  30  48  74 102 132 165 209 258 300
#     4   9  17  34  55  76 103 135 173 207 247 303
#     4  10  19  33  54  78 103 132 171 215 252 301
#     4  10  20  32  52  78 105 138 171 211 255 300
#     4   9  17  32  57  83 102 128 171 216 251 292
#     4   9  18  33  50  71 100 133 173 213 253 301
#
# _framework density 18.837959999999999
#
# number of rings (size 3 to 8) (size 9 to 14) (size 15 to 20)
#    0.000    2.500    1.250    1.500    0.000    4.000 
#    0.000    1.250    0.000    3.000    0.000    0.000 
#    0.000    0.000    0.000    0.000    0.000    0.000 
#
# Total GULP energy -396538.612973 kJ/mol
# GULP energy per Si atom -12391.831655 kJ/mol
# Density = 1.879508 g / cm^3
# Si number density = 18.837960 Si / 1000 Ang^3
#
#
#
# Elastic Constant Matrix: (Units=GPa)
#
#
# Indices 1 2 3 4 5 6 
#
# 1 120.7213 22.7383 54.7676 0.0000 -9.8839 0.0000
# 2 22.7383 20.3794 16.7837 0.0000 -4.4381 0.0000
# 3 54.7676 16.7837 108.5223 0.0000 -21.7821 0.0000
# 4 0.0000 0.0000 0.0000 17.6032 0.0000 -2.1234
# 5 -9.8839 -4.4381 -21.7821 0.0000 27.3828 0.0000
# 6 0.0000 0.0000 0.0000 -2.1234 0.0000 31.5123
#
#
#
# Elastic Compliance Matrix: (Units=1/GPa)
#
#
# Indices 1 2 3 4 5 6 
#
# 1 0.012275 -0.009912 -0.004873 0.000000 -0.001052 0.000000
# 2 -0.009912 0.064392 -0.004260 0.000000 0.003470 0.000000
# 3 -0.004873 -0.004260 0.014091 0.000000 0.008759 0.000000
# 4 0.000000 0.000000 0.000000 0.057273 0.000000 0.003859
# 5 -0.001052 0.003470 0.008759 0.000000 0.043670 0.000000
# 6 0.000000 0.000000 0.000000 0.003859 0.000000 0.031994
#
#
# Mechanical properties :
#
#
# Convention : Reuss Voigt Hill
#
# Bulk Modulus (GPa) = 18.98670 48.68912 33.83791
# Shear Modulus (GPa) = 17.89928 25.65523 21.77726
#
# Velocity S-wave (km/s) = 3.08583 3.69438 3.40373
# Velocity P-wave (km/s) = 4.77465 6.64081 5.78350
#
# Compressibility (1/GPa) = 0.05266846
#
# Stress axis : x y z
#
# Youngs Moduli (GPa) = 81.46580 15.52986 70.96734
#
# Poissons Ratio (x) = 0.15393 0.34583
# Poissons Ratio (y) = 0.80747 0.30232
# Poissons Ratio (z) = 0.39699 0.06616
#
# Static dielectric constant tensor:
#      x y z
#    x 3.620850 0.000000 -0.120660 
#    y 0.000000 3.228600 0.000000 
#    z -0.120660 0.000000 3.614210 
# 
# 
# High freq. dielectric constant tensor:
#      x y z
#    x 1.742440 0.000000 -0.010890 
#    y 0.000000 1.694750 0.000000 
#    z -0.010890 0.000000 1.716350 
# 
# From -- ./inp_files/346278.got.cif
#   From: 2010.06.25/outbox.cif.g09.slc.cpg/sg12_174_cif.got.tgz:346278.got - 2010.06.28 00:19:55.
