data_PCOD8085378
_publ_section_title
;
Structure prediction by ZEFSAII (Michael W. Deem and Ramdas Pophale) SiO2 
 PCOD8085378
Probable space group: C 2/M
;
_chemical_formula_sum "Si O2"
_cell_formula_units_Z 64
_cell_length_a 28.888005
_cell_length_b 8.978811
_cell_length_c 16.589816
_cell_angle_alpha 90.000000
_cell_angle_beta 65.035516
_cell_angle_gamma 90.000000
_cell_volume 3901.028227
_symmetry_space_group_name_H-M "C 2/M"
_symmetry_group_IT_number 12
_symmetry_cell_setting 'monoclinic'
loop_
_space_group_symop_operation_xyz
x,y,z
-x,y,-z
-x,-y,-z
x,-y,z
1/2+x,1/2+y,z
1/2-x,1/2+y,-z
1/2-x,1/2-y,-z
1/2+x,1/2-y,z
loop_
_atom_site_type_symbol
_atom_site_label
_atom_site_fract_x
_atom_site_fract_y
_atom_site_fract_z
Si Si1 0.321515 0.669085 0.920369
Si Si2 0.220148 0.326858 0.901522
Si Si3 0.275088 0.322446 0.266195
Si Si4 0.399368 0.331664 0.733684
Si Si5 0.160741 0.325479 0.353166
Si Si6 0.107866 0.674405 0.549210
Si Si7 0.295861 0.823582 0.415007
Si Si8 0.992509 0.826966 0.413686
O O1 0.311710 0.500000 0.956828
O O2 0.278374 0.710573 0.885203
O O3 0.378400 0.685409 0.840468
O O4 0.317972 0.778391 0.998826
O O5 0.212530 0.500000 0.889026
O O6 0.203114 0.235395 0.834890
O O7 0.280832 0.500000 0.267192
O O8 0.217479 0.261515 0.313065
O O9 0.302562 0.246128 0.321632
O O10 0.388779 0.500000 0.710526
O O11 0.366885 0.214475 0.708163
O O12 0.458774 0.293738 0.679093
O O13 0.164624 0.500000 0.360551
O O14 0.129360 0.257392 0.450258
O O15 0.097932 0.500000 0.550802
O O16 0.149117 0.712573 0.586980
O O17 0.053268 0.751097 0.602176
O O18 0.250000 0.750000 0.500000
O O19 0.285540 0.000000 0.419687
O O20 0.000000 0.763409 0.500000
O O21 0.980265 0.000000 0.429383
#
# Coordination Sequence:
#
# PCOD8085378 Si02
#       8
#     8   8   8   8   8   8   8   8
#     4   9  18  31  47  69 100 134 165 203 248 294
#     4  10  19  31  49  73  99 131 167 204 249 298
#     4  11  21  34  50  73 102 134 170 206 247 297
#     4  10  19  32  48  71 100 133 172 205 243 292
#     4  10  19  30  46  69  99 132 168 204 242 287
#     4  10  21  36  49  68  99 133 169 208 246 288
#     4  11  22  36  52  73 100 132 171 210 249 295
#     4  10  20  32  49  73  99 130 169 208 244 289
#
# _framework density 16.405932
#
# number of rings (size 3 to 8) (size 9 to 14) (size 15 to 20)
#    0.000    1.875    3.750    1.125    0.000    3.250 
#    0.000    0.000    0.000    0.000    0.000    0.875 
#    0.000    7.000    0.000    0.000    0.000    0.000 
#
# Total GULP energy -396709.106054 kJ/mol
# GULP energy per Si atom -12397.159564 kJ/mol
# Density = 1.636859 g / cm^3
# Si number density = 16.405932 Si / 1000 Ang^3
#
#
#
# Elastic Constant Matrix: (Units=GPa)
#
#
# Indices 1 2 3 4 5 6 
#
# 1 96.4219 39.8743 48.2957 0.0000 -2.8204 0.0000
# 2 39.8743 58.9489 39.1428 0.0000 4.5617 0.0000
# 3 48.2957 39.1428 106.3519 0.0000 -4.2940 0.0000
# 4 0.0000 0.0000 0.0000 27.7576 0.0000 2.7992
# 5 -2.8204 4.5617 -4.2940 0.0000 24.2317 0.0000
# 6 0.0000 0.0000 0.0000 2.7992 0.0000 24.9616
#
#
#
# Elastic Compliance Matrix: (Units=1/GPa)
#
#
# Indices 1 2 3 4 5 6 
#
# 1 0.015907 -0.008262 -0.004074 0.000000 0.002685 0.000000
# 2 -0.008262 0.027561 -0.006688 0.000000 -0.007335 0.000000
# 3 -0.004074 -0.006688 0.013845 0.000000 0.003238 0.000000
# 4 0.000000 0.000000 0.000000 0.036438 0.000000 -0.004086
# 5 0.002685 -0.007335 0.003238 0.000000 0.043536 0.000000
# 6 0.000000 0.000000 0.000000 -0.004086 0.000000 0.040520
#
#
# Mechanical properties :
#
#
# Convention : Reuss Voigt Hill
#
# Bulk Modulus (GPa) = 51.90955 57.37203 54.64079
# Shear Modulus (GPa) = 22.49436 24.35084 23.42260
#
# Velocity S-wave (km/s) = 3.70687 3.85680 3.78258
# Velocity P-wave (km/s) = 7.07323 7.40807 7.24258
#
# Compressibility (1/GPa) = 0.01926428
#
# Stress axis : x y z
#
# Youngs Moduli (GPa) = 62.86486 36.28285 72.22709
#
# Poissons Ratio (x) = 0.29978 0.29427
# Poissons Ratio (y) = 0.51941 0.48306
# Poissons Ratio (z) = 0.25613 0.24266
#
# Static dielectric constant tensor:
#      x y z
#    x 2.961010 0.000000 -0.078630 
#    y 0.000000 3.070630 0.000000 
#    z -0.078630 0.000000 3.110410 
# 
# 
# High freq. dielectric constant tensor:
#      x y z
#    x 1.601610 0.000000 -0.004960 
#    y 0.000000 1.635830 0.000000 
#    z -0.004960 0.000000 1.625850 
# 
# From -- ./inp_files/243798.got.cif
#   From: 2010.06.25/outbox.cif.g09.slc.cpg/sg12_122_cif.got.tgz:243798.got - 2010.06.28 00:19:55.
