data_PCOD8085327
_publ_section_title
;
Structure prediction by ZEFSAII (Michael W. Deem and Ramdas Pophale) SiO2 
 PCOD8085327
Probable space group: C 2/M
;
_chemical_formula_sum "Si O2"
_cell_formula_units_Z 48
_cell_length_a 19.443170
_cell_length_b 9.163742
_cell_length_c 24.736426
_cell_angle_alpha 90.000000
_cell_angle_beta 38.988673
_cell_angle_gamma 90.000000
_cell_volume 2772.953813
_symmetry_space_group_name_H-M "C 2/M"
_symmetry_group_IT_number 12
_symmetry_cell_setting 'monoclinic'
loop_
_space_group_symop_operation_xyz
x,y,z
-x,y,-z
-x,-y,-z
x,-y,z
1/2+x,1/2+y,z
1/2-x,1/2+y,-z
1/2-x,1/2-y,-z
1/2+x,1/2-y,z
loop_
_atom_site_type_symbol
_atom_site_label
_atom_site_fract_x
_atom_site_fract_y
_atom_site_fract_z
Si Si1 0.850368 0.829240 0.824938
Si Si2 0.309144 0.670042 0.012466
Si Si3 0.506202 0.668905 0.824314
Si Si4 0.751172 0.826730 0.316507
Si Si5 0.406878 0.670340 0.668320
Si Si6 0.422427 0.160578 0.495891
O O1 0.734508 0.745328 0.905777
O O2 0.892659 0.793622 0.739757
O O3 0.939973 0.768024 0.813071
O O4 0.828623 0.000000 0.847165
O O5 0.278945 0.500000 0.031484
O O6 0.250000 0.750000 0.000000
O O7 0.438990 0.691997 0.921661
O O8 0.524781 0.500000 0.800861
O O9 0.626212 0.739464 0.756857
O O10 0.688688 0.750366 0.305582
O O11 0.695555 0.789207 0.408688
O O12 0.746937 0.000000 0.308343
O O13 0.400129 0.500000 0.659899
O O14 0.527801 0.726624 0.577687
O O15 0.500000 0.152315 0.500000
O O16 0.414288 0.000000 0.473823
#
# Coordination Sequence:
#
# PCOD8085327 Si02
#       6
#     8   8   8   8   8   8
#     4   9  18  32  48  67  92 122 154 185 222 268
#     4   9  16  28  48  70  91 119 153 186 222 266
#     4   8  15  30  50  68  87 116 153 187 220 263
#     4   9  17  31  50  68  88 117 153 189 222 264
#     4  10  19  30  46  68  94 121 148 185 230 270
#     4   8  15  28  46  66  87 117 154 185 217 264
#
# _framework density 17.310061999999999
#
# number of rings (size 3 to 8) (size 9 to 14) (size 15 to 20)
#    0.000    3.167    0.000    3.000    0.000    4.333 
#    0.000    5.833    0.000    5.000    0.000    0.000 
#    0.000    0.000    0.000    0.000    0.000    0.000 
#
# Total GULP energy -297369.567316 kJ/mol
# GULP energy per Si atom -12390.398638 kJ/mol
# Density = 1.727066 g / cm^3
# Si number density = 17.310062 Si / 1000 Ang^3
#
#
#
# Elastic Constant Matrix: (Units=GPa)
#
#
# Indices 1 2 3 4 5 6 
#
# 1 45.0348 23.0757 36.7442 -0.0001 -7.1346 0.0001
# 2 23.0757 64.9310 53.2637 -0.0001 2.1844 0.0004
# 3 36.7442 53.2637 126.2108 -0.0001 -10.3129 -0.0001
# 4 -0.0001 -0.0001 -0.0001 32.0356 0.0000 4.5266
# 5 -7.1346 2.1844 -10.3129 0.0000 29.5129 0.0000
# 6 0.0001 0.0004 -0.0001 4.5266 0.0000 14.8953
#
#
#
# Elastic Compliance Matrix: (Units=1/GPa)
#
#
# Indices 1 2 3 4 5 6 
#
# 1 0.031276 -0.006498 -0.005874 0.000000 0.005989 0.000000
# 2 -0.006498 0.025763 -0.009537 0.000000 -0.006810 -0.000001
# 3 -0.005874 -0.009537 0.014000 0.000000 0.004178 0.000000
# 4 0.000000 0.000000 0.000000 0.032616 0.000000 -0.009912
# 5 0.005989 -0.006810 0.004178 0.000000 0.037295 0.000000
# 6 0.000000 -0.000001 0.000000 -0.009912 0.000000 0.070147
#
#
# Mechanical properties :
#
#
# Convention : Reuss Voigt Hill
#
# Bulk Modulus (GPa) = 36.73741 51.37152 44.05447
# Shear Modulus (GPa) = 18.94024 23.49498 21.21761
#
# Velocity S-wave (km/s) = 3.31142 3.68815 3.50485
# Velocity P-wave (km/s) = 5.99082 6.91942 6.47179
#
# Compressibility (1/GPa) = 0.02722021
#
# Stress axis : x y z
#
# Youngs Moduli (GPa) = 31.97338 38.81554 71.43108
#
# Poissons Ratio (x) = 0.25224 0.41956
# Poissons Ratio (y) = 0.20777 0.68124
# Poissons Ratio (z) = 0.18780 0.37019
#
# Static dielectric constant tensor:
#      x y z
#    x 2.998670 0.000000 -0.236670 
#    y 0.000000 3.208950 0.000000 
#    z -0.236670 0.000000 4.031200 
# 
# 
# High freq. dielectric constant tensor:
#      x y z
#    x 1.621550 0.000000 -0.008370 
#    y 0.000000 1.656100 0.000000 
#    z -0.008370 0.000000 1.689600 
# 
# From -- ./inp_files/345407.got.cif
#   From: 2010.06.25/outbox.cif.g09.slc.cpg/sg12_173_cif.got.tgz:345407.got - 2010.06.28 00:19:55.
