data_PCOD8085240
_publ_section_title
;
Structure prediction by ZEFSAII (Michael W. Deem and Ramdas Pophale) SiO2 
 PCOD8085240
Probable space group: C 2/M
;
_chemical_formula_sum "Si O2"
_cell_formula_units_Z 64
_cell_length_a 27.894997
_cell_length_b 8.894433
_cell_length_c 20.515631
_cell_angle_alpha 90.000000
_cell_angle_beta 134.310677
_cell_angle_gamma 90.000000
_cell_volume 3642.311482
_symmetry_space_group_name_H-M "C 2/M"
_symmetry_group_IT_number 12
_symmetry_cell_setting 'monoclinic'
loop_
_space_group_symop_operation_xyz
x,y,z
-x,y,-z
-x,-y,-z
x,-y,z
1/2+x,1/2+y,z
1/2-x,1/2+y,-z
1/2-x,1/2-y,-z
1/2+x,1/2-y,z
loop_
_atom_site_type_symbol
_atom_site_label
_atom_site_fract_x
_atom_site_fract_y
_atom_site_fract_z
Si Si1 0.927814 0.326459 0.153028
Si Si2 0.285293 0.820603 0.595248
Si Si3 0.765447 0.172253 0.708116
Si Si4 0.741667 0.174678 0.171858
Si Si5 0.934019 0.673800 0.759114
Si Si6 0.193958 0.827833 0.902235
Si Si7 0.423840 0.332522 0.876988
Si Si8 0.604840 0.323941 0.010009
O O1 0.910003 0.500000 0.146614
O O2 0.880891 0.232631 0.156361
O O3 0.007594 0.293931 0.239274
O O4 0.916091 0.284754 0.067281
O O5 0.250000 0.750000 0.500000
O O6 0.248531 0.755867 0.624377
O O7 0.362772 0.762428 0.667101
O O8 0.279483 0.000000 0.588344
O O9 0.727830 0.262535 0.730981
O O10 0.844154 0.182276 0.795644
O O11 0.740186 0.000000 0.681217
O O12 0.794770 0.193407 0.163956
O O13 0.680854 0.283389 0.097300
O O14 0.719977 0.000000 0.158867
O O15 0.924977 0.500000 0.762880
O O16 0.957718 0.735979 0.852264
O O17 0.196390 0.000000 0.925403
O O18 0.250000 0.750000 0.000000
O O19 0.448147 0.500000 0.885380
O O20 0.441704 0.290849 0.969714
O O21 0.601207 0.500000 0.987414
#
# Coordination Sequence:
#
# PCOD8085240 Si02
#       8
#     8   8   8   8   8   8   8   8
#     4  11  22  34  47  66  94 130 172 212 252 295
#     4  10  19  34  56  81 107 133 162 199 245 301
#     4   9  17  30  49  75 103 131 163 200 245 298
#     4  10  19  31  48  70  97 130 168 213 257 296
#     4   9  20  35  49  68  97 131 163 200 246 299
#     4  11  22  34  50  71  96 130 175 220 260 297
#     4   8  16  29  45  65  91 125 164 203 241 287
#     4  10  19  30  45  66  92 127 170 211 252 293
#
# _framework density 17.571258
#
# number of rings (size 3 to 8) (size 9 to 14) (size 15 to 20)
#    0.000    2.250    1.250    3.000    0.000    7.000 
#    0.000    2.500    0.000    0.000    0.000    0.875 
#    0.000    7.000    0.000    0.000    0.000    0.000 
#
# Total GULP energy -396590.561418 kJ/mol
# GULP energy per Si atom -12393.455044 kJ/mol
# Density = 1.753127 g / cm^3
# Si number density = 17.571258 Si / 1000 Ang^3
#
#
#
# Elastic Constant Matrix: (Units=GPa)
#
#
# Indices 1 2 3 4 5 6 
#
# 1 120.3388 48.9979 32.3287 0.0000 -11.9751 0.0000
# 2 48.9979 76.3333 20.8249 0.0000 -10.4462 0.0000
# 3 32.3287 20.8249 54.1764 0.0000 -19.5216 0.0000
# 4 0.0000 0.0000 0.0000 22.3768 0.0000 -6.9264
# 5 -11.9751 -10.4462 -19.5216 0.0000 19.7933 0.0000
# 6 0.0000 0.0000 0.0000 -6.9264 0.0000 29.9048
#
#
#
# Elastic Compliance Matrix: (Units=1/GPa)
#
#
# Indices 1 2 3 4 5 6 
#
# 1 0.012293 -0.006632 -0.005224 0.000000 -0.001215 0.000000
# 2 -0.006632 0.018360 -0.001635 0.000000 0.004064 0.000000
# 3 -0.005224 -0.001635 0.032197 0.000000 0.027731 0.000000
# 4 0.000000 0.000000 0.000000 0.048140 0.000000 0.011150
# 5 -0.001215 0.004064 0.027731 0.000000 0.079283 0.000000
# 6 0.000000 0.000000 0.000000 0.011150 0.000000 0.036022
#
#
# Mechanical properties :
#
#
# Convention : Reuss Voigt Hill
#
# Bulk Modulus (GPa) = 27.88111 50.57239 39.22675
# Shear Modulus (GPa) = 18.85145 24.32811 21.58978
#
# Velocity S-wave (km/s) = 3.27900 3.72498 3.50908
# Velocity P-wave (km/s) = 5.49888 6.88073 6.22825
#
# Compressibility (1/GPa) = 0.03586658
#
# Stress axis : x y z
#
# Youngs Moduli (GPa) = 81.35016 54.46735 31.05911
#
# Poissons Ratio (x) = 0.36121 0.16226
# Poissons Ratio (y) = 0.53948 0.05080
# Poissons Ratio (z) = 0.42498 0.08908
#
# Static dielectric constant tensor:
#      x y z
#    x 3.533670 0.000000 -0.101150 
#    y 0.000000 3.381490 0.000000 
#    z -0.101150 0.000000 3.135640 
# 
# 
# High freq. dielectric constant tensor:
#      x y z
#    x 1.681320 0.000000 -0.009910 
#    y 0.000000 1.690980 0.000000 
#    z -0.009910 0.000000 1.636590 
# 
# From -- ./inp_files/326936.got.cif
#   From: 2010.06.25/outbox.cif.g09.slc.cpg/sg12_164_cif.got.tgz:326936.got - 2010.06.28 00:19:55.
