data_PCOD8085579
_publ_section_title
;
Structure prediction by ZEFSAII (Michael W. Deem and Ramdas Pophale) SiO2 
 PCOD8085579
Probable space group: C 2/M
;
_chemical_formula_sum "Si O2"
_cell_formula_units_Z 64
_cell_length_a 14.726705
_cell_length_b 18.332365
_cell_length_c 14.972564
_cell_angle_alpha 90.000000
_cell_angle_beta 115.279737
_cell_angle_gamma 90.000000
_cell_volume 3655.113913
_symmetry_space_group_name_H-M "C 2/M"
_symmetry_group_IT_number 12
_symmetry_cell_setting 'monoclinic'
loop_
_space_group_symop_operation_xyz
x,y,z
-x,y,-z
-x,-y,-z
x,-y,z
1/2+x,1/2+y,z
1/2-x,1/2+y,-z
1/2-x,1/2-y,-z
1/2+x,1/2-y,z
loop_
_atom_site_type_symbol
_atom_site_label
_atom_site_fract_x
_atom_site_fract_y
_atom_site_fract_z
Si Si1 0.900249 0.082506 0.913186
Si Si2 0.863020 0.916236 0.360760
Si Si3 0.710498 0.417425 0.958473
Si Si4 0.590970 0.583699 0.418270
Si Si5 0.389822 0.175434 0.981947
Si Si6 0.744612 0.714869 0.769197
Si Si7 0.369461 0.676693 0.728703
Si Si8 0.590138 0.717605 0.844366
O O1 0.868049 0.122107 0.810720
O O2 0.927989 0.000000 0.898284
O O3 0.807889 0.086431 0.943175
O O4 0.000000 0.118890 0.000000
O O5 0.866409 0.896916 0.466752
O O6 0.781426 0.865115 0.279455
O O7 0.971881 0.901570 0.363612
O O8 0.830468 0.000000 0.332646
O O9 0.693962 0.500000 0.916209
O O10 0.631262 0.365274 0.874538
O O11 0.824851 0.393449 0.987783
O O12 0.613436 0.500000 0.404751
O O13 0.647840 0.633695 0.370430
O O14 0.389446 0.236394 0.058386
O O15 0.500000 0.148313 0.000000
O O16 0.340732 0.211403 0.874295
O O17 0.776599 0.767364 0.700990
O O18 0.651718 0.749689 0.785610
O O19 0.474130 0.720030 0.770100
#
# Coordination Sequence:
#
# PCOD8085579 Si02
#       8
#     8   8   8   8   8   8   8   8
#     4  10  19  30  47  76 108 137 175 221 267 314
#     4   9  19  38  58  80 109 135 172 222 279 324
#     4  10  21  34  50  71 100 140 179 228 265 295
#     4   9  19  36  59  83 108 135 165 223 283 324
#     4  11  22  37  52  73 109 150 186 213 252 313
#     4  11  22  33  54  82 103 148 180 215 265 312
#     4  12  20  31  55  80 108 140 180 215 257 329
#     4  11  21  35  51  73 111 144 180 217 259 316
#
# _framework density 17.509715
#
# number of rings (size 3 to 8) (size 9 to 14) (size 15 to 20)
#    0.000    1.625    3.750    4.125    0.000    3.250 
#    0.000    0.000    0.000    0.000    0.000    0.000 
#    0.000    2.000    0.000    0.000    0.000    0.000 
#
# Total GULP energy -396811.033220 kJ/mol
# GULP energy per Si atom -12400.344788 kJ/mol
# Density = 1.746986 g / cm^3
# Si number density = 17.509715 Si / 1000 Ang^3
#
#
#
# Elastic Constant Matrix: (Units=GPa)
#
#
# Indices 1 2 3 4 5 6 
#
# 1 116.1155 45.4448 28.2877 0.0000 -14.3887 0.0000
# 2 45.4448 80.6348 28.8489 0.0000 -11.0644 0.0000
# 3 28.2877 28.8489 59.8952 0.0000 -13.9322 0.0000
# 4 0.0000 0.0000 0.0000 29.3316 0.0000 -6.2357
# 5 -14.3887 -11.0644 -13.9322 0.0000 23.6615 0.0000
# 6 0.0000 0.0000 0.0000 -6.2357 0.0000 31.3987
#
#
#
# Elastic Compliance Matrix: (Units=1/GPa)
#
#
# Indices 1 2 3 4 5 6 
#
# 1 0.011634 -0.005331 -0.002157 0.000000 0.003312 0.000000
# 2 -0.005331 0.017638 -0.005577 0.000000 0.001722 0.000000
# 3 -0.002157 -0.005577 0.022582 0.000000 0.009377 0.000000
# 4 0.000000 0.000000 0.000000 0.035596 0.000000 0.007069
# 5 0.003312 0.001722 0.009377 0.000000 0.050604 0.000000
# 6 0.000000 0.000000 0.000000 0.007069 0.000000 0.033252
#
#
# Mechanical properties :
#
#
# Convention : Reuss Voigt Hill
#
# Bulk Modulus (GPa) = 38.87311 51.31201 45.09256
# Shear Modulus (GPa) = 24.27073 27.14930 25.71001
#
# Velocity S-wave (km/s) = 3.72711 3.94195 3.83603
# Velocity P-wave (km/s) = 6.38521 7.07722 6.74010
#
# Compressibility (1/GPa) = 0.02572472
#
# Stress axis : x y z
#
# Youngs Moduli (GPa) = 85.95248 56.69708 44.28346
#
# Poissons Ratio (x) = 0.30225 0.09550
# Poissons Ratio (y) = 0.45820 0.24697
# Poissons Ratio (z) = 0.18537 0.31620
#
# Static dielectric constant tensor:
#      x y z
#    x 3.436290 0.000000 -0.228300 
#    y 0.000000 3.191560 0.000000 
#    z -0.228300 0.000000 3.061040 
# 
# 
# High freq. dielectric constant tensor:
#      x y z
#    x 1.677400 0.000000 -0.023990 
#    y 0.000000 1.667710 0.000000 
#    z -0.023990 0.000000 1.657380 
# 
# From -- ./inp_files/216374.got.cif
#   From: 2010.06.25/outbox.cif.g09.slc.cpg/sg12_109_cif.got.tgz:216374.got - 2010.06.28 00:19:55.
