data_PCOD8085809
_publ_section_title
;
Structure prediction by ZEFSAII (Michael W. Deem and Ramdas Pophale) SiO2 
 PCOD8085809
Probable space group: C 2/M
;
_chemical_formula_sum "Si O2"
_cell_formula_units_Z 64
_cell_length_a 24.396020
_cell_length_b 9.237579
_cell_length_c 16.438827
_cell_angle_alpha 90.000000
_cell_angle_beta 88.228176
_cell_angle_gamma 90.000000
_cell_volume 3702.885469
_symmetry_space_group_name_H-M "C 2/M"
_symmetry_group_IT_number 12
_symmetry_cell_setting 'monoclinic'
loop_
_space_group_symop_operation_xyz
x,y,z
-x,y,-z
-x,-y,-z
x,-y,z
1/2+x,1/2+y,z
1/2-x,1/2+y,-z
1/2-x,1/2-y,-z
1/2+x,1/2-y,z
loop_
_atom_site_type_symbol
_atom_site_label
_atom_site_fract_x
_atom_site_fract_y
_atom_site_fract_z
Si Si1 0.867077 0.832422 0.865254
Si Si2 0.829508 0.168301 0.205003
Si Si3 0.045964 0.329885 0.229624
Si Si4 0.208878 0.331792 0.253581
Si Si5 0.426620 0.170646 0.288499
Si Si6 0.058112 0.327601 0.530794
Si Si7 0.118791 0.330704 0.375511
Si Si8 0.696801 0.666405 0.973854
O O1 0.925388 0.754749 0.846233
O O2 0.817805 0.761498 0.816589
O O3 0.871428 0.000000 0.840688
O O4 0.853106 0.812845 0.960900
O O5 0.773259 0.200259 0.256514
O O6 0.876586 0.258206 0.244885
O O7 0.823307 0.223346 0.112720
O O8 0.845065 0.000000 0.207365
O O9 0.055235 0.500000 0.215984
O O10 0.075036 0.274894 0.311038
O O11 0.982054 0.290237 0.237268
O O12 0.197751 0.500000 0.233028
O O13 0.180221 0.291683 0.341690
O O14 0.429863 0.234451 0.380015
O O15 0.417296 0.000000 0.290892
O O16 0.056737 0.500000 0.536817
O O17 0.104858 0.267770 0.465769
O O18 0.000000 0.270581 0.500000
O O19 0.110136 0.500000 0.383810
O O20 0.714610 0.500000 0.965294
O O21 0.750000 0.750000 0.000000
#
# Coordination Sequence:
#
# PCOD8085809 Si02
#       8
#     8   8   8   8   8   8   8   8
#     4  10  19  30  50  79 103 124 161 213 258 294
#     4  10  21  36  51  70 103 141 169 199 252 312
#     4   9  17  31  50  73 101 133 168 203 249 305
#     4   9  17  31  51  73  99 135 171 200 245 306
#     4  10  20  33  52  77 102 133 174 213 249 295
#     4   9  14  25  48  78 103 123 163 218 256 286
#     4   8  13  24  47  75  98 123 162 209 248 291
#     4  10  20  34  53  77 101 130 170 210 250 299
#
# _framework density 17.283819000000001
#
# number of rings (size 3 to 8) (size 9 to 14) (size 15 to 20)
#    0.000    2.625    2.500    1.125    0.000    2.000 
#    0.000    1.250    0.000    7.125    0.000    0.000 
#    0.000    0.000    0.000    0.000    0.000    0.000 
#
# Total GULP energy -396644.126435 kJ/mol
# GULP energy per Si atom -12395.128951 kJ/mol
# Density = 1.724448 g / cm^3
# Si number density = 17.283819 Si / 1000 Ang^3
#
#
#
# Elastic Constant Matrix: (Units=GPa)
#
#
# Indices 1 2 3 4 5 6 
#
# 1 141.2578 46.5719 79.2633 0.0000 -9.1558 0.0000
# 2 46.5719 45.2012 37.8968 0.0000 -4.0841 0.0000
# 3 79.2633 37.8968 125.2861 0.0000 -9.2660 0.0000
# 4 0.0000 0.0000 0.0000 18.0632 0.0000 1.5050
# 5 -9.1558 -4.0841 -9.2660 0.0000 30.2664 0.0000
# 6 0.0000 0.0000 0.0000 1.5050 0.0000 29.6270
#
#
#
# Elastic Compliance Matrix: (Units=1/GPa)
#
#
# Indices 1 2 3 4 5 6 
#
# 1 0.013197 -0.008797 -0.005608 0.000000 0.001088 0.000000
# 2 -0.008797 0.035553 -0.005147 0.000000 0.000560 0.000000
# 3 -0.005608 -0.005147 0.013209 0.000000 0.001653 0.000000
# 4 0.000000 0.000000 0.000000 0.055597 0.000000 -0.002824
# 5 0.001088 0.000560 0.001653 0.000000 0.033951 0.000000
# 6 0.000000 0.000000 0.000000 -0.002824 0.000000 0.033897
#
#
# Mechanical properties :
#
#
# Convention : Reuss Voigt Hill
#
# Bulk Modulus (GPa) = 43.75454 71.02322 57.38888
# Shear Modulus (GPa) = 21.54018 25.45884 23.49951
#
# Velocity S-wave (km/s) = 3.53407 3.84212 3.69131
# Velocity P-wave (km/s) = 6.48253 7.80154 7.17242
#
# Compressibility (1/GPa) = 0.02285477
#
# Stress axis : x y z
#
# Youngs Moduli (GPa) = 75.77660 28.12683 75.70853
#
# Poissons Ratio (x) = 0.24744 0.42454
# Poissons Ratio (y) = 0.66662 0.38969
# Poissons Ratio (z) = 0.42492 0.14477
#
# Static dielectric constant tensor:
#      x y z
#    x 3.241450 0.000000 -0.386600 
#    y 0.000000 2.959180 0.000000 
#    z -0.386600 0.000000 3.534510 
# 
# 
# High freq. dielectric constant tensor:
#      x y z
#    x 1.661990 0.000000 -0.027690 
#    y 0.000000 1.637870 0.000000 
#    z -0.027690 0.000000 1.665090 
# 
# From -- ./inp_files/281288.got.cif
#   From: 2010.06.25/outbox.cif.g09.slc.cpg/sg12_141_cif.got.tgz:281288.got - 2010.06.28 00:19:55.
