data_PCOD8085488
_publ_section_title
;
Structure prediction by ZEFSAII (Michael W. Deem and Ramdas Pophale) SiO2 
 PCOD8085488
Probable space group: C 2/M
;
_chemical_formula_sum "Si O2"
_cell_formula_units_Z 48
_cell_length_a 27.271708
_cell_length_b 8.939384
_cell_length_c 23.742397
_cell_angle_alpha 90.000000
_cell_angle_beta 30.086508
_cell_angle_gamma 90.000000
_cell_volume 2901.671612
_symmetry_space_group_name_H-M "C 2/M"
_symmetry_group_IT_number 12
_symmetry_cell_setting 'monoclinic'
loop_
_space_group_symop_operation_xyz
x,y,z
-x,y,-z
-x,-y,-z
x,-y,z
1/2+x,1/2+y,z
1/2-x,1/2+y,-z
1/2-x,1/2-y,-z
1/2+x,1/2-y,z
loop_
_atom_site_type_symbol
_atom_site_label
_atom_site_fract_x
_atom_site_fract_y
_atom_site_fract_z
Si Si1 0.223295 0.324189 0.441192
Si Si2 0.605603 0.175895 0.667919
Si Si3 0.386551 0.676675 0.549184
Si Si4 0.898412 0.826996 0.877278
Si Si5 0.393824 0.676226 0.668531
Si Si6 0.771764 0.825904 0.893892
O O1 0.237949 0.500000 0.422843
O O2 0.327627 0.250921 0.350760
O O3 0.145181 0.279092 0.566853
O O4 0.187348 0.262972 0.417398
O O5 0.496686 0.233628 0.783197
O O6 0.608127 0.000000 0.674761
O O7 0.378673 0.500000 0.545908
O O8 0.356639 0.717470 0.643061
O O9 0.496663 0.737293 0.429140
O O10 0.851288 0.799226 0.863324
O O11 0.921484 0.000000 0.864994
O O12 0.825527 0.768740 0.998046
O O13 0.401279 0.500000 0.667725
O O14 0.318250 0.738600 0.789944
O O15 0.743194 0.000000 0.917996
#
# Coordination Sequence:
#
# PCOD8085488 Si02
#       6
#     8   8   8   8   8   8
#     4  10  20  32  47  70  97 122 151 189 233 277
#     4  10  20  33  49  68  92 124 157 188 227 278
#     4   9  16  29  49  71  95 124 158 191 226 269
#     4  10  19  30  47  71  96 122 154 194 235 271
#     4   8  15  28  48  71  94 125 161 191 220 267
#     4   9  17  30  47  68  96 128 158 187 225 274
#
# _framework density 16.542189
#
# number of rings (size 3 to 8) (size 9 to 14) (size 15 to 20)
#    0.000    2.667    0.000    3.500    0.000    4.000 
#    0.000    3.333    0.000    1.000    0.000    7.000 
#    0.000    0.000    0.000    0.000    0.000    0.000 
#
# Total GULP energy -297603.597566 kJ/mol
# GULP energy per Si atom -12400.149899 kJ/mol
# Density = 1.650454 g / cm^3
# Si number density = 16.542189 Si / 1000 Ang^3
#
#
#
# Elastic Constant Matrix: (Units=GPa)
#
#
# Indices 1 2 3 4 5 6 
#
# 1 99.1784 38.3040 50.5841 -0.0060 1.8082 0.0037
# 2 38.3040 55.4357 29.7214 -0.0214 -2.0044 0.0107
# 3 50.5841 29.7214 101.7480 -0.0089 8.6480 0.0063
# 4 -0.0060 -0.0214 -0.0089 23.8198 0.0075 -3.3208
# 5 1.8082 -2.0044 8.6480 0.0075 26.5257 -0.0033
# 6 0.0037 0.0107 0.0063 -3.3208 -0.0033 27.5181
#
#
#
# Elastic Compliance Matrix: (Units=1/GPa)
#
#
# Indices 1 2 3 4 5 6 
#
# 1 0.016080 -0.008079 -0.005646 -0.000005 0.000134 0.000002
# 2 -0.008079 0.025818 -0.003844 0.000018 0.003755 -0.000005
# 3 -0.005646 -0.003844 0.014142 0.000002 -0.004516 -0.000001
# 4 -0.000005 0.000018 0.000002 0.042700 -0.000010 0.005153
# 5 0.000134 0.003755 -0.004516 -0.000010 0.039446 0.000003
# 6 0.000002 -0.000005 -0.000001 0.005153 0.000003 0.036962
#
#
# Mechanical properties :
#
#
# Convention : Reuss Voigt Hill
#
# Bulk Modulus (GPa) = 47.84250 54.84233 51.34242
# Shear Modulus (GPa) = 23.01459 24.75622 23.88540
#
# Velocity S-wave (km/s) = 3.73401 3.87272 3.80400
# Velocity P-wave (km/s) = 6.89745 7.29536 7.09919
#
# Compressibility (1/GPa) = 0.02090192
#
# Stress axis : x y z
#
# Youngs Moduli (GPa) = 62.18876 38.73249 70.71252
#
# Poissons Ratio (x) = 0.31292 0.39922
# Poissons Ratio (y) = 0.50242 0.27184
# Poissons Ratio (z) = 0.35110 0.14890
#
# Static dielectric constant tensor:
#      x y z
#    x 3.076060 0.000000 0.151660 
#    y 0.000000 2.995550 0.000010 
#    z 0.151660 0.000010 3.265700 
# 
# 
# High freq. dielectric constant tensor:
#      x y z
#    x 1.627680 0.000000 0.000820 
#    y 0.000000 1.629720 0.000000 
#    z 0.000820 0.000000 1.630970 
# 
# From -- ./inp_files/179716.got.cif
#   From: 2010.06.25/outbox.cif.g09.slc.cpg/sg12_90_cif.got.tgz:179716.got - 2010.06.28 00:19:55.
