data_PCOD8085300
_publ_section_title
;
Structure prediction by ZEFSAII (Michael W. Deem and Ramdas Pophale) SiO2 
 PCOD8085300
Probable space group: C 2/M
;
_chemical_formula_sum "Si O2"
_cell_formula_units_Z 56
_cell_length_a 17.578635
_cell_length_b 13.407518
_cell_length_c 14.923620
_cell_angle_alpha 90.000000
_cell_angle_beta 100.612275
_cell_angle_gamma 90.000000
_cell_volume 3457.126335
_symmetry_space_group_name_H-M "C 2/M"
_symmetry_group_IT_number 12
_symmetry_cell_setting 'monoclinic'
loop_
_space_group_symop_operation_xyz
x,y,z
-x,y,-z
-x,-y,-z
x,-y,z
1/2+x,1/2+y,z
1/2-x,1/2+y,-z
1/2-x,1/2-y,-z
1/2+x,1/2-y,z
loop_
_atom_site_type_symbol
_atom_site_label
_atom_site_fract_x
_atom_site_fract_y
_atom_site_fract_z
Si Si1 0.587284 0.302817 0.006035
Si Si2 0.025826 0.382388 0.603380
Si Si3 0.304997 0.236489 0.821468
Si Si4 0.934575 0.389381 0.108693
Si Si5 0.828537 0.884895 0.142176
Si Si6 0.919672 0.386899 0.743427
Si Si7 0.146984 0.701798 0.748195
O O1 0.584303 0.188574 0.972661
O O2 0.633138 0.373309 0.947166
O O3 0.500000 0.344689 0.000000
O O4 0.634580 0.303111 0.109224
O O5 0.042292 0.500000 0.610008
O O6 0.105060 0.324185 0.645690
O O7 0.000000 0.346590 0.500000
O O8 0.959815 0.351571 0.660015
O O9 0.260451 0.156330 0.876995
O O10 0.346203 0.181502 0.747693
O O11 0.240306 0.307526 0.760658
O O12 0.921938 0.500000 0.066167
O O13 0.879580 0.377078 0.182629
O O14 0.022626 0.375237 0.160087
O O15 0.875479 0.815075 0.223677
O O16 0.831449 0.000000 0.172364
O O17 0.891180 0.500000 0.726560
#
# Coordination Sequence:
#
# PCOD8085300 Si02
#       7
#     8   8   8   8   8   8   8
#     4  11  20  32  45  67  97 129 174 212 234 271
#     4   9  17  33  58  82  99 116 144 189 247 307
#     4  10  19  30  46  67 100 128 159 207 239 275
#     4   9  17  29  46  68  96 126 159 203 247 283
#     4   9  20  34  48  64  93 135 173 204 233 274
#     4   9  16  28  47  73  97 125 157 192 245 291
#     4   8  18  31  46  71  96 125 154 193 241 291
#
# _framework density 16.198425
#
# number of rings (size 3 to 8) (size 9 to 14) (size 15 to 20)
#    0.857    1.857    1.429    2.143    0.000    1.714 
#    0.000    1.429    0.000    0.429    0.000    0.000 
#    0.000    0.000    0.000    0.000    0.000    0.000 
#
# Total GULP energy -346996.783263 kJ/mol
# GULP energy per Si atom -12392.742259 kJ/mol
# Density = 1.616156 g / cm^3
# Si number density = 16.198425 Si / 1000 Ang^3
#
#
#
# Elastic Constant Matrix: (Units=GPa)
#
#
# Indices 1 2 3 4 5 6 
#
# 1 111.2398 19.9793 41.7700 0.0000 5.0929 0.0000
# 2 19.9793 42.5090 14.6305 0.0000 6.0154 0.0000
# 3 41.7700 14.6305 86.1119 0.0000 13.7693 0.0000
# 4 0.0000 0.0000 0.0000 15.5311 0.0000 -1.1940
# 5 5.0929 6.0154 13.7693 0.0000 18.8630 0.0000
# 6 0.0000 0.0000 0.0000 -1.1940 0.0000 20.3038
#
#
#
# Elastic Compliance Matrix: (Units=1/GPa)
#
#
# Indices 1 2 3 4 5 6 
#
# 1 0.011579 -0.003907 -0.005267 0.000000 0.001964 0.000000
# 2 -0.003907 0.026821 -0.001656 0.000000 -0.006289 0.000000
# 3 -0.005267 -0.001656 0.016005 0.000000 -0.009733 0.000000
# 4 0.000000 0.000000 0.000000 0.064679 0.000000 0.003804
# 5 0.001964 -0.006289 -0.009733 0.000000 0.061594 0.000000
# 6 0.000000 0.000000 0.000000 0.003804 0.000000 0.049475
#
#
# Mechanical properties :
#
#
# Convention : Reuss Voigt Hill
#
# Bulk Modulus (GPa) = 30.53911 43.62446 37.08179
# Shear Modulus (GPa) = 19.03098 21.83831 20.43465
#
# Velocity S-wave (km/s) = 3.43135 3.67573 3.55564
# Velocity P-wave (km/s) = 5.88158 6.70854 6.30862
#
# Compressibility (1/GPa) = 0.03274490
#
# Stress axis : x y z
#
# Youngs Moduli (GPa) = 86.36220 37.28446 62.47943
#
# Poissons Ratio (x) = 0.14569 0.32907
# Poissons Ratio (y) = 0.33746 0.10345
# Poissons Ratio (z) = 0.45486 0.06174
#
# Static dielectric constant tensor:
#      x y z
#    x 3.122120 0.000000 -0.034630 
#    y 0.000000 2.849340 0.000000 
#    z -0.034630 0.000000 2.828080 
# 
# 
# High freq. dielectric constant tensor:
#      x y z
#    x 1.625170 0.000000 -0.005460 
#    y 0.000000 1.600540 0.000000 
#    z -0.005460 0.000000 1.590300 
# 
# From -- ./inp_files/224368.got.cif
#   From: 2010.06.25/outbox.cif.g09.slc.cpg/sg12_113_cif.got.tgz:224368.got - 2010.06.28 00:19:55.
