data_PCOD8085877
_publ_section_title
;
Structure prediction by ZEFSAII (Michael W. Deem and Ramdas Pophale) SiO2 
 PCOD8085877
Probable space group: C 2/M
;
_chemical_formula_sum "Si O2"
_cell_formula_units_Z 44
_cell_length_a 12.278977
_cell_length_b 18.458568
_cell_length_c 14.240665
_cell_angle_alpha 90.000000
_cell_angle_beta 46.646784
_cell_angle_gamma 90.000000
_cell_volume 2346.960530
_symmetry_space_group_name_H-M "C 2/M"
_symmetry_group_IT_number 12
_symmetry_cell_setting 'monoclinic'
loop_
_space_group_symop_operation_xyz
x,y,z
-x,y,-z
-x,-y,-z
x,-y,z
1/2+x,1/2+y,z
1/2-x,1/2+y,-z
1/2-x,1/2-y,-z
1/2+x,1/2-y,z
loop_
_atom_site_type_symbol
_atom_site_label
_atom_site_fract_x
_atom_site_fract_y
_atom_site_fract_z
Si Si1 0.473356 0.850489 0.349674
Si Si2 0.056570 0.808162 0.364651
Si Si3 0.500000 0.692688 0.000000
Si Si4 0.722372 0.581038 0.803199
Si Si5 0.679889 0.644854 0.632949
Si Si6 0.371159 0.785108 0.232078
O O1 0.524580 0.775845 0.365663
O O2 0.599205 0.909935 0.296532
O O3 0.319583 0.878682 0.486370
O O4 0.453879 0.843952 0.248172
O O5 0.236702 0.820751 0.250822
O O6 0.000000 0.832399 0.500000
O O7 0.973597 0.858188 0.336609
O O8 0.354682 0.640298 0.082472
O O9 0.493697 0.744597 0.094740
O O10 0.679654 0.500000 0.860461
O O11 0.664222 0.591894 0.731054
O O12 0.707785 0.727341 0.650984
#
# Coordination Sequence:
#
# PCOD8085877 Si02
#       6
#     8   8   4   8   8   8
#     4  11  18  31  53  82 109 131 173 218 277 323
#     4  11  15  30  53  79 111 135 158 212 284 328
#     4  10  21  38  52  76 107 144 182 222 256 308
#     4  11  23  38  52  72 107 150 189 218 247 301
#     4  10  19  30  52  81 107 137 170 214 274 325
#     4  10  19  31  52  82 109 136 166 219 273 324
#
# _framework density 18.747651000000001
#
# number of rings (size 3 to 8) (size 9 to 14) (size 15 to 20)
#    0.000    1.455    7.273    1.909    0.000    2.182 
#    3.273    0.000    0.000    1.636    0.000    0.636 
#    0.000    0.000    0.000    0.000    0.000    0.000 
#
# Total GULP energy -272766.628867 kJ/mol
# GULP energy per Si atom -12398.483130 kJ/mol
# Density = 1.870498 g / cm^3
# Si number density = 18.747651 Si / 1000 Ang^3
#
#
#
# Elastic Constant Matrix: (Units=GPa)
#
#
# Indices 1 2 3 4 5 6 
#
# 1 142.2280 27.8825 47.3665 0.0000 -5.9580 -0.0001
# 2 27.8825 37.6515 25.6366 -0.0001 1.4285 0.0000
# 3 47.3665 25.6366 100.5499 0.0000 4.9884 0.0000
# 4 0.0000 -0.0001 0.0000 11.1371 0.0000 -0.9655
# 5 -5.9580 1.4285 4.9884 0.0000 18.1905 0.0001
# 6 -0.0001 0.0000 0.0000 -0.9655 0.0001 15.8225
#
#
#
# Elastic Compliance Matrix: (Units=1/GPa)
#
#
# Indices 1 2 3 4 5 6 
#
# 1 0.009262 -0.004727 -0.003373 0.000000 0.004330 0.000000
# 2 -0.004727 0.034552 -0.006459 0.000000 -0.002490 0.000000
# 3 -0.003373 -0.006459 0.013393 0.000000 -0.004270 0.000000
# 4 0.000000 0.000000 0.000000 0.090268 0.000000 0.005508
# 5 0.004330 -0.002490 -0.004270 0.000000 0.057758 0.000000
# 6 0.000000 0.000000 0.000000 0.005508 0.000000 0.063537
#
#
# Mechanical properties :
#
#
# Convention : Reuss Voigt Hill
#
# Bulk Modulus (GPa) = 35.60051 53.57786 44.58918
# Shear Modulus (GPa) = 16.27327 20.99960 18.63643
#
# Velocity S-wave (km/s) = 2.94941 3.35045 3.15630
# Velocity P-wave (km/s) = 5.53437 6.60362 6.09250
#
# Compressibility (1/GPa) = 0.02808949
#
# Stress axis : x y z
#
# Youngs Moduli (GPa) = 107.96496 28.94152 74.66625
#
# Poissons Ratio (x) = 0.13680 0.25184
# Poissons Ratio (y) = 0.51033 0.48230
# Poissons Ratio (z) = 0.36415 0.18694
#
# Static dielectric constant tensor:
#      x y z
#    x 3.725800 0.000000 -0.050890 
#    y 0.000000 2.915500 0.000000 
#    z -0.050890 0.000000 3.411140 
# 
# 
# High freq. dielectric constant tensor:
#      x y z
#    x 1.734960 0.000000 -0.003950 
#    y 0.000000 1.664940 0.000000 
#    z -0.003950 0.000000 1.723060 
# 
# From -- ./inp_files/207532.got.cif
#   From: 2010.06.25/outbox.cif.g09.slc.cpg/sg12_104_cif.got.tgz:207532.got - 2010.06.28 00:19:55.
