data_PCOD8085848
_publ_section_title
;
Structure prediction by ZEFSAII (Michael W. Deem and Ramdas Pophale) SiO2 
 PCOD8085848
Probable space group: C 2/M
;
_chemical_formula_sum "Si O2"
_cell_formula_units_Z 36
_cell_length_a 10.568776
_cell_length_b 18.410041
_cell_length_c 12.551810
_cell_angle_alpha 90.000000
_cell_angle_beta 120.980306
_cell_angle_gamma 90.000000
_cell_volume 2093.828279
_symmetry_space_group_name_H-M "C 2/M"
_symmetry_group_IT_number 12
_symmetry_cell_setting 'monoclinic'
loop_
_space_group_symop_operation_xyz
x,y,z
-x,y,-z
-x,-y,-z
x,-y,z
1/2+x,1/2+y,z
1/2-x,1/2+y,-z
1/2-x,1/2-y,-z
1/2+x,1/2-y,z
loop_
_atom_site_type_symbol
_atom_site_label
_atom_site_fract_x
_atom_site_fract_y
_atom_site_fract_z
Si Si1 0.242842 0.580005 0.344243
Si Si2 0.096002 0.726011 0.744615
Si Si3 0.967984 0.421041 0.367858
Si Si4 0.602872 0.805657 0.144491
Si Si5 0.500000 0.686762 0.500000
O O1 0.307179 0.500000 0.340095
O O2 0.166039 0.616390 0.208138
O O3 0.360614 0.634278 0.446002
O O4 0.126704 0.569253 0.385879
O O5 0.124862 0.640798 0.732665
O O6 0.258526 0.757463 0.833340
O O7 0.990881 0.734126 0.802662
O O8 0.008682 0.764012 0.609523
O O9 0.885502 0.500000 0.328321
O O10 0.000000 0.394528 0.500000
O O11 0.500000 0.820209 0.000000
#
# Coordination Sequence:
#
# PCOD8085848 Si02
#       5
#     8   8   8   8   4
#     4   9  19  32  49  73 101 131 162 203 249 295
#     4  10  20  32  54  74 103 129 164 208 252 293
#     4   9  17  29  47  72 100 128 158 194 244 302
#     4  10  21  35  52  73  99 136 174 204 240 288
#     4  10  19  30  51  78 106 124 158 202 263 304
#
# _framework density 17.193386
#
# number of rings (size 3 to 8) (size 9 to 14) (size 15 to 20)
#    0.000    2.444    1.111    1.000    3.111    3.111 
#    0.000    0.000    0.000    0.667    0.000    0.000 
#    0.000    0.000    0.000    0.000    0.000    0.000 
#
# Total GULP energy -223062.394336 kJ/mol
# GULP energy per Si atom -12392.355241 kJ/mol
# Density = 1.715425 g / cm^3
# Si number density = 17.193386 Si / 1000 Ang^3
#
#
#
# Elastic Constant Matrix: (Units=GPa)
#
#
# Indices 1 2 3 4 5 6 
#
# 1 53.9356 30.5353 22.3612 0.0000 0.0203 0.0000
# 2 30.5353 107.1970 35.6953 0.0000 6.9663 0.0000
# 3 22.3612 35.6953 103.8527 0.0000 7.2407 0.0000
# 4 0.0000 0.0000 0.0000 9.1994 0.0000 1.4103
# 5 0.0203 6.9663 7.2407 0.0000 24.0000 0.0000
# 6 0.0000 0.0000 0.0000 1.4103 0.0000 11.3559
#
#
#
# Elastic Compliance Matrix: (Units=1/GPa)
#
#
# Indices 1 2 3 4 5 6 
#
# 1 0.023080 -0.005678 -0.003199 0.000000 0.002594 0.000000
# 2 -0.005678 0.012027 -0.002725 0.000000 -0.002664 0.000000
# 3 -0.003199 -0.002725 0.011440 0.000000 -0.002658 0.000000
# 4 0.000000 0.000000 0.000000 0.110812 0.000000 -0.013761
# 5 0.002594 -0.002664 -0.002658 0.000000 0.043239 0.000000
# 6 0.000000 0.000000 0.000000 -0.013761 0.000000 0.089769
#
#
# Mechanical properties :
#
#
# Convention : Reuss Voigt Hill
#
# Bulk Modulus (GPa) = 42.84029 49.12988 45.98508
# Shear Modulus (GPa) = 15.55925 20.67064 18.11494
#
# Velocity S-wave (km/s) = 3.01151 3.47110 3.24944
# Velocity P-wave (km/s) = 6.08795 6.68593 6.39393
#
# Compressibility (1/GPa) = 0.02334251
#
# Stress axis : x y z
#
# Youngs Moduli (GPa) = 43.32690 83.14888 87.41389
#
# Poissons Ratio (x) = 0.47211 0.27963
# Poissons Ratio (y) = 0.24600 0.23824
# Poissons Ratio (z) = 0.13860 0.22662
#
# Static dielectric constant tensor:
#      x y z
#    x 5.619310 0.000000 2.503840 
#    y 0.000000 3.694510 0.000000 
#    z 2.503840 0.000000 5.707230 
# 
# 
# High freq. dielectric constant tensor:
#      x y z
#    x 1.659130 0.000000 -0.008450 
#    y 0.000000 1.677880 0.000000 
#    z -0.008450 0.000000 1.646240 
# 
# From -- ./inp_files/47254.got.cif
#   From: 2010.06.25/outbox.cif.g09.slc.cpg/sg12_24_cif.got.tgz:47254.got - 2010.06.28 00:19:55.
