data_PCOD8085709
_publ_section_title
;
Structure prediction by ZEFSAII (Michael W. Deem and Ramdas Pophale) SiO2 
 PCOD8085709
Probable space group: C 2/M
;
_chemical_formula_sum "Si O2"
_cell_formula_units_Z 56
_cell_length_a 26.875672
_cell_length_b 8.820235
_cell_length_c 14.295389
_cell_angle_alpha 90.000000
_cell_angle_beta 77.728191
_cell_angle_gamma 90.000000
_cell_volume 3311.286997
_symmetry_space_group_name_H-M "C 2/M"
_symmetry_group_IT_number 12
_symmetry_cell_setting 'monoclinic'
loop_
_space_group_symop_operation_xyz
x,y,z
-x,y,-z
-x,-y,-z
x,-y,z
1/2+x,1/2+y,z
1/2-x,1/2+y,-z
1/2-x,1/2-y,-z
1/2+x,1/2-y,z
loop_
_atom_site_type_symbol
_atom_site_label
_atom_site_fract_x
_atom_site_fract_y
_atom_site_fract_z
Si Si1 0.623738 0.827937 0.282100
Si Si2 0.142926 0.821093 0.563030
Si Si3 0.812619 0.175320 0.889594
Si Si4 0.214086 0.326107 0.392939
Si Si5 0.556637 0.321518 0.454385
Si Si6 0.793610 0.824994 0.106966
Si Si7 0.183386 0.321182 0.718377
O O1 0.636936 0.734739 0.182865
O O2 0.670748 0.814759 0.332928
O O3 0.574155 0.757567 0.351461
O O4 0.611659 0.000000 0.259040
O O5 0.193668 0.751532 0.495655
O O6 0.092487 0.772603 0.526701
O O7 0.140198 0.752250 0.668639
O O8 0.148761 0.000000 0.565183
O O9 0.764333 0.269129 0.873560
O O10 0.802790 0.000000 0.869821
O O11 0.821223 0.199874 0.996696
O O12 0.229270 0.500000 0.407573
O O13 0.261434 0.233680 0.335909
O O14 0.500000 0.265413 0.500000
O O15 0.559063 0.500000 0.436731
O O16 0.825754 0.733656 0.171574
O O17 0.791800 0.000000 0.137234
O O18 0.179110 0.500000 0.714853
#
# Coordination Sequence:
#
# PCOD8085709 Si02
#       7
#     8   8   8   8   8   8   8
#     4  10  19  30  49  73 100 131 163 200 241 289
#     4  10  20  33  49  68  94 125 159 199 242 290
#     4  10  19  31  48  69  96 130 167 204 241 283
#     4  10  19  31  45  65  95 129 165 200 234 279
#     4   9  19  36  56  76  97 123 159 202 247 295
#     4  10  20  32  46  67  96 131 169 206 240 278
#     4  12  22  31  45  66  95 132 168 199 237 283
#
# _framework density 16.911853000000001
#
# number of rings (size 3 to 8) (size 9 to 14) (size 15 to 20)
#    0.000    1.857    1.429    3.857    0.000    3.714 
#    0.000    0.000    0.000    0.000    0.000    1.000 
#    0.000    8.000    0.000    0.000    0.000    0.000 
#
# Total GULP energy -347266.989702 kJ/mol
# GULP energy per Si atom -12402.392489 kJ/mol
# Density = 1.687336 g / cm^3
# Si number density = 16.911853 Si / 1000 Ang^3
#
#
#
# Elastic Constant Matrix: (Units=GPa)
#
#
# Indices 1 2 3 4 5 6 
#
# 1 55.7294 22.9987 38.0452 0.0000 -8.0783 0.0000
# 2 22.9987 86.2862 48.6011 0.0000 -0.7800 0.0000
# 3 38.0452 48.6011 114.7760 0.0000 -1.1683 0.0000
# 4 0.0000 0.0000 0.0000 31.0092 0.0000 1.5039
# 5 -8.0783 -0.7800 -1.1683 0.0000 22.9882 0.0000
# 6 0.0000 0.0000 0.0000 1.5039 0.0000 18.4595
#
#
#
# Elastic Compliance Matrix: (Units=1/GPa)
#
#
# Indices 1 2 3 4 5 6 
#
# 1 0.025099 -0.002595 -0.007136 0.000000 0.008369 0.000000
# 2 -0.002595 0.015488 -0.005705 0.000000 -0.000676 0.000000
# 3 -0.007136 -0.005705 0.013473 0.000000 -0.002016 0.000000
# 4 0.000000 0.000000 0.000000 0.032376 0.000000 -0.002638
# 5 0.008369 -0.000676 -0.002016 0.000000 0.046316 0.000000
# 6 0.000000 0.000000 0.000000 -0.002638 0.000000 0.054387
#
#
# Mechanical properties :
#
#
# Convention : Reuss Voigt Hill
#
# Bulk Modulus (GPa) = 43.12376 52.89796 48.01086
# Shear Modulus (GPa) = 22.14912 24.30115 23.22514
#
# Velocity S-wave (km/s) = 3.62288 3.79480 3.70983
# Velocity P-wave (km/s) = 6.56162 7.10966 6.84113
#
# Compressibility (1/GPa) = 0.02318907
#
# Stress axis : x y z
#
# Youngs Moduli (GPa) = 39.84162 64.56461 74.22158
#
# Poissons Ratio (x) = 0.16755 0.52962
# Poissons Ratio (y) = 0.10339 0.42344
# Poissons Ratio (z) = 0.28430 0.36835
#
# Static dielectric constant tensor:
#      x y z
#    x 2.907640 0.000000 0.146400 
#    y 0.000000 3.290780 0.000000 
#    z 0.146400 0.000000 3.432540 
# 
# 
# High freq. dielectric constant tensor:
#      x y z
#    x 1.602530 0.000000 0.012520 
#    y 0.000000 1.669360 0.000000 
#    z 0.012520 0.000000 1.656490 
# 
# From -- ./inp_files/243046.got.cif
#   From: 2010.06.25/outbox.cif.g09.slc.cpg/sg12_122_cif.got.tgz:243046.got - 2010.06.28 00:19:55.
