data_PCOD8085136
_publ_section_title
;
Structure prediction by ZEFSAII (Michael W. Deem and Ramdas Pophale) SiO2 
 PCOD8085136
Probable space group: C 2/M
;
_chemical_formula_sum "Si O2"
_cell_formula_units_Z 64
_cell_length_a 28.089666
_cell_length_b 9.081463
_cell_length_c 16.698997
_cell_angle_alpha 90.000000
_cell_angle_beta 117.435002
_cell_angle_gamma 90.000000
_cell_volume 3780.748772
_symmetry_space_group_name_H-M "C 2/M"
_symmetry_group_IT_number 12
_symmetry_cell_setting 'monoclinic'
loop_
_space_group_symop_operation_xyz
x,y,z
-x,y,-z
-x,-y,-z
x,-y,z
1/2+x,1/2+y,z
1/2-x,1/2+y,-z
1/2-x,1/2-y,-z
1/2+x,1/2-y,z
loop_
_atom_site_type_symbol
_atom_site_label
_atom_site_fract_x
_atom_site_fract_y
_atom_site_fract_z
Si Si1 0.044810 0.672983 0.861933
Si Si2 0.467107 0.836927 0.554862
Si Si3 0.325733 0.173027 0.613130
Si Si4 0.421903 0.172542 0.798285
Si Si5 0.056988 0.173909 0.711950
Si Si6 0.562760 0.665764 0.032862
Si Si7 0.117522 0.831389 0.602380
Si Si8 0.710352 0.668617 0.568600
O O1 0.055572 0.500000 0.868827
O O2 0.072777 0.747401 0.806739
O O3 0.981389 0.709834 0.812900
O O4 0.074340 0.740985 0.961943
O O5 0.500000 0.854006 0.500000
O O6 0.498826 0.734545 0.641316
O O7 0.411216 0.762374 0.489064
O O8 0.457545 0.000000 0.585623
O O9 0.378895 0.229598 0.699762
O O10 0.322669 0.242166 0.523237
O O11 0.272375 0.219216 0.622499
O O12 0.329552 0.000000 0.605036
O O13 0.408298 0.256679 0.869988
O O14 0.415780 0.000000 0.811114
O O15 0.102085 0.218265 0.680523
O O16 0.053402 0.000000 0.722301
O O17 0.584960 0.500000 0.039849
O O18 0.500000 0.664261 0.000000
O O19 0.181015 0.811199 0.632531
O O20 0.098775 0.000000 0.577763
O O21 0.707977 0.500000 0.539123
#
# Coordination Sequence:
#
# PCOD8085136 Si02
#       8
#     8   8   8   8   8   8   8   8
#     4  10  19  30  45  67  96 124 151 182 221 268
#     4   9  17  28  41  58  82 113 150 188 222 261
#     4   9  18  32  48  68  92 118 152 192 231 272
#     4   9  18  31  47  67  92 121 149 182 226 272
#     4  10  19  30  43  62  90 120 154 188 223 268
#     4   9  17  30  47  68  92 119 150 182 220 268
#     4   9  18  31  45  62  86 120 154 189 230 269
#     4   9  18  32  48  66  90 120 155 193 232 269
#
# _framework density 16.927862999999999
#
# number of rings (size 3 to 8) (size 9 to 14) (size 15 to 20)
#    0.000    2.750    0.000    1.500    1.750    5.000 
#    0.000    0.000    0.000    0.000    0.000    0.875 
#    0.000    0.000    0.000    0.000    0.000    0.000 
#
# Total GULP energy -396654.674665 kJ/mol
# GULP energy per Si atom -12395.458583 kJ/mol
# Density = 1.688933 g / cm^3
# Si number density = 16.927863 Si / 1000 Ang^3
#
#
#
# Elastic Constant Matrix: (Units=GPa)
#
#
# Indices 1 2 3 4 5 6 
#
# 1 71.9180 23.7736 27.9728 0.0000 -14.2230 0.0000
# 2 23.7736 71.8388 32.7139 0.0000 -11.5274 0.0000
# 3 27.9728 32.7139 77.1628 0.0000 -12.6541 0.0000
# 4 0.0000 0.0000 0.0000 30.5899 0.0000 -5.2640
# 5 -14.2230 -11.5274 -12.6541 0.0000 23.7992 0.0000
# 6 0.0000 0.0000 0.0000 -5.2640 0.0000 16.2335
#
#
#
# Elastic Compliance Matrix: (Units=1/GPa)
#
#
# Indices 1 2 3 4 5 6 
#
# 1 0.017856 -0.002916 -0.004074 0.000000 0.007093 0.000000
# 2 -0.002916 0.018263 -0.006048 0.000000 0.003887 0.000000
# 3 -0.004074 -0.006048 0.017661 0.000000 0.004026 0.000000
# 4 0.000000 0.000000 0.000000 0.034622 0.000000 0.011227
# 5 0.007093 0.003887 0.004026 0.000000 0.050281 0.000000
# 6 0.000000 0.000000 0.000000 0.011227 0.000000 0.065242
#
#
# Mechanical properties :
#
#
# Convention : Reuss Voigt Hill
#
# Bulk Modulus (GPa) = 36.09559 43.31556 39.70557
# Shear Modulus (GPa) = 20.89999 23.22181 22.06090
#
# Velocity S-wave (km/s) = 3.51757 3.70781 3.61394
# Velocity P-wave (km/s) = 6.15363 6.63132 6.39694
#
# Compressibility (1/GPa) = 0.02770422
#
# Stress axis : x y z
#
# Youngs Moduli (GPa) = 56.00425 54.75552 56.62235
#
# Poissons Ratio (x) = 0.15966 0.23066
# Poissons Ratio (y) = 0.16330 0.34246
# Poissons Ratio (z) = 0.22814 0.33117
#
# Static dielectric constant tensor:
#      x y z
#    x 3.116320 0.000000 -0.101680 
#    y 0.000000 3.296750 0.000000 
#    z -0.101680 0.000000 3.094840 
# 
# 
# High freq. dielectric constant tensor:
#      x y z
#    x 1.629260 0.000000 -0.021110 
#    y 0.000000 1.661100 0.000000 
#    z -0.021110 0.000000 1.629770 
# 
# From -- ./inp_files/249232.got.cif
#   From: 2010.06.25/outbox.cif.g09.slc.cpg/sg12_125_cif.got.tgz:249232.got - 2010.06.28 00:19:55.
