data_PCOD8085450
_publ_section_title
;
Structure prediction by ZEFSAII (Michael W. Deem and Ramdas Pophale) SiO2 
 PCOD8085450
Probable space group: C 2/M
;
_chemical_formula_sum "Si O2"
_cell_formula_units_Z 60
_cell_length_a 17.604127
_cell_length_b 13.883212
_cell_length_c 15.869157
_cell_angle_alpha 90.000000
_cell_angle_beta 111.875416
_cell_angle_gamma 90.000000
_cell_volume 3599.187787
_symmetry_space_group_name_H-M "C 2/M"
_symmetry_group_IT_number 12
_symmetry_cell_setting 'monoclinic'
loop_
_space_group_symop_operation_xyz
x,y,z
-x,y,-z
-x,-y,-z
x,-y,z
1/2+x,1/2+y,z
1/2-x,1/2+y,-z
1/2-x,1/2-y,-z
1/2+x,1/2-y,z
loop_
_atom_site_type_symbol
_atom_site_label
_atom_site_fract_x
_atom_site_fract_y
_atom_site_fract_z
Si Si1 0.000000 0.732510 0.000000
Si Si2 0.189889 0.385573 0.795886
Si Si3 0.553178 0.109210 0.867922
Si Si4 0.341762 0.220613 0.556265
Si Si5 0.874619 0.609815 0.734821
Si Si6 0.661715 0.106445 0.599330
Si Si7 0.355572 0.605874 0.662849
Si Si8 0.355937 0.708587 0.832199
O O1 0.930492 0.797749 0.928662
O O2 0.046346 0.668033 0.950648
O O3 0.206538 0.500000 0.802461
O O4 0.129207 0.352099 0.844435
O O5 0.149169 0.355674 0.689323
O O6 0.274828 0.329700 0.844752
O O7 0.472849 0.117634 0.776841
O O8 0.569558 0.000000 0.901804
O O9 0.250000 0.250000 0.500000
O O10 0.343015 0.139563 0.629603
O O11 0.381397 0.177309 0.486815
O O12 0.388998 0.317179 0.607502
O O13 0.845998 0.500000 0.742266
O O14 0.839293 0.682140 0.791755
O O15 0.757866 0.102568 0.619680
O O16 0.623316 0.000000 0.572934
O O17 0.392501 0.500000 0.659351
O O18 0.383049 0.640315 0.766454
#
# Coordination Sequence:
#
# PCOD8085450 Si02
#       8
#     4   8   8   8   8   8   8   8
#     4  10  19  30  47  70  92 114 150 194 234 278
#     4   9  17  31  48  66  92 125 155 184 227 279
#     4   9  18  32  49  67  90 121 152 187 235 284
#     4   9  15  23  39  63  91 120 153 187 221 261
#     4   9  17  29  45  68  96 122 151 189 232 273
#     4   8  13  22  38  59  84 113 144 179 216 259
#     4   8  14  25  39  58  87 118 148 183 219 257
#     4   9  17  29  46  68  93 120 151 189 234 277
#
# _framework density 16.670428000000001
#
# number of rings (size 3 to 8) (size 9 to 14) (size 15 to 20)
#    0.000    3.200    0.000    2.600    0.000    1.600 
#    0.000    2.000    0.000    3.200    0.000   12.133 
#    0.000   10.667    0.000    0.000    0.000    0.000 
#
# Total GULP energy -371774.565272 kJ/mol
# GULP energy per Si atom -12392.485509 kJ/mol
# Density = 1.663249 g / cm^3
# Si number density = 16.670428 Si / 1000 Ang^3
#
#
#
# Elastic Constant Matrix: (Units=GPa)
#
#
# Indices 1 2 3 4 5 6 
#
# 1 72.4626 34.3722 42.6010 0.0000 -12.8975 0.0000
# 2 34.3722 100.8479 47.1871 0.0000 -5.3199 0.0000
# 3 42.6010 47.1871 110.3076 0.0000 -4.6600 0.0000
# 4 0.0000 0.0000 0.0000 20.5989 0.0000 -1.6267
# 5 -12.8975 -5.3199 -4.6600 0.0000 21.0154 0.0000
# 6 0.0000 0.0000 0.0000 -1.6267 0.0000 18.3570
#
#
#
# Elastic Compliance Matrix: (Units=1/GPa)
#
#
# Indices 1 2 3 4 5 6 
#
# 1 0.021046 -0.003776 -0.006064 0.000000 0.010616 0.000000
# 2 -0.003776 0.013157 -0.004166 0.000000 0.000090 0.000000
# 3 -0.006064 -0.004166 0.013111 0.000000 -0.001869 0.000000
# 4 0.000000 0.000000 0.000000 0.048888 0.000000 0.004332
# 5 0.010616 0.000090 -0.001869 0.000000 0.053708 0.000000
# 6 0.000000 0.000000 0.000000 0.004332 0.000000 0.054859
#
#
# Mechanical properties :
#
#
# Convention : Reuss Voigt Hill
#
# Bulk Modulus (GPa) = 51.81025 59.10428 55.45726
# Shear Modulus (GPa) = 20.90169 22.62477 21.76323
#
# Velocity S-wave (km/s) = 3.54477 3.68799 3.61709
# Velocity P-wave (km/s) = 6.92102 7.32575 7.12626
#
# Compressibility (1/GPa) = 0.01930120
#
# Stress axis : x y z
#
# Youngs Moduli (GPa) = 47.51516 76.00559 76.27225
#
# Poissons Ratio (x) = 0.28696 0.46254
# Poissons Ratio (y) = 0.17940 0.31777
# Poissons Ratio (z) = 0.28815 0.31666
#
# Static dielectric constant tensor:
#      x y z
#    x 2.777920 0.000000 -0.071170 
#    y 0.000000 3.488350 0.000000 
#    z -0.071170 0.000000 3.276470 
# 
# 
# High freq. dielectric constant tensor:
#      x y z
#    x 1.592020 0.000000 -0.001910 
#    y 0.000000 1.641550 0.000000 
#    z -0.001910 0.000000 1.649290 
# 
# From -- ./inp_files/224859.got.cif
#   From: 2010.06.25/outbox.cif.g09.slc.cpg/sg12_113_cif.got.tgz:224859.got - 2010.06.28 00:19:55.
