data_PCOD8085972
_publ_section_title
;
Structure prediction by ZEFSAII (Michael W. Deem and Ramdas Pophale) SiO2 
 PCOD8085972
Probable space group: C 2/M
;
_chemical_formula_sum "Si O2"
_cell_formula_units_Z 56
_cell_length_a 20.785291
_cell_length_b 8.896467
_cell_length_c 31.552218
_cell_angle_alpha 90.000000
_cell_angle_beta 147.525994
_cell_angle_gamma 90.000000
_cell_volume 3132.641286
_symmetry_space_group_name_H-M "C 2/M"
_symmetry_group_IT_number 12
_symmetry_cell_setting 'monoclinic'
loop_
_space_group_symop_operation_xyz
x,y,z
-x,y,-z
-x,-y,-z
x,-y,z
1/2+x,1/2+y,z
1/2-x,1/2+y,-z
1/2-x,1/2-y,-z
1/2+x,1/2-y,z
loop_
_atom_site_type_symbol
_atom_site_label
_atom_site_fract_x
_atom_site_fract_y
_atom_site_fract_z
Si Si1 0.416851 0.178562 0.840259
Si Si2 0.521940 0.321356 0.577997
Si Si3 0.420350 0.178636 0.994228
Si Si4 0.055690 0.678627 0.240099
Si Si5 0.686210 0.321551 0.593545
Si Si6 0.843170 0.821414 0.173731
Si Si7 0.834802 0.178954 0.264367
O O1 0.441301 0.237797 0.806569
O O2 0.291398 0.242713 0.788428
O O3 0.409634 0.000000 0.835786
O O4 0.524184 0.234675 0.930426
O O5 0.525706 0.500000 0.579542
O O6 0.619397 0.260514 0.598413
O O7 0.388412 0.266689 0.489641
O O8 0.558443 0.263292 0.645129
O O9 0.284561 0.236842 0.914694
O O10 0.422171 0.000000 0.992585
O O11 0.500000 0.244022 0.000000
O O12 0.043812 0.500000 0.235319
O O13 0.944006 0.751564 0.200730
O O14 0.176993 0.735953 0.331066
O O15 0.687001 0.500000 0.596122
O O16 0.859933 0.761449 0.231096
O O17 0.852070 0.000000 0.176735
O O18 0.828386 0.000000 0.260072
#
# Coordination Sequence:
#
# PCOD8085972 Si02
#       7
#     8   8   8   8   8   8   8
#     4   9  15  25  45  69  89 113 150 191 224 257
#     4   8  12  20  39  67  91 108 142 194 230 249
#     4   9  15  26  45  69  90 110 147 196 230 252
#     4  10  19  31  46  67  96 124 146 177 226 276
#     4   8  13  22  39  65  92 114 140 184 231 261
#     4  10  20  31  46  68  94 121 148 183 227 269
#     4   9  14  24  43  68  90 111 148 194 226 252
#
# _framework density 17.876289
#
# number of rings (size 3 to 8) (size 9 to 14) (size 15 to 20)
#    0.000    3.000    2.857    0.857    0.000    0.571 
#    0.000    0.714    0.000    1.286    0.000    2.000 
#    0.000    0.000    0.000    0.000    0.000    0.000 
#
# Total GULP energy -346954.147181 kJ/mol
# GULP energy per Si atom -12391.219542 kJ/mol
# Density = 1.783560 g / cm^3
# Si number density = 17.876289 Si / 1000 Ang^3
#
#
#
# Elastic Constant Matrix: (Units=GPa)
#
#
# Indices 1 2 3 4 5 6 
#
# 1 138.8105 14.0010 90.0592 0.0000 -0.6749 0.0001
# 2 14.0010 6.9709 13.7828 0.0002 1.1405 0.0005
# 3 90.0592 13.7828 191.3314 0.0000 -8.7652 0.0000
# 4 0.0000 0.0002 0.0000 8.0102 0.0000 6.7390
# 5 -0.6749 1.1405 -8.7652 0.0000 35.1332 0.0000
# 6 0.0001 0.0005 0.0000 6.7390 0.0000 18.3322
#
#
#
# Elastic Compliance Matrix: (Units=1/GPa)
#
#
# Indices 1 2 3 4 5 6 
#
# 1 0.011503 -0.014336 -0.004401 0.000000 -0.000412 0.000000
# 2 -0.014336 0.187712 -0.007148 -0.000001 -0.008152 -0.000005
# 3 -0.004401 -0.007148 0.007910 0.000000 0.002121 0.000000
# 4 0.000000 -0.000001 0.000000 0.180738 0.000000 -0.066440
# 5 -0.000412 -0.008152 0.002121 0.000000 0.029249 0.000000
# 6 0.000000 -0.000005 0.000000 -0.066440 0.000000 0.078973
#
#
# Mechanical properties :
#
#
# Convention : Reuss Voigt Hill
#
# Bulk Modulus (GPa) = 6.43679 63.64431 35.04055
# Shear Modulus (GPa) = 8.33836 26.91311 17.62573
#
# Velocity S-wave (km/s) = 2.16208 3.88431 3.14344
# Velocity P-wave (km/s) = 3.13709 7.46975 5.72881
#
# Compressibility (1/GPa) = 0.15535697
#
# Stress axis : x y z
#
# Youngs Moduli (GPa) = 86.93285 5.32731 126.42264
#
# Poissons Ratio (x) = 0.07637 0.55634
# Poissons Ratio (y) = 1.24624 0.90364
# Poissons Ratio (z) = 0.38256 0.03808
#
# Static dielectric constant tensor:
#      x y z
#    x 3.299230 0.000000 -0.211250 
#    y 0.000000 2.537180 0.000000 
#    z -0.211250 0.000000 3.907780 
# 
# 
# High freq. dielectric constant tensor:
#      x y z
#    x 1.679370 0.000000 -0.010470 
#    y 0.000000 1.609360 0.000000 
#    z -0.010470 0.000000 1.716330 
# 
# From -- ./inp_files/268616.got.cif
#   From: 2010.06.25/outbox.cif.g09.slc.cpg/sg12_135_cif.got.tgz:268616.got - 2010.06.28 00:19:55.
