data_PCOD8085227
_publ_section_title
;
Structure prediction by ZEFSAII (Michael W. Deem and Ramdas Pophale) SiO2 
 PCOD8085227
Probable space group: C 2/M
;
_chemical_formula_sum "Si O2"
_cell_formula_units_Z 64
_cell_length_a 27.886980
_cell_length_b 9.232883
_cell_length_c 20.656234
_cell_angle_alpha 90.000000
_cell_angle_beta 44.829886
_cell_angle_gamma 90.000000
_cell_volume 3749.571906
_symmetry_space_group_name_H-M "C 2/M"
_symmetry_group_IT_number 12
_symmetry_cell_setting 'monoclinic'
loop_
_space_group_symop_operation_xyz
x,y,z
-x,y,-z
-x,-y,-z
x,-y,z
1/2+x,1/2+y,z
1/2-x,1/2+y,-z
1/2-x,1/2-y,-z
1/2+x,1/2-y,z
loop_
_atom_site_type_symbol
_atom_site_label
_atom_site_fract_x
_atom_site_fract_y
_atom_site_fract_z
Si Si1 0.855027 0.338640 0.472886
Si Si2 0.985602 0.336593 0.701507
Si Si3 0.443142 0.171900 0.603799
Si Si4 0.032841 0.331461 0.901404
Si Si5 0.007364 0.163456 0.801500
Si Si6 0.167235 0.836285 0.624925
Si Si7 0.189114 0.669810 0.343743
Si Si8 0.188639 0.329910 0.730978
O O1 0.826371 0.500000 0.490600
O O2 0.814241 0.238097 0.461299
O O3 0.843031 0.285222 0.556896
O O4 0.934289 0.335828 0.383836
O O5 0.959204 0.500000 0.738915
O O6 0.953015 0.268699 0.667372
O O7 0.965924 0.240265 0.782805
O O8 0.500000 0.236782 0.500000
O O9 0.366989 0.215493 0.655492
O O10 0.452948 0.000000 0.595238
O O11 0.020581 0.500000 0.899491
O O12 0.994438 0.245728 0.881288
O O13 0.112898 0.295940 0.828197
O O14 0.000000 0.281054 0.000000
O O15 0.086735 0.168310 0.710586
O O16 0.980388 0.000000 0.833713
O O17 0.203048 0.749905 0.648968
O O18 0.194571 0.000000 0.599309
O O19 0.206228 0.500000 0.322624
O O20 0.258270 0.762575 0.267806
O O21 0.200923 0.500000 0.710644
#
# Coordination Sequence:
#
# PCOD8085227 Si02
#       8
#     8   8   8   8   8   8   8   8
#     4   9  16  26  42  63  86 118 158 196 230 261
#     4   9  15  26  46  67  90 122 162 202 232 260
#     4   9  15  27  47  69  89 119 167 211 236 259
#     4   9  18  34  55  75  93 116 149 186 225 278
#     4   9  17  28  44  70 100 123 146 182 232 283
#     4   9  17  29  44  61  86 120 156 190 223 265
#     4  10  19  30  45  65  91 122 158 197 233 268
#     4  10  20  33  47  65  91 119 147 183 229 280
#
# _framework density 17.068615999999999
#
# number of rings (size 3 to 8) (size 9 to 14) (size 15 to 20)
#    0.000    2.750    1.250    1.125    0.000    4.750 
#    0.000    0.625    0.000    0.750    0.000    0.875 
#    0.000    0.000    0.000    0.000    0.000    0.000 
#
# Total GULP energy -396717.330775 kJ/mol
# GULP energy per Si atom -12397.416587 kJ/mol
# Density = 1.702977 g / cm^3
# Si number density = 17.068616 Si / 1000 Ang^3
#
#
#
# Elastic Constant Matrix: (Units=GPa)
#
#
# Indices 1 2 3 4 5 6 
#
# 1 130.5587 55.9479 43.2507 0.0009 23.3164 -0.0023
# 2 55.9479 83.4580 34.3211 0.0066 13.9906 -0.0079
# 3 43.2507 34.3211 60.0164 0.0022 23.1034 -0.0045
# 4 0.0009 0.0066 0.0022 12.2919 -0.0010 1.4659
# 5 23.3164 13.9906 23.1034 -0.0010 23.4994 0.0033
# 6 -0.0023 -0.0079 -0.0045 1.4659 0.0033 22.5900
#
#
#
# Elastic Compliance Matrix: (Units=1/GPa)
#
#
# Indices 1 2 3 4 5 6 
#
# 1 0.012282 -0.005942 -0.003417 0.000003 -0.005290 -0.000001
# 2 -0.005942 0.018551 -0.006990 -0.000009 0.001723 0.000005
# 3 -0.003417 -0.006990 0.032524 -0.000005 -0.024424 0.000008
# 4 0.000003 -0.000009 -0.000005 0.081989 0.000011 -0.005320
# 5 -0.005290 0.001723 -0.024424 0.000011 0.070789 -0.000016
# 6 -0.000001 0.000005 0.000008 -0.005320 -0.000016 0.044613
#
#
# Mechanical properties :
#
#
# Convention : Reuss Voigt Hill
#
# Bulk Modulus (GPa) = 32.61635 60.11916 46.36776
# Shear Modulus (GPa) = 16.46550 21.04382 18.75466
#
# Velocity S-wave (km/s) = 3.10928 3.51507 3.31838
# Velocity P-wave (km/s) = 5.66044 7.19533 6.47354
#
# Compressibility (1/GPa) = 0.03065947
#
# Stress axis : x y z
#
# Youngs Moduli (GPa) = 81.41848 53.90573 30.74658
#
# Poissons Ratio (x) = 0.32029 0.10506
# Poissons Ratio (y) = 0.48376 0.21492
# Poissons Ratio (z) = 0.27821 0.37680
#
# Static dielectric constant tensor:
#      x y z
#    x 3.346350 -0.000010 0.144150 
#    y -0.000010 3.185430 0.000000 
#    z 0.144150 0.000000 2.907760 
# 
# 
# High freq. dielectric constant tensor:
#      x y z
#    x 1.658840 0.000000 0.010740 
#    y 0.000000 1.647080 0.000000 
#    z 0.010740 0.000000 1.618300 
# 
# From -- ./inp_files/326848.got.cif
#   From: 2010.06.25/outbox.cif.g09.slc.cpg/sg12_164_cif.got.tgz:326848.got - 2010.06.28 00:19:55.
