data_PCOD8085211
_publ_section_title
;
Structure prediction by ZEFSAII (Michael W. Deem and Ramdas Pophale) SiO2 
 PCOD8085211
Probable space group: C 2/M
;
_chemical_formula_sum "Si O2"
_cell_formula_units_Z 48
_cell_length_a 28.362283
_cell_length_b 9.132055
_cell_length_c 11.420857
_cell_angle_alpha 90.000000
_cell_angle_beta 77.103557
_cell_angle_gamma 90.000000
_cell_volume 2883.452515
_symmetry_space_group_name_H-M "C 2/M"
_symmetry_group_IT_number 12
_symmetry_cell_setting 'monoclinic'
loop_
_space_group_symop_operation_xyz
x,y,z
-x,y,-z
-x,-y,-z
x,-y,z
1/2+x,1/2+y,z
1/2-x,1/2+y,-z
1/2-x,1/2-y,-z
1/2+x,1/2-y,z
loop_
_atom_site_type_symbol
_atom_site_label
_atom_site_fract_x
_atom_site_fract_y
_atom_site_fract_z
Si Si1 0.277735 0.829724 0.146427
Si Si2 0.889800 0.326653 0.464082
Si Si3 0.708076 0.173408 0.594267
Si Si4 0.403741 0.827192 0.724922
Si Si5 0.677225 0.328745 0.087504
Si Si6 0.992684 0.326588 0.375229
O O1 0.287599 0.781613 0.273195
O O2 0.222232 0.791724 0.147111
O O3 0.288543 0.000000 0.119258
O O4 0.313851 0.737997 0.045387
O O5 0.887226 0.500000 0.459924
O O6 0.842738 0.262549 0.425834
O O7 0.891177 0.277882 0.599216
O O8 0.938714 0.272777 0.366532
O O9 0.750000 0.250000 0.500000
O O10 0.712687 0.000000 0.574835
O O11 0.370675 0.741469 0.833298
O O12 0.459774 0.781894 0.726230
O O13 0.395369 0.000000 0.745137
O O14 0.668954 0.500000 0.078422
O O15 0.991982 0.500000 0.383525
O O16 0.000000 0.261143 0.500000
#
# Coordination Sequence:
#
# PCOD8085211 Si02
#       6
#     8   8   8   8   8   8
#     4   9  19  33  45  61  86 115 146 178 212 249
#     4   8  14  25  43  67  91 115 142 172 209 253
#     4  10  19  30  46  67  91 116 141 172 210 256
#     4   9  15  25  45  69  90 112 140 175 213 253
#     4  10  19  30  45  63  85 113 145 182 217 251
#     4   7  11  21  39  64  89 111 139 174 208 244
#
# _framework density 16.646711
#
# number of rings (size 3 to 8) (size 9 to 14) (size 15 to 20)
#    0.000    3.167    0.000    3.500    0.000    1.333 
#    0.000    0.000    0.000    6.500    0.000    7.000 
#    0.000    0.000    0.000    0.000    0.000    0.000 
#
# Total GULP energy -297331.319523 kJ/mol
# GULP energy per Si atom -12388.804980 kJ/mol
# Density = 1.660882 g / cm^3
# Si number density = 16.646711 Si / 1000 Ang^3
#
#
#
# Elastic Constant Matrix: (Units=GPa)
#
#
# Indices 1 2 3 4 5 6 
#
# 1 151.5686 35.7919 84.0923 0.0000 -24.5828 0.0000
# 2 35.7919 39.4629 45.0390 0.0000 -12.2874 0.0000
# 3 84.0923 45.0390 117.9874 0.0000 -20.0474 0.0000
# 4 0.0000 0.0000 0.0000 21.2581 0.0000 -5.9334
# 5 -24.5828 -12.2874 -20.0474 0.0000 32.1130 0.0000
# 6 0.0000 0.0000 0.0000 -5.9334 0.0000 18.0308
#
#
#
# Elastic Compliance Matrix: (Units=1/GPa)
#
#
# Indices 1 2 3 4 5 6 
#
# 1 0.011396 -0.001075 -0.007047 0.000000 0.003913 0.000000
# 2 -0.001075 0.046565 -0.015797 0.000000 0.007133 0.000000
# 3 -0.007047 -0.015797 0.019671 0.000000 0.000841 0.000000
# 4 0.000000 0.000000 0.000000 0.051798 0.000000 0.017045
# 5 0.003913 0.007133 0.000841 0.000000 0.037390 0.000000
# 6 0.000000 0.000000 0.000000 0.017045 0.000000 0.061070
#
#
# Mechanical properties :
#
#
# Convention : Reuss Voigt Hill
#
# Bulk Modulus (GPa) = 33.56339 70.98503 52.27421
# Shear Modulus (GPa) = 17.50335 23.88679 20.69507
#
# Velocity S-wave (km/s) = 3.24614 3.79215 3.52972
# Velocity P-wave (km/s) = 5.85285 7.86820 6.93413
#
# Compressibility (1/GPa) = 0.02979437
#
# Stress axis : x y z
#
# Youngs Moduli (GPa) = 87.75100 21.47523 50.83568
#
# Poissons Ratio (x) = 0.02308 0.35824
# Poissons Ratio (y) = 0.09430 0.80307
# Poissons Ratio (z) = 0.61838 0.33925
#
# Static dielectric constant tensor:
#      x y z
#    x 3.675020 0.000000 -0.121790 
#    y 0.000000 2.794310 0.000000 
#    z -0.121790 0.000000 3.002090 
# 
# 
# High freq. dielectric constant tensor:
#      x y z
#    x 1.649120 0.000000 -0.021530 
#    y 0.000000 1.607630 0.000000 
#    z -0.021530 0.000000 1.621570 
# 
# From -- ./inp_files/179179.got.cif
#   From: 2010.06.25/outbox.cif.g09.slc.cpg/sg12_90_cif.got.tgz:179179.got - 2010.06.28 00:19:55.
