data_PCOD8085204
_publ_section_title
;
Structure prediction by ZEFSAII (Michael W. Deem and Ramdas Pophale) SiO2 
 PCOD8085204
Probable space group: C 2/M
;
_chemical_formula_sum "Si O2"
_cell_formula_units_Z 56
_cell_length_a 24.559800
_cell_length_b 9.052225
_cell_length_c 24.555170
_cell_angle_alpha 90.000000
_cell_angle_beta 37.428565
_cell_angle_gamma 90.000000
_cell_volume 3317.902903
_symmetry_space_group_name_H-M "C 2/M"
_symmetry_group_IT_number 12
_symmetry_cell_setting 'monoclinic'
loop_
_space_group_symop_operation_xyz
x,y,z
-x,y,-z
-x,-y,-z
x,-y,z
1/2+x,1/2+y,z
1/2-x,1/2+y,-z
1/2-x,1/2-y,-z
1/2+x,1/2-y,z
loop_
_atom_site_type_symbol
_atom_site_label
_atom_site_fract_x
_atom_site_fract_y
_atom_site_fract_z
Si Si1 0.478803 0.169721 0.373118
Si Si2 0.825840 0.167465 0.312343
Si Si3 0.809399 0.826714 0.907816
Si Si4 0.346679 0.325493 0.556154
Si Si5 0.486329 0.327233 0.257630
Si Si6 0.811405 0.668781 0.797097
Si Si7 0.773309 0.668298 0.710032
O O1 0.432087 0.258363 0.458483
O O2 0.450086 0.238070 0.338132
O O3 0.584146 0.188510 0.298015
O O4 0.448560 0.000000 0.398615
O O5 0.745530 0.269618 0.400112
O O6 0.820637 0.177028 0.249811
O O7 0.923067 0.217209 0.256812
O O8 0.806770 0.000000 0.346785
O O9 0.912365 0.781690 0.837621
O O10 0.779413 0.771027 0.872031
O O11 0.793726 0.000000 0.923315
O O12 0.750000 0.750000 0.000000
O O13 0.352333 0.500000 0.550089
O O14 0.346194 0.267729 0.619417
O O15 0.481949 0.500000 0.275124
O O16 0.788029 0.500000 0.830897
O O17 0.759957 0.721790 0.782889
O O18 0.809804 0.500000 0.682795
#
# Coordination Sequence:
#
# PCOD8085204 Si02
#       7
#     8   8   8   8   8   8   8
#     4  10  19  30  45  68  97 129 164 202 243 281
#     4   8  16  32  50  67  91 126 164 200 239 275
#     4  10  20  34  54  79 103 123 150 188 236 289
#     4  10  19  30  44  67  97 130 167 202 236 277
#     4   9  18  33  52  72  94 123 159 200 239 282
#     4   9  18  33  53  73  95 125 161 198 239 285
#     4   8  16  32  50  68  92 127 164 199 237 279
#
# _framework density 16.878132000000001
#
# number of rings (size 3 to 8) (size 9 to 14) (size 15 to 20)
#    0.857    2.000    0.000    1.714    0.000    3.429 
#    0.000    2.857    0.000    0.857    0.000    6.000 
#    0.000    0.000    0.000    0.000    0.000    0.000 
#
# Total GULP energy -346947.844743 kJ/mol
# GULP energy per Si atom -12390.994455 kJ/mol
# Density = 1.683972 g / cm^3
# Si number density = 16.878132 Si / 1000 Ang^3
#
#
#
# Elastic Constant Matrix: (Units=GPa)
#
#
# Indices 1 2 3 4 5 6 
#
# 1 94.7708 30.1004 31.8025 -0.0006 23.3404 0.0001
# 2 30.1004 86.8018 44.5140 -0.0043 15.0485 0.0037
# 3 31.8025 44.5140 80.6115 -0.0016 24.2591 0.0011
# 4 -0.0006 -0.0043 -0.0016 26.9771 0.0016 4.9639
# 5 23.3404 15.0485 24.2591 0.0016 18.5292 -0.0010
# 6 0.0001 0.0037 0.0011 4.9639 -0.0010 23.2067
#
#
#
# Elastic Compliance Matrix: (Units=1/GPa)
#
#
# Indices 1 2 3 4 5 6 
#
# 1 0.015734 -0.002669 0.000955 0.000001 -0.018902 -0.000001
# 2 -0.002669 0.016587 -0.008357 0.000003 0.000832 -0.000003
# 3 0.000955 -0.008357 0.024691 0.000002 -0.026741 -0.000001
# 4 0.000001 0.000003 0.000002 0.038587 -0.000010 -0.008254
# 5 -0.018902 0.000832 -0.026741 -0.000010 0.112114 0.000008
# 6 -0.000001 -0.000003 -0.000001 -0.008254 0.000008 0.044857
#
#
# Mechanical properties :
#
#
# Convention : Reuss Voigt Hill
#
# Bulk Modulus (GPa) = 27.12206 52.77975 39.95091
# Shear Modulus (GPa) = 17.54365 24.12709 20.83537
#
# Velocity S-wave (km/s) = 3.22752 3.78496 3.51730
# Velocity P-wave (km/s) = 5.47662 7.10213 6.34167
#
# Compressibility (1/GPa) = 0.03687036
#
# Stress axis : x y z
#
# Youngs Moduli (GPa) = 63.55530 60.28638 40.50080
#
# Poissons Ratio (x) = 0.16089 -0.03867
# Poissons Ratio (y) = 0.16962 0.33847
# Poissons Ratio (z) = -0.06068 0.50382
#
# Static dielectric constant tensor:
#      x y z
#    x 3.307760 0.000000 0.082540 
#    y 0.000000 3.180320 0.000000 
#    z 0.082540 0.000000 2.872530 
# 
# 
# High freq. dielectric constant tensor:
#      x y z
#    x 1.647860 0.000000 0.010250 
#    y 0.000000 1.653960 0.000000 
#    z 0.010250 0.000000 1.616120 
# 
# From -- ./inp_files/348472.got.cif
#   From: 2010.06.25/outbox.cif.g09.slc.cpg/sg12_175_cif.got.tgz:348472.got - 2010.06.28 00:19:55.
