data_PCOD8085565
_publ_section_title
;
Structure prediction by ZEFSAII (Michael W. Deem and Ramdas Pophale) SiO2 
 PCOD8085565
Probable space group: C 2/M
;
_chemical_formula_sum "Si O2"
_cell_formula_units_Z 56
_cell_length_a 29.045583
_cell_length_b 9.127606
_cell_length_c 11.313792
_cell_angle_alpha 90.000000
_cell_angle_beta 77.153621
_cell_angle_gamma 90.000000
_cell_volume 2924.396744
_symmetry_space_group_name_H-M "C 2/M"
_symmetry_group_IT_number 12
_symmetry_cell_setting 'monoclinic'
loop_
_space_group_symop_operation_xyz
x,y,z
-x,y,-z
-x,-y,-z
x,-y,z
1/2+x,1/2+y,z
1/2-x,1/2+y,-z
1/2-x,1/2-y,-z
1/2+x,1/2-y,z
loop_
_atom_site_type_symbol
_atom_site_label
_atom_site_fract_x
_atom_site_fract_y
_atom_site_fract_z
Si Si1 0.162647 0.173197 0.559047
Si Si2 0.615107 0.326953 0.935755
Si Si3 0.066457 0.826671 0.726818
Si Si4 0.015188 0.327039 0.360088
Si Si5 0.601241 0.670440 0.205133
Si Si6 0.789469 0.173119 0.231212
Si Si7 0.804793 0.169840 0.710669
O O1 0.110052 0.228973 0.621179
O O2 0.199722 0.219088 0.639229
O O3 0.178996 0.238970 0.424452
O O4 0.159217 0.000000 0.553482
O O5 0.619906 0.500000 0.937784
O O6 0.577346 0.283299 0.856752
O O7 0.667368 0.267321 0.873833
O O8 0.597888 0.268926 0.072746
O O9 0.019790 0.742072 0.715800
O O10 0.058083 0.000000 0.718902
O O11 0.015657 0.500000 0.344031
O O12 0.000000 0.280009 0.500000
O O13 0.067117 0.263765 0.307799
O O14 0.586856 0.500000 0.222541
O O15 0.654587 0.694961 0.216960
O O16 0.741578 0.248906 0.215697
O O17 0.783538 0.000000 0.222546
O O18 0.792536 0.000000 0.702141
#
# Coordination Sequence:
#
# PCOD8085565 Si02
#       7
#     8   8   8   8   8   8   8
#     4   8  15  29  49  74 101 131 171 214 253 300
#     4   8  17  35  56  79 104 133 175 219 253 295
#     4   9  17  34  60  80  99 135 178 214 251 302
#     4  11  24  39  54  78 110 135 161 207 265 316
#     4  10  21  37  56  76 102 138 178 216 252 300
#     4   9  17  31  51  72 100 137 171 208 258 308
#     4  10  19  30  47  74 104 133 172 218 255 293
#
# _framework density 19.149248
#
# number of rings (size 3 to 8) (size 9 to 14) (size 15 to 20)
#    0.000    2.714    0.000    3.429    0.000    4.000 
#    0.000    7.857    0.000    0.000    0.000    0.000 
#    0.000    0.000    0.000    0.000    0.000    0.000 
#
# Total GULP energy -347166.616698 kJ/mol
# GULP energy per Si atom -12398.807739 kJ/mol
# Density = 1.910566 g / cm^3
# Si number density = 19.149248 Si / 1000 Ang^3
#
#
#
# Elastic Constant Matrix: (Units=GPa)
#
#
# Indices 1 2 3 4 5 6 
#
# 1 97.1193 36.9358 33.8859 0.0000 2.7545 0.0000
# 2 36.9358 45.3578 31.5907 0.0000 0.9523 0.0000
# 3 33.8859 31.5907 114.3538 0.0000 6.2766 0.0000
# 4 0.0000 0.0000 0.0000 17.2088 0.0000 -3.6631
# 5 2.7545 0.9523 6.2766 0.0000 22.2521 0.0000
# 6 0.0000 0.0000 0.0000 -3.6631 0.0000 33.0839
#
#
#
# Elastic Compliance Matrix: (Units=1/GPa)
#
#
# Indices 1 2 3 4 5 6 
#
# 1 0.015101 -0.011390 -0.001272 0.000000 -0.001023 0.000000
# 2 -0.011390 0.035911 -0.006641 0.000000 0.001746 0.000000
# 3 -0.001272 -0.006641 0.011104 0.000000 -0.002690 0.000000
# 4 0.000000 0.000000 0.000000 0.059513 0.000000 0.006589
# 5 -0.001023 0.001746 -0.002690 0.000000 0.045750 0.000000
# 6 0.000000 0.000000 0.000000 0.006589 0.000000 0.030956
#
#
# Mechanical properties :
#
#
# Convention : Reuss Voigt Hill
#
# Bulk Modulus (GPa) = 42.53585 51.29506 46.91545
# Shear Modulus (GPa) = 20.42673 24.80350 22.61512
#
# Velocity S-wave (km/s) = 3.26960 3.60289 3.44029
# Velocity P-wave (km/s) = 6.04274 6.64477 6.35089
#
# Compressibility (1/GPa) = 0.02350958
#
# Stress axis : x y z
#
# Youngs Moduli (GPa) = 66.22008 27.84699 90.05649
#
# Poissons Ratio (x) = 0.31717 0.11458
# Poissons Ratio (y) = 0.75422 0.59809
# Poissons Ratio (z) = 0.08425 0.18494
#
# Static dielectric constant tensor:
#      x y z
#    x 3.447130 0.000000 0.026870 
#    y 0.000000 3.081270 0.000000 
#    z 0.026870 0.000000 3.921190 
# 
# 
# High freq. dielectric constant tensor:
#      x y z
#    x 1.751000 0.000000 0.001050 
#    y 0.000000 1.702000 0.000000 
#    z 0.001050 0.000000 1.749350 
# 
# From -- ./inp_files/186447.got.cif
#   From: 2010.06.25/outbox.cif.g09.slc.cpg/sg12_94_cif.got.tgz:186447.got - 2010.06.28 00:19:55.
