data_PCOD8085507
_publ_section_title
;
Structure prediction by ZEFSAII (Michael W. Deem and Ramdas Pophale) SiO2 
 PCOD8085507
Probable space group: C 2/M
;
_chemical_formula_sum "Si O2"
_cell_formula_units_Z 64
_cell_length_a 16.451015
_cell_length_b 14.456562
_cell_length_c 29.687014
_cell_angle_alpha 90.000000
_cell_angle_beta 150.414425
_cell_angle_gamma 90.000000
_cell_volume 3485.840797
_symmetry_space_group_name_H-M "C 2/M"
_symmetry_group_IT_number 12
_symmetry_cell_setting 'monoclinic'
loop_
_space_group_symop_operation_xyz
x,y,z
-x,y,-z
-x,-y,-z
x,-y,z
1/2+x,1/2+y,z
1/2-x,1/2+y,-z
1/2-x,1/2-y,-z
1/2+x,1/2-y,z
loop_
_atom_site_type_symbol
_atom_site_label
_atom_site_fract_x
_atom_site_fract_y
_atom_site_fract_z
Si Si1 0.134105 0.789359 0.876473
Si Si2 0.642430 0.603534 0.132628
Si Si3 0.723992 0.603557 0.070349
Si Si4 0.732022 0.396399 0.759988
Si Si5 0.339825 0.892554 0.396772
Si Si6 0.951451 0.394163 0.025758
Si Si7 0.786539 0.790966 0.748280
Si Si8 0.010272 0.105387 0.734665
O O1 0.145479 0.677981 0.884578
O O2 0.113953 0.825542 0.815788
O O3 0.976108 0.816688 0.829289
O O4 0.301226 0.836365 0.975664
O O5 0.648211 0.500000 0.155168
O O6 0.732451 0.607270 0.128296
O O7 0.740629 0.669458 0.214543
O O8 0.453680 0.633465 0.034124
O O9 0.771574 0.500000 0.076689
O O10 0.728936 0.500000 0.737167
O O11 0.740812 0.318252 0.725521
O O12 0.567955 0.380951 0.711000
O O13 0.891759 0.383047 0.867470
O O14 0.500000 0.855772 0.500000
O O15 0.328655 0.838345 0.344266
O O16 0.183741 0.873378 0.353946
O O17 0.357177 0.000000 0.393085
O O18 0.893889 0.500000 0.993565
O O19 0.000000 0.354226 0.000000
O O20 0.048788 0.000000 0.768604
#
# Coordination Sequence:
#
# PCOD8085507 Si02
#       8
#     8   8   8   8   8   8   8   8
#     4  11  20  29  47  70  98 135 172 215 252 284
#     4   9  18  32  47  66  93 130 169 207 245 284
#     4   9  19  32  46  63  93 139 181 203 227 282
#     4  10  20  33  49  72 105 140 171 206 244 291
#     4   9  19  37  60  82 101 122 154 207 269 318
#     4  10  19  30  47  71  99 134 178 217 244 280
#     4  11  22  33  49  77 104 128 164 211 260 301
#     4   9  17  32  54  77  99 128 167 204 252 308
#
# _framework density 18.359988999999999
#
# number of rings (size 3 to 8) (size 9 to 14) (size 15 to 20)
#    0.000    2.250    1.250    3.000    1.750    4.000 
#    0.000    3.125    0.000    0.375    0.000    0.000 
#    0.000    0.000    0.000    0.000    0.000    0.000 
#
# Total GULP energy -396754.334392 kJ/mol
# GULP energy per Si atom -12398.572950 kJ/mol
# Density = 1.831820 g / cm^3
# Si number density = 18.359989 Si / 1000 Ang^3
#
#
#
# Elastic Constant Matrix: (Units=GPa)
#
#
# Indices 1 2 3 4 5 6 
#
# 1 41.6066 21.7085 28.5248 0.0001 -1.6181 0.0000
# 2 21.7085 95.0023 40.9703 -0.0003 -4.4622 0.0000
# 3 28.5248 40.9703 86.5293 -0.0024 -2.0671 -0.0005
# 4 0.0001 -0.0003 -0.0024 17.9421 0.0000 -1.6373
# 5 -1.6181 -4.4622 -2.0671 0.0000 21.3826 0.0001
# 6 0.0000 0.0000 -0.0005 -1.6373 0.0001 26.0265
#
#
#
# Elastic Compliance Matrix: (Units=1/GPa)
#
#
# Indices 1 2 3 4 5 6 
#
# 1 0.031950 -0.003428 -0.008890 -0.000001 0.000843 0.000000
# 2 -0.003428 0.013695 -0.005305 0.000000 0.002086 0.000000
# 3 -0.008890 -0.005305 0.016996 0.000002 -0.000137 0.000000
# 4 -0.000001 0.000000 0.000002 0.056057 0.000000 0.003526
# 5 0.000843 0.002086 -0.000137 0.000000 0.047253 0.000000
# 6 0.000000 0.000000 0.000000 0.003526 0.000000 0.038644
#
#
# Mechanical properties :
#
#
# Convention : Reuss Voigt Hill
#
# Bulk Modulus (GPa) = 36.49967 45.06060 40.78014
# Shear Modulus (GPa) = 20.08269 21.86586 20.97427
#
# Velocity S-wave (km/s) = 3.31090 3.45476 3.38359
# Velocity P-wave (km/s) = 5.87701 6.36474 6.12573
#
# Compressibility (1/GPa) = 0.02739751
#
# Stress axis : x y z
#
# Youngs Moduli (GPa) = 31.29855 73.01999 58.83854
#
# Poissons Ratio (x) = 0.25028 0.52305
# Poissons Ratio (y) = 0.10728 0.31211
# Poissons Ratio (z) = 0.27823 0.38734
#
# Static dielectric constant tensor:
#      x y z
#    x 3.258520 0.000000 0.077670 
#    y 0.000000 3.577300 0.000000 
#    z 0.077670 0.000000 3.040300 
# 
# 
# High freq. dielectric constant tensor:
#      x y z
#    x 1.700950 0.000000 0.004220 
#    y 0.000000 1.722100 0.000000 
#    z 0.004220 0.000000 1.663480 
# 
# From -- ./inp_files/296674.got.cif
#   From: 2010.06.25/outbox.cif.g09.slc.cpg/sg12_149_cif.got.tgz:296674.got - 2010.06.28 00:19:55.
