data_PCOD8085744
_publ_section_title
;
Structure prediction by ZEFSAII (Michael W. Deem and Ramdas Pophale) SiO2 
 PCOD8085744
Probable space group: C 2/M
;
_chemical_formula_sum "Si O2"
_cell_formula_units_Z 48
_cell_length_a 27.662910
_cell_length_b 8.906634
_cell_length_c 15.798919
_cell_angle_alpha 90.000000
_cell_angle_beta 43.533474
_cell_angle_gamma 90.000000
_cell_volume 2681.132418
_symmetry_space_group_name_H-M "C 2/M"
_symmetry_group_IT_number 12
_symmetry_cell_setting 'monoclinic'
loop_
_space_group_symop_operation_xyz
x,y,z
-x,y,-z
-x,-y,-z
x,-y,z
1/2+x,1/2+y,z
1/2-x,1/2+y,-z
1/2-x,1/2-y,-z
1/2+x,1/2-y,z
loop_
_atom_site_type_symbol
_atom_site_label
_atom_site_fract_x
_atom_site_fract_y
_atom_site_fract_z
Si Si1 0.751838 0.323143 0.406264
Si Si2 0.111603 0.172796 0.828974
Si Si3 0.025571 0.673836 0.276237
Si Si4 0.976177 0.172393 0.895571
Si Si5 0.421818 0.331103 0.634208
Si Si6 0.628265 0.175049 0.460774
O O1 0.747613 0.500000 0.422441
O O2 0.750000 0.250000 0.500000
O O3 0.822762 0.280296 0.267777
O O4 0.686180 0.268214 0.436164
O O5 0.051369 0.217298 0.838750
O O6 0.133913 0.000000 0.787348
O O7 0.084053 0.197997 0.958747
O O8 0.042303 0.500000 0.266087
O O9 0.041603 0.722838 0.160642
O O10 0.078189 0.761718 0.271881
O O11 0.944962 0.709294 0.400096
O O12 0.977778 0.000000 0.863767
O O13 0.500000 0.328918 0.500000
O O14 0.391875 0.500000 0.675868
O O15 0.373447 0.231155 0.634097
O O16 0.647258 0.000000 0.437844
#
# Coordination Sequence:
#
# PCOD8085744 Si02
#       6
#     8   8   8   8   8   8
#     4  12  24  36  52  75 103 136 171 206 248 299
#     4   9  19  36  54  74 101 133 169 208 252 299
#     4  10  19  30  49  77 105 133 168 209 251 296
#     4   9  18  33  54  76 100 132 168 208 252 299
#     4   9  17  30  49  73 101 133 168 207 251 298
#     4  10  20  34  51  74 105 137 168 207 253 298
#
# _framework density 17.902884
#
# number of rings (size 3 to 8) (size 9 to 14) (size 15 to 20)
#    0.000    2.167    0.000    5.000    0.000    8.000 
#    0.000    1.667    0.000    1.000    0.000    0.000 
#    0.000    0.000    0.000    0.000    0.000    0.000 
#
# Total GULP energy -297665.255090 kJ/mol
# GULP energy per Si atom -12402.718962 kJ/mol
# Density = 1.786214 g / cm^3
# Si number density = 17.902884 Si / 1000 Ang^3
#
#
#
# Elastic Constant Matrix: (Units=GPa)
#
#
# Indices 1 2 3 4 5 6 
#
# 1 112.2879 59.3972 43.6563 -0.0013 20.3592 0.0002
# 2 59.3972 119.4147 45.0475 -0.0002 3.1472 0.0002
# 3 43.6563 45.0475 63.6990 -0.0010 11.4538 0.0007
# 4 -0.0013 -0.0002 -0.0010 28.6390 0.0009 4.8350
# 5 20.3592 3.1472 11.4538 0.0009 27.6624 -0.0005
# 6 0.0002 0.0002 0.0007 4.8350 -0.0005 36.1937
#
#
#
# Elastic Compliance Matrix: (Units=1/GPa)
#
#
# Indices 1 2 3 4 5 6 
#
# 1 0.015338 -0.005480 -0.005098 0.000001 -0.008554 0.000000
# 2 -0.005480 0.013506 -0.006746 -0.000001 0.005290 0.000000
# 3 -0.005098 -0.006746 0.025013 0.000001 -0.005837 -0.000001
# 4 0.000001 -0.000001 0.000001 0.035723 -0.000002 -0.004772
# 5 -0.008554 0.005290 -0.005837 -0.000002 0.044261 0.000001
# 6 0.000000 0.000000 -0.000001 -0.004772 0.000001 0.028267
#
#
# Mechanical properties :
#
#
# Convention : Reuss Voigt Hill
#
# Bulk Modulus (GPa) = 52.06358 65.73372 58.89865
# Shear Modulus (GPa) = 24.61130 28.31908 26.46519
#
# Velocity S-wave (km/s) = 3.71173 3.98152 3.84899
# Velocity P-wave (km/s) = 6.89301 7.61139 7.26109
#
# Compressibility (1/GPa) = 0.01920728
#
# Stress axis : x y z
#
# Youngs Moduli (GPa) = 65.19928 74.04285 39.97881
#
# Poissons Ratio (x) = 0.40579 0.20381
# Poissons Ratio (y) = 0.35732 0.26971
# Poissons Ratio (z) = 0.33238 0.49952
#
# Static dielectric constant tensor:
#      x y z
#    x 3.473320 0.000000 0.142010 
#    y 0.000000 3.393740 0.000000 
#    z 0.142010 0.000000 3.111850 
# 
# 
# High freq. dielectric constant tensor:
#      x y z
#    x 1.695560 0.000000 0.018370 
#    y 0.000000 1.702860 0.000000 
#    z 0.018370 0.000000 1.667420 
# 
# From -- ./inp_files/244618.got.cif
#   From: 2010.06.25/outbox.cif.g09.slc.cpg/sg12_123_cif.got.tgz:244618.got - 2010.06.28 00:19:55.
