data_PCOD8085458
_publ_section_title
;
Structure prediction by ZEFSAII (Michael W. Deem and Ramdas Pophale) SiO2 
 PCOD8085458
Probable space group: C 2/M
;
_chemical_formula_sum "Si O2"
_cell_formula_units_Z 56
_cell_length_a 19.173971
_cell_length_b 9.138549
_cell_length_c 24.472188
_cell_angle_alpha 90.000000
_cell_angle_beta 136.200240
_cell_angle_gamma 90.000000
_cell_volume 2967.947090
_symmetry_space_group_name_H-M "C 2/M"
_symmetry_group_IT_number 12
_symmetry_cell_setting 'monoclinic'
loop_
_space_group_symop_operation_xyz
x,y,z
-x,y,-z
-x,-y,-z
x,-y,z
1/2+x,1/2+y,z
1/2-x,1/2+y,-z
1/2-x,1/2-y,-z
1/2+x,1/2-y,z
loop_
_atom_site_type_symbol
_atom_site_label
_atom_site_fract_x
_atom_site_fract_y
_atom_site_fract_z
Si Si1 0.779898 0.171768 0.685438
Si Si2 0.501812 0.671743 0.819850
Si Si3 0.227449 0.174637 0.758769
Si Si4 0.813542 0.171343 0.581683
Si Si5 0.171802 0.831606 0.992457
Si Si6 0.041086 0.173289 0.724838
Si Si7 0.885922 0.828226 0.922103
O O1 0.709763 0.264655 0.687093
O O2 0.761608 0.205811 0.611109
O O3 0.890481 0.234986 0.762173
O O4 0.765628 0.000000 0.689607
O O5 0.488003 0.500000 0.803689
O O6 0.560959 0.713730 0.908174
O O7 0.558599 0.729453 0.797145
O O8 0.130717 0.235281 0.737715
O O9 0.331318 0.239438 0.843048
O O10 0.234409 0.000000 0.762660
O O11 0.750000 0.250000 0.500000
O O12 0.929430 0.227180 0.643719
O O13 0.810528 0.000000 0.568828
O O14 0.190203 0.000000 0.990896
O O15 0.250000 0.750000 0.000000
O O16 0.179872 0.795832 0.060771
O O17 0.045152 0.000000 0.723677
O O18 0.887336 0.000000 0.907316
O O19 0.000000 0.775871 0.000000
#
# Coordination Sequence:
#
# PCOD8085458 Si02
#       7
#     8   8   8   8   8   8   8
#     4   9  18  34  55  75  98 132 168 201 245 303
#     4   8  14  29  51  68  87 125 173 207 236 291
#     4  11  21  33  52  77 104 133 169 216 261 300
#     4   9  18  35  59  82 104 133 168 205 246 298
#     4  10  19  30  47  70  94 124 164 211 257 296
#     4   8  16  31  51  75 102 134 168 203 252 306
#     4  10  21  36  52  70  98 140 182 215 254 306
#
# _framework density 18.868262000000001
#
# number of rings (size 3 to 8) (size 9 to 14) (size 15 to 20)
#    0.000    2.714    0.000    3.857    0.000    4.857 
#    0.000    4.286    0.000    6.857    0.000    0.000 
#    0.000    0.000    0.000    0.000    0.000    0.000 
#
# Total GULP energy -346954.958885 kJ/mol
# GULP energy per Si atom -12391.248532 kJ/mol
# Density = 1.882532 g / cm^3
# Si number density = 18.868262 Si / 1000 Ang^3
#
#
#
# Elastic Constant Matrix: (Units=GPa)
#
#
# Indices 1 2 3 4 5 6 
#
# 1 98.4355 28.5166 27.2194 0.0000 -14.3014 0.0000
# 2 28.5166 43.5971 33.0569 0.0000 -9.5296 0.0000
# 3 27.2194 33.0569 84.1471 0.0000 -17.9500 0.0000
# 4 0.0000 0.0000 0.0000 29.4606 0.0000 -3.9773
# 5 -14.3014 -9.5296 -17.9500 0.0000 25.6267 0.0000
# 6 0.0000 0.0000 0.0000 -3.9773 0.0000 29.2252
#
#
#
# Elastic Compliance Matrix: (Units=1/GPa)
#
#
# Indices 1 2 3 4 5 6 
#
# 1 0.012995 -0.007223 -0.000461 0.000000 0.004243 0.000000
# 2 -0.007223 0.036987 -0.011897 0.000000 0.001390 0.000000
# 3 -0.000461 -0.011897 0.018467 0.000000 0.008254 0.000000
# 4 0.000000 0.000000 0.000000 0.034579 0.000000 0.004706
# 5 0.004243 0.001390 0.008254 0.000000 0.047688 0.000000
# 6 0.000000 0.000000 0.000000 0.004706 0.000000 0.034858
#
#
# Mechanical properties :
#
#
# Convention : Reuss Voigt Hill
#
# Bulk Modulus (GPa) = 34.14468 44.86283 39.50375
# Shear Modulus (GPa) = 21.32206 26.02163 23.67184
#
# Velocity S-wave (km/s) = 3.36527 3.71768 3.54586
# Velocity P-wave (km/s) = 5.76504 6.50052 6.14379
#
# Compressibility (1/GPa) = 0.02928714
#
# Stress axis : x y z
#
# Youngs Moduli (GPa) = 76.94991 27.03687 54.14920
#
# Poissons Ratio (x) = 0.19529 0.02495
# Poissons Ratio (y) = 0.55583 0.64422
# Poissons Ratio (z) = 0.03546 0.32166
#
# Static dielectric constant tensor:
#      x y z
#    x 3.725110 0.000000 -0.081440 
#    y 0.000000 3.056480 0.000000 
#    z -0.081440 0.000000 3.406700 
# 
# 
# High freq. dielectric constant tensor:
#      x y z
#    x 1.746670 0.000000 -0.013180 
#    y 0.000000 1.694130 0.000000 
#    z -0.013180 0.000000 1.721970 
# 
# From -- ./inp_files/342492.got.cif
#   From: 2010.06.25/outbox.cif.g09.slc.cpg/sg12_172_cif.got.tgz:342492.got - 2010.06.28 00:19:55.
