data_PCOD8085852
_publ_section_title
;
Structure prediction by ZEFSAII (Michael W. Deem and Ramdas Pophale) SiO2 
 PCOD8085852
Probable space group: C 2/M
;
_chemical_formula_sum "Si O2"
_cell_formula_units_Z 64
_cell_length_a 37.286505
_cell_length_b 14.137175
_cell_length_c 9.731747
_cell_angle_alpha 90.000000
_cell_angle_beta 138.719320
_cell_angle_gamma 90.000000
_cell_volume 3384.413393
_symmetry_space_group_name_H-M "C 2/M"
_symmetry_group_IT_number 12
_symmetry_cell_setting 'monoclinic'
loop_
_space_group_symop_operation_xyz
x,y,z
-x,y,-z
-x,-y,-z
x,-y,z
1/2+x,1/2+y,z
1/2-x,1/2+y,-z
1/2-x,1/2-y,-z
1/2+x,1/2-y,z
loop_
_atom_site_type_symbol
_atom_site_label
_atom_site_fract_x
_atom_site_fract_y
_atom_site_fract_z
Si Si1 0.655222 0.783298 0.116236
Si Si2 0.170111 0.304838 0.463196
Si Si3 0.330628 0.395794 0.431675
Si Si4 0.061463 0.719074 0.635130
Si Si5 0.878088 0.388755 0.414280
Si Si6 0.710379 0.389951 0.179511
Si Si7 0.380687 0.395184 0.294736
Si Si8 0.289906 0.895028 0.949963
O O1 0.651530 0.831093 0.255444
O O2 0.675065 0.673308 0.185804
O O3 0.702833 0.832681 0.165433
O O4 0.598660 0.803163 0.875122
O O5 0.167856 0.190410 0.457935
O O6 0.126204 0.344840 0.445571
O O7 0.228772 0.350131 0.663773
O O8 0.339423 0.500000 0.527850
O O9 0.375223 0.380055 0.441958
O O10 0.272646 0.395730 0.188084
O O11 0.072614 0.652127 0.535321
O O12 0.072401 0.826960 0.624553
O O13 0.000000 0.703334 0.500000
O O14 0.885457 0.500000 0.451134
O O15 0.823453 0.356160 0.176942
O O16 0.712381 0.500000 0.232948
O O17 0.678371 0.377336 0.943737
O O18 0.401281 0.500000 0.318905
O O19 0.311802 0.000000 0.979122
#
# Coordination Sequence:
#
# PCOD8085852 Si02
#       8
#     8   8   8   8   8   8   8   8
#     4  10  22  36  51  80 112 142 182 221 262 314
#     4  12  21  33  52  81 114 149 173 210 263 327
#     4  10  19  30  51  79 112 147 180 212 257 315
#     4  10  21  40  63  79  98 136 183 234 278 315
#     4  10  21  36  56  80 107 138 178 224 268 316
#     4  10  20  32  51  79 117 153 180 210 253 311
#     4   9  18  34  55  84 110 138 182 226 259 308
#     4   9  18  33  52  77 108 147 183 211 249 308
#
# _framework density 18.910219000000001
#
# number of rings (size 3 to 8) (size 9 to 14) (size 15 to 20)
#    0.000    2.000    2.500    1.500    0.000    5.000 
#    0.000    0.625    0.000    0.750    0.000    1.750 
#    0.000    0.000    0.000    0.000    0.000    0.000 
#
# Total GULP energy -396585.094342 kJ/mol
# GULP energy per Si atom -12393.284198 kJ/mol
# Density = 1.886718 g / cm^3
# Si number density = 18.910219 Si / 1000 Ang^3
#
#
#
# Elastic Constant Matrix: (Units=GPa)
#
#
# Indices 1 2 3 4 5 6 
#
# 1 108.8459 39.8417 43.2139 0.0000 -5.6594 0.0000
# 2 39.8417 100.3580 22.1350 0.0000 -9.9550 0.0000
# 3 43.2139 22.1350 40.1729 0.0000 -6.3861 0.0000
# 4 0.0000 0.0000 0.0000 15.5443 0.0000 0.2681
# 5 -5.6594 -9.9550 -6.3861 0.0000 32.2536 0.0000
# 6 0.0000 0.0000 0.0000 0.2681 0.0000 19.3797
#
#
#
# Elastic Compliance Matrix: (Units=1/GPa)
#
#
# Indices 1 2 3 4 5 6 
#
# 1 0.016874 -0.003164 -0.016616 0.000000 -0.001306 0.000000
# 2 -0.003164 0.012109 -0.002853 0.000000 0.002617 0.000000
# 3 -0.016616 -0.002853 0.045156 0.000000 0.005145 0.000000
# 4 0.000000 0.000000 0.000000 0.064348 0.000000 -0.000890
# 5 -0.001306 0.002617 0.005145 0.000000 0.032602 0.000000
# 6 0.000000 0.000000 0.000000 -0.000890 0.000000 0.051613
#
#
# Mechanical properties :
#
#
# Convention : Reuss Voigt Hill
#
# Bulk Modulus (GPa) = 34.63281 51.08423 42.85852
# Shear Modulus (GPa) = 18.01207 23.04792 20.52999
#
# Velocity S-wave (km/s) = 3.08962 3.49493 3.29850
# Velocity P-wave (km/s) = 5.57510 6.58474 6.10084
#
# Compressibility (1/GPa) = 0.02887436
#
# Stress axis : x y z
#
# Youngs Moduli (GPa) = 59.26156 82.58213 22.14545
#
# Poissons Ratio (x) = 0.26126 0.36797
# Poissons Ratio (y) = 0.18749 0.06318
# Poissons Ratio (z) = 0.98469 0.23559
#
# Static dielectric constant tensor:
#      x y z
#    x 3.207330 0.000000 -0.148310 
#    y 0.000000 3.808980 0.000000 
#    z -0.148310 0.000000 3.028480 
# 
# 
# High freq. dielectric constant tensor:
#      x y z
#    x 1.718230 0.000000 -0.018850 
#    y 0.000000 1.754590 0.000000 
#    z -0.018850 0.000000 1.686510 
# 
# From -- ./inp_files/112023.got.cif
#   From: 2010.06.25/outbox.cif.g09.slc.cpg/sg12_57_cif.got.tgz:112023.got - 2010.06.28 00:19:55.
