data_PCOD8085725
_publ_section_title
;
Structure prediction by ZEFSAII (Michael W. Deem and Ramdas Pophale) SiO2 
 PCOD8085725
Probable space group: C 2/M
;
_chemical_formula_sum "Si O2"
_cell_formula_units_Z 64
_cell_length_a 13.044674
_cell_length_b 21.508013
_cell_length_c 22.115730
_cell_angle_alpha 90.000000
_cell_angle_beta 146.904995
_cell_angle_gamma 90.000000
_cell_volume 3388.054992
_symmetry_space_group_name_H-M "C 2/M"
_symmetry_group_IT_number 12
_symmetry_cell_setting 'monoclinic'
loop_
_space_group_symop_operation_xyz
x,y,z
-x,y,-z
-x,-y,-z
x,-y,z
1/2+x,1/2+y,z
1/2-x,1/2+y,-z
1/2-x,1/2-y,-z
1/2+x,1/2-y,z
loop_
_atom_site_type_symbol
_atom_site_label
_atom_site_fract_x
_atom_site_fract_y
_atom_site_fract_z
Si Si1 0.363498 0.155143 0.562175
Si Si2 0.973900 0.073326 0.556372
Si Si3 0.457408 0.431192 0.191556
Si Si4 0.388055 0.930873 0.386170
Si Si5 0.953655 0.804951 0.146596
Si Si6 0.797092 0.131120 0.230954
Si Si7 0.595479 0.274541 0.346411
Si Si8 0.024322 0.720372 0.945029
O O1 0.209451 0.104977 0.506286
O O2 0.554779 0.118787 0.637599
O O3 0.409263 0.201057 0.640741
O O4 0.286343 0.195151 0.467101
O O5 0.000000 0.094228 0.500000
O O6 0.160087 0.093704 0.686157
O O7 0.947242 0.000000 0.548708
O O8 0.386901 0.500000 0.137049
O O9 0.679300 0.429574 0.309046
O O10 0.425357 0.379396 0.124047
O O11 0.352577 0.412082 0.201514
O O12 0.500000 0.911906 0.500000
O O13 0.436682 0.000000 0.385865
O O14 0.055277 0.772794 0.140008
O O15 0.080952 0.786933 0.267556
O O16 0.745339 0.780773 0.048690
O O17 0.579699 0.153694 0.118424
O O18 0.916793 0.194401 0.290465
O O19 0.000000 0.745301 0.000000
#
# Coordination Sequence:
#
# PCOD8085725 Si02
#       8
#     8   8   8   8   8   8   8   8
#     4  10  20  34  51  80 116 152 188 231 278 343
#     4  10  21  36  54  79 114 157 193 227 281 345
#     4  10  20  35  57  85 115 146 188 238 285 331
#     4  10  19  30  49  75 105 150 192 227 273 328
#     4  10  22  37  58  85 114 148 187 242 281 350
#     4  10  20  37  57  82 113 147 186 242 285 341
#     4   9  19  35  50  83 114 142 188 231 285 327
#     4  11  21  38  61  84 110 146 194 232 301 349
#
# _framework density 18.889894000000002
#
# number of rings (size 3 to 8) (size 9 to 14) (size 15 to 20)
#    0.000    2.000    2.500    3.000    3.500    1.000 
#    0.000    3.125    0.000    0.375    0.000    0.000 
#    0.000    0.000    0.000    0.000    0.000    0.000 
#
# Total GULP energy -396488.374286 kJ/mol
# GULP energy per Si atom -12390.261696 kJ/mol
# Density = 1.884690 g / cm^3
# Si number density = 18.889894 Si / 1000 Ang^3
#
#
#
# Elastic Constant Matrix: (Units=GPa)
#
#
# Indices 1 2 3 4 5 6 
#
# 1 76.7821 52.2867 24.2312 -0.0013 -12.7678 -0.0006
# 2 52.2867 128.7083 24.7987 -0.0011 -25.6837 0.0001
# 3 24.2312 24.7987 46.5338 0.0001 -17.4801 0.0026
# 4 -0.0013 -0.0011 0.0001 24.6844 -0.0010 -1.6835
# 5 -12.7678 -25.6837 -17.4801 -0.0010 19.3413 0.0007
# 6 -0.0006 0.0001 0.0026 -1.6835 0.0007 30.5706
#
#
#
# Elastic Compliance Matrix: (Units=1/GPa)
#
#
# Indices 1 2 3 4 5 6 
#
# 1 0.019845 -0.007281 -0.007819 0.000001 -0.003634 0.000001
# 2 -0.007281 0.013251 0.002322 0.000001 0.014889 -0.000001
# 3 -0.007819 0.002322 0.035644 0.000001 0.030137 -0.000004
# 4 0.000001 0.000001 0.000001 0.040664 0.000004 0.002239
# 5 -0.003634 0.014889 0.030137 0.000004 0.096312 -0.000005
# 6 0.000001 -0.000001 -0.000004 0.002239 -0.000005 0.032835
#
#
# Mechanical properties :
#
#
# Convention : Reuss Voigt Hill
#
# Bulk Modulus (GPa) = 23.15572 50.51751 36.83662
# Shear Modulus (GPa) = 17.95334 24.96643 21.45988
#
# Velocity S-wave (km/s) = 3.08623 3.63944 3.37419
# Velocity P-wave (km/s) = 4.99846 6.66797 5.89265
#
# Compressibility (1/GPa) = 0.04318587
#
# Stress axis : x y z
#
# Youngs Moduli (GPa) = 50.39062 75.46748 28.05499
#
# Poissons Ratio (x) = 0.54945 0.21936
# Poissons Ratio (y) = 0.36687 -0.06516
# Poissons Ratio (z) = 0.39400 -0.17527
#
# Static dielectric constant tensor:
#      x y z
#    x 2.341350 0.000090 -0.088420 
#    y 0.000090 4.013080 -0.000030 
#    z -0.088420 -0.000030 3.627560 
# 
# 
# High freq. dielectric constant tensor:
#      x y z
#    x 1.720570 0.000000 0.006150 
#    y 0.000000 1.740110 0.000000 
#    z 0.006150 0.000000 1.718550 
# 
# From -- ./inp_files/307134.got.cif
#   From: 2010.06.25/outbox.cif.g09.slc.cpg/sg12_154_cif.got.tgz:307134.got - 2010.06.28 00:19:55.
