data_PCOD8085060
_publ_section_title
;
Structure prediction by ZEFSAII (Michael W. Deem and Ramdas Pophale) SiO2 
 PCOD8085060
Probable space group: C 2/M
;
_chemical_formula_sum "Si O2"
_cell_formula_units_Z 52
_cell_length_a 10.474888
_cell_length_b 27.648376
_cell_length_c 11.231714
_cell_angle_alpha 90.000000
_cell_angle_beta 65.280158
_cell_angle_gamma 90.000000
_cell_volume 2954.776827
_symmetry_space_group_name_H-M "C 2/M"
_symmetry_group_IT_number 12
_symmetry_cell_setting 'monoclinic'
loop_
_space_group_symop_operation_xyz
x,y,z
-x,y,-z
-x,-y,-z
x,-y,z
1/2+x,1/2+y,z
1/2-x,1/2+y,-z
1/2-x,1/2-y,-z
1/2+x,1/2-y,z
loop_
_atom_site_type_symbol
_atom_site_label
_atom_site_fract_x
_atom_site_fract_y
_atom_site_fract_z
Si Si1 0.616784 0.380948 0.862903
Si Si2 0.732636 0.945576 0.371356
Si Si3 0.056286 0.554586 0.660086
Si Si4 0.608175 0.273825 0.779910
Si Si5 0.000000 0.299386 0.000000
Si Si6 0.570533 0.223563 0.347225
Si Si7 0.416317 0.136161 0.824687
O O1 0.642440 0.412476 0.732094
O O2 0.572448 0.327177 0.841239
O O3 0.759987 0.384376 0.880927
O O4 0.500000 0.402050 0.000000
O O5 0.588964 0.941652 0.354604
O O6 0.689858 0.931450 0.524258
O O7 0.790859 0.000000 0.345981
O O8 0.076448 0.500000 0.702152
O O9 0.035739 0.593606 0.775124
O O10 0.497792 0.262232 0.717528
O O11 0.768503 0.267737 0.679750
O O12 0.603682 0.235207 0.888046
O O13 0.914251 0.333779 0.946112
O O14 0.500000 0.227858 0.500000
O O15 0.552163 0.170120 0.301100
#
# Coordination Sequence:
#
# PCOD8085060 Si02
#       7
#     8   8   8   8   4   8   8
#     4  10  19  29  47  71  97 132 165 195 237 298
#     4   8  15  27  46  71  98 123 152 202 252 291
#     4   8  14  28  48  71  94 119 157 201 252 294
#     4  10  21  33  52  69 101 137 167 205 245 291
#     4  10  20  36  47  68  99 134 170 198 240 292
#     4  10  21  34  50  74 101 129 167 211 250 293
#     4   9  20  30  51  69  96 129 161 205 244 289
#
# _framework density 17.598621999999999
#
# number of rings (size 3 to 8) (size 9 to 14) (size 15 to 20)
#    0.000    2.769    0.769    1.385    8.615    2.154 
#    0.000    0.385    0.000    0.000    0.000    0.000 
#    0.000    3.077    0.000    0.000    0.000    0.000 
#
# Total GULP energy -322119.378581 kJ/mol
# GULP energy per Si atom -12389.206868 kJ/mol
# Density = 1.755857 g / cm^3
# Si number density = 17.598622 Si / 1000 Ang^3
#
#
#
# Elastic Constant Matrix: (Units=GPa)
#
#
# Indices 1 2 3 4 5 6 
#
# 1 26.4396 16.3142 11.3701 0.0000 -4.2943 0.0000
# 2 16.3142 89.7642 50.7392 0.0000 -6.1624 0.0000
# 3 11.3701 50.7392 111.0804 0.0000 -12.1280 0.0000
# 4 0.0000 0.0000 0.0000 111.0842 0.0000 -35.0140
# 5 -4.2943 -6.1624 -12.1280 0.0000 23.9027 0.0000
# 6 0.0000 0.0000 0.0000 -35.0140 0.0000 21.7153
#
#
#
# Elastic Compliance Matrix: (Units=1/GPa)
#
#
# Indices 1 2 3 4 5 6 
#
# 1 0.043415 -0.007198 -0.000537 0.000000 0.005672 0.000000
# 2 -0.007198 0.016215 -0.006727 0.000000 -0.000526 0.000000
# 3 -0.000537 -0.006727 0.012630 0.000000 0.004578 0.000000
# 4 0.000000 0.000000 0.000000 0.018306 0.000000 0.029517
# 5 0.005672 -0.000526 0.004578 0.000000 0.045042 0.000000
# 6 0.000000 0.000000 0.000000 0.029517 0.000000 0.093644
#
#
# Mechanical properties :
#
#
# Convention : Reuss Voigt Hill
#
# Bulk Modulus (GPa) = 23.07519 42.68125 32.87822
# Shear Modulus (GPa) = 18.34043 41.26446 29.80245
#
# Velocity S-wave (km/s) = 3.23174 4.84752 4.11962
# Velocity P-wave (km/s) = 5.20249 7.45899 6.43049
#
# Compressibility (1/GPa) = 0.04333658
#
# Stress axis : x y z
#
# Youngs Moduli (GPa) = 23.03330 61.67147 79.17554
#
# Poissons Ratio (x) = 0.44389 0.04252
# Poissons Ratio (y) = 0.16579 0.53264
# Poissons Ratio (z) = 0.01237 0.41489
#
# Static dielectric constant tensor:
#      x y z
#    x 2.926200 0.000000 -0.082930 
#    y 0.000000 3.586500 0.000000 
#    z -0.082930 0.000000 3.469170 
# 
# 
# High freq. dielectric constant tensor:
#      x y z
#    x 1.630380 0.000000 -0.011950 
#    y 0.000000 1.683740 0.000000 
#    z -0.011950 0.000000 1.688680 
# 
# From -- ./inp_files/137398.got.cif
#   From: 2010.06.25/outbox.cif.g09.slc.cpg/sg12_69_cif.got.tgz:137398.got - 2010.06.28 00:19:55.
