data_PCOD8085756
_publ_section_title
;
Structure prediction by ZEFSAII (Michael W. Deem and Ramdas Pophale) SiO2 
 PCOD8085756
Probable space group: C 2/M
;
_chemical_formula_sum "Si O2"
_cell_formula_units_Z 64
_cell_length_a 12.817799
_cell_length_b 19.902975
_cell_length_c 22.953105
_cell_angle_alpha 90.000000
_cell_angle_beta 144.161432
_cell_angle_gamma 90.000000
_cell_volume 3428.486107
_symmetry_space_group_name_H-M "C 2/M"
_symmetry_group_IT_number 12
_symmetry_cell_setting 'monoclinic'
loop_
_space_group_symop_operation_xyz
x,y,z
-x,y,-z
-x,-y,-z
x,-y,z
1/2+x,1/2+y,z
1/2-x,1/2+y,-z
1/2-x,1/2-y,-z
1/2+x,1/2-y,z
loop_
_atom_site_type_symbol
_atom_site_label
_atom_site_fract_x
_atom_site_fract_y
_atom_site_fract_z
Si Si1 0.178538 0.922903 0.055137
Si Si2 0.912920 0.337678 0.599043
Si Si3 0.595936 0.347162 0.914051
Si Si4 0.553463 0.080335 0.271109
Si Si5 0.276559 0.169367 0.745862
Si Si6 0.734607 0.681615 0.306273
Si Si7 0.596320 0.313246 0.372093
Si Si8 0.434268 0.211359 0.033673
O O1 0.358318 0.891509 0.163812
O O2 0.183981 0.000000 0.074584
O O3 0.161090 0.913533 0.977729
O O4 0.000000 0.888437 0.000000
O O5 0.911440 0.395793 0.646970
O O6 0.727093 0.340240 0.481122
O O7 0.930466 0.266793 0.639766
O O8 0.072533 0.347798 0.624281
O O9 0.407694 0.357790 0.797918
O O10 0.594143 0.287089 0.959551
O O11 0.750284 0.328361 0.939052
O O12 0.694972 0.111183 0.289326
O O13 0.569914 0.000000 0.275802
O O14 0.266383 0.238988 0.705778
O O15 0.438898 0.170744 0.864782
O O16 0.096069 0.154145 0.700703
O O17 0.681480 0.665832 0.348765
O O18 0.500000 0.216763 0.000000
#
# Coordination Sequence:
#
# PCOD8085756 Si02
#       8
#     8   8   8   8   8   8   8   8
#     4  10  20  34  54  78 108 146 186 226 267 327
#     4  10  21  35  57  85 111 147 193 235 293 339
#     4  10  19  30  50  79 106 141 174 216 276 329
#     4  11  22  39  60  82 119 153 193 241 277 341
#     4  10  20  35  54  83 117 149 191 230 287 346
#     4  10  19  34  57  84 117 144 180 247 288 339
#     4  10  20  35  58  83 114 147 183 243 293 340
#     4  10  19  30  49  77 111 142 175 226 273 330
#
# _framework density 18.66713
#
# number of rings (size 3 to 8) (size 9 to 14) (size 15 to 20)
#    0.000    1.875    2.500    2.250    0.000    2.500 
#    0.000    1.250    0.000    6.750    0.000    0.000 
#    0.000    0.000    0.000    0.000    0.000    0.000 
#
# Total GULP energy -396644.427515 kJ/mol
# GULP energy per Si atom -12395.138360 kJ/mol
# Density = 1.862464 g / cm^3
# Si number density = 18.667130 Si / 1000 Ang^3
#
#
#
# Elastic Constant Matrix: (Units=GPa)
#
#
# Indices 1 2 3 4 5 6 
#
# 1 135.9805 30.5897 20.9967 -0.0001 -1.3458 0.0000
# 2 30.5897 47.8871 23.8928 0.0000 -6.0899 0.0000
# 3 20.9967 23.8928 65.8387 0.0005 9.9955 0.0002
# 4 -0.0001 0.0000 0.0005 20.5656 0.0002 -5.0768
# 5 -1.3458 -6.0899 9.9955 0.0002 36.4522 0.0001
# 6 0.0000 0.0000 0.0002 -5.0768 0.0001 20.8400
#
#
#
# Elastic Compliance Matrix: (Units=1/GPa)
#
#
# Indices 1 2 3 4 5 6 
#
# 1 0.008636 -0.005135 -0.000844 0.000000 -0.000308 0.000000
# 2 -0.005135 0.030440 -0.010593 0.000000 0.007801 0.000000
# 3 -0.000844 -0.010593 0.020426 0.000000 -0.007402 0.000000
# 4 0.000000 0.000000 0.000000 0.051736 0.000000 0.012603
# 5 -0.000308 0.007801 -0.007402 0.000000 0.030755 0.000000
# 6 0.000000 0.000000 0.000000 0.012603 0.000000 0.051055
#
#
# Mechanical properties :
#
#
# Convention : Reuss Voigt Hill
#
# Bulk Modulus (GPa) = 37.93962 44.51831 41.22897
# Shear Modulus (GPa) = 21.27853 27.18669 24.23261
#
# Velocity S-wave (km/s) = 3.37989 3.82041 3.60688
# Velocity P-wave (km/s) = 5.96657 6.58491 6.28335
#
# Compressibility (1/GPa) = 0.02635767
#
# Stress axis : x y z
#
# Youngs Moduli (GPa) = 115.78912 32.85158 48.95740
#
# Poissons Ratio (x) = 0.16868 0.04133
# Poissons Ratio (y) = 0.59455 0.51862
# Poissons Ratio (z) = 0.09774 0.34801
#
# Static dielectric constant tensor:
#      x y z
#    x 3.578850 0.000000 0.184420 
#    y 0.000000 3.023590 0.000000 
#    z 0.184420 0.000000 3.375840 
# 
# 
# High freq. dielectric constant tensor:
#      x y z
#    x 1.739380 0.000000 0.008740 
#    y 0.000000 1.679090 0.000000 
#    z 0.008740 0.000000 1.731240 
# 
# From -- ./inp_files/207687.got.cif
#   From: 2010.06.25/outbox.cif.g09.slc.cpg/sg12_104_cif.got.tgz:207687.got - 2010.06.28 00:19:55.
