data_PCOD8085533
_publ_section_title
;
Structure prediction by ZEFSAII (Michael W. Deem and Ramdas Pophale) SiO2 
 PCOD8085533
Probable space group: C 2/M
;
_chemical_formula_sum "Si O2"
_cell_formula_units_Z 64
_cell_length_a 18.850636
_cell_length_b 9.272139
_cell_length_c 25.193277
_cell_angle_alpha 90.000000
_cell_angle_beta 125.194649
_cell_angle_gamma 90.000000
_cell_volume 3598.473306
_symmetry_space_group_name_H-M "C 2/M"
_symmetry_group_IT_number 12
_symmetry_cell_setting 'monoclinic'
loop_
_space_group_symop_operation_xyz
x,y,z
-x,y,-z
-x,-y,-z
x,-y,z
1/2+x,1/2+y,z
1/2-x,1/2+y,-z
1/2-x,1/2-y,-z
1/2+x,1/2-y,z
loop_
_atom_site_type_symbol
_atom_site_label
_atom_site_fract_x
_atom_site_fract_y
_atom_site_fract_z
Si Si1 0.002316 0.165382 0.561765
Si Si2 0.861017 0.837142 0.926834
Si Si3 0.566689 0.832970 0.314444
Si Si4 0.833085 0.166943 0.556386
Si Si5 0.898157 0.667204 0.309921
Si Si6 0.467570 0.661495 0.069393
Si Si7 0.438349 0.166708 0.807965
Si Si8 0.731414 0.168352 0.197109
O O1 0.906726 0.185984 0.543960
O O2 0.000000 0.214758 0.500000
O O3 0.070783 0.266984 0.620933
O O4 0.033486 0.000000 0.580926
O O5 0.790328 0.729925 0.870932
O O6 0.946448 0.833815 0.928363
O O7 0.823353 0.000000 0.911937
O O8 0.886902 0.785520 0.997695
O O9 0.636822 0.737069 0.375414
O O10 0.471329 0.810105 0.297084
O O11 0.566053 0.776011 0.253953
O O12 0.595408 0.000000 0.330521
O O13 0.750000 0.250000 0.500000
O O14 0.810546 0.000000 0.556605
O O15 0.875972 0.500000 0.308918
O O16 0.813797 0.750634 0.255171
O O17 0.448944 0.500000 0.081067
O O18 0.480847 0.759174 0.126969
O O19 0.347083 0.199917 0.796520
O O20 0.461015 0.000000 0.818333
O O21 0.751590 0.000000 0.200483
#
# Coordination Sequence:
#
# PCOD8085533 Si02
#       8
#     8   8   8   8   8   8   8   8
#     4   9  19  36  55  73  95 125 159 194 234 280
#     4   8  14  26  43  65  95 127 157 191 236 285
#     4   9  19  36  53  69  94 129 164 194 231 280
#     4  10  20  34  53  75  98 125 157 194 235 280
#     4  10  20  34  52  71  95 128 161 195 234 279
#     4   8  14  25  43  67  95 125 155 193 239 283
#     4   9  18  31  48  71  97 125 158 197 238 280
#     4  10  19  30  47  72  99 125 157 198 239 281
#
# _framework density 17.785321
#
# number of rings (size 3 to 8) (size 9 to 14) (size 15 to 20)
#    0.000    2.875    0.000    1.875    0.000    3.750 
#    0.000    7.500    0.000    0.750    0.000    0.000 
#    0.000    0.000    0.000    0.000    0.000    0.000 
#
# Total GULP energy -396747.051742 kJ/mol
# GULP energy per Si atom -12398.345367 kJ/mol
# Density = 1.774484 g / cm^3
# Si number density = 17.785321 Si / 1000 Ang^3
#
#
#
# Elastic Constant Matrix: (Units=GPa)
#
#
# Indices 1 2 3 4 5 6 
#
# 1 35.4957 40.4944 61.1569 0.0000 -2.8251 0.0000
# 2 40.4944 117.6166 103.6473 0.0000 5.0217 0.0000
# 3 61.1569 103.6473 194.5476 0.0000 -5.6422 0.0000
# 4 0.0000 0.0000 0.0000 42.4269 0.0000 3.5219
# 5 -2.8251 5.0217 -5.6422 0.0000 24.8354 0.0000
# 6 0.0000 0.0000 0.0000 3.5219 0.0000 21.2438
#
#
#
# Elastic Compliance Matrix: (Units=1/GPa)
#
#
# Indices 1 2 3 4 5 6 
#
# 1 0.066286 -0.009152 -0.015793 0.000000 0.005803 0.000000
# 2 -0.009152 0.017990 -0.006889 0.000000 -0.006244 0.000000
# 3 -0.015793 -0.006889 0.013854 0.000000 0.002744 0.000000
# 4 0.000000 0.000000 0.000000 0.023899 0.000000 -0.003962
# 5 0.005803 -0.006244 0.002744 0.000000 0.042811 0.000000
# 6 0.000000 0.000000 0.000000 -0.003962 0.000000 0.047729
#
#
# Mechanical properties :
#
#
# Convention : Reuss Voigt Hill
#
# Bulk Modulus (GPa) = 29.01680 84.25078 56.63379
# Shear Modulus (GPa) = 17.37777 27.19198 22.28487
#
# Velocity S-wave (km/s) = 3.12923 3.91436 3.54360
# Velocity P-wave (km/s) = 5.42278 8.24035 6.97531
#
# Compressibility (1/GPa) = 0.03446280
#
# Stress axis : x y z
#
# Youngs Moduli (GPa) = 15.08624 55.58610 72.18001
#
# Poissons Ratio (x) = 0.50872 1.13994
# Poissons Ratio (y) = 0.13807 0.49721
# Poissons Ratio (z) = 0.23826 0.38291
#
# Static dielectric constant tensor:
#      x y z
#    x 3.028890 0.000000 -0.107650 
#    y 0.000000 3.411480 0.000000 
#    z -0.107650 0.000000 3.636740 
# 
# 
# High freq. dielectric constant tensor:
#      x y z
#    x 1.651660 0.000000 -0.000640 
#    y 0.000000 1.692030 0.000000 
#    z -0.000640 0.000000 1.703380 
# 
# From -- ./inp_files/346107.got.cif
#   From: 2010.06.25/outbox.cif.g09.slc.cpg/sg12_174_cif.got.tgz:346107.got - 2010.06.28 00:19:55.
