data_PCOD8085007
_publ_section_title
;
Structure prediction by ZEFSAII (Michael W. Deem and Ramdas Pophale) SiO2 
 PCOD8085007
Probable space group: C 2/M
;
_chemical_formula_sum "Si O2"
_cell_formula_units_Z 56
_cell_length_a 19.263112
_cell_length_b 9.327685
_cell_length_c 21.805392
_cell_angle_alpha 90.000000
_cell_angle_beta 125.575539
_cell_angle_gamma 90.000000
_cell_volume 3186.700648
_symmetry_space_group_name_H-M "C 2/M"
_symmetry_group_IT_number 12
_symmetry_cell_setting 'monoclinic'
loop_
_space_group_symop_operation_xyz
x,y,z
-x,y,-z
-x,-y,-z
x,-y,z
1/2+x,1/2+y,z
1/2-x,1/2+y,-z
1/2-x,1/2-y,-z
1/2+x,1/2-y,z
loop_
_atom_site_type_symbol
_atom_site_label
_atom_site_fract_x
_atom_site_fract_y
_atom_site_fract_z
Si Si1 0.244139 0.333815 0.901244
Si Si2 0.720587 0.833908 0.308794
Si Si3 0.488512 0.663531 0.698656
Si Si4 0.329980 0.665292 0.250162
Si Si5 0.030096 0.335780 0.191794
Si Si6 0.870857 0.664058 0.040453
Si Si7 0.298950 0.330713 0.578326
O O1 0.259615 0.500000 0.896438
O O2 0.213781 0.262146 0.823224
O O3 0.174919 0.305588 0.918281
O O4 0.334156 0.264951 0.968428
O O5 0.793607 0.793324 0.297971
O O6 0.629240 0.802872 0.229305
O O7 0.733119 0.731750 0.373453
O O8 0.726835 0.000000 0.332865
O O9 0.484350 0.500000 0.717676
O O10 0.567937 0.692080 0.693992
O O11 0.504774 0.750717 0.768263
O O12 0.399354 0.704869 0.620333
O O13 0.309142 0.500000 0.223918
O O14 0.015820 0.500000 0.202402
O O15 0.971421 0.299395 0.102350
O O16 0.857009 0.500000 0.012837
O O17 0.279939 0.500000 0.566170
O O18 0.250000 0.250000 0.500000
#
# Coordination Sequence:
#
# PCOD8085007 Si02
#       7
#     8   8   8   8   8   8   8
#     4  10  19  29  45  70  98 131 169 212 254 290
#     4   9  19  34  54  77 102 132 163 200 247 297
#     4   9  18  31  51  76 100 128 164 201 241 291
#     4  10  19  33  51  74 103 133 164 201 249 300
#     4   9  16  30  50  72  96 126 169 212 248 290
#     4   9  17  29  45  68  96 128 169 214 254 291
#     4  10  20  36  57  80 103 130 162 199 240 287
#
# _framework density 17.573034
#
# number of rings (size 3 to 8) (size 9 to 14) (size 15 to 20)
#    0.000    2.571    1.429    0.857    0.000    2.286 
#    0.000    1.429    0.000    8.571    0.000    0.000 
#    0.000    0.000    0.000    0.000    0.000    0.000 
#
# Total GULP energy -347142.761048 kJ/mol
# GULP energy per Si atom -12397.955752 kJ/mol
# Density = 1.753304 g / cm^3
# Si number density = 17.573034 Si / 1000 Ang^3
#
#
#
# Elastic Constant Matrix: (Units=GPa)
#
#
# Indices 1 2 3 4 5 6 
#
# 1 107.8688 47.4213 56.2415 0.0000 1.5963 0.0000
# 2 47.4213 89.7216 68.4013 0.0000 3.1310 0.0000
# 3 56.2415 68.4013 118.9729 0.0000 12.5365 0.0000
# 4 0.0000 0.0000 0.0000 33.5250 0.0000 -0.6345
# 5 1.5963 3.1310 12.5365 0.0000 19.4275 0.0000
# 6 0.0000 0.0000 0.0000 -0.6345 0.0000 19.6501
#
#
#
# Elastic Compliance Matrix: (Units=1/GPa)
#
#
# Indices 1 2 3 4 5 6 
#
# 1 0.013120 -0.003742 -0.004293 0.000000 0.002295 0.000000
# 2 -0.003742 0.021278 -0.010875 0.000000 0.003896 0.000000
# 3 -0.004293 -0.010875 0.017666 0.000000 -0.009295 0.000000
# 4 0.000000 0.000000 0.000000 0.029847 0.000000 0.000964
# 5 0.002295 0.003896 -0.009295 0.000000 0.056655 0.000000
# 6 0.000000 0.000000 0.000000 0.000964 0.000000 0.050922
#
#
# Mechanical properties :
#
#
# Convention : Reuss Voigt Hill
#
# Bulk Modulus (GPa) = 70.19933 73.41019 71.80476
# Shear Modulus (GPa) = 21.54663 24.15379 22.85021
#
# Velocity S-wave (km/s) = 3.50540 3.71142 3.60988
# Velocity P-wave (km/s) = 7.51117 7.76088 7.63704
#
# Compressibility (1/GPa) = 0.01424515
#
# Stress axis : x y z
#
# Youngs Moduli (GPa) = 76.22185 46.99613 56.60460
#
# Poissons Ratio (x) = 0.17585 0.24298
# Poissons Ratio (y) = 0.28521 0.61559
# Poissons Ratio (z) = 0.32718 0.51110
#
# Static dielectric constant tensor:
#      x y z
#    x 3.379430 0.000000 0.269170 
#    y 0.000000 3.326820 0.000000 
#    z 0.269170 0.000000 3.137830 
# 
# 
# High freq. dielectric constant tensor:
#      x y z
#    x 1.669000 0.000000 0.019790 
#    y 0.000000 1.683460 0.000000 
#    z 0.019790 0.000000 1.663690 
# 
# From -- ./inp_files/281627.got.cif
#   From: 2010.06.25/outbox.cif.g09.slc.cpg/sg12_141_cif.got.tgz:281627.got - 2010.06.28 00:19:55.
