data_PCOD8085222
_publ_section_title
;
Structure prediction by ZEFSAII (Michael W. Deem and Ramdas Pophale) SiO2 
 PCOD8085222
Probable space group: C 2/M
;
_chemical_formula_sum "Si O2"
_cell_formula_units_Z 64
_cell_length_a 8.806773
_cell_length_b 18.308659
_cell_length_c 21.050733
_cell_angle_alpha 90.000000
_cell_angle_beta 90.000000
_cell_angle_gamma 90.000000
_cell_volume 3394.224478
_symmetry_space_group_name_H-M "C 2/M"
_symmetry_group_IT_number 12
_symmetry_cell_setting 'monoclinic'
loop_
_space_group_symop_operation_xyz
x,y,z
-x,y,-z
-x,-y,-z
x,-y,z
1/2+x,1/2+y,z
1/2-x,1/2+y,-z
1/2-x,1/2-y,-z
1/2+x,1/2-y,z
loop_
_atom_site_type_symbol
_atom_site_label
_atom_site_fract_x
_atom_site_fract_y
_atom_site_fract_z
Si Si1 0.666385 0.913276 0.500000
Si Si2 0.318188 0.082072 0.363827
Si Si3 0.180472 0.417968 0.877892
Si Si4 0.680405 0.828891 0.243791
Si Si5 0.319528 0.082032 0.877892
Si Si6 0.680405 0.171109 0.756209
Si Si7 0.180477 0.329677 1.000000
Si Si8 0.681813 0.082072 0.363827
O O1 0.500000 0.876753 0.500000
O O2 0.747836 0.891166 0.566875
O O3 0.747836 0.891166 0.433125
O O4 0.649129 0.000000 0.500000
O O5 0.258106 0.135930 0.309272
O O6 0.500000 0.082225 0.366737
O O7 0.261505 0.000000 0.348317
O O8 0.247191 0.500000 0.880232
O O9 0.238308 0.379027 0.813976
O O10 0.240391 0.372975 0.938388
O O11 1.000000 0.421173 0.878903
O O12 0.738308 0.879027 0.186024
O O13 0.500000 0.823070 0.243975
O O14 0.750000 0.750000 0.234935
O O15 0.741894 0.864070 0.309272
O O16 0.252809 0.000000 0.880232
O O17 0.259609 0.127025 0.938388
O O18 0.250000 0.250000 0.000000
O O19 0.000000 0.323144 0.000000
O O20 0.738495 0.000000 0.348317
#
# Coordination Sequence:
#
# PCOD8085222 Si02
#       8
#     8   8   8   8   8   8   8   8
#     4   7  10  18  35  60  85 105 134 181 224 250
#     4   8  13  23  41  63  84 109 144 183 218 252
#     4   9  17  30  49  70  88 112 151 190 216 245
#     4  10  19  30  45  65  90 117 144 178 219 262
#     4   9  17  30  49  70  88 112 151 190 216 245
#     4  10  19  30  45  65  90 117 144 178 219 262
#     4  10  19  31  49  71  95 120 144 176 218 262
#     4   8  13  23  41  63  84 109 144 183 218 252
#
# _framework density 18.855559
#
# number of rings (size 3 to 8) (size 9 to 14) (size 15 to 20)
#    0.000    3.125    0.000    3.375    0.000    4.500 
#    0.000    0.625    0.000    6.000    0.000    0.000 
#    0.000    3.000    0.000    0.000    0.000    0.000 
#
# Total GULP energy -396519.411501 kJ/mol
# GULP energy per Si atom -12391.231609 kJ/mol
# Density = 1.881264 g / cm^3
# Si number density = 18.855559 Si / 1000 Ang^3
#
#
#
# Elastic Constant Matrix: (Units=GPa)
#
#
# Indices 1 2 3 4 5 6 
#
# 1 7.3205 14.3357 15.9766 0.0000 -1.3805 0.0000
# 2 14.3357 158.4243 99.5422 0.0000 -6.3288 0.0000
# 3 15.9766 99.5422 209.2056 0.0000 -13.6147 0.0000
# 4 0.0000 0.0000 0.0000 22.1730 0.0000 0.0009
# 5 -1.3805 -6.3288 -13.6147 0.0000 5.8742 0.0000
# 6 0.0000 0.0000 0.0000 0.0009 0.0000 22.1852
#
#
#
# Elastic Compliance Matrix: (Units=1/GPa)
#
#
# Indices 1 2 3 4 5 6 
#
# 1 0.176441 -0.010715 -0.007571 0.000000 0.012376 0.000000
# 2 -0.010715 0.009655 -0.003842 0.000000 -0.001021 0.000000
# 3 -0.007571 -0.003842 0.008009 0.000000 0.012644 0.000000
# 4 0.000000 0.000000 0.000000 0.045100 0.000000 -0.000002
# 5 0.012376 -0.001021 0.012644 0.000000 0.201351 0.000000
# 6 0.000000 0.000000 0.000000 -0.000002 0.000000 0.045075
#
#
# Mechanical properties :
#
#
# Convention : Reuss Voigt Hill
#
# Bulk Modulus (GPa) = 6.67334 70.51770 38.59552
# Shear Modulus (GPa) = 8.62312 26.38621 17.50467
#
# Velocity S-wave (km/s) = 2.14084 3.74490 3.05020
# Velocity P-wave (km/s) = 3.10770 7.49527 5.73746
#
# Compressibility (1/GPa) = 0.14985006
#
# Stress axis : x y z
#
# Youngs Moduli (GPa) = 5.66761 103.57247 124.85724
#
# Poissons Ratio (x) = 1.10974 0.94528
# Poissons Ratio (y) = 0.06073 0.47972
# Poissons Ratio (z) = 0.04291 0.39794
#
# Static dielectric constant tensor:
#      x y z
#    x 2.731440 0.000000 -0.101080 
#    y 0.000000 3.392940 0.000000 
#    z -0.101080 0.000000 4.092310 
# 
# 
# High freq. dielectric constant tensor:
#      x y z
#    x 1.653610 0.000000 -0.008100 
#    y 0.000000 1.724390 0.000000 
#    z -0.008100 0.000000 1.762640 
# 
# From -- ./inp_files/305830.got.cif
#   From: 2010.06.25/outbox.cif.g09.slc.cpg/sg12_153_cif.got.tgz:305830.got - 2010.06.28 00:19:55.
