data_PCOD8085174
_publ_section_title
;
Structure prediction by ZEFSAII (Michael W. Deem and Ramdas Pophale) SiO2 
 PCOD8085174
Probable space group: C 2/M
;
_chemical_formula_sum "Si O2"
_cell_formula_units_Z 64
_cell_length_a 27.665294
_cell_length_b 8.863983
_cell_length_c 22.514769
_cell_angle_alpha 90.000000
_cell_angle_beta 132.320671
_cell_angle_gamma 90.000000
_cell_volume 4082.293620
_symmetry_space_group_name_H-M "C 2/M"
_symmetry_group_IT_number 12
_symmetry_cell_setting 'monoclinic'
loop_
_space_group_symop_operation_xyz
x,y,z
-x,y,-z
-x,-y,-z
x,-y,z
1/2+x,1/2+y,z
1/2-x,1/2+y,-z
1/2-x,1/2-y,-z
1/2+x,1/2-y,z
loop_
_atom_site_type_symbol
_atom_site_label
_atom_site_fract_x
_atom_site_fract_y
_atom_site_fract_z
Si Si1 0.398264 0.176228 0.514154
Si Si2 0.522259 0.665812 0.585827
Si Si3 0.843935 0.178557 0.352023
Si Si4 0.870765 0.319237 0.733844
Si Si5 0.791940 0.178044 0.774655
Si Si6 0.819837 0.322960 0.565422
Si Si7 0.489341 0.167970 0.899009
Si Si8 0.604561 0.170481 0.066342
O O1 0.475359 0.218174 0.581711
O O2 0.360961 0.267499 0.432403
O O3 0.366566 0.223638 0.550180
O O4 0.390924 0.000000 0.494769
O O5 0.500000 0.654002 0.500000
O O6 0.516438 0.500000 0.610747
O O7 0.597830 0.719560 0.646304
O O8 0.781140 0.264300 0.275329
O O9 0.831714 0.000000 0.344482
O O10 0.868500 0.500000 0.738912
O O11 0.818643 0.250435 0.736207
O O12 0.852966 0.263966 0.653403
O O13 0.945228 0.258498 0.809808
O O14 0.833286 0.225619 0.867394
O O15 0.793284 0.000000 0.769077
O O16 0.809428 0.500000 0.559781
O O17 0.750000 0.250000 0.500000
O O18 0.440951 0.163698 0.914292
O O19 0.508897 0.000000 0.896151
O O20 0.559273 0.243577 0.975431
O O21 0.627840 0.000000 0.069982
#
# Coordination Sequence:
#
# PCOD8085174 Si02
#       8
#     8   8   8   8   8   8   8   8
#     4  10  19  30  44  64  86 106 134 173 213 246
#     4   8  16  30  46  62  78 102 137 169 201 246
#     4  10  19  31  45  60  80 109 142 170 200 244
#     4   9  17  31  45  56  77 113 149 175 200 233
#     4  11  20  27  38  61  88 110 135 168 208 249
#     4  10  21  32  43  60  83 112 144 175 204 236
#     4   7  11  22  42  59  71  98 142 176 194 228
#     4   8  13  24  40  57  77 104 135 165 200 242
#
# _framework density 15.677460999999999
#
# number of rings (size 3 to 8) (size 9 to 14) (size 15 to 20)
#    0.000    2.875    0.000    4.875    0.000    6.250 
#    0.000    5.000    0.000    0.000    0.000    0.000 
#    0.000    1.000    0.000    2.000    0.000    2.875 
#
# Total GULP energy -396425.070690 kJ/mol
# GULP energy per Si atom -12388.283459 kJ/mol
# Density = 1.564178 g / cm^3
# Si number density = 15.677461 Si / 1000 Ang^3
#
#
#
# Elastic Constant Matrix: (Units=GPa)
#
#
# Indices 1 2 3 4 5 6 
#
# 1 78.0675 27.6446 49.6400 0.0000 15.5868 0.0000
# 2 27.6446 50.5987 29.8722 0.0000 7.7585 0.0000
# 3 49.6400 29.8722 127.4333 0.0000 21.4343 0.0000
# 4 0.0000 0.0000 0.0000 15.4886 0.0000 3.5228
# 5 15.5868 7.7585 21.4343 0.0000 19.7717 0.0000
# 6 0.0000 0.0000 0.0000 3.5228 0.0000 19.8365
#
#
#
# Elastic Compliance Matrix: (Units=1/GPa)
#
#
# Indices 1 2 3 4 5 6 
#
# 1 0.019832 -0.006798 -0.004832 0.000000 -0.007729 0.000000
# 2 -0.006798 0.025514 -0.003119 0.000000 -0.001272 0.000000
# 3 -0.004832 -0.003119 0.011758 0.000000 -0.007714 0.000000
# 4 0.000000 0.000000 0.000000 0.067281 0.000000 -0.011949
# 5 -0.007729 -0.001272 -0.007714 0.000000 0.065531 0.000000
# 6 0.000000 0.000000 0.000000 -0.011949 0.000000 0.052534
#
#
# Mechanical properties :
#
#
# Convention : Reuss Voigt Hill
#
# Bulk Modulus (GPa) = 36.22295 52.26813 44.24554
# Shear Modulus (GPa) = 17.78414 20.94888 19.36651
#
# Velocity S-wave (km/s) = 3.37170 3.65943 3.51851
# Velocity P-wave (km/s) = 6.18976 7.16012 6.69255
#
# Compressibility (1/GPa) = 0.02760681
#
# Stress axis : x y z
#
# Youngs Moduli (GPa) = 50.42354 39.19492 85.04850
#
# Poissons Ratio (x) = 0.26643 0.41094
# Poissons Ratio (y) = 0.34275 0.26526
# Poissons Ratio (z) = 0.24364 0.12225
#
# Static dielectric constant tensor:
#      x y z
#    x 2.808740 0.000000 0.217590 
#    y 0.000000 2.903610 0.000000 
#    z 0.217590 0.000000 3.407980 
# 
# 
# High freq. dielectric constant tensor:
#      x y z
#    x 1.564530 0.000000 0.029130 
#    y 0.000000 1.591340 0.000000 
#    z 0.029130 0.000000 1.598520 
# 
# From -- ./inp_files/326978.got.cif
#   From: 2010.06.25/outbox.cif.g09.slc.cpg/sg12_164_cif.got.tgz:326978.got - 2010.06.28 00:19:55.
