data_PCOD8085696
_publ_section_title
;
Structure prediction by ZEFSAII (Michael W. Deem and Ramdas Pophale) SiO2 
 PCOD8085696
Probable space group: C 2/M
;
_chemical_formula_sum "Si O2"
_cell_formula_units_Z 48
_cell_length_a 26.196855
_cell_length_b 9.407921
_cell_length_c 9.730281
_cell_angle_alpha 90.000000
_cell_angle_beta 114.922254
_cell_angle_gamma 90.000000
_cell_volume 2174.794483
_symmetry_space_group_name_H-M "C 2/M"
_symmetry_group_IT_number 12
_symmetry_cell_setting 'monoclinic'
loop_
_space_group_symop_operation_xyz
x,y,z
-x,y,-z
-x,-y,-z
x,-y,z
1/2+x,1/2+y,z
1/2-x,1/2+y,-z
1/2-x,1/2-y,-z
1/2+x,1/2-y,z
loop_
_atom_site_type_symbol
_atom_site_label
_atom_site_fract_x
_atom_site_fract_y
_atom_site_fract_z
Si Si1 0.915474 0.168219 0.746365
Si Si2 0.946770 0.665929 0.534254
Si Si3 0.126404 0.662270 0.058843
Si Si4 0.702297 0.343862 0.505692
Si Si5 0.645838 0.838248 0.781946
Si Si6 0.252389 0.659432 0.152091
O O1 0.957820 0.244414 0.687379
O O2 0.914929 0.236567 0.898667
O O3 0.856763 0.214045 0.613050
O O4 0.927778 0.000000 0.769953
O O5 0.940722 0.500000 0.564667
O O6 0.891480 0.721526 0.386466
O O7 0.000000 0.693977 0.500000
O O8 0.120503 0.500000 0.105298
O O9 0.192040 0.712154 0.141723
O O10 0.108282 0.674022 0.878177
O O11 0.711501 0.500000 0.455188
O O12 0.750000 0.250000 0.500000
O O13 0.703943 0.343779 0.671553
O O14 0.707910 0.767162 0.894424
O O15 0.660604 0.000000 0.764959
O O16 0.246678 0.500000 0.082191
#
# Coordination Sequence:
#
# PCOD8085696 Si02
#       6
#     8   8   8   8   8   8
#     4  11  22  36  56  83 111 143 183 226 272 322
#     4  10  22  41  63  83 104 137 183 233 282 328
#     4  10  21  36  54  81 117 152 182 216 263 325
#     4  10  19  30  48  77 111 146 182 219 260 313
#     4  10  21  36  56  82 111 145 186 227 270 321
#     4  10  19  32  51  78 115 152 182 216 263 318
#
# _framework density 22.07105
#
# number of rings (size 3 to 8) (size 9 to 14) (size 15 to 20)
#    0.000    1.833    3.333    1.000    0.000    3.000 
#    0.000    0.833    0.000    5.000    0.000    0.000 
#    0.000    0.000    0.000    0.000    0.000    0.000 
#
# Total GULP energy -297389.444212 kJ/mol
# GULP energy per Si atom -12391.226842 kJ/mol
# Density = 2.202082 g / cm^3
# Si number density = 22.071050 Si / 1000 Ang^3
#
#
#
# Elastic Constant Matrix: (Units=GPa)
#
#
# Indices 1 2 3 4 5 6 
#
# 1 67.8472 48.5256 12.3409 0.0000 -25.7402 0.0000
# 2 48.5256 94.0645 23.8058 0.0000 -29.0146 0.0000
# 3 12.3409 23.8058 53.0030 0.0000 -26.2156 0.0000
# 4 0.0000 0.0000 0.0000 30.1556 0.0000 -10.6529
# 5 -25.7402 -29.0146 -26.2156 0.0000 37.1362 0.0000
# 6 0.0000 0.0000 0.0000 -10.6529 0.0000 31.5527
#
#
#
# Elastic Compliance Matrix: (Units=1/GPa)
#
#
# Indices 1 2 3 4 5 6 
#
# 1 0.026876 -0.010957 0.005598 0.000000 0.014020 0.000000
# 2 -0.010957 0.018537 -0.003638 0.000000 0.004320 0.000000
# 3 0.005598 -0.003638 0.030285 0.000000 0.022417 0.000000
# 4 0.000000 0.000000 0.000000 0.037652 0.000000 0.012712
# 5 0.014020 0.004320 0.022417 0.000000 0.055846 0.000000
# 6 0.000000 0.000000 0.000000 0.012712 0.000000 0.035985
#
#
# Mechanical properties :
#
#
# Convention : Reuss Voigt Hill
#
# Bulk Modulus (GPa) = 17.32982 42.69549 30.01265
# Shear Modulus (GPa) = 20.62626 28.45171 24.53898
#
# Velocity S-wave (km/s) = 3.06034 3.59429 3.33801
# Velocity P-wave (km/s) = 4.51181 6.05077 5.33705
#
# Compressibility (1/GPa) = 0.05770402
#
# Stress axis : x y z
#
# Youngs Moduli (GPa) = 37.20729 53.94701 33.01975
#
# Poissons Ratio (x) = 0.59111 -0.18484
# Poissons Ratio (y) = 0.40769 0.12011
# Poissons Ratio (z) = -0.20828 0.19624
#
# Static dielectric constant tensor:
#      x y z
#    x 3.772610 0.000000 0.002550 
#    y 0.000000 3.821870 0.000000 
#    z 0.002550 0.000000 4.350850 
# 
# 
# High freq. dielectric constant tensor:
#      x y z
#    x 1.848450 0.000000 -0.009210 
#    y 0.000000 1.853970 0.000000 
#    z -0.009210 0.000000 1.884840 
# 
# From -- ./inp_files/179317.got.cif
#   From: 2010.06.25/outbox.cif.g09.slc.cpg/sg12_90_cif.got.tgz:179317.got - 2010.06.28 00:19:55.
