data_PCOD8085248
_publ_section_title
;
Structure prediction by ZEFSAII (Michael W. Deem and Ramdas Pophale) SiO2 
 PCOD8085248
Probable space group: C 2/M
;
_chemical_formula_sum "Si O2"
_cell_formula_units_Z 48
_cell_length_a 29.836305
_cell_length_b 9.453311
_cell_length_c 11.707603
_cell_angle_alpha 90.000000
_cell_angle_beta 59.840666
_cell_angle_gamma 90.000000
_cell_volume 2855.144399
_symmetry_space_group_name_H-M "C 2/M"
_symmetry_group_IT_number 12
_symmetry_cell_setting 'monoclinic'
loop_
_space_group_symop_operation_xyz
x,y,z
-x,y,-z
-x,-y,-z
x,-y,z
1/2+x,1/2+y,z
1/2-x,1/2+y,-z
1/2-x,1/2-y,-z
1/2+x,1/2-y,z
loop_
_atom_site_type_symbol
_atom_site_label
_atom_site_fract_x
_atom_site_fract_y
_atom_site_fract_z
Si Si1 0.370099 0.340515 0.873654
Si Si2 0.199674 0.336390 0.600552
Si Si3 0.173160 0.660901 0.885107
Si Si4 0.940399 0.166438 0.575318
Si Si5 0.359787 0.836233 0.546609
Si Si6 0.288655 0.658180 0.791937
O O1 0.380731 0.500000 0.899196
O O2 0.415147 0.290173 0.729015
O O3 0.314609 0.324863 0.882472
O O4 0.369926 0.247324 0.988764
O O5 0.216789 0.500000 0.589608
O O6 0.250000 0.250000 0.500000
O O7 0.178508 0.280505 0.749321
O O8 0.152774 0.318279 0.571130
O O9 0.154082 0.500000 0.907612
O O10 0.227508 0.678803 0.881370
O O11 0.912065 0.251134 0.509975
O O12 0.000000 0.211670 0.500000
O O13 0.932989 0.000000 0.561917
O O14 0.310912 0.774243 0.677311
O O15 0.366921 0.000000 0.570979
O O16 0.301282 0.500000 0.728077
#
# Coordination Sequence:
#
# PCOD8085248 Si02
#       6
#     8   8   8   8   8   8
#     4   9  18  30  46  71  96 120 158 203 246 291
#     4  10  20  32  47  69 100 137 172 201 231 278
#     4  10  19  30  45  66  98 137 167 194 235 284
#     4   9  19  37  58  75  94 123 158 202 255 303
#     4  10  19  30  48  76 102 125 162 208 244 281
#     4   9  17  30  46  65  96 135 167 196 234 286
#
# _framework density 16.811758000000001
#
# number of rings (size 3 to 8) (size 9 to 14) (size 15 to 20)
#    0.000    2.500    1.667    2.000    0.000    5.000 
#    0.000    0.000    0.000    1.000    0.000    7.000 
#    0.000    0.000    0.000    0.000    0.000    0.000 
#
# Total GULP energy -297545.078759 kJ/mol
# GULP energy per Si atom -12397.711615 kJ/mol
# Density = 1.677349 g / cm^3
# Si number density = 16.811758 Si / 1000 Ang^3
#
#
#
# Elastic Constant Matrix: (Units=GPa)
#
#
# Indices 1 2 3 4 5 6 
#
# 1 70.0926 40.1810 48.1862 0.0000 -2.8073 0.0000
# 2 40.1810 74.2141 54.3575 0.0000 3.6650 0.0000
# 3 48.1862 54.3575 118.1430 0.0000 6.9943 0.0000
# 4 0.0000 0.0000 0.0000 29.5708 0.0000 0.2204
# 5 -2.8073 3.6650 6.9943 0.0000 16.5275 0.0000
# 6 0.0000 0.0000 0.0000 0.2204 0.0000 18.9078
#
#
#
# Elastic Compliance Matrix: (Units=1/GPa)
#
#
# Indices 1 2 3 4 5 6 
#
# 1 0.023957 -0.008848 -0.006213 0.000000 0.008661 0.000000
# 2 -0.008848 0.023596 -0.007025 0.000000 -0.003762 0.000000
# 3 -0.006213 -0.007025 0.014566 0.000000 -0.005662 0.000000
# 4 0.000000 0.000000 0.000000 0.033820 0.000000 -0.000394
# 5 0.008661 -0.003762 -0.005662 0.000000 0.065206 0.000000
# 6 0.000000 0.000000 0.000000 -0.000394 0.000000 0.052893
#
#
# Mechanical properties :
#
#
# Convention : Reuss Voigt Hill
#
# Bulk Modulus (GPa) = 55.71946 60.87767 58.29856
# Shear Modulus (GPa) = 18.92557 20.98290 19.95424
#
# Velocity S-wave (km/s) = 3.35884 3.53669 3.44891
# Velocity P-wave (km/s) = 6.94676 7.27788 7.11425
#
# Compressibility (1/GPa) = 0.01794705
#
# Stress axis : x y z
#
# Youngs Moduli (GPa) = 41.74146 42.37963 68.65375
#
# Poissons Ratio (x) = 0.37497 0.42655
# Poissons Ratio (y) = 0.36932 0.48231
# Poissons Ratio (z) = 0.25934 0.29772
#
# Static dielectric constant tensor:
#      x y z
#    x 3.010800 0.000000 0.119680 
#    y 0.000000 3.187370 0.000000 
#    z 0.119680 0.000000 3.044510 
# 
# 
# High freq. dielectric constant tensor:
#      x y z
#    x 1.619130 0.000000 0.011030 
#    y 0.000000 1.651440 0.000000 
#    z 0.011030 0.000000 1.638290 
# 
# From -- ./inp_files/179189.got.cif
#   From: 2010.06.25/outbox.cif.g09.slc.cpg/sg12_90_cif.got.tgz:179189.got - 2010.06.28 00:19:55.
