data_PCOD8085856
_publ_section_title
;
Structure prediction by ZEFSAII (Michael W. Deem and Ramdas Pophale) SiO2 
 PCOD8085856
Probable space group: C 2/M
;
_chemical_formula_sum "Si O2"
_cell_formula_units_Z 48
_cell_length_a 31.325802
_cell_length_b 14.169340
_cell_length_c 8.959810
_cell_angle_alpha 90.000000
_cell_angle_beta 140.720353
_cell_angle_gamma 90.000000
_cell_volume 2517.833521
_symmetry_space_group_name_H-M "C 2/M"
_symmetry_group_IT_number 12
_symmetry_cell_setting 'monoclinic'
loop_
_space_group_symop_operation_xyz
x,y,z
-x,y,-z
-x,-y,-z
x,-y,z
1/2+x,1/2+y,z
1/2-x,1/2+y,-z
1/2-x,1/2-y,-z
1/2+x,1/2-y,z
loop_
_atom_site_type_symbol
_atom_site_label
_atom_site_fract_x
_atom_site_fract_y
_atom_site_fract_z
Si Si1 0.921106 0.104919 0.256452
Si Si2 0.105311 0.750566 0.575729
Si Si3 0.838377 0.745917 0.585533
Si Si4 0.951549 0.745660 0.112134
Si Si5 0.263626 0.108738 0.588665
Si Si6 0.615143 0.891584 0.859826
O O1 0.882685 0.157164 0.288592
O O2 0.913201 0.165154 0.084428
O O3 0.000000 0.099882 0.500000
O O4 0.890304 0.000000 0.154024
O O5 0.158599 0.747399 0.585438
O O6 0.117524 0.656506 0.704401
O O7 0.030707 0.758398 0.302926
O O8 0.806887 0.844432 0.555747
O O9 0.792426 0.659029 0.517775
O O10 0.914245 0.732283 0.853760
O O11 0.943340 0.655471 0.198555
O O12 0.251204 0.000000 0.515478
O O13 0.314067 0.121835 0.864042
O O14 0.596355 0.000000 0.785817
#
# Coordination Sequence:
#
# PCOD8085856 Si02
#       6
#     8   8   8   8   8   8
#     4   8  15  29  46  66  98 135 165 194 233 289
#     4  10  19  30  51  80 105 128 163 209 258 302
#     4  10  20  34  53  75 103 132 166 211 255 298
#     4   9  18  32  50  76 106 136 163 197 251 312
#     4   9  20  38  54  69  96 137 178 211 247 293
#     4   9  18  34  54  74 100 135 172 207 245 296
#
# _framework density 19.064008999999999
#
# number of rings (size 3 to 8) (size 9 to 14) (size 15 to 20)
#    0.000    2.833    0.000    2.000    0.000    4.000 
#    0.000    0.000    0.000   10.000    0.000    0.000 
#    0.000    0.000    0.000    0.000    0.000    0.000 
#
# Total GULP energy -297544.425521 kJ/mol
# GULP energy per Si atom -12397.684397 kJ/mol
# Density = 1.902062 g / cm^3
# Si number density = 19.064009 Si / 1000 Ang^3
#
#
#
# Elastic Constant Matrix: (Units=GPa)
#
#
# Indices 1 2 3 4 5 6 
#
# 1 116.0731 50.7687 18.6648 0.0000 -17.1338 0.0000
# 2 50.7687 159.3451 11.2176 0.0000 -8.4243 0.0000
# 3 18.6648 11.2176 22.7525 0.0000 -2.4651 0.0000
# 4 0.0000 0.0000 0.0000 23.0278 0.0000 0.8361
# 5 -17.1338 -8.4243 -2.4651 0.0000 24.7413 0.0000
# 6 0.0000 0.0000 0.0000 0.8361 0.0000 11.8406
#
#
#
# Elastic Compliance Matrix: (Units=1/GPa)
#
#
# Indices 1 2 3 4 5 6 
#
# 1 0.012143 -0.002971 -0.007779 0.000000 0.006623 0.000000
# 2 -0.002971 0.007319 -0.001136 0.000000 0.000321 0.000000
# 3 -0.007779 -0.001136 0.050816 0.000000 -0.000711 0.000000
# 4 0.000000 0.000000 0.000000 0.043537 0.000000 -0.003074
# 5 0.006623 0.000321 -0.000711 0.000000 0.045043 0.000000
# 6 0.000000 0.000000 0.000000 -0.003074 0.000000 0.084672
#
#
# Mechanical properties :
#
#
# Convention : Reuss Voigt Hill
#
# Bulk Modulus (GPa) = 21.50306 51.05254 36.27780
# Shear Modulus (GPa) = 17.67992 26.42326 22.05159
#
# Velocity S-wave (km/s) = 3.04862 3.72698 3.40474
# Velocity P-wave (km/s) = 4.86786 6.73485 5.87598
#
# Compressibility (1/GPa) = 0.04650500
#
# Stress axis : x y z
#
# Youngs Moduli (GPa) = 82.34964 136.62460 19.67880
#
# Poissons Ratio (x) = 0.40594 0.15309
# Poissons Ratio (y) = 0.24468 0.02236
# Poissons Ratio (z) = 0.64062 0.15526
#
# Static dielectric constant tensor:
#      x y z
#    x 3.207360 0.000000 -0.061590 
#    y 0.000000 3.712940 0.000000 
#    z -0.061590 0.000000 3.354240 
# 
# 
# High freq. dielectric constant tensor:
#      x y z
#    x 1.720950 0.000000 -0.006150 
#    y 0.000000 1.740120 0.000000 
#    z -0.006150 0.000000 1.737050 
# 
# From -- ./inp_files/85176.got.cif
#   From: 2010.06.25/outbox.cif.g09.slc.cpg/sg12_43_cif.got.tgz:85176.got - 2010.06.28 00:19:55.
