data_PCOD8085284
_publ_section_title
;
Structure prediction by ZEFSAII (Michael W. Deem and Ramdas Pophale) SiO2 
 PCOD8085284
Probable space group: C 2/M
;
_chemical_formula_sum "Si O2"
_cell_formula_units_Z 64
_cell_length_a 31.554761
_cell_length_b 8.759472
_cell_length_c 12.323409
_cell_angle_alpha 90.000000
_cell_angle_beta 97.283539
_cell_angle_gamma 90.000000
_cell_volume 3378.742610
_symmetry_space_group_name_H-M "C 2/M"
_symmetry_group_IT_number 12
_symmetry_cell_setting 'monoclinic'
loop_
_space_group_symop_operation_xyz
x,y,z
-x,y,-z
-x,-y,-z
x,-y,z
1/2+x,1/2+y,z
1/2-x,1/2+y,-z
1/2-x,1/2-y,-z
1/2+x,1/2-y,z
loop_
_atom_site_type_symbol
_atom_site_label
_atom_site_fract_x
_atom_site_fract_y
_atom_site_fract_z
Si Si1 0.961744 0.167738 0.411873
Si Si2 0.508548 0.671448 0.205204
Si Si3 0.570854 0.180295 0.909125
Si Si4 0.630253 0.320157 0.099599
Si Si5 0.883034 0.674873 0.460559
Si Si6 0.645979 0.181133 0.772335
Si Si7 0.204521 0.820732 0.962400
Si Si8 0.598832 0.818048 0.296226
O O1 0.928916 0.303874 0.420320
O O2 0.000000 0.213790 0.500000
O O3 0.977329 0.162546 0.295845
O O4 0.942780 0.000000 0.437867
O O5 0.518902 0.500000 0.166022
O O6 0.478607 0.765557 0.112455
O O7 0.552207 0.754790 0.250906
O O8 0.601481 0.229927 0.817667
O O9 0.571838 0.000000 0.925068
O O10 0.588658 0.259269 0.023468
O O11 0.626259 0.500000 0.113621
O O12 0.632478 0.239024 0.217556
O O13 0.673090 0.273529 0.049985
O O14 0.872156 0.500000 0.473492
O O15 0.852171 0.739205 0.353932
O O16 0.883722 0.749056 0.581704
O O17 0.686286 0.257490 0.843506
O O18 0.650925 0.000000 0.779548
O O19 0.209043 0.000000 0.953603
O O20 0.250000 0.750000 0.000000
O O21 0.596031 0.000000 0.299164
#
# Coordination Sequence:
#
# PCOD8085284 Si02
#       8
#     8   8   8   8   8   8   8   8
#     4  10  19  30  45  69 101 141 188 235 276 313
#     4  11  21  32  48  72 105 145 190 236 279 318
#     4  10  19  33  54  77 104 140 184 232 279 321
#     4  10  22  40  58  79 109 141 176 217 268 325
#     4  10  20  33  51  76 107 144 184 226 271 315
#     4   9  18  33  54  82 114 142 171 217 271 318
#     4  10  21  38  64  93 114 135 164 207 262 322
#     4  11  23  36  52  75 106 148 193 229 266 316
#
# _framework density 18.941956999999999
#
# number of rings (size 3 to 8) (size 9 to 14) (size 15 to 20)
#    0.000    1.875    2.500    1.875    0.000    4.250 
#    0.000    2.500    0.000    0.750    0.000    0.000 
#    0.000    0.000    0.000    0.000    0.000    0.000 
#
# Total GULP energy -396519.898921 kJ/mol
# GULP energy per Si atom -12391.246841 kJ/mol
# Density = 1.889884 g / cm^3
# Si number density = 18.941957 Si / 1000 Ang^3
#
#
#
# Elastic Constant Matrix: (Units=GPa)
#
#
# Indices 1 2 3 4 5 6 
#
# 1 88.1773 31.2656 59.5694 0.0000 20.3942 0.0000
# 2 31.2656 55.8813 37.2014 0.0000 8.0667 0.0000
# 3 59.5694 37.2014 137.3482 0.0000 12.1711 0.0000
# 4 0.0000 0.0000 0.0000 24.8812 0.0000 1.6968
# 5 20.3942 8.0667 12.1711 0.0000 20.2970 0.0000
# 6 0.0000 0.0000 0.0000 1.6968 0.0000 28.2001
#
#
#
# Elastic Compliance Matrix: (Units=1/GPa)
#
#
# Indices 1 2 3 4 5 6 
#
# 1 0.021030 -0.005363 -0.006321 0.000000 -0.015209 0.000000
# 2 -0.005363 0.023779 -0.003965 0.000000 -0.001684 0.000000
# 3 -0.006321 -0.003965 0.010977 0.000000 0.001344 0.000000
# 4 0.000000 0.000000 0.000000 0.040357 0.000000 -0.002428
# 5 -0.015209 -0.001684 0.001344 0.000000 0.064413 0.000000
# 6 0.000000 0.000000 0.000000 -0.002428 0.000000 0.035607
#
#
# Mechanical properties :
#
#
# Convention : Reuss Voigt Hill
#
# Bulk Modulus (GPa) = 40.83694 59.71995 50.27844
# Shear Modulus (GPa) = 21.22035 24.90035 23.06035
#
# Velocity S-wave (km/s) = 3.35069 3.62962 3.49294
# Velocity P-wave (km/s) = 6.04775 7.01155 6.54741
#
# Compressibility (1/GPa) = 0.02448763
#
# Stress axis : x y z
#
# Youngs Moduli (GPa) = 47.55106 42.05463 91.09995
#
# Poissons Ratio (x) = 0.22554 0.57580
# Poissons Ratio (y) = 0.25502 0.36124
# Poissons Ratio (z) = 0.30055 0.16676
#
# Static dielectric constant tensor:
#      x y z
#    x 3.153780 0.000000 0.078600 
#    y 0.000000 3.532790 0.000000 
#    z 0.078600 0.000000 3.883600 
# 
# 
# High freq. dielectric constant tensor:
#      x y z
#    x 1.694670 0.000000 0.010770 
#    y 0.000000 1.737980 0.000000 
#    z 0.010770 0.000000 1.750460 
# 
# From -- ./inp_files/187505.got.cif
#   From: 2010.06.25/outbox.cif.g09.slc.cpg/sg12_94_cif.got.tgz:187505.got - 2010.06.28 00:19:55.
