data_PCOD8085275
_publ_section_title
;
Structure prediction by ZEFSAII (Michael W. Deem and Ramdas Pophale) SiO2 
 PCOD8085275
Probable space group: C 2/M
;
_chemical_formula_sum "Si O2"
_cell_formula_units_Z 48
_cell_length_a 20.912112
_cell_length_b 8.748436
_cell_length_c 28.484318
_cell_angle_alpha 90.000000
_cell_angle_beta 31.868305
_cell_angle_gamma 90.000000
_cell_volume 2751.327253
_symmetry_space_group_name_H-M "C 2/M"
_symmetry_group_IT_number 12
_symmetry_cell_setting 'monoclinic'
loop_
_space_group_symop_operation_xyz
x,y,z
-x,y,-z
-x,-y,-z
x,-y,z
1/2+x,1/2+y,z
1/2-x,1/2+y,-z
1/2-x,1/2-y,-z
1/2+x,1/2-y,z
loop_
_atom_site_type_symbol
_atom_site_label
_atom_site_fract_x
_atom_site_fract_y
_atom_site_fract_z
Si Si1 0.877673 0.179458 0.053876
Si Si2 0.232731 0.321763 0.232357
Si Si3 0.009502 0.323986 0.426134
Si Si4 0.358582 0.320002 0.961115
Si Si5 0.894636 0.675867 0.210480
Si Si6 0.832153 0.824323 0.593883
O O1 0.764356 0.216867 0.158608
O O2 0.897124 0.000000 0.035645
O O3 0.854177 0.248491 0.016893
O O4 0.000000 0.250583 0.000000
O O5 0.258445 0.500000 0.227525
O O6 0.089661 0.283672 0.329764
O O7 0.319293 0.222971 0.211566
O O8 0.971948 0.500000 0.449733
O O9 0.099365 0.286865 0.412970
O O10 0.884483 0.225143 0.509641
O O11 0.343489 0.500000 0.970295
O O12 0.485612 0.276131 0.857831
O O13 0.250000 0.250000 0.000000
O O14 0.932602 0.500000 0.181485
O O15 0.811751 0.699964 0.309123
O O16 0.865954 0.000000 0.583103
#
# Coordination Sequence:
#
# PCOD8085275 Si02
#       6
#     8   8   8   8   8   8
#     4   9  16  30  52  73  93 126 165 195 236 290
#     4   9  16  28  46  69  95 125 161 196 236 284
#     4   9  15  22  37  62  91 119 152 194 232 274
#     4  11  22  36  53  71  97 129 162 202 240 286
#     4  10  19  30  45  68  95 126 162 198 239 283
#     4   9  16  25  38  57  89 126 155 186 231 286
#
# _framework density 17.446124999999999
#
# number of rings (size 3 to 8) (size 9 to 14) (size 15 to 20)
#    0.000    2.500    1.667    3.000    0.000    2.667 
#    0.000    2.500    0.000    0.000    0.000    1.167 
#    0.000    0.000    0.000    0.000    0.000    0.000 
#
# Total GULP energy -297352.057770 kJ/mol
# GULP energy per Si atom -12389.669074 kJ/mol
# Density = 1.740642 g / cm^3
# Si number density = 17.446125 Si / 1000 Ang^3
#
#
#
# Elastic Constant Matrix: (Units=GPa)
#
#
# Indices 1 2 3 4 5 6 
#
# 1 74.1568 22.4592 54.8208 -0.0022 0.1322 0.0299
# 2 22.4592 49.3485 38.5778 -0.0023 0.7855 0.0304
# 3 54.8208 38.5778 171.4154 0.0026 13.8213 -0.0021
# 4 -0.0022 -0.0023 0.0026 28.2284 0.0003 -4.2535
# 5 0.1322 0.7855 13.8213 0.0003 16.4420 -0.0158
# 6 0.0299 0.0304 -0.0021 -4.2535 -0.0158 14.0834
#
#
#
# Elastic Compliance Matrix: (Units=1/GPa)
#
#
# Indices 1 2 3 4 5 6 
#
# 1 0.018797 -0.004416 -0.005388 -0.000003 0.004589 -0.000027
# 2 -0.004416 0.025843 -0.004620 -0.000005 0.002685 -0.000046
# 3 -0.005388 -0.004620 0.009199 0.000001 -0.007469 0.000015
# 4 -0.000003 -0.000005 0.000001 0.037114 0.000010 0.011210
# 5 0.004589 0.002685 -0.007469 0.000010 0.066933 0.000061
# 6 -0.000027 -0.000046 0.000015 0.011210 0.000061 0.074391
#
#
# Mechanical properties :
#
#
# Convention : Reuss Voigt Hill
#
# Bulk Modulus (GPa) = 40.01447 58.51514 49.26481
# Shear Modulus (GPa) = 18.55592 23.68829 21.12211
#
# Velocity S-wave (km/s) = 3.26485 3.68883 3.48329
# Velocity P-wave (km/s) = 6.09903 7.19420 6.66913
#
# Compressibility (1/GPa) = 0.02499096
#
# Stress axis : x y z
#
# Youngs Moduli (GPa) = 53.19971 38.69519 108.70958
#
# Poissons Ratio (x) = 0.17088 0.58569
# Poissons Ratio (y) = 0.23493 0.50226
# Poissons Ratio (z) = 0.28662 0.17878
#
# Static dielectric constant tensor:
#      x y z
#    x 2.778400 -0.000010 0.314980 
#    y -0.000010 3.172860 -0.000010 
#    z 0.314980 -0.000010 4.149160 
# 
# 
# High freq. dielectric constant tensor:
#      x y z
#    x 1.594270 0.000000 0.016840 
#    y 0.000000 1.669310 0.000000 
#    z 0.016840 0.000000 1.706210 
# 
# From -- ./inp_files/348283.got.cif
#   From: 2010.06.25/outbox.cif.g09.slc.cpg/sg12_175_cif.got.tgz:348283.got - 2010.06.28 00:19:55.
