data_PCOD8085571
_publ_section_title
;
Structure prediction by ZEFSAII (Michael W. Deem and Ramdas Pophale) SiO2 
 PCOD8085571
Probable space group: C 2/M
;
_chemical_formula_sum "Si O2"
_cell_formula_units_Z 64
_cell_length_a 24.508872
_cell_length_b 14.620615
_cell_length_c 8.609732
_cell_angle_alpha 90.000000
_cell_angle_beta 78.080610
_cell_angle_gamma 90.000000
_cell_volume 3018.647611
_symmetry_space_group_name_H-M "C 2/M"
_symmetry_group_IT_number 12
_symmetry_cell_setting 'monoclinic'
loop_
_space_group_symop_operation_xyz
x,y,z
-x,y,-z
-x,-y,-z
x,-y,z
1/2+x,1/2+y,z
1/2-x,1/2+y,-z
1/2-x,1/2-y,-z
1/2+x,1/2-y,z
loop_
_atom_site_type_symbol
_atom_site_label
_atom_site_fract_x
_atom_site_fract_y
_atom_site_fract_z
Si Si1 0.020810 0.898886 0.144453
Si Si2 0.937835 0.661999 0.539837
Si Si3 0.579502 0.348752 0.608683
Si Si4 0.667780 0.100795 0.573077
Si Si5 0.263160 0.894241 0.771604
Si Si6 0.141636 0.714735 0.149804
Si Si7 0.659826 0.734587 0.804285
Si Si8 0.627342 0.602054 0.269143
O O1 0.972399 0.906357 0.300265
O O2 0.075531 0.859459 0.194990
O O3 0.038346 0.000000 0.081408
O O4 0.000000 0.845111 0.000000
O O5 0.945248 0.757091 0.447753
O O6 0.893717 0.602615 0.467808
O O7 0.913804 0.678128 0.727942
O O8 0.000000 0.616148 0.500000
O O9 0.619827 0.329860 0.728820
O O10 0.612038 0.406534 0.459156
O O11 0.714563 0.117817 0.416030
O O12 0.678584 0.176924 0.696063
O O13 0.675406 0.000000 0.642850
O O14 0.310347 0.861396 0.864394
O O15 0.210490 0.829191 0.827392
O O16 0.247986 0.000000 0.815960
O O17 0.166976 0.810139 0.214577
O O18 0.128086 0.729537 0.976502
O O19 0.648965 0.500000 0.206006
#
# Coordination Sequence:
#
# PCOD8085571 Si02
#       8
#     8   8   8   8   8   8   8   8
#     4  10  19  30  47  74 108 146 188 235 286 333
#     4   9  18  34  57  81 110 154 199 235 277 334
#     4  10  19  31  49  75 108 147 190 232 278 338
#     4   9  20  38  59  85 116 150 191 237 286 346
#     4  10  22  41  62  83 111 150 194 239 291 351
#     4  10  21  38  58  84 115 147 191 243 294 344
#     4  11  22  37  59  86 117 149 188 240 296 349
#     4  10  20  34  52  76 111 152 191 230 277 341
#
# _framework density 21.201547000000001
#
# number of rings (size 3 to 8) (size 9 to 14) (size 15 to 20)
#    0.000    2.125    0.000    4.500    0.000    3.250 
#    0.000    3.750    0.000    0.750    0.000    0.000 
#    0.000    0.000    0.000    0.000    0.000    0.000 
#
# Total GULP energy -396530.890868 kJ/mol
# GULP energy per Si atom -12391.590340 kJ/mol
# Density = 2.115329 g / cm^3
# Si number density = 21.201547 Si / 1000 Ang^3
#
#
#
# Elastic Constant Matrix: (Units=GPa)
#
#
# Indices 1 2 3 4 5 6 
#
# 1 75.1645 11.5063 23.1285 0.0000 0.6261 0.0000
# 2 11.5063 96.1687 20.4528 0.0000 -0.1256 0.0000
# 3 23.1285 20.4528 114.9974 0.0000 6.8557 0.0000
# 4 0.0000 0.0000 0.0000 21.3954 0.0000 2.6880
# 5 0.6261 -0.1256 6.8557 0.0000 23.0427 0.0000
# 6 0.0000 0.0000 0.0000 2.6880 0.0000 19.9447
#
#
#
# Elastic Compliance Matrix: (Units=1/GPa)
#
#
# Indices 1 2 3 4 5 6 
#
# 1 0.014305 -0.001137 -0.002699 0.000000 0.000408 0.000000
# 2 -0.001137 0.010907 -0.001748 0.000000 0.000610 0.000000
# 3 -0.002699 -0.001748 0.009718 0.000000 -0.002828 0.000000
# 4 0.000000 0.000000 0.000000 0.047544 0.000000 -0.006408
# 5 0.000408 0.000610 -0.002828 0.000000 0.044231 0.000000
# 6 0.000000 0.000000 0.000000 -0.006408 0.000000 0.051002
#
#
# Mechanical properties :
#
#
# Convention : Reuss Voigt Hill
#
# Bulk Modulus (GPa) = 42.08256 44.05618 43.06937
# Shear Modulus (GPa) = 25.40700 28.29277 26.84988
#
# Velocity S-wave (km/s) = 3.46548 3.65700 3.56253
# Velocity P-wave (km/s) = 5.99205 6.21742 6.10578
#
# Compressibility (1/GPa) = 0.02376281
#
# Stress axis : x y z
#
# Youngs Moduli (GPa) = 69.90379 91.68514 102.90078
#
# Poissons Ratio (x) = 0.10425 0.27775
# Poissons Ratio (y) = 0.07948 0.17982
# Poissons Ratio (z) = 0.18869 0.16022
#
# Static dielectric constant tensor:
#      x y z
#    x 3.704680 0.000000 0.081630 
#    y 0.000000 3.831890 0.000000 
#    z 0.081630 0.000000 3.864210 
# 
# 
# High freq. dielectric constant tensor:
#      x y z
#    x 1.810100 0.000000 -0.000820 
#    y 0.000000 1.826030 0.000000 
#    z -0.000820 0.000000 1.831430 
# 
# From -- ./inp_files/96902.got.cif
#   From: 2010.06.25/outbox.cif.g09.slc.cpg/sg12_49_cif.got.tgz:96902.got - 2010.06.28 00:19:55.
