data_PCOD8085159
_publ_section_title
;
Structure prediction by ZEFSAII (Michael W. Deem and Ramdas Pophale) SiO2 
 PCOD8085159
Probable space group: C 2/M
;
_chemical_formula_sum "Si O2"
_cell_formula_units_Z 56
_cell_length_a 27.434254
_cell_length_b 9.056173
_cell_length_c 14.433278
_cell_angle_alpha 90.000000
_cell_angle_beta 103.502712
_cell_angle_gamma 90.000000
_cell_volume 3486.819148
_symmetry_space_group_name_H-M "C 2/M"
_symmetry_group_IT_number 12
_symmetry_cell_setting 'monoclinic'
loop_
_space_group_symop_operation_xyz
x,y,z
-x,y,-z
-x,-y,-z
x,-y,z
1/2+x,1/2+y,z
1/2-x,1/2+y,-z
1/2-x,1/2-y,-z
1/2+x,1/2-y,z
loop_
_atom_site_type_symbol
_atom_site_label
_atom_site_fract_x
_atom_site_fract_y
_atom_site_fract_z
Si Si1 0.283238 0.333559 0.384971
Si Si2 0.709217 0.828812 0.103745
Si Si3 0.555857 0.676276 0.531489
Si Si4 0.639521 0.674219 0.434788
Si Si5 0.371895 0.665073 0.279149
Si Si6 0.687618 0.829152 0.888050
Si Si7 0.687336 0.326760 0.272356
O O1 0.261880 0.500000 0.389772
O O2 0.310607 0.269823 0.489204
O O3 0.323182 0.335703 0.320802
O O4 0.239995 0.220717 0.339107
O O5 0.763686 0.755844 0.126248
O O6 0.676208 0.757307 0.171237
O O7 0.717371 0.000000 0.129281
O O8 0.680139 0.803344 0.994510
O O9 0.500000 0.743402 0.500000
O O10 0.554393 0.500000 0.527363
O O11 0.588686 0.738177 0.458943
O O12 0.581094 0.726113 0.639925
O O13 0.638986 0.500000 0.450151
O O14 0.643803 0.714737 0.327825
O O15 0.383478 0.500000 0.248143
O O16 0.361884 0.768855 0.185658
O O17 0.695479 0.000000 0.868303
O O18 0.688395 0.500000 0.252921
#
# Coordination Sequence:
#
# PCOD8085159 Si02
#       7
#     8   8   8   8   8   8   8
#     4   9  16  27  40  56  85 120 147 174 209 250
#     4  10  20  31  42  58  85 119 152 184 215 253
#     4   8  14  27  47  69  91 115 143 176 219 267
#     4   8  16  27  39  60  88 115 146 182 215 253
#     4   9  16  26  44  67  90 115 144 180 216 255
#     4  10  19  30  44  62  84 114 150 185 220 256
#     4  11  19  26  39  61  88 118 150 180 211 248
#
# _framework density 16.060483000000001
#
# number of rings (size 3 to 8) (size 9 to 14) (size 15 to 20)
#    0.000    2.714    1.429    3.429    0.000    1.714 
#    0.000    0.714    0.000    1.286    0.000    1.000 
#    0.000    8.000    0.000    0.000    0.000    0.000 
#
# Total GULP energy -347023.045538 kJ/mol
# GULP energy per Si atom -12393.680198 kJ/mol
# Density = 1.602393 g / cm^3
# Si number density = 16.060483 Si / 1000 Ang^3
#
#
#
# Elastic Constant Matrix: (Units=GPa)
#
#
# Indices 1 2 3 4 5 6 
#
# 1 68.5982 25.0178 52.0151 0.0000 6.7376 0.0000
# 2 25.0178 66.6714 51.4703 0.0000 -0.2985 0.0000
# 3 52.0151 51.4703 129.2654 0.0000 -3.2685 0.0000
# 4 0.0000 0.0000 0.0000 25.4413 0.0000 -0.3575
# 5 6.7376 -0.2985 -3.2685 0.0000 18.5415 0.0000
# 6 0.0000 0.0000 0.0000 -0.3575 0.0000 9.8286
#
#
#
# Elastic Compliance Matrix: (Units=1/GPa)
#
#
# Indices 1 2 3 4 5 6 
#
# 1 0.022815 -0.001914 -0.008668 0.000000 -0.009849 0.000000
# 2 -0.001914 0.021842 -0.007936 0.000000 -0.000352 0.000000
# 3 -0.008668 -0.007936 0.014525 0.000000 0.005582 0.000000
# 4 0.000000 0.000000 0.000000 0.039326 0.000000 0.001431
# 5 -0.009849 -0.000352 0.005582 0.000000 0.058490 0.000000
# 6 0.000000 0.000000 0.000000 0.001431 0.000000 0.101795
#
#
# Mechanical properties :
#
#
# Convention : Reuss Voigt Hill
#
# Bulk Modulus (GPa) = 45.15178 57.94906 51.55042
# Shear Modulus (GPa) = 16.49017 19.83109 18.16063
#
# Velocity S-wave (km/s) = 3.20778 3.51775 3.36633
# Velocity P-wave (km/s) = 6.47259 7.25669 6.87582
#
# Compressibility (1/GPa) = 0.02214752
#
# Stress axis : x y z
#
# Youngs Moduli (GPa) = 43.83016 45.78371 68.84817
#
# Poissons Ratio (x) = 0.08763 0.59675
# Poissons Ratio (y) = 0.08389 0.54635
# Poissons Ratio (z) = 0.37990 0.36332
#
# Static dielectric constant tensor:
#      x y z
#    x 2.943890 0.000000 -0.050140 
#    y 0.000000 2.918340 0.000000 
#    z -0.050140 0.000000 3.347930 
# 
# 
# High freq. dielectric constant tensor:
#      x y z
#    x 1.568390 0.000000 -0.006860 
#    y 0.000000 1.600190 0.000000 
#    z -0.006860 0.000000 1.625160 
# 
# From -- ./inp_files/247889.got.cif
#   From: 2010.06.25/outbox.cif.g09.slc.cpg/sg12_124_cif.got.tgz:247889.got - 2010.06.28 00:19:55.
