data_PCOD8085948
_publ_section_title
;
Structure prediction by ZEFSAII (Michael W. Deem and Ramdas Pophale) SiO2 
 PCOD8085948
Probable space group: C 2/M
;
_chemical_formula_sum "Si O2"
_cell_formula_units_Z 56
_cell_length_a 24.382065
_cell_length_b 8.620301
_cell_length_c 16.345539
_cell_angle_alpha 90.000000
_cell_angle_beta 75.474922
_cell_angle_gamma 90.000000
_cell_volume 3325.711317
_symmetry_space_group_name_H-M "C 2/M"
_symmetry_group_IT_number 12
_symmetry_cell_setting 'monoclinic'
loop_
_space_group_symop_operation_xyz
x,y,z
-x,y,-z
-x,-y,-z
x,-y,z
1/2+x,1/2+y,z
1/2-x,1/2+y,-z
1/2-x,1/2-y,-z
1/2+x,1/2-y,z
loop_
_atom_site_type_symbol
_atom_site_label
_atom_site_fract_x
_atom_site_fract_y
_atom_site_fract_z
Si Si1 0.581860 0.317624 0.505782
Si Si2 0.601020 0.675970 0.227622
Si Si3 0.727405 0.324150 0.880289
Si Si4 0.283784 0.677312 0.717656
Si Si5 0.325411 0.320566 0.941823
Si Si6 0.520661 0.180129 0.375160
Si Si7 0.202543 0.318068 0.459755
O O1 0.580356 0.500000 0.490029
O O2 0.564137 0.231629 0.429296
O O3 0.538399 0.272725 0.594459
O O4 0.644308 0.265140 0.507021
O O5 0.581603 0.500000 0.249660
O O6 0.658031 0.711570 0.256954
O O7 0.614114 0.708027 0.126234
O O8 0.549805 0.784761 0.276945
O O9 0.727508 0.500000 0.848677
O O10 0.731184 0.216298 0.798407
O O11 0.780863 0.297589 0.919382
O O12 0.672442 0.292020 0.960098
O O13 0.279058 0.500000 0.691024
O O14 0.280578 0.785620 0.640033
O O15 0.306954 0.500000 0.930798
O O16 0.507230 0.000000 0.388405
O O17 0.196168 0.500000 0.476194
O O18 0.250000 0.250000 0.500000
#
# Coordination Sequence:
#
# PCOD8085948 Si02
#       7
#     8   8   8   8   8   8   8
#     4  11  21  35  51  68  92 124 158 196 241 285
#     4   9  16  27  43  63  92 126 159 192 233 282
#     4   9  15  24  39  59  84 117 155 193 230 274
#     4  10  19  31  46  64  90 123 158 194 235 282
#     4   8  15  25  37  56  86 121 155 189 229 276
#     4  11  20  30  47  71  96 124 160 200 236 282
#     4  12  24  38  54  72  94 122 159 201 241 284
#
# _framework density 16.838502999999999
#
# number of rings (size 3 to 8) (size 9 to 14) (size 15 to 20)
#    0.000    2.000    1.429    6.429    0.000    2.857 
#    0.000    0.000    0.000    0.000    0.000    0.000 
#    0.000    1.143    0.000   12.286    0.000    5.714 
#
# Total GULP energy -347035.446002 kJ/mol
# GULP energy per Si atom -12394.123071 kJ/mol
# Density = 1.680018 g / cm^3
# Si number density = 16.838503 Si / 1000 Ang^3
#
#
#
# Elastic Constant Matrix: (Units=GPa)
#
#
# Indices 1 2 3 4 5 6 
#
# 1 62.2203 13.6527 37.0121 0.0000 -12.6896 0.0000
# 2 13.6527 66.5459 23.7436 0.0000 -6.2383 0.0000
# 3 37.0121 23.7436 105.6366 0.0000 -34.4873 0.0000
# 4 0.0000 0.0000 0.0000 27.1233 0.0000 -4.9382
# 5 -12.6896 -6.2383 -34.4873 0.0000 22.6100 0.0000
# 6 0.0000 0.0000 0.0000 -4.9382 0.0000 19.8057
#
#
#
# Elastic Compliance Matrix: (Units=1/GPa)
#
#
# Indices 1 2 3 4 5 6 
#
# 1 0.020517 -0.001821 -0.006342 0.000000 0.001339 0.000000
# 2 -0.001821 0.016553 -0.003835 0.000000 -0.002304 0.000000
# 3 -0.006342 -0.003835 0.021997 0.000000 0.028934 0.000000
# 4 0.000000 0.000000 0.000000 0.038622 0.000000 0.009630
# 5 0.001339 -0.002304 0.028934 0.000000 0.088478 0.000000
# 6 0.000000 0.000000 0.000000 0.009630 0.000000 0.052892
#
#
# Mechanical properties :
#
#
# Convention : Reuss Voigt Hill
#
# Bulk Modulus (GPa) = 28.51367 42.57995 35.54681
# Shear Modulus (GPa) = 18.19868 24.57407 21.38637
#
# Velocity S-wave (km/s) = 3.29108 3.82435 3.56770
# Velocity P-wave (km/s) = 5.60464 6.69649 6.17475
#
# Compressibility (1/GPa) = 0.03507090
#
# Stress axis : x y z
#
# Youngs Moduli (GPa) = 48.73942 60.41173 45.46109
#
# Poissons Ratio (x) = 0.11000 0.28833
# Poissons Ratio (y) = 0.08875 0.17434
# Poissons Ratio (z) = 0.30912 0.23167
#
# Static dielectric constant tensor:
#      x y z
#    x 2.756990 0.000000 -0.433260 
#    y 0.000000 3.245440 0.000000 
#    z -0.433260 0.000000 3.565360 
# 
# 
# High freq. dielectric constant tensor:
#      x y z
#    x 1.579450 0.000000 -0.042990 
#    y 0.000000 1.663080 0.000000 
#    z -0.042990 0.000000 1.657430 
# 
# From -- ./inp_files/280178.got.cif
#   From: 2010.06.25/outbox.cif.g09.slc.cpg/sg12_141_cif.got.tgz:280178.got - 2010.06.28 00:19:55.
