data_PCOD8085812
_publ_section_title
;
Structure prediction by ZEFSAII (Michael W. Deem and Ramdas Pophale) SiO2 
 PCOD8085812
Probable space group: C 2/M
;
_chemical_formula_sum "Si O2"
_cell_formula_units_Z 64
_cell_length_a 23.819595
_cell_length_b 8.974968
_cell_length_c 18.710110
_cell_angle_alpha 90.000000
_cell_angle_beta 70.782936
_cell_angle_gamma 90.000000
_cell_volume 3776.971179
_symmetry_space_group_name_H-M "C 2/M"
_symmetry_group_IT_number 12
_symmetry_cell_setting 'monoclinic'
loop_
_space_group_symop_operation_xyz
x,y,z
-x,y,-z
-x,-y,-z
x,-y,z
1/2+x,1/2+y,z
1/2-x,1/2+y,-z
1/2-x,1/2-y,-z
1/2+x,1/2-y,z
loop_
_atom_site_type_symbol
_atom_site_label
_atom_site_fract_x
_atom_site_fract_y
_atom_site_fract_z
Si Si1 0.684005 0.832295 0.231103
Si Si2 0.436889 0.175373 0.647049
Si Si3 0.383863 0.674932 0.538666
Si Si4 0.798742 0.674921 0.183636
Si Si5 0.256918 0.331998 0.071236
Si Si6 0.237344 0.324913 0.430355
Si Si7 0.445435 0.672895 0.364504
Si Si8 0.350265 0.672360 0.288020
O O1 0.618331 0.778144 0.279035
O O2 0.734705 0.725627 0.244253
O O3 0.693508 0.829970 0.140576
O O4 0.694999 0.000000 0.256167
O O5 0.432342 0.261864 0.573817
O O6 0.496011 0.226813 0.662514
O O7 0.439306 0.000000 0.631666
O O8 0.375161 0.500000 0.554028
O O9 0.322211 0.759051 0.580015
O O10 0.405607 0.711544 0.449976
O O11 0.802426 0.500000 0.173487
O O12 0.805585 0.749710 0.101886
O O13 0.850555 0.731925 0.214875
O O14 0.278559 0.500000 0.047717
O O15 0.250000 0.250000 0.000000
O O16 0.229833 0.500000 0.445122
O O17 0.250000 0.250000 0.500000
O O18 0.292240 0.285936 0.357169
O O19 0.463634 0.500000 0.358382
O O20 0.408312 0.713697 0.309498
O O21 0.350485 0.500000 0.266755
#
# Coordination Sequence:
#
# PCOD8085812 Si02
#       8
#     8   8   8   8   8   8   8   8
#     4   8  18  34  50  71 105 137 159 196 251 297
#     4  11  22  36  52  73  97 130 173 217 261 301
#     4  11  22  37  52  71  96 130 171 217 268 311
#     4  10  19  30  50  79 104 130 165 200 240 293
#     4   9  17  32  52  78 112 139 161 192 239 295
#     4  11  21  34  52  72  96 127 166 212 263 313
#     4  10  22  38  51  66  94 135 175 217 265 305
#     4  10  20  36  50  66  98 134 166 205 259 308
#
# _framework density 16.944793000000001
#
# number of rings (size 3 to 8) (size 9 to 14) (size 15 to 20)
#    0.750    1.250    1.250    3.375    0.000    8.000 
#    0.000    0.000    0.000    0.000    0.000    0.875 
#    0.000    7.000    0.000    0.000    0.000    0.000 
#
# Total GULP energy -396693.018607 kJ/mol
# GULP energy per Si atom -12396.656831 kJ/mol
# Density = 1.690623 g / cm^3
# Si number density = 16.944793 Si / 1000 Ang^3
#
#
#
# Elastic Constant Matrix: (Units=GPa)
#
#
# Indices 1 2 3 4 5 6 
#
# 1 68.5918 27.0980 23.8051 0.0000 20.9246 0.0000
# 2 27.0980 89.6705 45.1656 0.0000 16.6730 0.0000
# 3 23.8051 45.1656 85.5808 0.0000 28.7639 0.0000
# 4 0.0000 0.0000 0.0000 29.2877 0.0000 5.8128
# 5 20.9246 16.6730 28.7639 0.0000 23.2237 0.0000
# 6 0.0000 0.0000 0.0000 5.8128 0.0000 30.3803
#
#
#
# Elastic Compliance Matrix: (Units=1/GPa)
#
#
# Indices 1 2 3 4 5 6 
#
# 1 0.021262 -0.004245 0.002982 0.000000 -0.019803 0.000000
# 2 -0.004245 0.016075 -0.008068 0.000000 0.002277 0.000000
# 3 0.002982 -0.008068 0.024104 0.000000 -0.026748 0.000000
# 4 0.000000 0.000000 0.000000 0.035492 0.000000 -0.006791
# 5 -0.019803 0.002277 -0.026748 0.000000 0.092396 0.000000
# 6 0.000000 0.000000 0.000000 -0.006791 0.000000 0.034215
#
#
# Mechanical properties :
#
#
# Convention : Reuss Voigt Hill
#
# Bulk Modulus (GPa) = 23.37654 48.44230 35.90942
# Shear Modulus (GPa) = 19.49569 26.42996 22.96282
#
# Velocity S-wave (km/s) = 3.39564 3.95368 3.68524
# Velocity P-wave (km/s) = 5.40366 7.03509 6.27264
#
# Compressibility (1/GPa) = 0.04277793
#
# Stress axis : x y z
#
# Youngs Moduli (GPa) = 47.03156 62.20717 41.48773
#
# Poissons Ratio (x) = 0.26409 -0.12371
# Poissons Ratio (y) = 0.19966 0.33474
# Poissons Ratio (z) = -0.14025 0.50191
#
# Static dielectric constant tensor:
#      x y z
#    x 3.098070 0.000000 0.146130 
#    y 0.000000 3.178430 0.000000 
#    z 0.146130 0.000000 2.956710 
# 
# 
# High freq. dielectric constant tensor:
#      x y z
#    x 1.631980 0.000000 0.019400 
#    y 0.000000 1.663040 0.000000 
#    z 0.019400 0.000000 1.636020 
# 
# From -- ./inp_files/287656.got.cif
#   From: 2010.06.25/outbox.cif.g09.slc.cpg/sg12_144_cif.got.tgz:287656.got - 2010.06.28 00:19:55.
