data_PCOD8085118
_publ_section_title
;
Structure prediction by ZEFSAII (Michael W. Deem and Ramdas Pophale) SiO2 
 PCOD8085118
Probable space group: C 2/M
;
_chemical_formula_sum "Si O2"
_cell_formula_units_Z 56
_cell_length_a 27.463191
_cell_length_b 9.460069
_cell_length_c 17.305852
_cell_angle_alpha 90.000000
_cell_angle_beta 52.347398
_cell_angle_gamma 90.000000
_cell_volume 3559.712479
_symmetry_space_group_name_H-M "C 2/M"
_symmetry_group_IT_number 12
_symmetry_cell_setting 'monoclinic'
loop_
_space_group_symop_operation_xyz
x,y,z
-x,y,-z
-x,-y,-z
x,-y,z
1/2+x,1/2+y,z
1/2-x,1/2+y,-z
1/2-x,1/2-y,-z
1/2+x,1/2-y,z
loop_
_atom_site_type_symbol
_atom_site_label
_atom_site_fract_x
_atom_site_fract_y
_atom_site_fract_z
Si Si1 0.045280 0.833910 0.025145
Si Si2 0.983654 0.842679 0.777401
Si Si3 0.401686 0.164770 0.610959
Si Si4 0.797302 0.161897 0.780203
Si Si5 0.658616 0.340664 0.096926
Si Si6 0.837306 0.664356 0.057129
Si Si7 0.486756 0.835577 0.389647
O O1 0.012539 0.789781 0.137332
O O2 0.062186 0.000000 0.010718
O O3 0.108000 0.746605 0.952438
O O4 0.000000 0.794482 0.000000
O O5 0.022752 0.743691 0.682484
O O6 0.913741 0.838840 0.817508
O O7 0.011206 0.000000 0.744381
O O8 0.337533 0.246472 0.682168
O O9 0.451240 0.214620 0.626862
O O10 0.428204 0.197762 0.500248
O O11 0.388396 0.000000 0.633524
O O12 0.808427 0.211780 0.857381
O O13 0.724845 0.180696 0.831886
O O14 0.818068 0.000000 0.750833
O O15 0.679534 0.500000 0.053516
O O16 0.676119 0.230581 0.013589
O O17 0.854981 0.500000 0.029662
O O18 0.491280 0.000000 0.366863
#
# Coordination Sequence:
#
# PCOD8085118 Si02
#       7
#     8   8   8   8   8   8   8
#     4   9  19  36  53  68  90 118 148 185 228 277
#     4   9  16  27  46  68  88 115 152 186 220 265
#     4   9  18  29  42  61  89 125 160 188 217 260
#     4  10  19  30  42  62  92 124 156 188 221 258
#     4   9  17  29  42  60  90 125 158 184 211 262
#     4  10  20  30  44  67  92 117 149 189 228 267
#     4   9  17  29  42  62  91 121 154 190 225 259
#
# _framework density 15.731608
#
# number of rings (size 3 to 8) (size 9 to 14) (size 15 to 20)
#    0.000    2.714    1.429    2.571    0.000    4.857 
#    0.000    1.429    0.000    0.000    0.000    1.000 
#    0.000    0.000    0.000    0.000    0.000    0.000 
#
# Total GULP energy -347130.106177 kJ/mol
# GULP energy per Si atom -12397.503792 kJ/mol
# Density = 1.569580 g / cm^3
# Si number density = 15.731608 Si / 1000 Ang^3
#
#
#
# Elastic Constant Matrix: (Units=GPa)
#
#
# Indices 1 2 3 4 5 6 
#
# 1 75.5923 36.1866 47.6105 0.0000 6.0233 0.0000
# 2 36.1866 70.8082 57.1384 -0.0002 -3.0879 0.0000
# 3 47.6105 57.1384 98.5542 -0.0001 -2.5192 0.0000
# 4 0.0000 -0.0002 -0.0001 31.6829 0.0000 -1.5726
# 5 6.0233 -3.0879 -2.5192 0.0000 16.8555 0.0000
# 6 0.0000 0.0000 0.0000 -1.5726 0.0000 18.3495
#
#
#
# Elastic Compliance Matrix: (Units=1/GPa)
#
#
# Indices 1 2 3 4 5 6 
#
# 1 0.021199 -0.005246 -0.007446 0.000000 -0.009649 0.000000
# 2 -0.005246 0.027948 -0.013542 0.000000 0.004971 0.000000
# 3 -0.007446 -0.013542 0.021683 0.000000 0.003421 0.000000
# 4 0.000000 0.000000 0.000000 0.031698 0.000000 0.002717
# 5 -0.009649 0.004971 0.003421 0.000000 0.064198 0.000000
# 6 0.000000 0.000000 0.000000 0.002717 0.000000 0.054730
#
#
# Mechanical properties :
#
#
# Convention : Reuss Voigt Hill
#
# Bulk Modulus (GPa) = 54.46261 58.53620 56.49940
# Shear Modulus (GPa) = 17.85436 20.31220 19.08328
#
# Velocity S-wave (km/s) = 3.37253 3.59719 3.48667
# Velocity P-wave (km/s) = 7.06119 7.38533 7.22507
#
# Compressibility (1/GPa) = 0.01836122
#
# Stress axis : x y z
#
# Youngs Moduli (GPa) = 47.17245 35.78070 46.11985
#
# Poissons Ratio (x) = 0.18769 0.34342
# Poissons Ratio (y) = 0.24745 0.62456
# Poissons Ratio (z) = 0.35126 0.48455
#
# Static dielectric constant tensor:
#      x y z
#    x 2.723290 0.000000 -0.017410 
#    y 0.000000 2.987500 0.000000 
#    z -0.017410 0.000000 2.904420 
# 
# 
# High freq. dielectric constant tensor:
#      x y z
#    x 1.563170 0.000000 -0.003720 
#    y 0.000000 1.607920 0.000000 
#    z -0.003720 0.000000 1.595410 
# 
# From -- ./inp_files/244291.got.cif
#   From: 2010.06.25/outbox.cif.g09.slc.cpg/sg12_123_cif.got.tgz:244291.got - 2010.06.28 00:19:55.
