data_PCOD8085986
_publ_section_title
;
Structure prediction by ZEFSAII (Michael W. Deem and Ramdas Pophale) SiO2 
 PCOD8085986
Probable space group: C 2/M
;
_chemical_formula_sum "Si O2"
_cell_formula_units_Z 64
_cell_length_a 24.147484
_cell_length_b 28.410025
_cell_length_c 5.037653
_cell_angle_alpha 90.000000
_cell_angle_beta 95.633676
_cell_angle_gamma 90.000000
_cell_volume 3439.291389
_symmetry_space_group_name_H-M "C 2/M"
_symmetry_group_IT_number 12
_symmetry_cell_setting 'monoclinic'
loop_
_space_group_symop_operation_xyz
x,y,z
-x,y,-z
-x,-y,-z
x,-y,z
1/2+x,1/2+y,z
1/2-x,1/2+y,-z
1/2-x,1/2-y,-z
1/2+x,1/2-y,z
loop_
_atom_site_type_symbol
_atom_site_label
_atom_site_fract_x
_atom_site_fract_y
_atom_site_fract_z
Si Si1 0.192120 0.740403 0.321878
Si Si2 0.962350 0.243700 0.234740
Si Si3 0.537540 0.363771 0.760080
Si Si4 0.301423 0.890666 0.313492
Si Si5 0.343895 0.607927 0.193627
Si Si6 0.143734 0.303392 0.799768
Si Si7 0.808330 0.842272 0.674492
Si Si8 0.263905 0.945094 0.789764
O O1 0.250000 0.750000 0.500000
O O2 0.150774 0.719724 0.516358
O O3 0.170562 0.791588 0.219109
O O4 0.190405 0.708880 0.051134
O O5 0.939694 0.190007 0.260746
O O6 0.915632 0.282709 0.142681
O O7 0.000000 0.259642 0.500000
O O8 0.000000 0.242695 0.000000
O O9 0.500000 0.378695 0.500000
O O10 0.589793 0.400251 0.767275
O O11 0.500000 0.371560 0.000000
O O12 0.356137 0.860627 0.250335
O O13 0.258474 0.847199 0.339371
O O14 0.302792 0.919432 0.589008
O O15 0.284633 0.927947 0.083884
O O16 0.328219 0.650815 0.381723
O O17 0.302771 0.565385 0.268230
O O18 0.333438 0.618837 0.880722
O O19 0.273876 0.000000 0.765458
#
# Coordination Sequence:
#
# PCOD8085986 Si02
#       8
#     8   8   8   8   8   8   8   8
#     4  12  22  30  48  74 113 152 182 212 259 319
#     4  10  21  36  52  73 104 150 196 229 258 301
#     4  10  19  32  50  69  98 135 183 227 258 293
#     4  10  21  34  53  78 105 135 171 215 263 324
#     4  10  20  33  52  73  97 135 177 222 270 316
#     4  12  23  35  52  76 113 149 183 230 261 306
#     4  10  19  31  46  70 105 135 173 207 251 312
#     4  10  21  38  58  78 105 135 168 216 279 353
#
# _framework density 18.608485999999999
#
# number of rings (size 3 to 8) (size 9 to 14) (size 15 to 20)
#    0.000    1.500    1.250    5.250    3.500    2.000 
#    0.000    0.000    0.000    0.750    0.000    0.000 
#    0.000   10.000    0.000    0.000    0.000    0.000 
#
# Total GULP energy -396444.422990 kJ/mol
# GULP energy per Si atom -12388.888218 kJ/mol
# Density = 1.856613 g / cm^3
# Si number density = 18.608486 Si / 1000 Ang^3
#
#
#
# Elastic Constant Matrix: (Units=GPa)
#
#
# Indices 1 2 3 4 5 6 
#
# 1 26.5481 4.2641 3.1218 0.0000 6.8241 0.0000
# 2 4.2641 78.2709 14.9701 0.0000 -5.4469 0.0000
# 3 3.1218 14.9701 99.3846 0.0000 2.4418 0.0000
# 4 0.0000 0.0000 0.0000 20.5858 0.0000 -1.3096
# 5 6.8241 -5.4469 2.4418 0.0000 18.2181 0.0000
# 6 0.0000 0.0000 0.0000 -1.3096 0.0000 19.2590
#
#
#
# Elastic Compliance Matrix: (Units=1/GPa)
#
#
# Indices 1 2 3 4 5 6 
#
# 1 0.042617 -0.003422 -0.000407 0.000000 -0.016932 0.000000
# 2 -0.003422 0.013760 -0.002105 0.000000 0.005678 0.000000
# 3 -0.000407 -0.002105 0.010438 0.000000 -0.001876 0.000000
# 4 0.000000 0.000000 0.000000 0.048788 0.000000 0.003318
# 5 -0.016932 0.005678 -0.001876 0.000000 0.063182 0.000000
# 6 0.000000 0.000000 0.000000 0.003318 0.000000 0.052149
#
#
# Mechanical properties :
#
#
# Convention : Reuss Voigt Hill
#
# Bulk Modulus (GPa) = 18.19923 27.65730 22.92827
# Shear Modulus (GPa) = 19.14836 23.73575 21.44205
#
# Velocity S-wave (km/s) = 3.21130 3.57534 3.39820
# Velocity P-wave (km/s) = 4.85296 5.65146 5.26737
#
# Compressibility (1/GPa) = 0.05494738
#
# Stress axis : x y z
#
# Youngs Moduli (GPa) = 23.46457 72.67308 95.80544
#
# Poissons Ratio (x) = 0.24870 0.03901
# Poissons Ratio (y) = 0.08030 0.20164
# Poissons Ratio (z) = 0.00955 0.15295
#
# Static dielectric constant tensor:
#      x y z
#    x 3.240920 0.000000 -0.078590 
#    y 0.000000 3.169900 0.000000 
#    z -0.078590 0.000000 3.601030 
# 
# 
# High freq. dielectric constant tensor:
#      x y z
#    x 1.690500 0.000000 -0.008770 
#    y 0.000000 1.681050 0.000000 
#    z -0.008770 0.000000 1.752080 
# 
# From -- ./inp_files/26420.got.cif
#   From: 2010.06.25/outbox.cif.g09.slc.cpg/sg12_14_cif.got.tgz:26420.got - 2010.06.28 00:19:55.
