data_PCOD8085075
_publ_section_title
;
Structure prediction by ZEFSAII (Michael W. Deem and Ramdas Pophale) SiO2 
 PCOD8085075
Probable space group: C 2/M
;
_chemical_formula_sum "Si O2"
_cell_formula_units_Z 48
_cell_length_a 16.012056
_cell_length_b 9.200196
_cell_length_c 18.768517
_cell_angle_alpha 90.000000
_cell_angle_beta 64.750140
_cell_angle_gamma 90.000000
_cell_volume 2500.700450
_symmetry_space_group_name_H-M "C 2/M"
_symmetry_group_IT_number 12
_symmetry_cell_setting 'monoclinic'
loop_
_space_group_symop_operation_xyz
x,y,z
-x,y,-z
-x,-y,-z
x,-y,z
1/2+x,1/2+y,z
1/2-x,1/2+y,-z
1/2-x,1/2-y,-z
1/2+x,1/2-y,z
loop_
_atom_site_type_symbol
_atom_site_label
_atom_site_fract_x
_atom_site_fract_y
_atom_site_fract_z
Si Si1 0.673595 0.672407 0.335882
Si Si2 0.004796 0.171349 0.824045
Si Si3 0.171160 0.328652 0.824045
Si Si4 0.663482 0.672794 0.500000
Si Si5 0.990523 0.172407 0.335882
Si Si6 0.291320 0.671440 0.917360
O O1 0.669606 0.500000 0.336498
O O2 0.770967 0.722157 0.266891
O O3 0.655951 0.729366 0.421948
O O4 0.591728 0.735323 0.316544
O O5 0.898251 0.219227 0.871361
O O6 0.071368 0.250000 0.857265
O O7 0.037858 0.222158 0.733109
O O8 0.015259 0.000000 0.831404
O O9 0.153337 0.500000 0.831404
O O10 0.230389 0.280773 0.871361
O O11 0.673923 0.500000 0.500000
O O12 0.750000 0.750000 0.500000
O O13 0.577899 0.729367 0.578052
O O14 0.993894 0.000000 0.336499
O O15 0.284860 0.500000 0.930281
O O16 0.250000 0.750000 0.000000
#
# Coordination Sequence:
#
# PCOD8085075 Si02
#       6
#     8   8   8   8   8   8
#     4   9  16  30  52  76 103 139 183 222 257 307
#     4  10  20  36  58  82 110 144 180 221 269 320
#     4  10  20  36  58  82 110 144 180 221 269 320
#     4  10  19  29  47  75 105 138 178 221 261 305
#     4   9  16  30  52  76 103 139 183 222 257 307
#     4  10  22  40  60  81 109 143 177 220 272 326
#
# _framework density 19.194623
#
# number of rings (size 3 to 8) (size 9 to 14) (size 15 to 20)
#    0.000    2.333    1.667    1.500    0.000    4.000 
#    0.000    3.333    0.000    4.000    0.000    0.000 
#    0.000    0.000    0.000    0.000    0.000    0.000 
#
# Total GULP energy -297471.855267 kJ/mol
# GULP energy per Si atom -12394.660636 kJ/mol
# Density = 1.915094 g / cm^3
# Si number density = 19.194623 Si / 1000 Ang^3
#
#
#
# Elastic Constant Matrix: (Units=GPa)
#
#
# Indices 1 2 3 4 5 6 
#
# 1 172.0724 37.9044 63.3596 0.0000 -0.3424 0.0000
# 2 37.9044 20.8194 30.8656 0.0000 -0.0370 0.0000
# 3 63.3596 30.8656 136.9501 0.0000 0.1563 0.0000
# 4 0.0000 0.0000 0.0000 23.1922 0.0000 -0.0501
# 5 -0.3424 -0.0370 0.1563 0.0000 21.9444 0.0000
# 6 0.0000 0.0000 0.0000 -0.0501 0.0000 32.6887
#
#
#
# Elastic Compliance Matrix: (Units=1/GPa)
#
#
# Indices 1 2 3 4 5 6 
#
# 1 0.009756 -0.016626 -0.000767 0.000000 0.000130 0.000000
# 2 -0.016626 0.100467 -0.014951 0.000000 0.000017 0.000000
# 3 -0.000767 -0.014951 0.011027 0.000000 -0.000116 0.000000
# 4 0.000000 0.000000 0.000000 0.043118 0.000000 0.000066
# 5 0.000130 0.000017 -0.000116 0.000000 0.045573 0.000000
# 6 0.000000 0.000000 0.000000 0.000066 0.000000 0.030592
#
#
# Mechanical properties :
#
#
# Convention : Reuss Voigt Hill
#
# Bulk Modulus (GPa) = 17.67957 66.01122 41.84540
# Shear Modulus (GPa) = 15.42852 28.74586 22.08719
#
# Velocity S-wave (km/s) = 2.83820 3.87408 3.39587
# Velocity P-wave (km/s) = 4.46892 7.38082 6.10113
#
# Compressibility (1/GPa) = 0.05656246
#
# Stress axis : x y z
#
# Youngs Moduli (GPa) = 102.49589 9.95348 90.69004
#
# Poissons Ratio (x) = 0.16548 0.06955
# Poissons Ratio (y) = 1.70407 1.35594
# Poissons Ratio (z) = 0.07860 0.14882
#
# Static dielectric constant tensor:
#      x y z
#    x 3.563370 0.000000 0.008510 
#    y 0.000000 3.019370 0.000000 
#    z 0.008510 0.000000 5.176800 
# 
# 
# High freq. dielectric constant tensor:
#      x y z
#    x 1.761770 0.000000 -0.000030 
#    y 0.000000 1.696790 0.000000 
#    z -0.000030 0.000000 1.755960 
# 
# From -- ./inp_files/212908.got.cif
#   From: 2010.06.25/outbox.cif.g09.slc.cpg/sg12_107_cif.got.tgz:212908.got - 2010.06.28 00:19:55.
