data_PCOD8085618
_publ_section_title
;
Structure prediction by ZEFSAII (Michael W. Deem and Ramdas Pophale) SiO2 
 PCOD8085618
Probable space group: C 2/M
;
_chemical_formula_sum "Si O2"
_cell_formula_units_Z 56
_cell_length_a 5.101520
_cell_length_b 18.122111
_cell_length_c 35.688458
_cell_angle_alpha 90.000000
_cell_angle_beta 110.222119
_cell_angle_gamma 90.000000
_cell_volume 3096.032339
_symmetry_space_group_name_H-M "C 2/M"
_symmetry_group_IT_number 12
_symmetry_cell_setting 'monoclinic'
loop_
_space_group_symop_operation_xyz
x,y,z
-x,y,-z
-x,-y,-z
x,-y,z
1/2+x,1/2+y,z
1/2-x,1/2+y,-z
1/2-x,1/2-y,-z
1/2+x,1/2-y,z
loop_
_atom_site_type_symbol
_atom_site_label
_atom_site_fract_x
_atom_site_fract_y
_atom_site_fract_z
Si Si1 0.811857 0.586036 0.025618
Si Si2 0.530545 0.085458 0.697009
Si Si3 0.822009 0.702513 0.815085
Si Si4 0.653909 0.585192 0.748322
Si Si5 0.669679 0.297109 0.540773
Si Si6 0.704005 0.800159 0.372536
Si Si7 0.472973 0.201602 0.093069
O O1 0.836549 0.500000 0.036047
O O2 0.913913 0.627252 0.067673
O O3 0.500000 0.609598 0.000000
O O4 0.000000 0.609398 0.000000
O O5 0.384837 0.104997 0.728971
O O6 0.399634 0.132929 0.657581
O O7 0.854526 0.106018 0.716439
O O8 0.484735 0.000000 0.684437
O O9 0.580881 0.763748 0.805254
O O10 0.711360 0.630738 0.788559
O O11 0.912604 0.676846 0.860865
O O12 0.663841 0.500000 0.760702
O O13 0.500000 0.343692 0.500000
O O14 0.470806 0.226019 0.539483
O O15 0.713380 0.336936 0.583054
O O16 0.470044 0.737371 0.366140
O O17 0.694723 0.250730 0.082106
#
# Coordination Sequence:
#
# PCOD8085618 Si02
#       7
#     8   8   8   8   8   8   8
#     4  10  21  36  54  78 106 135 169 207 244 284
#     4  10  21  35  49  70 101 130 158 199 247 291
#     4  10  21  36  54  77 103 129 162 207 249 285
#     4  10  21  36  53  72  96 131 168 197 239 297
#     4   8  14  25  41  63  91 119 150 193 238 278
#     4  10  19  30  48  73  95 122 163 201 237 287
#     4  10  21  36  54  78 105 133 166 202 246 296
#
# _framework density 18.087665000000001
#
# number of rings (size 3 to 8) (size 9 to 14) (size 15 to 20)
#    0.000    2.286    0.000    2.571    0.000    5.714 
#    0.000    0.000    0.000   10.714    0.000    0.000 
#    0.000   14.857    0.000    0.000    0.000    2.286 
#
# Total GULP energy -347152.924540 kJ/mol
# GULP energy per Si atom -12398.318734 kJ/mol
# Density = 1.804650 g / cm^3
# Si number density = 18.087665 Si / 1000 Ang^3
#
#
#
# Elastic Constant Matrix: (Units=GPa)
#
#
# Indices 1 2 3 4 5 6 
#
# 1 92.2031 19.5518 22.7497 0.0000 3.8623 0.0000
# 2 19.5518 67.4786 76.0146 0.0000 3.3615 0.0000
# 3 22.7497 76.0146 131.1895 0.0000 6.1175 0.0000
# 4 0.0000 0.0000 0.0000 13.5819 0.0000 4.1478
# 5 3.8623 3.3615 6.1175 0.0000 21.9033 0.0000
# 6 0.0000 0.0000 0.0000 4.1478 0.0000 21.1068
#
#
#
# Elastic Compliance Matrix: (Units=1/GPa)
#
#
# Indices 1 2 3 4 5 6 
#
# 1 0.011608 -0.003167 -0.000106 0.000000 -0.001531 0.000000
# 2 -0.003167 0.043541 -0.024716 0.000000 0.000779 0.000000
# 3 -0.000106 -0.024716 0.022072 0.000000 -0.002353 0.000000
# 4 0.000000 0.000000 0.000000 0.078328 0.000000 -0.015393
# 5 -0.001531 0.000779 -0.002353 0.000000 0.046463 0.000000
# 6 0.000000 0.000000 0.000000 -0.015393 0.000000 0.050403
#
#
# Mechanical properties :
#
#
# Convention : Reuss Voigt Hill
#
# Bulk Modulus (GPa) = 47.07801 58.61148 52.84475
# Shear Modulus (GPa) = 15.84926 22.82208 19.33567
#
# Velocity S-wave (km/s) = 2.96336 3.55596 3.27310
# Velocity P-wave (km/s) = 6.14759 7.02384 6.60027
#
# Compressibility (1/GPa) = 0.02124134
#
# Stress axis : x y z
#
# Youngs Moduli (GPa) = 86.15035 22.96712 45.30713
#
# Poissons Ratio (x) = 0.07274 0.00482
# Poissons Ratio (y) = 0.27286 1.11979
# Poissons Ratio (z) = 0.00916 0.56765
#
# Static dielectric constant tensor:
#      x y z
#    x 3.660810 0.000000 0.031920 
#    y 0.000000 2.975960 0.000000 
#    z 0.031920 0.000000 3.503720 
# 
# 
# High freq. dielectric constant tensor:
#      x y z
#    x 1.727770 0.000000 0.001840 
#    y 0.000000 1.661290 0.000000 
#    z 0.001840 0.000000 1.713930 
# 
# From -- ./inp_files/354948.got.cif
#   From: 2010.06.25/outbox.cif.g09.slc.cpg/sg12_178_cif.got.tgz:354948.got - 2010.06.28 00:19:55.
