data_PCOD8085910
_publ_section_title
;
Structure prediction by ZEFSAII (Michael W. Deem and Ramdas Pophale) SiO2 
 PCOD8085910
Probable space group: C 2/M
;
_chemical_formula_sum "Si O2"
_cell_formula_units_Z 44
_cell_length_a 23.479665
_cell_length_b 14.757198
_cell_length_c 16.361006
_cell_angle_alpha 90.000000
_cell_angle_beta 156.786439
_cell_angle_gamma 90.000000
_cell_volume 2234.486527
_symmetry_space_group_name_H-M "C 2/M"
_symmetry_group_IT_number 12
_symmetry_cell_setting 'monoclinic'
loop_
_space_group_symop_operation_xyz
x,y,z
-x,y,-z
-x,-y,-z
x,-y,z
1/2+x,1/2+y,z
1/2-x,1/2+y,-z
1/2-x,1/2-y,-z
1/2+x,1/2-y,z
loop_
_atom_site_type_symbol
_atom_site_label
_atom_site_fract_x
_atom_site_fract_y
_atom_site_fract_z
Si Si1 0.123484 0.231485 0.597274
Si Si2 0.000000 0.156330 0.000000
Si Si3 0.633077 0.900810 0.342827
Si Si4 0.097531 0.891435 0.409749
Si Si5 0.442370 0.737529 0.083685
Si Si6 0.303870 0.904133 0.392450
O O1 0.114328 0.145356 0.524537
O O2 0.096638 0.322977 0.509344
O O3 0.000000 0.217669 0.500000
O O4 0.273559 0.247101 0.842609
O O5 0.135914 0.100546 0.143790
O O6 0.038502 0.217290 0.129474
O O7 0.749413 0.868072 0.429758
O O8 0.498390 0.836142 0.182093
O O9 0.715784 0.905227 0.536922
O O10 0.572786 0.000000 0.238197
O O11 0.971155 0.837571 0.193053
O O12 0.064640 0.000000 0.366587
O O13 0.368981 0.000000 0.446331
#
# Coordination Sequence:
#
# PCOD8085910 Si02
#       6
#     8   4   8   8   8   8
#     4  11  26  43  61  84 124 169 217 258 291 349
#     4  10  19  30  59  94 124 154 189 248 313 378
#     4  10  19  35  62  93 123 149 189 248 317 379
#     4  11  23  41  65  94 127 162 199 251 316 375
#     4  11  21  38  63  91 125 162 203 249 310 369
#     4  10  19  34  59  90 121 151 191 249 310 366
#
# _framework density 19.691324999999999
#
# number of rings (size 3 to 8) (size 9 to 14) (size 15 to 20)
#    0.000    1.455    3.636    3.000    0.000    5.091 
#    0.000    2.273    0.000    0.000    0.000    0.000 
#    0.000    0.000    0.000    0.000    0.000    0.000 
#
# Total GULP energy -272544.228968 kJ/mol
# GULP energy per Si atom -12388.374044 kJ/mol
# Density = 1.964651 g / cm^3
# Si number density = 19.691325 Si / 1000 Ang^3
#
#
#
# Elastic Constant Matrix: (Units=GPa)
#
#
# Indices 1 2 3 4 5 6 
#
# 1 103.2082 53.7573 37.8239 0.0000 2.0301 0.0000
# 2 53.7573 134.7192 55.5640 0.0000 -1.2975 0.0000
# 3 37.8239 55.5640 93.2590 0.0000 -2.9692 0.0000
# 4 0.0000 0.0000 0.0000 12.2433 0.0000 -8.6646
# 5 2.0301 -1.2975 -2.9692 0.0000 17.3701 0.0000
# 6 0.0000 0.0000 0.0000 -8.6646 0.0000 19.0213
#
#
#
# Elastic Compliance Matrix: (Units=1/GPa)
#
#
# Indices 1 2 3 4 5 6 
#
# 1 0.012866 -0.003943 -0.002943 0.000000 -0.002301 0.000000
# 2 -0.003943 0.011051 -0.004971 0.000000 0.000437 0.000000
# 3 -0.002943 -0.004971 0.014959 0.000000 0.002530 0.000000
# 4 0.000000 0.000000 0.000000 0.120534 0.000000 0.054905
# 5 -0.002301 0.000437 0.002530 0.000000 0.058304 0.000000
# 6 0.000000 0.000000 0.000000 0.054905 0.000000 0.077583
#
#
# Mechanical properties :
#
#
# Convention : Reuss Voigt Hill
#
# Bulk Modulus (GPa) = 65.94973 69.49743 67.72358
# Shear Modulus (GPa) = 15.42910 21.99636 18.71273
#
# Velocity S-wave (km/s) = 2.80223 3.34587 3.08604
# Velocity P-wave (km/s) = 6.63585 7.09200 6.86771
#
# Compressibility (1/GPa) = 0.01516307
#
# Stress axis : x y z
#
# Youngs Moduli (GPa) = 77.72197 90.49336 66.85148
#
# Poissons Ratio (x) = 0.35678 0.19672
# Poissons Ratio (y) = 0.30643 0.33232
# Poissons Ratio (z) = 0.22870 0.44984
#
# Static dielectric constant tensor:
#      x y z
#    x 3.406310 0.000000 -0.313700 
#    y 0.000000 3.990070 0.000000 
#    z -0.313700 0.000000 3.411620 
# 
# 
# High freq. dielectric constant tensor:
#      x y z
#    x 1.744140 0.000000 -0.023320 
#    y 0.000000 1.781010 0.000000 
#    z -0.023320 0.000000 1.754430 
# 
# From -- ./inp_files/189132.got.cif
#   From: 2010.06.25/outbox.cif.g09.slc.cpg/sg12_95_cif.got.tgz:189132.got - 2010.06.28 00:19:55.
