data_PCOD8085864
_publ_section_title
;
Structure prediction by ZEFSAII (Michael W. Deem and Ramdas Pophale) SiO2 
 PCOD8085864
Probable space group: C 2/M
;
_chemical_formula_sum "Si O2"
_cell_formula_units_Z 64
_cell_length_a 33.375563
_cell_length_b 8.900506
_cell_length_c 11.821249
_cell_angle_alpha 90.000000
_cell_angle_beta 94.995823
_cell_angle_gamma 90.000000
_cell_volume 3498.272675
_symmetry_space_group_name_H-M "C 2/M"
_symmetry_group_IT_number 12
_symmetry_cell_setting 'monoclinic'
loop_
_space_group_symop_operation_xyz
x,y,z
-x,y,-z
-x,-y,-z
x,-y,z
1/2+x,1/2+y,z
1/2-x,1/2+y,-z
1/2-x,1/2-y,-z
1/2+x,1/2-y,z
loop_
_atom_site_type_symbol
_atom_site_label
_atom_site_fract_x
_atom_site_fract_y
_atom_site_fract_z
Si Si1 0.572271 0.325635 0.565443
Si Si2 0.022017 0.326518 0.745251
Si Si3 0.857124 0.171506 0.254692
Si Si4 0.431211 0.826779 0.673870
Si Si5 0.879104 0.823440 0.843769
Si Si6 0.420996 0.324773 0.082052
Si Si7 0.702035 0.823486 0.102271
Si Si8 0.283088 0.824597 0.151247
O O1 0.564327 0.500000 0.535798
O O2 0.539356 0.273680 0.648129
O O3 0.617170 0.302049 0.625454
O O4 0.567321 0.225229 0.454523
O O5 0.033132 0.500000 0.726070
O O6 0.040401 0.271315 0.869279
O O7 0.974483 0.302240 0.741392
O O8 0.883804 0.216837 0.153408
O O9 0.817570 0.275015 0.247880
O O10 0.842940 0.000000 0.240744
O O11 0.398469 0.728849 0.731509
O O12 0.418310 0.000000 0.675158
O O13 0.836268 0.746123 0.846352
O O14 0.871933 0.000000 0.840578
O O15 0.909115 0.777138 0.952645
O O16 0.431908 0.500000 0.094942
O O17 0.741885 0.759465 0.172310
O O18 0.700902 0.000000 0.118722
O O19 0.702400 0.777458 0.970549
O O20 0.275159 0.000000 0.159715
#
# Coordination Sequence:
#
# PCOD8085864 Si02
#       8
#     8   8   8   8   8   8   8   8
#     4  10  21  37  58  82 106 138 181 228 273 317
#     4  10  21  36  56  80 108 139 176 227 277 320
#     4   9  17  32  53  79 110 138 172 221 270 314
#     4  11  24  39  54  77 107 143 184 224 271 324
#     4  11  22  37  56  77 108 146 183 223 265 321
#     4   9  19  34  53  78 108 142 179 220 269 321
#     4  10  20  33  51  78 112 146 177 216 262 313
#     4  10  19  30  51  82 111 142 178 214 260 315
#
# _framework density 18.294743
#
# number of rings (size 3 to 8) (size 9 to 14) (size 15 to 20)
#    0.000    2.000    1.250    3.375    0.000    8.500 
#    0.000    2.500    0.000    0.750    0.000    0.000 
#    0.000    0.000    0.000    0.000    0.000    0.000 
#
# Total GULP energy -396926.778447 kJ/mol
# GULP energy per Si atom -12403.961826 kJ/mol
# Density = 1.825310 g / cm^3
# Si number density = 18.294743 Si / 1000 Ang^3
#
#
#
# Elastic Constant Matrix: (Units=GPa)
#
#
# Indices 1 2 3 4 5 6 
#
# 1 98.3432 47.6179 14.5500 0.0000 2.3122 0.0000
# 2 47.6179 73.2637 13.7738 0.0000 6.6684 0.0000
# 3 14.5500 13.7738 27.1226 0.0000 -2.5460 0.0000
# 4 0.0000 0.0000 0.0000 26.8634 0.0000 4.2450
# 5 2.3122 6.6684 -2.5460 0.0000 20.5503 0.0000
# 6 0.0000 0.0000 0.0000 4.2450 0.0000 35.2511
#
#
#
# Elastic Compliance Matrix: (Units=1/GPa)
#
#
# Indices 1 2 3 4 5 6 
#
# 1 0.015141 -0.009300 -0.003315 0.000000 0.000903 0.000000
# 2 -0.009300 0.021548 -0.006589 0.000000 -0.006762 0.000000
# 3 -0.003315 -0.006589 0.042726 0.000000 0.007804 0.000000
# 4 0.000000 0.000000 0.000000 0.037948 0.000000 -0.004570
# 5 0.000903 -0.006762 0.007804 0.000000 0.051721 0.000000
# 6 0.000000 0.000000 0.000000 -0.004570 0.000000 0.028918
#
#
# Mechanical properties :
#
#
# Convention : Reuss Voigt Hill
#
# Bulk Modulus (GPa) = 24.38510 38.95700 31.67105
# Shear Modulus (GPa) = 19.99388 24.71881 22.35635
#
# Velocity S-wave (km/s) = 3.30945 3.67978 3.49952
# Velocity P-wave (km/s) = 5.28784 6.27652 5.80327
#
# Compressibility (1/GPa) = 0.04100865
#
# Stress axis : x y z
#
# Youngs Moduli (GPa) = 66.04764 46.40839 23.40482
#
# Poissons Ratio (x) = 0.43159 0.07758
# Poissons Ratio (y) = 0.61422 0.15420
# Poissons Ratio (z) = 0.21893 0.30577
#
# Static dielectric constant tensor:
#      x y z
#    x 3.347460 0.000000 0.189710 
#    y 0.000000 3.406840 0.000000 
#    z 0.189710 0.000000 3.183440 
# 
# 
# High freq. dielectric constant tensor:
#      x y z
#    x 1.708980 0.000000 0.015480 
#    y 0.000000 1.721050 0.000000 
#    z 0.015480 0.000000 1.682960 
# 
# From -- ./inp_files/187409.got.cif
#   From: 2010.06.25/outbox.cif.g09.slc.cpg/sg12_94_cif.got.tgz:187409.got - 2010.06.28 00:19:55.
