data_PCOD8085262
_publ_section_title
;
Structure prediction by ZEFSAII (Michael W. Deem and Ramdas Pophale) SiO2 
 PCOD8085262
Probable space group: C 2/M
;
_chemical_formula_sum "Si O2"
_cell_formula_units_Z 56
_cell_length_a 18.373596
_cell_length_b 9.340625
_cell_length_c 18.035549
_cell_angle_alpha 90.000000
_cell_angle_beta 96.645378
_cell_angle_gamma 90.000000
_cell_volume 3074.480763
_symmetry_space_group_name_H-M "C 2/M"
_symmetry_group_IT_number 12
_symmetry_cell_setting 'monoclinic'
loop_
_space_group_symop_operation_xyz
x,y,z
-x,y,-z
-x,-y,-z
x,-y,z
1/2+x,1/2+y,z
1/2-x,1/2+y,-z
1/2-x,1/2-y,-z
1/2+x,1/2-y,z
loop_
_atom_site_type_symbol
_atom_site_label
_atom_site_fract_x
_atom_site_fract_y
_atom_site_fract_z
Si Si1 0.853767 0.333692 0.559422
Si Si2 0.055404 0.833661 0.313693
Si Si3 0.690021 0.334540 0.585968
Si Si4 0.895482 0.339853 0.135964
Si Si5 0.115442 0.836072 0.726730
Si Si6 0.580008 0.170094 0.017314
Si Si7 0.930233 0.661149 0.824590
O O1 0.875019 0.500000 0.554715
O O2 0.915566 0.250586 0.611895
O O3 0.776839 0.312809 0.591995
O O4 0.851101 0.264980 0.477794
O O5 0.092028 0.769082 0.243501
O O6 0.968857 0.808347 0.302884
O O7 0.076579 0.000000 0.321757
O O8 0.668118 0.500000 0.568717
O O9 0.664490 0.282983 0.663910
O O10 0.866136 0.500000 0.144640
O O11 0.859409 0.245349 0.196081
O O12 0.983218 0.335754 0.151099
O O13 0.872822 0.282186 0.050103
O O14 0.130831 0.000000 0.745606
O O15 0.610825 0.210092 0.103221
O O16 0.572149 0.000000 0.011916
O O17 0.500000 0.241473 0.000000
O O18 0.905963 0.500000 0.799101
#
# Coordination Sequence:
#
# PCOD8085262 Si02
#       7
#     8   8   8   8   8   8   8
#     4  10  20  34  52  70  87 112 149 188 222 260
#     4  10  19  30  45  67  96 123 146 178 222 268
#     4   9  19  36  53  67  87 116 149 183 220 265
#     4   8  13  22  38  61  88 117 149 184 219 255
#     4   9  18  31  46  66  93 123 149 176 219 270
#     4   7  10  18  34  56  83 116 149 180 216 255
#     4   8  13  23  39  59  86 119 153 184 214 255
#
# _framework density 18.214458
#
# number of rings (size 3 to 8) (size 9 to 14) (size 15 to 20)
#    0.000    3.286    0.000    2.571    0.000    2.286 
#    0.000    3.571    0.000    4.286    0.000    1.000 
#    0.000    0.000    0.000    0.000    0.000    0.000 
#
# Total GULP energy -346932.021445 kJ/mol
# GULP energy per Si atom -12390.429337 kJ/mol
# Density = 1.817300 g / cm^3
# Si number density = 18.214458 Si / 1000 Ang^3
#
#
#
# Elastic Constant Matrix: (Units=GPa)
#
#
# Indices 1 2 3 4 5 6 
#
# 1 19.7707 16.7104 28.7810 0.0000 -17.5042 0.0000
# 2 16.7104 73.0400 38.0465 0.0000 -16.7084 0.0000
# 3 28.7810 38.0465 93.3870 0.0000 -45.5547 0.0000
# 4 0.0000 0.0000 0.0000 31.0255 0.0000 -2.6451
# 5 -17.5042 -16.7084 -45.5547 0.0000 26.4928 0.0000
# 6 0.0000 0.0000 0.0000 -2.6451 0.0000 15.6292
#
#
#
# Elastic Compliance Matrix: (Units=1/GPa)
#
#
# Indices 1 2 3 4 5 6 
#
# 1 0.136079 -0.015557 0.021537 0.000000 0.117131 0.000000
# 2 -0.015557 0.019403 -0.013369 0.000000 -0.021029 0.000000
# 3 0.021537 -0.013369 0.076580 0.000000 0.137479 0.000000
# 4 0.000000 0.000000 0.000000 0.032703 0.000000 0.005535
# 5 0.117131 -0.021029 0.137479 0.000000 0.338272 0.000000
# 6 0.000000 0.000000 0.000000 0.005535 0.000000 0.064919
#
#
# Mechanical properties :
#
#
# Convention : Reuss Voigt Hill
#
# Bulk Modulus (GPa) = 4.60223 39.25260 21.92741
# Shear Modulus (GPa) = 6.62108 21.47349 14.04729
#
# Velocity S-wave (km/s) = 1.90865 3.43727 2.78009
# Velocity P-wave (km/s) = 2.71836 6.11148 4.72967
#
# Compressibility (1/GPa) = 0.21728617
#
# Stress axis : x y z
#
# Youngs Moduli (GPa) = 7.34865 51.53713 13.05819
#
# Poissons Ratio (x) = 0.80174 -0.28123
# Poissons Ratio (y) = 0.11432 0.17457
# Poissons Ratio (z) = -0.15827 0.68898
#
# Static dielectric constant tensor:
#      x y z
#    x 2.891260 0.000000 -0.263270 
#    y 0.000000 3.287770 0.000000 
#    z -0.263270 0.000000 3.770710 
# 
# 
# High freq. dielectric constant tensor:
#      x y z
#    x 1.648870 0.000000 -0.018800 
#    y 0.000000 1.690570 0.000000 
#    z -0.018800 0.000000 1.725050 
# 
# From -- ./inp_files/280425.got.cif
#   From: 2010.06.25/outbox.cif.g09.slc.cpg/sg12_141_cif.got.tgz:280425.got - 2010.06.28 00:19:55.
