data_PCOD8085721
_publ_section_title
;
Structure prediction by ZEFSAII (Michael W. Deem and Ramdas Pophale) SiO2 
 PCOD8085721
Probable space group: C 2/M
;
_chemical_formula_sum "Si O2"
_cell_formula_units_Z 36
_cell_length_a 5.044932
_cell_length_b 17.314511
_cell_length_c 24.132562
_cell_angle_alpha 90.000000
_cell_angle_beta 114.529435
_cell_angle_gamma 90.000000
_cell_volume 1917.741819
_symmetry_space_group_name_H-M "C 2/M"
_symmetry_group_IT_number 12
_symmetry_cell_setting 'monoclinic'
loop_
_space_group_symop_operation_xyz
x,y,z
-x,y,-z
-x,-y,-z
x,-y,z
1/2+x,1/2+y,z
1/2-x,1/2+y,-z
1/2-x,1/2-y,-z
1/2+x,1/2-y,z
loop_
_atom_site_type_symbol
_atom_site_label
_atom_site_fract_x
_atom_site_fract_y
_atom_site_fract_z
Si Si1 0.000000 0.695402 0.000000
Si Si2 0.159305 0.411056 0.805555
Si Si3 0.178803 0.410521 0.116123
Si Si4 0.855447 0.301874 0.693223
Si Si5 0.305413 0.300198 0.437524
O O1 0.873984 0.641015 0.941670
O O2 0.250000 0.750000 0.000000
O O3 0.080481 0.500000 0.789445
O O4 0.501202 0.394885 0.832172
O O5 0.047189 0.384715 0.856163
O O6 0.003867 0.365678 0.743470
O O7 0.138539 0.500000 0.095751
O O8 0.574060 0.268903 0.700249
O O9 0.761107 0.343047 0.626642
O O10 0.500000 0.348353 0.500000
O O11 0.501344 0.224730 0.438883
#
# Coordination Sequence:
#
# PCOD8085721 Si02
#       5
#     4   8   8   8   8
#     4  12  25  38  57  84 106 126 160 210 255 284
#     4  10  21  36  54  75 101 134 168 202 243 294
#     4  10  22  40  57  73 100 138 169 194 239 304
#     4  10  19  30  49  75 100 129 165 208 252 289
#     4   8  14  25  41  64  94 126 161 199 240 289
#
# _framework density 18.772079000000002
#
# number of rings (size 3 to 8) (size 9 to 14) (size 15 to 20)
#    0.000    2.222    0.000    3.000    0.000    5.333 
#    0.000    4.444    0.000    0.667    0.000    0.000 
#    0.000   23.111    0.000    0.000    0.000    3.556 
#
# Total GULP energy -223107.161604 kJ/mol
# GULP energy per Si atom -12394.842311 kJ/mol
# Density = 1.872935 g / cm^3
# Si number density = 18.772079 Si / 1000 Ang^3
#
#
#
# Elastic Constant Matrix: (Units=GPa)
#
#
# Indices 1 2 3 4 5 6 
#
# 1 84.3767 18.0783 5.7404 0.0000 -3.4778 0.0000
# 2 18.0783 54.4289 63.8535 0.0000 -1.3109 0.0000
# 3 5.7404 63.8535 144.3709 0.0000 0.4085 0.0000
# 4 0.0000 0.0000 0.0000 -54.6545 0.0000 -9.7857
# 5 -3.4778 -1.3109 0.4085 0.0000 23.7695 0.0000
# 6 0.0000 0.0000 0.0000 -9.7857 0.0000 17.9772
#
#
#
# Elastic Compliance Matrix: (Units=1/GPa)
#
#
# Indices 1 2 3 4 5 6 
#
# 1 0.013398 -0.007866 0.002942 0.000000 0.001476 0.000000
# 2 -0.007866 0.042942 -0.018684 0.000000 0.001539 0.000000
# 3 0.002942 -0.018684 0.015076 0.000000 -0.000859 0.000000
# 4 0.000000 0.000000 0.000000 -0.016672 0.000000 -0.009075
# 5 0.001476 0.001539 -0.000859 0.000000 0.042386 0.000000
# 6 0.000000 0.000000 0.000000 -0.009075 0.000000 0.050686
#
#
# Mechanical properties :
#
#
# Convention : Reuss Voigt Hill
#
# Bulk Modulus (GPa) = 41.32381 50.94675 46.13528
# Shear Modulus (GPa) = 24.61860 10.45205 17.53532
#
# Velocity S-wave (km/s) = 3.62532 2.36219 3.05965
# Velocity P-wave (km/s) = 6.29167 5.88545 6.09195
#
# Compressibility (1/GPa) = 0.02419913
#
# Stress axis : x y z
#
# Youngs Moduli (GPa) = 74.64005 23.28732 66.33119
#
# Poissons Ratio (x) = 0.18318 -0.19516
# Poissons Ratio (y) = 0.58712 1.23935
# Poissons Ratio (z) = -0.21960 0.43511
#
# Static dielectric constant tensor:
#      x y z
#    x 3.753670 0.000000 -0.016620 
#    y 0.000000 3.066180 0.000000 
#    z -0.016620 0.000000 3.807930 
# 
# 
# High freq. dielectric constant tensor:
#      x y z
#    x 1.755790 0.000000 0.000060 
#    y 0.000000 1.671850 0.000000 
#    z 0.000060 0.000000 1.754360 
# 
# From -- ./inp_files/252507.got.cif
#   From: 2010.06.25/outbox.cif.g09.slc.cpg/sg12_127_cif.got.tgz:252507.got - 2010.06.28 00:19:55.
