data_PCOD8085428
_publ_section_title
;
Structure prediction by ZEFSAII (Michael W. Deem and Ramdas Pophale) SiO2 
 PCOD8085428
Probable space group: C 2/M
;
_chemical_formula_sum "Si O2"
_cell_formula_units_Z 56
_cell_length_a 23.654423
_cell_length_b 9.397673
_cell_length_c 15.015819
_cell_angle_alpha 90.000000
_cell_angle_beta 59.675610
_cell_angle_gamma 90.000000
_cell_volume 2881.266536
_symmetry_space_group_name_H-M "C 2/M"
_symmetry_group_IT_number 12
_symmetry_cell_setting 'monoclinic'
loop_
_space_group_symop_operation_xyz
x,y,z
-x,y,-z
-x,-y,-z
x,-y,z
1/2+x,1/2+y,z
1/2-x,1/2+y,-z
1/2-x,1/2-y,-z
1/2+x,1/2-y,z
loop_
_atom_site_type_symbol
_atom_site_label
_atom_site_fract_x
_atom_site_fract_y
_atom_site_fract_z
Si Si1 0.787815 0.666497 0.391620
Si Si2 0.734252 0.158690 0.791469
Si Si3 0.440483 0.666506 0.818698
Si Si4 0.380557 0.656773 0.685467
Si Si5 0.803782 0.168734 0.017001
Si Si6 0.433007 0.158433 0.500844
Si Si7 0.063172 0.333318 0.701174
O O1 0.779243 0.500000 0.420186
O O2 0.750000 0.750000 0.500000
O O3 0.760124 0.706811 0.316313
O O4 0.864540 0.707815 0.323562
O O5 0.806115 0.150214 0.777764
O O6 0.695838 0.273046 0.881730
O O7 0.701881 0.000000 0.822184
O O8 0.455809 0.500000 0.810082
O O9 0.424142 0.718229 0.731131
O O10 0.505478 0.750434 0.800396
O O11 0.377431 0.703381 0.927798
O O12 0.406131 0.500000 0.639597
O O13 0.380968 0.751083 0.596853
O O14 0.788666 0.000000 0.026700
O O15 0.750000 0.250000 0.000000
O O16 0.500000 0.164093 0.500000
O O17 0.441711 0.221610 0.396287
O O18 0.404358 0.000000 0.516172
O O19 0.048820 0.500000 0.722572
#
# Coordination Sequence:
#
# PCOD8085428 Si02
#       7
#     8   8   8   8   8   8   8
#     4  10  22  40  63  87 118 156 199 246 290 345
#     4  10  21  39  59  84 116 152 195 244 292 343
#     4  10  21  36  54  81 114 146 184 233 288 348
#     4  10  19  32  51  77 110 143 182 228 280 343
#     4  11  22  38  60  88 120 153 193 242 295 352
#     4  10  19  30  46  74 110 142 179 226 279 339
#     4  10  21  37  55  80 114 152 193 238 288 344
#
# _framework density 19.435898000000002
#
# number of rings (size 3 to 8) (size 9 to 14) (size 15 to 20)
#    0.000    1.857    2.857    1.286    0.000    3.714 
#    0.000    0.714    0.000    4.286    0.000    0.000 
#    0.000    0.000    0.000    0.000    0.000    0.000 
#
# Total GULP energy -347067.677207 kJ/mol
# GULP energy per Si atom -12395.274186 kJ/mol
# Density = 1.939166 g / cm^3
# Si number density = 19.435898 Si / 1000 Ang^3
#
#
#
# Elastic Constant Matrix: (Units=GPa)
#
#
# Indices 1 2 3 4 5 6 
#
# 1 87.9203 35.9142 35.2576 0.0000 -14.9865 0.0000
# 2 35.9142 82.9976 63.7042 0.0000 -10.6186 -0.0001
# 3 35.2576 63.7042 106.4688 0.0000 -11.3040 0.0000
# 4 0.0000 0.0000 0.0000 37.8079 0.0000 -5.2225
# 5 -14.9865 -10.6186 -11.3040 0.0000 31.7308 0.0000
# 6 0.0000 -0.0001 0.0000 -5.2225 0.0000 25.4472
#
#
#
# Elastic Compliance Matrix: (Units=1/GPa)
#
#
# Indices 1 2 3 4 5 6 
#
# 1 0.014693 -0.004434 -0.001697 0.000000 0.004851 0.000000
# 2 -0.004434 0.023864 -0.012664 0.000000 0.001380 0.000000
# 3 -0.001697 -0.012664 0.017665 0.000000 0.001254 0.000000
# 4 0.000000 0.000000 0.000000 0.027221 0.000000 0.005587
# 5 0.004851 0.001380 0.001254 0.000000 0.034715 0.000000
# 6 0.000000 0.000000 0.000000 0.005587 0.000000 0.040444
#
#
# Mechanical properties :
#
#
# Convention : Reuss Voigt Hill
#
# Bulk Modulus (GPa) = 53.67485 60.79319 57.23402
# Shear Modulus (GPa) = 24.70336 28.49788 26.60062
#
# Velocity S-wave (km/s) = 3.56900 3.83332 3.70352
# Velocity P-wave (km/s) = 6.68281 7.13717 6.91372
#
# Compressibility (1/GPa) = 0.01863070
#
# Stress axis : x y z
#
# Youngs Moduli (GPa) = 68.06034 41.90441 56.61023
#
# Poissons Ratio (x) = 0.18582 0.09608
# Poissons Ratio (y) = 0.30181 0.71689
# Poissons Ratio (z) = 0.11552 0.53066
#
# Static dielectric constant tensor:
#      x y z
#    x 3.492660 0.000000 -0.015950 
#    y 0.000000 3.564440 0.000000 
#    z -0.015950 0.000000 3.498340 
# 
# 
# High freq. dielectric constant tensor:
#      x y z
#    x 1.750140 0.000000 -0.006120 
#    y 0.000000 1.750160 0.000000 
#    z -0.006120 0.000000 1.750560 
# 
# From -- ./inp_files/238385.got.cif
#   From: 2010.06.25/outbox.cif.g09.slc.cpg/sg12_120_cif.got.tgz:238385.got - 2010.06.28 00:19:55.
