data_PCOD8085965
_publ_section_title
;
Structure prediction by ZEFSAII (Michael W. Deem and Ramdas Pophale) SiO2 
 PCOD8085965
Probable space group: C 2/M
;
_chemical_formula_sum "Si O2"
_cell_formula_units_Z 56
_cell_length_a 26.900582
_cell_length_b 8.595965
_cell_length_c 17.429345
_cell_angle_alpha 90.000000
_cell_angle_beta 53.773725
_cell_angle_gamma 90.000000
_cell_volume 3251.200275
_symmetry_space_group_name_H-M "C 2/M"
_symmetry_group_IT_number 12
_symmetry_cell_setting 'monoclinic'
loop_
_space_group_symop_operation_xyz
x,y,z
-x,y,-z
-x,-y,-z
x,-y,z
1/2+x,1/2+y,z
1/2-x,1/2+y,-z
1/2-x,1/2-y,-z
1/2+x,1/2-y,z
loop_
_atom_site_type_symbol
_atom_site_label
_atom_site_fract_x
_atom_site_fract_y
_atom_site_fract_z
Si Si1 0.516964 0.676950 0.717754
Si Si2 0.674460 0.816096 0.435173
Si Si3 0.515861 0.182076 0.099140
Si Si4 0.408072 0.317273 0.099977
Si Si5 0.535173 0.183761 0.543121
Si Si6 0.161663 0.821184 0.607192
Si Si7 0.293799 0.818040 0.277496
O O1 0.494748 0.500000 0.742997
O O2 0.479895 0.774971 0.815158
O O3 0.501836 0.742031 0.647217
O O4 0.588780 0.694275 0.668143
O O5 0.606326 0.762302 0.471798
O O6 0.691817 0.748009 0.502821
O O7 0.724167 0.746282 0.330197
O O8 0.679888 0.000000 0.432793
O O9 0.449915 0.231699 0.125140
O O10 0.525135 0.000000 0.079105
O O11 0.570432 0.271328 0.004865
O O12 0.415289 0.500000 0.106606
O O13 0.337482 0.266338 0.175686
O O14 0.500000 0.244398 0.500000
O O15 0.530589 0.000000 0.555940
O O16 0.183351 0.718925 0.658149
O O17 0.182260 0.000000 0.599528
O O18 0.295303 0.000000 0.260298
#
# Coordination Sequence:
#
# PCOD8085965 Si02
#       7
#     8   8   8   8   8   8   8
#     4  10  19  31  50  74 101 133 168 206 248 295
#     4  10  20  33  49  69  96 128 164 203 248 298
#     4  11  20  32  49  71  99 133 171 207 246 289
#     4  11  21  33  48  68  98 134 172 210 246 285
#     4   9  19  36  56  77 100 127 163 208 255 302
#     4  10  19  31  46  66  96 131 168 204 241 287
#     4  12  22  32  46  67  97 133 171 204 243 290
#
# _framework density 17.224408
#
# number of rings (size 3 to 8) (size 9 to 14) (size 15 to 20)
#    0.000    1.571    1.429    6.429    0.000    2.000 
#    0.000    0.000    0.000    0.000    0.000    1.000 
#    0.000    0.000    0.000    0.000    0.000    0.000 
#
# Total GULP energy -347281.642133 kJ/mol
# GULP energy per Si atom -12402.915790 kJ/mol
# Density = 1.718520 g / cm^3
# Si number density = 17.224408 Si / 1000 Ang^3
#
#
#
# Elastic Constant Matrix: (Units=GPa)
#
#
# Indices 1 2 3 4 5 6 
#
# 1 59.5424 16.0956 36.6952 0.0000 8.7467 0.0000
# 2 16.0956 72.5686 27.0524 -0.0007 -0.2339 0.0003
# 3 36.6952 27.0524 123.8707 -0.0002 -1.6751 0.0000
# 4 0.0000 -0.0007 -0.0002 32.6606 0.0000 -0.5478
# 5 8.7467 -0.2339 -1.6751 0.0000 21.3714 0.0000
# 6 0.0000 0.0003 0.0000 -0.5478 0.0000 16.9768
#
#
#
# Elastic Compliance Matrix: (Units=1/GPa)
#
#
# Indices 1 2 3 4 5 6 
#
# 1 0.022881 -0.002754 -0.006310 0.000000 -0.009889 0.000000
# 2 -0.002754 0.015333 -0.002518 0.000000 0.001098 0.000000
# 3 -0.006310 -0.002518 0.010538 0.000000 0.003381 0.000000
# 4 0.000000 0.000000 0.000000 0.030635 0.000000 0.000989
# 5 -0.009889 0.001098 0.003381 0.000000 0.051116 0.000000
# 6 0.000000 0.000000 0.000000 0.000989 0.000000 0.058936
#
#
# Mechanical properties :
#
#
# Convention : Reuss Voigt Hill
#
# Bulk Modulus (GPa) = 39.08271 46.18536 42.63404
# Shear Modulus (GPa) = 22.61085 25.94432 24.27759
#
# Velocity S-wave (km/s) = 3.62708 3.88526 3.75839
# Velocity P-wave (km/s) = 6.34669 6.85559 6.60604
#
# Compressibility (1/GPa) = 0.02558676
#
# Stress axis : x y z
#
# Youngs Moduli (GPa) = 43.70412 65.21821 94.89540
#
# Poissons Ratio (x) = 0.17964 0.59883
# Poissons Ratio (y) = 0.12038 0.23893
# Poissons Ratio (z) = 0.27579 0.16421
#
# Static dielectric constant tensor:
#      x y z
#    x 2.970350 0.000000 -0.104440 
#    y 0.000000 3.300080 0.000000 
#    z -0.104440 0.000000 3.467870 
# 
# 
# High freq. dielectric constant tensor:
#      x y z
#    x 1.611830 0.000000 -0.008410 
#    y 0.000000 1.681620 0.000000 
#    z -0.008410 0.000000 1.672830 
# 
# From -- ./inp_files/291855.got.cif
#   From: 2010.06.25/outbox.cif.g09.slc.cpg/sg12_146_cif.got.tgz:291855.got - 2010.06.28 00:19:55.
