data_PCOD8085073
_publ_section_title
;
Structure prediction by ZEFSAII (Michael W. Deem and Ramdas Pophale) SiO2 
 PCOD8085073
Probable space group: C 2/M
;
_chemical_formula_sum "Si O2"
_cell_formula_units_Z 56
_cell_length_a 22.669916
_cell_length_b 9.387901
_cell_length_c 16.018818
_cell_angle_alpha 90.000000
_cell_angle_beta 60.433581
_cell_angle_gamma 90.000000
_cell_volume 2965.243980
_symmetry_space_group_name_H-M "C 2/M"
_symmetry_group_IT_number 12
_symmetry_cell_setting 'monoclinic'
loop_
_space_group_symop_operation_xyz
x,y,z
-x,y,-z
-x,-y,-z
x,-y,z
1/2+x,1/2+y,z
1/2-x,1/2+y,-z
1/2-x,1/2-y,-z
1/2+x,1/2-y,z
loop_
_atom_site_type_symbol
_atom_site_label
_atom_site_fract_x
_atom_site_fract_y
_atom_site_fract_z
Si Si1 0.438119 0.661854 0.878624
Si Si2 0.842846 0.664759 0.623602
Si Si3 0.593466 0.665785 0.786507
Si Si4 0.221255 0.164416 0.597416
Si Si5 0.080237 0.660859 0.954255
Si Si6 0.034826 0.655313 0.564359
Si Si7 0.081712 0.163940 0.292726
O O1 0.433098 0.500000 0.914881
O O2 0.517355 0.702112 0.810805
O O3 0.399056 0.679589 0.818094
O O4 0.401278 0.762955 0.971302
O O5 0.855663 0.500000 0.638584
O O6 0.765977 0.693775 0.649524
O O7 0.888627 0.706253 0.510170
O O8 0.861592 0.757509 0.691691
O O9 0.602628 0.500000 0.802424
O O10 0.644375 0.708929 0.675485
O O11 0.614136 0.755345 0.854011
O O12 0.250000 0.250000 0.500000
O O13 0.225518 0.000000 0.568795
O O14 0.108263 0.500000 0.936560
O O15 0.000000 0.665049 0.000000
O O16 0.034479 0.500000 0.610171
O O17 0.000000 0.638316 0.500000
O O18 0.993872 0.771173 0.645806
O O19 0.078407 0.000000 0.322805
#
# Coordination Sequence:
#
# PCOD8085073 Si02
#       7
#     8   8   8   8   8   8   8
#     4   9  18  31  49  76 106 131 160 202 255 308
#     4   9  19  35  49  66  97 135 171 205 248 299
#     4   9  18  34  53  72 101 137 166 201 253 302
#     4  10  22  37  54  75 100 136 177 211 246 294
#     4   9  17  30  50  77 103 128 163 204 249 301
#     4   8  15  28  44  62  91 129 163 198 245 294
#     4  10  19  29  47  75 100 127 165 209 252 296
#
# _framework density 18.885460999999999
#
# number of rings (size 3 to 8) (size 9 to 14) (size 15 to 20)
#    0.000    2.857    0.000    1.714    2.000    6.571 
#    0.000    0.000    0.000    0.857    0.000    0.000 
#    0.000    0.000    0.000    0.000    0.000    0.000 
#
# Total GULP energy -347073.237023 kJ/mol
# GULP energy per Si atom -12395.472751 kJ/mol
# Density = 1.884248 g / cm^3
# Si number density = 18.885461 Si / 1000 Ang^3
#
#
#
# Elastic Constant Matrix: (Units=GPa)
#
#
# Indices 1 2 3 4 5 6 
#
# 1 41.2206 24.3671 21.2434 0.0000 6.4457 0.0000
# 2 24.3671 101.2456 57.0443 0.0000 14.5670 0.0000
# 3 21.2434 57.0443 98.3851 0.0000 13.1749 0.0000
# 4 0.0000 0.0000 0.0000 31.4074 0.0000 4.0196
# 5 6.4457 14.5670 13.1749 0.0000 22.9910 0.0000
# 6 0.0000 0.0000 0.0000 4.0196 0.0000 17.9176
#
#
#
# Elastic Compliance Matrix: (Units=1/GPa)
#
#
# Indices 1 2 3 4 5 6 
#
# 1 0.029215 -0.004820 -0.003060 0.000000 -0.003383 0.000000
# 2 -0.004820 0.015968 -0.007629 0.000000 -0.004394 0.000000
# 3 -0.003060 -0.007629 0.015690 0.000000 -0.003300 0.000000
# 4 0.000000 0.000000 0.000000 0.032781 0.000000 -0.007354
# 5 -0.003383 -0.004394 -0.003300 0.000000 0.049118 0.000000
# 6 0.000000 0.000000 0.000000 -0.007354 0.000000 0.057461
#
#
# Mechanical properties :
#
#
# Convention : Reuss Voigt Hill
#
# Bulk Modulus (GPa) = 33.49657 49.57343 41.53500
# Shear Modulus (GPa) = 20.72940 23.67631 22.20285
#
# Velocity S-wave (km/s) = 3.31666 3.54457 3.43251
# Velocity P-wave (km/s) = 5.69580 6.56190 6.14413
#
# Compressibility (1/GPa) = 0.02985380
#
# Stress axis : x y z
#
# Youngs Moduli (GPa) = 34.22861 62.62685 63.73463
#
# Poissons Ratio (x) = 0.30189 0.19505
# Poissons Ratio (y) = 0.16500 0.48622
# Poissons Ratio (z) = 0.10475 0.47777
#
# Static dielectric constant tensor:
#      x y z
#    x 3.402620 0.000000 -0.167580 
#    y 0.000000 3.513000 0.000000 
#    z -0.167580 0.000000 3.473440 
# 
# 
# High freq. dielectric constant tensor:
#      x y z
#    x 1.706190 0.000000 0.010620 
#    y 0.000000 1.734690 0.000000 
#    z 0.010620 0.000000 1.717520 
# 
# From -- ./inp_files/291450.got.cif
#   From: 2010.06.25/outbox.cif.g09.slc.cpg/sg12_146_cif.got.tgz:291450.got - 2010.06.28 00:19:55.
