data_PCOD8085142
_publ_section_title
;
Structure prediction by ZEFSAII (Michael W. Deem and Ramdas Pophale) SiO2 
 PCOD8085142
Probable space group: C 2/M
;
_chemical_formula_sum "Si O2"
_cell_formula_units_Z 64
_cell_length_a 28.170003
_cell_length_b 9.352825
_cell_length_c 13.798996
_cell_angle_alpha 90.000000
_cell_angle_beta 88.685088
_cell_angle_gamma 90.000000
_cell_volume 3634.651810
_symmetry_space_group_name_H-M "C 2/M"
_symmetry_group_IT_number 12
_symmetry_cell_setting 'monoclinic'
loop_
_space_group_symop_operation_xyz
x,y,z
-x,y,-z
-x,-y,-z
x,-y,z
1/2+x,1/2+y,z
1/2-x,1/2+y,-z
1/2-x,1/2-y,-z
1/2+x,1/2-y,z
loop_
_atom_site_type_symbol
_atom_site_label
_atom_site_fract_x
_atom_site_fract_y
_atom_site_fract_z
Si Si1 0.299303 0.331292 0.999428
Si Si2 0.554420 0.334034 0.506358
Si Si3 0.909092 0.659904 0.664876
Si Si4 0.579402 0.665102 0.725088
Si Si5 0.129179 0.155406 0.167073
Si Si6 0.874276 0.666909 0.121097
Si Si7 0.450892 0.259399 0.966836
Si Si8 0.502034 0.848807 0.212026
O O1 0.293499 0.500000 0.023468
O O2 0.323103 0.307808 0.893459
O O3 0.250000 0.250000 0.000000
O O4 0.331337 0.255416 0.078270
O O5 0.500000 0.279420 0.500000
O O6 0.556185 0.500000 0.477687
O O7 0.590035 0.249126 0.434390
O O8 0.575656 0.306256 0.611516
O O9 0.890048 0.500000 0.645445
O O10 0.875328 0.729981 0.747528
O O11 0.962496 0.658646 0.699880
O O12 0.589612 0.500000 0.748948
O O13 0.619355 0.766144 0.771542
O O14 0.530071 0.708491 0.778731
O O15 0.085458 0.142792 0.092203
O O16 0.133002 0.000000 0.216114
O O17 0.860973 0.500000 0.127422
O O18 0.923319 0.686883 0.058157
O O19 0.468913 0.140739 0.889728
O O20 0.500000 0.338602 0.000000
O O21 0.473052 0.000000 0.221744
#
# Coordination Sequence:
#
# PCOD8085142 Si02
#       8
#     8   8   8   8   8   8   8   8
#     4  10  21  39  62  87 111 138 173 214 265 322
#     4  10  20  34  49  67  95 141 190 232 274 315
#     4  10  20  32  49  72  99 133 176 226 268 308
#     4  11  22  33  46  67  98 135 181 226 265 311
#     4   9  20  35  51  76 107 138 174 215 259 315
#     4  11  22  36  53  74 106 142 178 221 267 316
#     4  10  19  30  44  71  99 140 182 215 253 302
#     4  10  19  30  43  63  92 132 176 217 260 303
#
# _framework density 17.60829
#
# number of rings (size 3 to 8) (size 9 to 14) (size 15 to 20)
#    0.000    1.875    2.500    1.875    0.000    8.000 
#    0.000    0.000    0.000    0.000    0.000    0.875 
#    0.000    0.000    0.000    0.000    0.000    0.000 
#
# Total GULP energy -396519.564902 kJ/mol
# GULP energy per Si atom -12391.236403 kJ/mol
# Density = 1.756821 g / cm^3
# Si number density = 17.608290 Si / 1000 Ang^3
#
#
#
# Elastic Constant Matrix: (Units=GPa)
#
#
# Indices 1 2 3 4 5 6 
#
# 1 88.6709 47.9034 32.4174 0.0000 -0.9894 0.0000
# 2 47.9034 133.6307 63.0602 0.0000 -6.2631 0.0000
# 3 32.4174 63.0602 105.5607 0.0000 -5.3788 0.0000
# 4 0.0000 0.0000 0.0000 21.2544 0.0000 2.6072
# 5 -0.9894 -6.2631 -5.3788 0.0000 15.8742 0.0000
# 6 0.0000 0.0000 0.0000 2.6072 0.0000 20.9929
#
#
#
# Elastic Compliance Matrix: (Units=1/GPa)
#
#
# Indices 1 2 3 4 5 6 
#
# 1 0.014271 -0.004290 -0.001893 0.000000 -0.001445 0.000000
# 2 -0.004290 0.011776 -0.005591 0.000000 0.002484 0.000000
# 3 -0.001893 -0.005591 0.013509 0.000000 0.002254 0.000000
# 4 0.000000 0.000000 0.000000 0.047777 0.000000 -0.005934
# 5 -0.001445 0.002484 0.002254 0.000000 0.064649 0.000000
# 6 0.000000 0.000000 0.000000 -0.005934 0.000000 0.048372
#
#
# Mechanical properties :
#
#
# Convention : Reuss Voigt Hill
#
# Bulk Modulus (GPa) = 62.46829 68.29158 65.37993
# Shear Modulus (GPa) = 21.81128 23.92307 22.86718
#
# Velocity S-wave (km/s) = 3.52333 3.68995 3.60760
# Velocity P-wave (km/s) = 7.21841 7.55131 7.38674
#
# Compressibility (1/GPa) = 0.01600812
#
# Stress axis : x y z
#
# Youngs Moduli (GPa) = 70.06981 84.91926 74.02316
#
# Poissons Ratio (x) = 0.36432 0.14016
# Poissons Ratio (y) = 0.30061 0.41384
# Poissons Ratio (z) = 0.13267 0.47475
#
# Static dielectric constant tensor:
#      x y z
#    x 2.984820 0.000000 0.032480 
#    y 0.000000 3.326050 0.000000 
#    z 0.032480 0.000000 3.286160 
# 
# 
# High freq. dielectric constant tensor:
#      x y z
#    x 1.633040 0.000000 -0.000850 
#    y 0.000000 1.689490 0.000000 
#    z -0.000850 0.000000 1.680200 
# 
# From -- ./inp_files/248519.got.cif
#   From: 2010.06.25/outbox.cif.g09.slc.cpg/sg12_125_cif.got.tgz:248519.got - 2010.06.28 00:19:55.
