data_PCOD8085436
_publ_section_title
;
Structure prediction by ZEFSAII (Michael W. Deem and Ramdas Pophale) SiO2 
 PCOD8085436
Probable space group: C 2/M
;
_chemical_formula_sum "Si O2"
_cell_formula_units_Z 56
_cell_length_a 32.088487
_cell_length_b 10.833729
_cell_length_c 28.636852
_cell_angle_alpha 90.000000
_cell_angle_beta 161.773774
_cell_angle_gamma 90.000000
_cell_volume 3113.702960
_symmetry_space_group_name_H-M "C 2/M"
_symmetry_group_IT_number 12
_symmetry_cell_setting 'monoclinic'
loop_
_space_group_symop_operation_xyz
x,y,z
-x,y,-z
-x,-y,-z
x,-y,z
1/2+x,1/2+y,z
1/2-x,1/2+y,-z
1/2-x,1/2-y,-z
1/2+x,1/2-y,z
loop_
_atom_site_type_symbol
_atom_site_label
_atom_site_fract_x
_atom_site_fract_y
_atom_site_fract_z
Si Si1 0.941173 0.146238 0.297337
Si Si2 0.125249 0.642287 0.159743
Si Si3 0.399258 0.138349 0.757886
Si Si4 0.038987 0.239088 0.304967
Si Si5 0.848824 0.359531 0.036008
Si Si6 0.792288 0.133533 0.590706
Si Si7 0.421351 0.647455 0.461964
O O1 0.025439 0.193111 0.343148
O O2 0.005135 0.198712 0.413236
O O3 0.945663 0.000000 0.303389
O O4 0.789939 0.194791 0.131060
O O5 0.130704 0.500000 0.150633
O O6 0.095581 0.660002 0.182095
O O7 0.269471 0.699795 0.299427
O O8 0.000000 0.706697 0.000000
O O9 0.547935 0.150761 0.896580
O O10 0.308846 0.247448 0.641331
O O11 0.341646 0.000000 0.685541
O O12 0.102886 0.132679 0.340452
O O13 0.140970 0.355504 0.410451
O O14 0.897833 0.281366 0.132982
O O15 0.828362 0.500000 0.030805
O O16 0.807682 0.000000 0.632502
O O17 0.500000 0.695690 0.500000
O O18 0.420020 0.500000 0.461988
#
# Coordination Sequence:
#
# PCOD8085436 Si02
#       7
#     8   8   8   8   8   8   8
#     4  10  19  30  47  68  98 133 164 201 254 305
#     4   9  17  28  47  72  99 130 165 208 258 306
#     4   9  18  32  50  74 104 133 168 208 255 303
#     4  10  19  31  47  68  98 129 171 210 245 293
#     4   9  18  30  46  69  98 133 165 202 247 299
#     4  10  20  32  50  72  99 134 170 209 251 300
#     4   9  18  29  42  65  97 129 162 203 253 306
#
# _framework density 17.985016999999999
#
# number of rings (size 3 to 8) (size 9 to 14) (size 15 to 20)
#    0.000    2.571    0.000    2.143    2.000    5.143 
#    0.000    0.000    0.000    1.286    0.000    0.000 
#    0.000    4.857    0.000    0.000    0.000    0.000 
#
# Total GULP energy -346987.003721 kJ/mol
# GULP energy per Si atom -12392.392990 kJ/mol
# Density = 1.794408 g / cm^3
# Si number density = 17.985017 Si / 1000 Ang^3
#
#
#
# Elastic Constant Matrix: (Units=GPa)
#
#
# Indices 1 2 3 4 5 6 
#
# 1 105.9645 17.6624 53.7056 0.0032 -12.9722 0.0016
# 2 17.6624 67.3222 31.3441 0.0046 -8.8678 0.0029
# 3 53.7056 31.3441 147.4274 -0.0015 -8.3911 0.0005
# 4 0.0032 0.0046 -0.0015 10.3424 -0.0008 -5.0521
# 5 -12.9722 -8.8678 -8.3911 -0.0008 22.7124 0.0006
# 6 0.0016 0.0029 0.0005 -5.0521 0.0006 13.3794
#
#
#
# Elastic Compliance Matrix: (Units=1/GPa)
#
#
# Indices 1 2 3 4 5 6 
#
# 1 0.012223 -0.000646 -0.004017 -0.000005 0.005245 -0.000003
# 2 -0.000646 0.017157 -0.003118 -0.000011 0.005178 -0.000008
# 3 -0.004017 -0.003118 0.008896 0.000005 -0.000225 0.000003
# 4 -0.000005 -0.000011 0.000005 0.118558 -0.000002 0.044768
# 5 0.005245 0.005178 -0.000225 -0.000002 0.048963 -0.000005
# 6 -0.000003 -0.000008 0.000003 0.044768 -0.000005 0.091646
#
#
# Mechanical properties :
#
#
# Convention : Reuss Voigt Hill
#
# Bulk Modulus (GPa) = 44.02270 58.45982 51.24126
# Shear Modulus (GPa) = 15.59695 23.82030 19.70862
#
# Velocity S-wave (km/s) = 2.94805 3.64325 3.31393
# Velocity P-wave (km/s) = 6.00987 7.09035 6.57235
#
# Compressibility (1/GPa) = 0.02271555
#
# Stress axis : x y z
#
# Youngs Moduli (GPa) = 81.81570 58.28531 112.40642
#
# Poissons Ratio (x) = 0.03763 0.45150
# Poissons Ratio (y) = 0.05283 0.35045
# Poissons Ratio (z) = 0.32863 0.18172
#
# Static dielectric constant tensor:
#      x y z
#    x 3.314660 0.000000 0.035640 
#    y 0.000000 2.869300 0.000000 
#    z 0.035640 0.000000 3.647460 
# 
# 
# High freq. dielectric constant tensor:
#      x y z
#    x 1.697110 0.000000 0.007490 
#    y 0.000000 1.636460 0.000000 
#    z 0.007490 0.000000 1.711250 
# 
# From -- ./inp_files/370808.got.cif
#   From: 2010.06.25/outbox.cif.g09.slc.cpg/sg12_186_cif.got.tgz:370808.got - 2010.06.28 00:19:55.
