data_PCOD8085839
_publ_section_title
;
Structure prediction by ZEFSAII (Michael W. Deem and Ramdas Pophale) SiO2 
 PCOD8085839
Probable space group: C 2/M
;
_chemical_formula_sum "Si O2"
_cell_formula_units_Z 64
_cell_length_a 24.809319
_cell_length_b 14.931472
_cell_length_c 18.995092
_cell_angle_alpha 90.000000
_cell_angle_beta 151.892158
_cell_angle_gamma 90.000000
_cell_volume 3315.141244
_symmetry_space_group_name_H-M "C 2/M"
_symmetry_group_IT_number 12
_symmetry_cell_setting 'monoclinic'
loop_
_space_group_symop_operation_xyz
x,y,z
-x,y,-z
-x,-y,-z
x,-y,z
1/2+x,1/2+y,z
1/2-x,1/2+y,-z
1/2-x,1/2-y,-z
1/2+x,1/2-y,z
loop_
_atom_site_type_symbol
_atom_site_label
_atom_site_fract_x
_atom_site_fract_y
_atom_site_fract_z
Si Si1 0.212577 0.901480 0.051904
Si Si2 0.375467 0.399957 0.351926
Si Si3 0.306641 0.652077 0.124205
Si Si4 0.580852 0.236159 0.909336
Si Si5 0.462251 0.748400 0.636694
Si Si6 0.476014 0.900130 0.890802
Si Si7 0.282473 0.395017 0.388833
Si Si8 0.028839 0.395506 0.613885
O O1 0.338919 0.868878 0.220151
O O2 0.190106 0.000000 0.057363
O O3 0.201924 0.909614 0.954558
O O4 0.112144 0.837877 0.968960
O O5 0.500000 0.348737 0.500000
O O6 0.403624 0.500000 0.406648
O O7 0.310511 0.400763 0.202622
O O8 0.290316 0.365566 0.315367
O O9 0.421663 0.707508 0.258249
O O10 0.194797 0.714032 0.995699
O O11 0.474403 0.226618 0.733308
O O12 0.557475 0.171918 0.947617
O O13 0.364255 0.673456 0.523673
O O14 0.444423 0.837243 0.567692
O O15 0.343490 0.877244 0.726147
O O16 0.504594 0.000000 0.894805
O O17 0.500000 0.896374 0.000000
O O18 0.316131 0.500000 0.440100
O O19 0.007293 0.500000 0.606726
O O20 0.000000 0.373510 0.500000
#
# Coordination Sequence:
#
# PCOD8085839 Si02
#       8
#     8   8   8   8   8   8   8   8
#     4  10  20  36  56  82 120 156 190 238 294 348
#     4  10  19  30  50  85 119 146 180 227 289 354
#     4  11  19  33  53  89 120 152 182 239 294 362
#     4  11  22  37  58  88 117 149 202 239 284 353
#     4  11  21  35  58  83 120 149 189 243 288 340
#     4  10  23  43  63  84 113 152 192 238 297 358
#     4  10  22  38  56  85 119 153 193 234 289 356
#     4  10  21  35  52  77 114 156 195 234 286 342
#
# _framework density 19.305361000000001
#
# number of rings (size 3 to 8) (size 9 to 14) (size 15 to 20)
#    0.000    1.625    3.750    1.875    1.750    6.000 
#    0.000    0.000    0.000    1.125    0.000    0.000 
#    0.000    0.000    0.000    0.000    0.000    0.000 
#
# Total GULP energy -396513.168323 kJ/mol
# GULP energy per Si atom -12391.036510 kJ/mol
# Density = 1.926142 g / cm^3
# Si number density = 19.305361 Si / 1000 Ang^3
#
#
#
# Elastic Constant Matrix: (Units=GPa)
#
#
# Indices 1 2 3 4 5 6 
#
# 1 49.0586 26.9387 19.3860 0.0000 3.5854 0.0000
# 2 26.9387 95.6031 36.0778 0.0000 10.6932 0.0000
# 3 19.3860 36.0778 97.6771 0.0000 -11.1194 0.0000
# 4 0.0000 0.0000 0.0000 31.6040 0.0000 3.2857
# 5 3.5854 10.6932 -11.1194 0.0000 25.5064 0.0000
# 6 0.0000 0.0000 0.0000 3.2857 0.0000 23.4587
#
#
#
# Elastic Compliance Matrix: (Units=1/GPa)
#
#
# Indices 1 2 3 4 5 6 
#
# 1 0.024860 -0.005513 -0.003191 0.000000 -0.002574 0.000000
# 2 -0.005513 0.014876 -0.005284 0.000000 -0.007765 0.000000
# 3 -0.003191 -0.005284 0.013812 0.000000 0.008685 0.000000
# 4 0.000000 0.000000 0.000000 0.032109 0.000000 -0.004497
# 5 -0.002574 -0.007765 0.008685 0.000000 0.046609 0.000000
# 6 0.000000 0.000000 0.000000 -0.004497 0.000000 0.043258
#
#
# Mechanical properties :
#
#
# Convention : Reuss Voigt Hill
#
# Bulk Modulus (GPa) = 39.10616 45.23819 42.17218
# Shear Modulus (GPa) = 23.58220 26.77623 25.17922
#
# Velocity S-wave (km/s) = 3.49884 3.72826 3.61537
# Velocity P-wave (km/s) = 6.05170 6.48206 6.27058
#
# Compressibility (1/GPa) = 0.02557142
#
# Stress axis : x y z
#
# Youngs Moduli (GPa) = 40.22526 67.22206 72.40280
#
# Poissons Ratio (x) = 0.37059 0.23102
# Poissons Ratio (y) = 0.22176 0.38261
# Poissons Ratio (z) = 0.12835 0.35523
#
# Static dielectric constant tensor:
#      x y z
#    x 3.295560 0.000000 -0.057370 
#    y 0.000000 3.590290 0.000000 
#    z -0.057370 0.000000 3.751510 
# 
# 
# High freq. dielectric constant tensor:
#      x y z
#    x 1.716790 0.000000 -0.013010 
#    y 0.000000 1.750800 0.000000 
#    z -0.013010 0.000000 1.756490 
# 
# From -- ./inp_files/167239.got.cif
#   From: 2010.06.25/outbox.cif.g09.slc.cpg/sg12_84_cif.got.tgz:167239.got - 2010.06.28 00:19:55.
