data_PCOD8085653
_publ_section_title
;
Structure prediction by ZEFSAII (Michael W. Deem and Ramdas Pophale) SiO2 
 PCOD8085653
Probable space group: C 2/M
;
_chemical_formula_sum "Si O2"
_cell_formula_units_Z 56
_cell_length_a 19.368294
_cell_length_b 9.057018
_cell_length_c 26.258107
_cell_angle_alpha 90.000000
_cell_angle_beta 137.404725
_cell_angle_gamma 90.000000
_cell_volume 3117.526530
_symmetry_space_group_name_H-M "C 2/M"
_symmetry_group_IT_number 12
_symmetry_cell_setting 'monoclinic'
loop_
_space_group_symop_operation_xyz
x,y,z
-x,y,-z
-x,-y,-z
x,-y,z
1/2+x,1/2+y,z
1/2-x,1/2+y,-z
1/2-x,1/2-y,-z
1/2+x,1/2-y,z
loop_
_atom_site_type_symbol
_atom_site_label
_atom_site_fract_x
_atom_site_fract_y
_atom_site_fract_z
Si Si1 0.459349 0.668117 0.627697
Si Si2 0.430601 0.174537 0.508834
Si Si3 0.659337 0.824763 0.078776
Si Si4 0.953236 0.675458 0.781605
Si Si5 0.014455 0.675355 0.087530
Si Si6 0.302368 0.325583 0.627940
Si Si7 0.611972 0.670869 0.798410
O O1 0.442199 0.500000 0.601341
O O2 0.472619 0.765336 0.584792
O O3 0.362837 0.721347 0.609451
O O4 0.563408 0.686285 0.716022
O O5 0.500000 0.235059 0.500000
O O6 0.314145 0.227154 0.438704
O O7 0.436982 0.000000 0.514664
O O8 0.602703 0.763037 0.098263
O O9 0.774010 0.763480 0.139953
O O10 0.663099 0.000000 0.084015
O O11 0.596295 0.774045 0.994334
O O12 0.945262 0.500000 0.775043
O O13 0.850520 0.744201 0.702597
O O14 0.965983 0.737496 0.845674
O O15 0.051955 0.728367 0.805114
O O16 0.018061 0.500000 0.090271
O O17 0.313767 0.500000 0.642650
O O18 0.607105 0.500000 0.813384
#
# Coordination Sequence:
#
# PCOD8085653 Si02
#       7
#     8   8   8   8   8   8   8
#     4   9  18  32  50  71  94 124 163 199 229 272
#     4  10  21  35  51  73  99 125 154 191 238 288
#     4   8  14  28  48  67  94 131 164 195 234 279
#     4  10  19  30  48  75 100 121 155 202 242 276
#     4   8  15  27  45  71  97 124 163 203 234 272
#     4   9  19  36  53  69  94 128 162 191 229 287
#     4   9  18  32  50  72  97 127 160 193 236 287
#
# _framework density 17.962959000000001
#
# number of rings (size 3 to 8) (size 9 to 14) (size 15 to 20)
#    0.000    3.000    0.000    2.571    0.000    4.857 
#    0.000    1.429    0.000    2.571    0.000    5.000 
#    0.000    0.000    0.000    0.000    0.000    0.000 
#
# Total GULP energy -347120.712185 kJ/mol
# GULP energy per Si atom -12397.168292 kJ/mol
# Density = 1.792207 g / cm^3
# Si number density = 17.962959 Si / 1000 Ang^3
#
#
#
# Elastic Constant Matrix: (Units=GPa)
#
#
# Indices 1 2 3 4 5 6 
#
# 1 79.0898 16.4091 57.8919 0.0000 -8.5473 0.0000
# 2 16.4091 24.0496 25.3461 0.0000 -5.9488 0.0000
# 3 57.8919 25.3461 112.6118 0.0000 -14.9352 0.0000
# 4 0.0000 0.0000 0.0000 21.4812 0.0000 -1.6729
# 5 -8.5473 -5.9488 -14.9352 0.0000 35.2997 0.0000
# 6 0.0000 0.0000 0.0000 -1.6729 0.0000 19.4955
#
#
#
# Elastic Compliance Matrix: (Units=1/GPa)
#
#
# Indices 1 2 3 4 5 6 
#
# 1 0.020533 -0.003748 -0.009680 0.000000 0.000245 0.000000
# 2 -0.003748 0.055799 -0.010071 0.000000 0.004235 0.000000
# 3 -0.009680 -0.010071 0.016514 0.000000 0.002946 0.000000
# 4 0.000000 0.000000 0.000000 0.046866 0.000000 0.004021
# 5 0.000245 0.004235 0.002946 0.000000 0.030348 0.000000
# 6 0.000000 0.000000 0.000000 0.004021 0.000000 0.051639
#
#
# Mechanical properties :
#
#
# Convention : Reuss Voigt Hill
#
# Bulk Modulus (GPa) = 21.81051 46.11614 33.96333
# Shear Modulus (GPa) = 17.60701 22.99556 20.30129
#
# Velocity S-wave (km/s) = 3.13419 3.58182 3.36545
# Velocity P-wave (km/s) = 5.02651 6.54481 5.83525
#
# Compressibility (1/GPa) = 0.04584945
#
# Stress axis : x y z
#
# Youngs Moduli (GPa) = 48.70142 17.92156 60.55594
#
# Poissons Ratio (x) = 0.06716 0.58617
# Poissons Ratio (y) = 0.18251 0.60984
# Poissons Ratio (z) = 0.47142 0.18048
#
# Static dielectric constant tensor:
#      x y z
#    x 3.482200 0.000000 0.079450 
#    y 0.000000 2.954200 0.000000 
#    z 0.079450 0.000000 3.533260 
# 
# 
# High freq. dielectric constant tensor:
#      x y z
#    x 1.693140 0.000000 0.003160 
#    y 0.000000 1.661280 0.000000 
#    z 0.003160 0.000000 1.706090 
# 
# From -- ./inp_files/280300.got.cif
#   From: 2010.06.25/outbox.cif.g09.slc.cpg/sg12_141_cif.got.tgz:280300.got - 2010.06.28 00:19:55.
