data_PCOD8085071
_publ_section_title
;
Structure prediction by ZEFSAII (Michael W. Deem and Ramdas Pophale) SiO2 
 PCOD8085071
Probable space group: C 2/M
;
_chemical_formula_sum "Si O2"
_cell_formula_units_Z 48
_cell_length_a 30.228789
_cell_length_b 8.959787
_cell_length_c 19.891888
_cell_angle_alpha 90.000000
_cell_angle_beta 149.797215
_cell_angle_gamma 90.000000
_cell_volume 2710.290951
_symmetry_space_group_name_H-M "C 2/M"
_symmetry_group_IT_number 12
_symmetry_cell_setting 'monoclinic'
loop_
_space_group_symop_operation_xyz
x,y,z
-x,y,-z
-x,-y,-z
x,-y,z
1/2+x,1/2+y,z
1/2-x,1/2+y,-z
1/2-x,1/2-y,-z
1/2+x,1/2-y,z
loop_
_atom_site_type_symbol
_atom_site_label
_atom_site_fract_x
_atom_site_fract_y
_atom_site_fract_z
Si Si1 0.385546 0.168380 0.176056
Si Si2 0.600149 0.173822 0.136007
Si Si3 0.165415 0.174818 0.093819
Si Si4 0.158692 0.675116 0.362915
Si Si5 0.278558 0.668055 0.138804
Si Si6 0.994907 0.824457 0.213088
O O1 0.360990 0.244575 0.214766
O O2 0.462963 0.262702 0.242995
O O3 0.418134 0.000000 0.232096
O O4 0.301109 0.168425 0.017800
O O5 0.659048 0.265226 0.160995
O O6 0.636856 0.210526 0.257278
O O7 0.606239 0.000000 0.125553
O O8 0.500000 0.229933 0.000000
O O9 0.249083 0.251285 0.168499
O O10 0.182575 0.000000 0.116572
O O11 0.075929 0.216175 0.937201
O O12 0.163156 0.500000 0.382675
O O13 0.250000 0.750000 0.500000
O O14 0.085563 0.745001 0.314867
O O15 0.308119 0.500000 0.194470
O O16 0.009994 0.000000 0.238859
#
# Coordination Sequence:
#
# PCOD8085071 Si02
#       6
#     8   8   8   8   8   8
#     4   9  16  26  42  65  96 132 169 208 254 304
#     4  10  20  35  54  75 101 135 174 213 259 311
#     4  10  19  29  47  74 103 133 169 213 257 304
#     4  11  23  38  55  75 103 137 174 217 261 308
#     4   9  16  26  41  64  98 134 167 206 254 306
#     4  10  19  31  48  72 101 134 172 211 257 308
#
# _framework density 17.710276
#
# number of rings (size 3 to 8) (size 9 to 14) (size 15 to 20)
#    0.000    2.167    1.667    2.500    0.000    7.000 
#    0.000    0.000    0.000    0.000    0.000    1.167 
#    0.000    9.333    0.000    0.000    0.000    0.000 
#
# Total GULP energy -297664.457765 kJ/mol
# GULP energy per Si atom -12402.685740 kJ/mol
# Density = 1.766997 g / cm^3
# Si number density = 17.710276 Si / 1000 Ang^3
#
#
#
# Elastic Constant Matrix: (Units=GPa)
#
#
# Indices 1 2 3 4 5 6 
#
# 1 170.2427 78.9098 43.3958 0.0000 11.2882 0.0000
# 2 78.9098 115.7986 42.1611 0.0000 6.7354 0.0000
# 3 43.3958 42.1611 58.5549 0.0000 6.3244 0.0000
# 4 0.0000 0.0000 0.0000 19.8501 0.0000 2.6520
# 5 11.2882 6.7354 6.3244 0.0000 14.2725 0.0000
# 6 0.0000 0.0000 0.0000 2.6520 0.0000 42.5152
#
#
#
# Elastic Compliance Matrix: (Units=1/GPa)
#
#
# Indices 1 2 3 4 5 6 
#
# 1 0.009145 -0.005009 -0.002778 0.000000 -0.003638 0.000000
# 2 -0.005009 0.014495 -0.006736 0.000000 0.000106 0.000000
# 3 -0.002778 -0.006736 0.024583 0.000000 -0.005517 0.000000
# 4 0.000000 0.000000 0.000000 0.050801 0.000000 -0.003169
# 5 -0.003638 0.000106 -0.005517 0.000000 0.075337 0.000000
# 6 0.000000 0.000000 0.000000 -0.003169 0.000000 0.023719
#
#
# Mechanical properties :
#
#
# Convention : Reuss Voigt Hill
#
# Bulk Modulus (GPa) = 52.14590 74.83664 63.49127
# Shear Modulus (GPa) = 21.41156 27.33619 24.37387
#
# Velocity S-wave (km/s) = 3.48083 3.93303 3.71382
# Velocity P-wave (km/s) = 6.75741 7.93554 7.37005
#
# Compressibility (1/GPa) = 0.01917696
#
# Stress axis : x y z
#
# Youngs Moduli (GPa) = 109.35031 68.98800 40.67814
#
# Poissons Ratio (x) = 0.34553 0.11301
# Poissons Ratio (y) = 0.54769 0.27403
# Poissons Ratio (z) = 0.30379 0.46474
#
# Static dielectric constant tensor:
#      x y z
#    x 3.480160 0.000000 -0.014590 
#    y 0.000000 3.415340 0.000000 
#    z -0.014590 0.000000 2.738970 
# 
# 
# High freq. dielectric constant tensor:
#      x y z
#    x 1.704230 0.000000 0.005280 
#    y 0.000000 1.701950 0.000000 
#    z 0.005280 0.000000 1.617860 
# 
# From -- ./inp_files/229823.got.cif
#   From: 2010.06.25/outbox.cif.g09.slc.cpg/sg12_115_cif.got.tgz:229823.got - 2010.06.28 00:19:55.
