data_PCOD8085220
_publ_section_title
;
Structure prediction by ZEFSAII (Michael W. Deem and Ramdas Pophale) SiO2 
 PCOD8085220
Probable space group: C 2/M
;
_chemical_formula_sum "Si O2"
_cell_formula_units_Z 56
_cell_length_a 31.313939
_cell_length_b 9.418788
_cell_length_c 19.398486
_cell_angle_alpha 90.000000
_cell_angle_beta 142.976393
_cell_angle_gamma 90.000000
_cell_volume 3445.092924
_symmetry_space_group_name_H-M "C 2/M"
_symmetry_group_IT_number 12
_symmetry_cell_setting 'monoclinic'
loop_
_space_group_symop_operation_xyz
x,y,z
-x,y,-z
-x,-y,-z
x,-y,z
1/2+x,1/2+y,z
1/2-x,1/2+y,-z
1/2-x,1/2-y,-z
1/2+x,1/2-y,z
loop_
_atom_site_type_symbol
_atom_site_label
_atom_site_fract_x
_atom_site_fract_y
_atom_site_fract_z
Si Si1 0.560480 0.336774 0.633735
Si Si2 0.706476 0.332515 0.760125
Si Si3 0.788380 0.832962 0.387081
Si Si4 0.704517 0.166731 0.997353
Si Si5 0.696025 0.838363 0.387291
Si Si6 0.598649 0.835515 0.376950
Si Si7 0.049075 0.665219 0.754959
O O1 0.500000 0.318629 0.500000
O O2 0.570620 0.500000 0.668766
O O3 0.633139 0.272514 0.696671
O O4 0.537295 0.249592 0.669935
O O5 0.700274 0.500000 0.745693
O O6 0.719592 0.270231 0.700441
O O7 0.770244 0.288837 0.893442
O O8 0.711883 0.804138 0.326954
O O9 0.853042 0.756482 0.509350
O O10 0.806491 0.000000 0.409011
O O11 0.622208 0.210043 0.886109
O O12 0.716765 0.000000 0.000227
O O13 0.750000 0.250000 0.000000
O O14 0.750000 0.750000 0.500000
O O15 0.618410 0.807310 0.320839
O O16 0.716353 0.000000 0.426818
O O17 0.516074 0.795390 0.278531
O O18 0.611287 0.000000 0.412502
O O19 0.050056 0.500000 0.737652
#
# Coordination Sequence:
#
# PCOD8085220 Si02
#       7
#     8   8   8   8   8   8   8
#     4  10  19  30  45  65  89 116 144 178 221 263
#     4   9  17  29  45  64  87 112 143 186 223 251
#     4   9  16  28  47  69  88 113 148 179 214 263
#     4  10  19  33  49  63  82 115 155 189 220 257
#     4   8  14  25  43  64  88 115 142 173 211 259
#     4   9  17  29  43  65  95 119 139 174 222 263
#     4  10  20  31  45  64  88 118 149 180 218 264
#
# _framework density 16.255002999999999
#
# number of rings (size 3 to 8) (size 9 to 14) (size 15 to 20)
#    0.000    2.714    1.429    0.857    0.000    2.000 
#    0.000    1.429    0.000    0.857    0.000    6.000 
#    0.000    0.000    0.000   23.571    0.000   17.429 
#
# Total GULP energy -346905.709609 kJ/mol
# GULP energy per Si atom -12389.489629 kJ/mol
# Density = 1.621801 g / cm^3
# Si number density = 16.255003 Si / 1000 Ang^3
#
#
#
# Elastic Constant Matrix: (Units=GPa)
#
#
# Indices 1 2 3 4 5 6 
#
# 1 159.2230 32.3652 60.4524 0.0000 12.9637 0.0000
# 2 32.3652 27.7232 23.4068 0.0000 3.9344 0.0000
# 3 60.4524 23.4068 80.6939 0.0000 11.6887 0.0000
# 4 0.0000 0.0000 0.0000 6.2570 0.0000 1.2738
# 5 12.9637 3.9344 11.6887 0.0000 18.2470 0.0000
# 6 0.0000 0.0000 0.0000 1.2738 0.0000 20.4564
#
#
#
# Elastic Compliance Matrix: (Units=1/GPa)
#
#
# Indices 1 2 3 4 5 6 
#
# 1 0.009752 -0.006850 -0.004992 0.000000 -0.002253 0.000000
# 2 -0.006850 0.052622 -0.010134 0.000000 0.000012 0.000000
# 3 -0.004992 -0.010134 0.020108 0.000000 -0.007149 0.000000
# 4 0.000000 0.000000 0.000000 0.161873 0.000000 -0.010080
# 5 -0.002253 0.000012 -0.007149 0.000000 0.060981 0.000000
# 6 0.000000 0.000000 0.000000 -0.010080 0.000000 0.049512
#
#
# Mechanical properties :
#
#
# Convention : Reuss Voigt Hill
#
# Bulk Modulus (GPa) = 25.95445 55.56543 40.75994
# Shear Modulus (GPa) = 12.14642 19.08645 15.61644
#
# Velocity S-wave (km/s) = 2.73654 3.43036 3.10290
# Velocity P-wave (km/s) = 5.09770 7.06736 6.16175
#
# Compressibility (1/GPa) = 0.03852904
#
# Stress axis : x y z
#
# Youngs Moduli (GPa) = 102.54580 19.00334 49.73238
#
# Poissons Ratio (x) = 0.13017 0.24828
# Poissons Ratio (y) = 0.70242 0.50400
# Poissons Ratio (z) = 0.51194 0.19258
#
# Static dielectric constant tensor:
#      x y z
#    x 3.768060 0.000000 0.035320 
#    y 0.000000 2.978360 0.000000 
#    z 0.035320 0.000000 2.944830 
# 
# 
# High freq. dielectric constant tensor:
#      x y z
#    x 1.641850 0.000000 0.002260 
#    y 0.000000 1.611630 0.000000 
#    z 0.002260 0.000000 1.597740 
# 
# From -- ./inp_files/287400.got.cif
#   From: 2010.06.25/outbox.cif.g09.slc.cpg/sg12_144_cif.got.tgz:287400.got - 2010.06.28 00:19:55.
