data_PCOD8085627
_publ_section_title
;
Structure prediction by ZEFSAII (Michael W. Deem and Ramdas Pophale) SiO2 
 PCOD8085627
Probable space group: C 2/M
;
_chemical_formula_sum "Si O2"
_cell_formula_units_Z 64
_cell_length_a 19.202515
_cell_length_b 9.184541
_cell_length_c 20.289735
_cell_angle_alpha 90.000000
_cell_angle_beta 89.100908
_cell_angle_gamma 90.000000
_cell_volume 3577.984641
_symmetry_space_group_name_H-M "C 2/M"
_symmetry_group_IT_number 12
_symmetry_cell_setting 'monoclinic'
loop_
_space_group_symop_operation_xyz
x,y,z
-x,y,-z
-x,-y,-z
x,-y,z
1/2+x,1/2+y,z
1/2-x,1/2+y,-z
1/2-x,1/2-y,-z
1/2+x,1/2-y,z
loop_
_atom_site_type_symbol
_atom_site_label
_atom_site_fract_x
_atom_site_fract_y
_atom_site_fract_z
Si Si1 0.679277 0.172276 0.741440
Si Si2 0.582790 0.335473 0.495824
Si Si3 0.666186 0.666781 0.108603
Si Si4 0.420703 0.172804 0.995844
Si Si5 0.923734 0.330721 0.632630
Si Si6 0.086139 0.330099 0.624365
Si Si7 0.663023 0.333664 0.262112
Si Si8 0.177489 0.326710 0.886769
O O1 0.627976 0.234518 0.686323
O O2 0.758262 0.215719 0.723033
O O3 0.658532 0.234751 0.814105
O O4 0.672378 0.000000 0.744332
O O5 0.500000 0.331660 0.500000
O O6 0.611364 0.500000 0.493703
O O7 0.608155 0.252497 0.429971
O O8 0.613155 0.254334 0.559400
O O9 0.658789 0.500000 0.085790
O O10 0.612097 0.764594 0.069894
O O11 0.647386 0.683027 0.185324
O O12 0.744776 0.724044 0.094088
O O13 0.416589 0.000000 0.992175
O O14 0.500000 0.227060 0.000000
O O15 0.378236 0.232877 0.059826
O O16 0.907749 0.500000 0.623708
O O17 0.888532 0.272734 0.699160
O O18 0.005419 0.300447 0.638834
O O19 0.101352 0.500000 0.612826
O O20 0.650573 0.500000 0.284894
O O21 0.177213 0.500000 0.883909
#
# Coordination Sequence:
#
# PCOD8085627 Si02
#       8
#     8   8   8   8   8   8   8   8
#     4   8  15  30  51  70  91 124 162 197 234 280
#     4   9  17  30  48  69  96 130 163 195 233 281
#     4   9  18  33  52  69  90 127 167 197 229 279
#     4  10  20  31  47  74 103 126 153 197 245 284
#     4  10  19  30  48  74 100 125 156 198 243 285
#     4   9  17  30  50  74  96 121 157 199 240 283
#     4   9  18  33  51  70  93 124 162 198 234 282
#     4   8  15  30  50  70  93 125 163 195 230 283
#
# _framework density 17.887165
#
# number of rings (size 3 to 8) (size 9 to 14) (size 15 to 20)
#    0.000    3.000    0.000    2.625    0.000    3.750 
#    0.000    3.750    0.000    2.250    0.000    0.000 
#    0.000    0.000    0.000    0.000    0.000    0.000 
#
# Total GULP energy -396745.337269 kJ/mol
# GULP energy per Si atom -12398.291790 kJ/mol
# Density = 1.784645 g / cm^3
# Si number density = 17.887165 Si / 1000 Ang^3
#
#
#
# Elastic Constant Matrix: (Units=GPa)
#
#
# Indices 1 2 3 4 5 6 
#
# 1 87.9399 36.4183 67.7807 0.0000 7.1859 0.0000
# 2 36.4183 55.7978 44.9156 0.0000 -0.2728 0.0000
# 3 67.7807 44.9156 120.4080 0.0000 11.3576 0.0000
# 4 0.0000 0.0000 0.0000 30.8962 0.0000 -0.7660
# 5 7.1859 -0.2728 11.3576 0.0000 31.3960 0.0000
# 6 0.0000 0.0000 0.0000 -0.7660 0.0000 13.5697
#
#
#
# Elastic Compliance Matrix: (Units=1/GPa)
#
#
# Indices 1 2 3 4 5 6 
#
# 1 0.021522 -0.006311 -0.009619 0.000000 -0.001501 0.000000
# 2 -0.006311 0.027911 -0.007266 0.000000 0.004316 0.000000
# 3 -0.009619 -0.007266 0.016802 0.000000 -0.003940 0.000000
# 4 0.000000 0.000000 0.000000 0.032412 0.000000 0.001830
# 5 -0.001501 0.004316 -0.003940 0.000000 0.033657 0.000000
# 6 0.000000 0.000000 0.000000 0.001830 0.000000 0.073797
#
#
# Mechanical properties :
#
#
# Convention : Reuss Voigt Hill
#
# Bulk Modulus (GPa) = 50.39786 62.48611 56.44198
# Shear Modulus (GPa) = 19.29696 22.84112 21.06904
#
# Velocity S-wave (km/s) = 3.28810 3.57733 3.43576
# Velocity P-wave (km/s) = 6.53085 7.21612 6.88202
#
# Compressibility (1/GPa) = 0.01984211
#
# Stress axis : x y z
#
# Youngs Moduli (GPa) = 46.46430 35.82820 59.51597
#
# Poissons Ratio (x) = 0.22611 0.57251
# Poissons Ratio (y) = 0.29323 0.43245
# Poissons Ratio (z) = 0.44696 0.26033
#
# Static dielectric constant tensor:
#      x y z
#    x 3.232040 0.000000 0.065060 
#    y 0.000000 3.062310 0.000000 
#    z 0.065060 0.000000 3.599700 
# 
# 
# High freq. dielectric constant tensor:
#      x y z
#    x 1.675450 0.000000 0.000650 
#    y 0.000000 1.665970 0.000000 
#    z 0.000650 0.000000 1.704480 
# 
# From -- ./inp_files/314100.got.cif
#   From: 2010.06.25/outbox.cif.g09.slc.cpg/sg12_158_cif.got.tgz:314100.got - 2010.06.28 00:19:55.
