data_PCOD8085397
_publ_section_title
;
Structure prediction by ZEFSAII (Michael W. Deem and Ramdas Pophale) SiO2 
 PCOD8085397
Probable space group: C 2/M
;
_chemical_formula_sum "Si O2"
_cell_formula_units_Z 48
_cell_length_a 30.436063
_cell_length_b 8.914478
_cell_length_c 9.574899
_cell_angle_alpha 90.000000
_cell_angle_beta 90.640206
_cell_angle_gamma 90.000000
_cell_volume 2597.714878
_symmetry_space_group_name_H-M "C 2/M"
_symmetry_group_IT_number 12
_symmetry_cell_setting 'monoclinic'
loop_
_space_group_symop_operation_xyz
x,y,z
-x,y,-z
-x,-y,-z
x,-y,z
1/2+x,1/2+y,z
1/2-x,1/2+y,-z
1/2-x,1/2-y,-z
1/2+x,1/2-y,z
loop_
_atom_site_type_symbol
_atom_site_label
_atom_site_fract_x
_atom_site_fract_y
_atom_site_fract_z
Si Si1 0.799073 0.324925 0.846303
Si Si2 0.051521 0.178201 0.149902
Si Si3 0.376020 0.678086 0.347088
Si Si4 0.301767 0.324974 0.134024
Si Si5 0.954204 0.821437 0.163067
Si Si6 0.631098 0.678842 0.339199
O O1 0.808964 0.500000 0.839564
O O2 0.747797 0.288204 0.822530
O O3 0.824166 0.242169 0.722968
O O4 0.815413 0.263727 0.995705
O O5 0.089458 0.242712 0.251175
O O6 0.003583 0.233456 0.201990
O O7 0.052869 0.000000 0.153185
O O8 0.059300 0.235598 0.992072
O O9 0.378638 0.500000 0.351338
O O10 0.333119 0.729837 0.259972
O O11 0.419787 0.743893 0.274287
O O12 0.373126 0.741310 0.503608
O O13 0.308260 0.500000 0.101092
O O14 0.952657 0.000000 0.163469
O O15 0.633045 0.500000 0.335569
#
# Coordination Sequence:
#
# PCOD8085397 Si02
#       6
#     8   8   8   8   8   8
#     4  10  20  33  50  71  93 121 158 197 235 275
#     4   8  14  24  41  66  94 123 154 191 232 271
#     4   9  17  28  45  70  98 126 154 189 235 282
#     4   9  18  34  53  71  92 119 155 198 238 276
#     4   8  13  23  40  65  95 122 152 192 234 271
#     4  10  19  30  46  70  99 129 157 186 228 280
#
# _framework density 18.477777
#
# number of rings (size 3 to 8) (size 9 to 14) (size 15 to 20)
#    0.000    3.000    0.000    2.500    0.000    4.667 
#    0.000    4.167    0.000    0.000    0.000   11.667 
#    0.000    0.000    0.000    0.000    0.000    0.000 
#
# Total GULP energy -297533.670627 kJ/mol
# GULP energy per Si atom -12397.236276 kJ/mol
# Density = 1.843572 g / cm^3
# Si number density = 18.477777 Si / 1000 Ang^3
#
#
#
# Elastic Constant Matrix: (Units=GPa)
#
#
# Indices 1 2 3 4 5 6 
#
# 1 122.1840 20.5391 87.2593 0.0000 -15.9313 0.0000
# 2 20.5391 18.8990 22.3508 0.0000 -3.8405 0.0000
# 3 87.2593 22.3508 153.8965 0.0000 -18.6917 0.0000
# 4 0.0000 0.0000 0.0000 14.4977 0.0000 -3.6470
# 5 -15.9313 -3.8405 -18.6917 0.0000 27.6203 0.0000
# 6 0.0000 0.0000 0.0000 -3.6470 0.0000 15.9708
#
#
#
# Elastic Compliance Matrix: (Units=1/GPa)
#
#
# Indices 1 2 3 4 5 6 
#
# 1 0.014737 -0.007206 -0.006972 0.000000 0.002780 0.000000
# 2 -0.007206 0.067614 -0.005553 0.000000 0.001487 0.000000
# 3 -0.006972 -0.005553 0.011631 0.000000 0.003078 0.000000
# 4 0.000000 0.000000 0.000000 0.073180 0.000000 0.016711
# 5 0.002780 0.001487 0.003078 0.000000 0.040099 0.000000
# 6 0.000000 0.000000 0.000000 0.016711 0.000000 0.066431
#
#
# Mechanical properties :
#
#
# Convention : Reuss Voigt Hill
#
# Bulk Modulus (GPa) = 18.34188 61.69755 40.01971
# Shear Modulus (GPa) = 15.09084 22.60645 18.84864
#
# Velocity S-wave (km/s) = 2.86090 3.50157 3.19732
# Velocity P-wave (km/s) = 4.56738 7.05766 5.94439
#
# Compressibility (1/GPa) = 0.05452005
#
# Stress axis : x y z
#
# Youngs Moduli (GPa) = 67.85550 14.78988 85.97563
#
# Poissons Ratio (x) = 0.10658 0.59940
# Poissons Ratio (y) = 0.48897 0.47745
# Poissons Ratio (z) = 0.47307 0.08213
#
# Static dielectric constant tensor:
#      x y z
#    x 3.690170 0.000000 0.004930 
#    y 0.000000 2.830360 0.000000 
#    z 0.004930 0.000000 3.597420 
# 
# 
# High freq. dielectric constant tensor:
#      x y z
#    x 1.732280 0.000000 -0.002440 
#    y 0.000000 1.655460 0.000000 
#    z -0.002440 0.000000 1.716200 
# 
# From -- ./inp_files/108580.got.cif
#   From: 2010.06.25/outbox.cif.g09.slc.cpg/sg12_55_cif.got.tgz:108580.got - 2010.06.28 00:19:55.
