data_PCOD8085471
_publ_section_title
;
Structure prediction by ZEFSAII (Michael W. Deem and Ramdas Pophale) SiO2 
 PCOD8085471
Probable space group: C 2/M
;
_chemical_formula_sum "Si O2"
_cell_formula_units_Z 56
_cell_length_a 25.434750
_cell_length_b 9.484998
_cell_length_c 12.691449
_cell_angle_alpha 90.000000
_cell_angle_beta 86.491611
_cell_angle_gamma 90.000000
_cell_volume 3056.055442
_symmetry_space_group_name_H-M "C 2/M"
_symmetry_group_IT_number 12
_symmetry_cell_setting 'monoclinic'
loop_
_space_group_symop_operation_xyz
x,y,z
-x,y,-z
-x,-y,-z
x,-y,z
1/2+x,1/2+y,z
1/2-x,1/2+y,-z
1/2-x,1/2-y,-z
1/2+x,1/2-y,z
loop_
_atom_site_type_symbol
_atom_site_label
_atom_site_fract_x
_atom_site_fract_y
_atom_site_fract_z
Si Si1 0.455539 0.331850 0.227169
Si Si2 0.153167 0.164321 0.372590
Si Si3 0.782379 0.838789 0.077581
Si Si4 0.927309 0.168078 0.793713
Si Si5 0.366024 0.336275 0.390142
Si Si6 0.255700 0.337050 0.319225
Si Si7 0.100212 0.833056 0.972569
O O1 0.453997 0.500000 0.230783
O O2 0.514432 0.277898 0.245650
O O3 0.414578 0.268795 0.318397
O O4 0.440192 0.278402 0.111688
O O5 0.114917 0.224541 0.286117
O O6 0.123784 0.188371 0.487493
O O7 0.207642 0.247430 0.369784
O O8 0.165921 0.000000 0.353122
O O9 0.756803 0.819014 0.194129
O O10 0.780771 0.000000 0.040512
O O11 0.750000 0.750000 0.000000
O O12 0.842137 0.783588 0.070760
O O13 0.913379 0.230198 0.910846
O O14 0.925903 0.000000 0.794755
O O15 0.363519 0.500000 0.360507
O O16 0.309522 0.273357 0.361918
O O17 0.247736 0.500000 0.352782
O O18 0.096584 0.000000 0.979847
#
# Coordination Sequence:
#
# PCOD8085471 Si02
#       7
#     8   8   8   8   8   8   8
#     4   9  15  26  44  66  93 126 159 193 235 287
#     4  10  20  32  47  72 102 126 154 203 250 279
#     4  10  19  30  47  70  98 129 158 193 236 282
#     4   9  17  26  41  68  98 124 153 193 244 287
#     4   9  17  30  47  67  94 127 163 198 237 283
#     4  10  19  33  50  69  94 130 170 196 227 287
#     4   9  15  26  42  63  93 125 156 191 233 284
#
# _framework density 18.324275
#
# number of rings (size 3 to 8) (size 9 to 14) (size 15 to 20)
#    0.000    2.571    1.429    1.714    0.000    4.000 
#    0.000    2.857    0.000    0.000    0.000    4.000 
#    0.000    4.571    0.000    0.000    0.000    0.000 
#
# Total GULP energy -347118.214132 kJ/mol
# GULP energy per Si atom -12397.079076 kJ/mol
# Density = 1.828257 g / cm^3
# Si number density = 18.324275 Si / 1000 Ang^3
#
#
#
# Elastic Constant Matrix: (Units=GPa)
#
#
# Indices 1 2 3 4 5 6 
#
# 1 101.5469 15.2553 39.7406 0.0000 -8.2234 0.0000
# 2 15.2553 19.0203 14.5924 0.0000 -2.1965 0.0000
# 3 39.7406 14.5924 102.7519 0.0000 -6.1163 0.0000
# 4 0.0000 0.0000 0.0000 13.9059 0.0000 0.2966
# 5 -8.2234 -2.1965 -6.1163 0.0000 29.9844 0.0000
# 6 0.0000 0.0000 0.0000 0.2966 0.0000 17.0865
#
#
#
# Elastic Compliance Matrix: (Units=1/GPa)
#
#
# Indices 1 2 3 4 5 6 
#
# 1 0.012525 -0.006933 -0.003730 0.000000 0.002166 0.000000
# 2 -0.006933 0.063050 -0.006186 0.000000 0.001455 0.000000
# 3 -0.003730 -0.006186 0.012113 0.000000 0.000995 0.000000
# 4 0.000000 0.000000 0.000000 0.071939 0.000000 -0.001249
# 5 0.002166 0.001455 0.000995 0.000000 0.034254 0.000000
# 6 0.000000 0.000000 0.000000 -0.001249 0.000000 0.058547
#
#
# Mechanical properties :
#
#
# Convention : Reuss Voigt Hill
#
# Bulk Modulus (GPa) = 18.52257 40.27729 29.39993
# Shear Modulus (GPa) = 16.44070 22.44409 19.44239
#
# Velocity S-wave (km/s) = 2.99859 3.50355 3.26086
# Velocity P-wave (km/s) = 4.70307 6.19633 5.50061
#
# Compressibility (1/GPa) = 0.05398820
#
# Stress axis : x y z
#
# Youngs Moduli (GPa) = 79.84305 15.86035 82.55803
#
# Poissons Ratio (x) = 0.10996 0.30798
# Poissons Ratio (y) = 0.55357 0.51070
# Poissons Ratio (z) = 0.29785 0.09811
#
# Static dielectric constant tensor:
#      x y z
#    x 3.674120 0.000000 -0.042180 
#    y 0.000000 2.730030 0.000000 
#    z -0.042180 0.000000 3.573380 
# 
# 
# High freq. dielectric constant tensor:
#      x y z
#    x 1.722490 0.000000 -0.000770 
#    y 0.000000 1.630350 0.000000 
#    z -0.000770 0.000000 1.726500 
# 
# From -- ./inp_files/164834.got.cif
#   From: 2010.06.25/outbox.cif.g09.slc.cpg/sg12_83_cif.got.tgz:164834.got - 2010.06.28 00:19:55.
