data_PCOD8085443
_publ_section_title
;
Structure prediction by ZEFSAII (Michael W. Deem and Ramdas Pophale) SiO2 
 PCOD8085443
Probable space group: C 2/M
;
_chemical_formula_sum "Si O2"
_cell_formula_units_Z 40
_cell_length_a 19.535608
_cell_length_b 9.080710
_cell_length_c 14.166003
_cell_angle_alpha 90.000000
_cell_angle_beta 88.321389
_cell_angle_gamma 90.000000
_cell_volume 2511.930719
_symmetry_space_group_name_H-M "C 2/M"
_symmetry_group_IT_number 12
_symmetry_cell_setting 'monoclinic'
loop_
_space_group_symop_operation_xyz
x,y,z
-x,y,-z
-x,-y,-z
x,-y,z
1/2+x,1/2+y,z
1/2-x,1/2+y,-z
1/2-x,1/2-y,-z
1/2+x,1/2-y,z
loop_
_atom_site_type_symbol
_atom_site_label
_atom_site_fract_x
_atom_site_fract_y
_atom_site_fract_z
Si Si1 0.510847 0.673625 0.607110
Si Si2 0.553300 0.833714 0.233250
Si Si3 0.096596 0.666501 0.741888
Si Si4 0.339772 0.171072 0.924006
Si Si5 0.315829 0.329210 0.113383
O O1 0.500000 0.721065 0.500000
O O2 0.517248 0.500000 0.618751
O O3 0.446040 0.733339 0.671729
O O4 0.580812 0.750326 0.643008
O O5 0.475121 0.833279 0.195779
O O6 0.604803 0.769033 0.153194
O O7 0.575816 0.000000 0.259193
O O8 0.121155 0.500000 0.720558
O O9 0.155552 0.750802 0.795113
O O10 0.265155 0.198942 0.883558
O O11 0.351587 0.000000 0.947315
O O12 0.350508 0.261544 0.019083
O O13 0.334635 0.500000 0.116426
#
# Coordination Sequence:
#
# PCOD8085443 Si02
#       5
#     8   8   8   8   8
#     4   9  17  30  49  72  95 116 144 189 239 278
#     4   8  17  31  48  69  91 122 156 188 225 269
#     4   9  18  31  48  69  93 122 154 190 227 271
#     4   9  18  33  48  65  94 129 159 186 224 271
#     4  10  19  30  47  69  95 126 157 190 226 268
#
# _framework density 15.924007
#
# number of rings (size 3 to 8) (size 9 to 14) (size 15 to 20)
#    1.200    1.800    0.000    1.200    0.000    4.000 
#    0.000    4.000    0.000    1.200    0.000    0.000 
#    0.000    0.000    0.000    0.000    0.000    0.000 
#
# Total GULP energy -247823.541365 kJ/mol
# GULP energy per Si atom -12391.177068 kJ/mol
# Density = 1.588776 g / cm^3
# Si number density = 15.924007 Si / 1000 Ang^3
#
#
#
# Elastic Constant Matrix: (Units=GPa)
#
#
# Indices 1 2 3 4 5 6 
#
# 1 26.5479 16.0935 15.2612 0.0000 9.4253 0.0000
# 2 16.0935 88.1505 47.7990 0.0000 16.7557 0.0000
# 3 15.2612 47.7990 82.7101 0.0000 25.7931 0.0000
# 4 0.0000 0.0000 0.0000 30.2239 0.0000 1.8199
# 5 9.4253 16.7557 25.7931 0.0000 20.8758 0.0000
# 6 0.0000 0.0000 0.0000 1.8199 0.0000 20.6797
#
#
#
# Elastic Compliance Matrix: (Units=1/GPa)
#
#
# Indices 1 2 3 4 5 6 
#
# 1 0.046922 -0.005140 -0.000597 0.000000 -0.016321 0.000000
# 2 -0.005140 0.017158 -0.008779 0.000000 -0.000604 0.000000
# 3 -0.000597 -0.008779 0.024390 0.000000 -0.022820 0.000000
# 4 0.000000 0.000000 0.000000 0.033263 0.000000 -0.002927
# 5 -0.016321 -0.000604 -0.022820 0.000000 0.083951 0.000000
# 6 0.000000 0.000000 0.000000 -0.002927 0.000000 0.048614
#
#
# Mechanical properties :
#
#
# Convention : Reuss Voigt Hill
#
# Bulk Modulus (GPa) = 16.82461 39.52400 28.17430
# Shear Modulus (GPa) = 16.49391 22.23954 19.36672
#
# Velocity S-wave (km/s) = 3.22186 3.74117 3.49118
# Velocity P-wave (km/s) = 4.94257 6.59819 5.82945
#
# Compressibility (1/GPa) = 0.05943673
#
# Stress axis : x y z
#
# Youngs Moduli (GPa) = 21.31214 58.28272 40.99988
#
# Poissons Ratio (x) = 0.29958 0.02450
# Poissons Ratio (y) = 0.10955 0.35993
# Poissons Ratio (z) = 0.01273 0.51166
#
# Static dielectric constant tensor:
#      x y z
#    x 2.839660 0.000000 -0.006340 
#    y 0.000000 3.059740 0.000000 
#    z -0.006340 0.000000 2.856990 
# 
# 
# High freq. dielectric constant tensor:
#      x y z
#    x 1.587290 0.000000 0.005800 
#    y 0.000000 1.623390 0.000000 
#    z 0.005800 0.000000 1.594700 
# 
# From -- ./inp_files/220271.got.cif
#   From: 2010.06.25/outbox.cif.g09.slc.cpg/sg12_111_cif.got.tgz:220271.got - 2010.06.28 00:19:55.
