data_PCOD8085810
_publ_section_title
;
Structure prediction by ZEFSAII (Michael W. Deem and Ramdas Pophale) SiO2 
 PCOD8085810
Probable space group: C 2/M
;
_chemical_formula_sum "Si O2"
_cell_formula_units_Z 64
_cell_length_a 20.974469
_cell_length_b 9.054825
_cell_length_c 24.482304
_cell_angle_alpha 90.000000
_cell_angle_beta 128.255985
_cell_angle_gamma 90.000000
_cell_volume 3651.173880
_symmetry_space_group_name_H-M "C 2/M"
_symmetry_group_IT_number 12
_symmetry_cell_setting 'monoclinic'
loop_
_space_group_symop_operation_xyz
x,y,z
-x,y,-z
-x,-y,-z
x,-y,z
1/2+x,1/2+y,z
1/2-x,1/2+y,-z
1/2-x,1/2-y,-z
1/2+x,1/2-y,z
loop_
_atom_site_type_symbol
_atom_site_label
_atom_site_fract_x
_atom_site_fract_y
_atom_site_fract_z
Si Si1 0.711938 0.172519 0.281158
Si Si2 0.748924 0.170119 0.080411
Si Si3 0.621638 0.671081 0.421847
Si Si4 0.753376 0.830563 0.422294
Si Si5 0.965502 0.675028 0.790975
Si Si6 0.023922 0.675164 0.703368
Si Si7 0.306160 0.327337 0.227060
Si Si8 0.874155 0.326838 0.072274
O O1 0.763458 0.203710 0.363436
O O2 0.621740 0.243686 0.238907
O O3 0.760070 0.240144 0.255287
O O4 0.702080 0.000000 0.264695
O O5 0.745991 0.198489 0.143584
O O6 0.822609 0.260055 0.094134
O O7 0.766064 0.000000 0.076088
O O8 0.663269 0.218412 0.006637
O O9 0.602739 0.500000 0.401538
O O10 0.684370 0.725024 0.409270
O O11 0.660722 0.697668 0.502488
O O12 0.538547 0.762913 0.374981
O O13 0.724487 0.000000 0.415872
O O14 0.957197 0.500000 0.783623
O O15 0.993505 0.731931 0.746359
O O16 0.032336 0.725700 0.871660
O O17 0.027492 0.500000 0.701450
O O18 0.111823 0.738578 0.737518
O O19 0.327268 0.500000 0.245263
O O20 0.870705 0.500000 0.079842
#
# Coordination Sequence:
#
# PCOD8085810 Si02
#       8
#     8   8   8   8   8   8   8   8
#     4   9  17  32  52  72  98 133 168 200 242 300
#     4   9  17  28  44  71 102 126 156 202 251 288
#     4  10  19  30  50  79 104 125 161 214 256 287
#     4   9  17  32  52  74 101 135 169 199 244 303
#     4   9  16  28  50  74  93 124 169 203 231 285
#     4  11  20  33  53  74  99 131 169 208 246 298
#     4  10  20  33  50  73 102 132 164 207 252 291
#     4   9  16  28  47  71  97 127 163 200 241 293
#
# _framework density 17.528608999999999
#
# number of rings (size 3 to 8) (size 9 to 14) (size 15 to 20)
#    0.000    2.500    2.500    0.750    0.000    0.500 
#    0.000    1.875    0.000    7.500    0.000    0.000 
#    0.000    5.000    0.000    0.000    0.000    0.000 
#
# Total GULP energy -396656.682814 kJ/mol
# GULP energy per Si atom -12395.521338 kJ/mol
# Density = 1.748871 g / cm^3
# Si number density = 17.528609 Si / 1000 Ang^3
#
#
#
# Elastic Constant Matrix: (Units=GPa)
#
#
# Indices 1 2 3 4 5 6 
#
# 1 119.0430 30.9329 74.9764 0.0000 -0.5959 0.0000
# 2 30.9329 41.2363 37.2125 0.0000 1.9713 0.0000
# 3 74.9764 37.2125 147.7451 0.0000 3.6598 0.0000
# 4 0.0000 0.0000 0.0000 20.2805 0.0000 3.5561
# 5 -0.5959 1.9713 3.6598 0.0000 27.7264 0.0000
# 6 0.0000 0.0000 0.0000 3.5561 0.0000 20.1000
#
#
#
# Elastic Compliance Matrix: (Units=1/GPa)
#
#
# Indices 1 2 3 4 5 6 
#
# 1 0.013133 -0.005011 -0.005436 0.000000 0.001356 0.000000
# 2 -0.005011 0.033335 -0.005811 0.000000 -0.001711 0.000000
# 3 -0.005436 -0.005811 0.011019 0.000000 -0.001158 0.000000
# 4 0.000000 0.000000 0.000000 0.050887 0.000000 -0.009003
# 5 0.001356 -0.001711 -0.001158 0.000000 0.036370 0.000000
# 6 0.000000 0.000000 0.000000 -0.009003 0.000000 0.051344
#
#
# Mechanical properties :
#
#
# Convention : Reuss Voigt Hill
#
# Bulk Modulus (GPa) = 40.04524 66.02978 53.03751
# Shear Modulus (GPa) = 21.10346 24.61489 22.85918
#
# Velocity S-wave (km/s) = 3.47355 3.75142 3.61516
# Velocity P-wave (km/s) = 6.24361 7.51769 6.91008
#
# Compressibility (1/GPa) = 0.02497176
#
# Stress axis : x y z
#
# Youngs Moduli (GPa) = 76.14439 29.99866 90.74919
#
# Poissons Ratio (x) = 0.15031 0.49333
# Poissons Ratio (y) = 0.38153 0.52733
# Poissons Ratio (z) = 0.41393 0.17432
#
# Static dielectric constant tensor:
#      x y z
#    x 3.188760 0.000000 0.085960 
#    y 0.000000 3.071120 0.000000 
#    z 0.085960 0.000000 3.710800 
# 
# 
# High freq. dielectric constant tensor:
#      x y z
#    x 1.645370 0.000000 0.008140 
#    y 0.000000 1.653480 0.000000 
#    z 0.008140 0.000000 1.698360 
# 
# From -- ./inp_files/346239.got.cif
#   From: 2010.06.25/outbox.cif.g09.slc.cpg/sg12_174_cif.got.tgz:346239.got - 2010.06.28 00:19:55.
