data_PCOD8085425
_publ_section_title
;
Structure prediction by ZEFSAII (Michael W. Deem and Ramdas Pophale) SiO2 
 PCOD8085425
Probable space group: C 2/M
;
_chemical_formula_sum "Si O2"
_cell_formula_units_Z 64
_cell_length_a 28.670953
_cell_length_b 9.124780
_cell_length_c 14.198176
_cell_angle_alpha 90.000000
_cell_angle_beta 87.710030
_cell_angle_gamma 90.000000
_cell_volume 3711.505621
_symmetry_space_group_name_H-M "C 2/M"
_symmetry_group_IT_number 12
_symmetry_cell_setting 'monoclinic'
loop_
_space_group_symop_operation_xyz
x,y,z
-x,y,-z
-x,-y,-z
x,-y,z
1/2+x,1/2+y,z
1/2-x,1/2+y,-z
1/2-x,1/2-y,-z
1/2+x,1/2-y,z
loop_
_atom_site_type_symbol
_atom_site_label
_atom_site_fract_x
_atom_site_fract_y
_atom_site_fract_z
Si Si1 0.846618 0.171231 0.342015
Si Si2 0.817226 0.669802 0.717783
Si Si3 0.278765 0.671410 0.185658
Si Si4 0.347921 0.171578 0.059975
Si Si5 0.082120 0.170677 0.809840
Si Si6 0.202299 0.174762 0.472401
Si Si7 0.607893 0.168564 0.137708
Si Si8 0.014310 0.829214 0.101572
O O1 0.807480 0.232287 0.273510
O O2 0.898094 0.211585 0.296457
O O3 0.837142 0.227996 0.448586
O O4 0.839378 0.000000 0.346369
O O5 0.813326 0.500000 0.687327
O O6 0.775283 0.708025 0.792996
O O7 0.815216 0.771060 0.626767
O O8 0.865470 0.703433 0.767218
O O9 0.287154 0.500000 0.168228
O O10 0.298503 0.755668 0.092554
O O11 0.391070 0.236711 0.114405
O O12 0.344823 0.000000 0.079727
O O13 0.357402 0.208416 0.950339
O O14 0.027209 0.204988 0.820874
O O15 0.091899 0.000000 0.831050
O O16 0.250000 0.250000 0.500000
O O17 0.209101 0.000000 0.469455
O O18 0.560434 0.258345 0.139351
O O19 0.593476 0.000000 0.132605
O O20 0.024464 0.000000 0.090858
O O21 0.000000 0.765789 0.000000
#
# Coordination Sequence:
#
# PCOD8085425 Si02
#       8
#     8   8   8   8   8   8   8   8
#     4   8  15  29  50  74  99 130 165 202 253 304
#     4  10  21  38  53  71 102 143 180 211 258 311
#     4   9  17  32  51  69  98 140 174 206 249 304
#     4  10  19  30  46  74 105 134 171 212 250 302
#     4   9  17  32  52  74 101 135 167 205 256 308
#     4  11  20  33  54  80 105 134 172 217 259 305
#     4  10  22  36  51  72 106 143 172 211 264 313
#     4  10  19  32  54  80 102 129 174 220 253 301
#
# _framework density 17.243677000000002
#
# number of rings (size 3 to 8) (size 9 to 14) (size 15 to 20)
#    0.000    2.375    2.500    1.500    0.000    2.750 
#    0.000    0.625    0.000    0.750    0.000    5.250 
#    0.000    0.000    0.000    0.000    0.000    0.000 
#
# Total GULP energy -396645.942397 kJ/mol
# GULP energy per Si atom -12395.185700 kJ/mol
# Density = 1.720443 g / cm^3
# Si number density = 17.243677 Si / 1000 Ang^3
#
#
#
# Elastic Constant Matrix: (Units=GPa)
#
#
# Indices 1 2 3 4 5 6 
#
# 1 114.5172 40.5653 58.1613 0.0000 -11.6244 0.0000
# 2 40.5653 59.7360 46.1097 0.0000 -5.6438 0.0000
# 3 58.1613 46.1097 102.6124 0.0000 -11.9355 0.0000
# 4 0.0000 0.0000 0.0000 24.5091 0.0000 -1.8620
# 5 -11.6244 -5.6438 -11.9355 0.0000 24.8979 0.0000
# 6 0.0000 0.0000 0.0000 -1.8620 0.0000 26.1458
#
#
#
# Elastic Compliance Matrix: (Units=1/GPa)
#
#
# Indices 1 2 3 4 5 6 
#
# 1 0.013289 -0.004895 -0.005020 0.000000 0.002688 0.000000
# 2 -0.004895 0.027436 -0.009633 0.000000 -0.000685 0.000000
# 3 -0.005020 -0.009633 0.017361 0.000000 0.003795 0.000000
# 4 0.000000 0.000000 0.000000 0.041023 0.000000 0.002922
# 5 0.002688 -0.000685 0.003795 0.000000 0.043083 0.000000
# 6 0.000000 0.000000 0.000000 0.002922 0.000000 0.038455
#
#
# Mechanical properties :
#
#
# Convention : Reuss Voigt Hill
#
# Bulk Modulus (GPa) = 52.66328 62.94867 57.80597
# Shear Modulus (GPa) = 22.11670 23.91252 23.01461
#
# Velocity S-wave (km/s) = 3.58522 3.72794 3.65728
# Velocity P-wave (km/s) = 6.90980 7.42392 7.17147
#
# Compressibility (1/GPa) = 0.01898856
#
# Stress axis : x y z
#
# Youngs Moduli (GPa) = 75.25209 36.44842 57.60093
#
# Poissons Ratio (x) = 0.17843 0.28913
# Poissons Ratio (y) = 0.36839 0.55490
# Poissons Ratio (z) = 0.37773 0.35112
#
# Static dielectric constant tensor:
#      x y z
#    x 3.214160 0.000000 -0.318800 
#    y 0.000000 3.107680 0.000000 
#    z -0.318800 0.000000 3.384350 
# 
# 
# High freq. dielectric constant tensor:
#      x y z
#    x 1.657160 0.000000 -0.021410 
#    y 0.000000 1.654870 0.000000 
#    z -0.021410 0.000000 1.655490 
# 
# From -- ./inp_files/248428.got.cif
#   From: 2010.06.25/outbox.cif.g09.slc.cpg/sg12_125_cif.got.tgz:248428.got - 2010.06.28 00:19:55.
