data_PCOD8085677
_publ_section_title
;
Structure prediction by ZEFSAII (Michael W. Deem and Ramdas Pophale) SiO2 
 PCOD8085677
Probable space group: C 2/M
;
_chemical_formula_sum "Si O2"
_cell_formula_units_Z 56
_cell_length_a 19.164036
_cell_length_b 9.057800
_cell_length_c 21.782752
_cell_angle_alpha 90.000000
_cell_angle_beta 124.729836
_cell_angle_gamma 90.000000
_cell_volume 3107.518212
_symmetry_space_group_name_H-M "C 2/M"
_symmetry_group_IT_number 12
_symmetry_cell_setting 'monoclinic'
loop_
_space_group_symop_operation_xyz
x,y,z
-x,y,-z
-x,-y,-z
x,-y,z
1/2+x,1/2+y,z
1/2-x,1/2+y,-z
1/2-x,1/2-y,-z
1/2+x,1/2-y,z
loop_
_atom_site_type_symbol
_atom_site_label
_atom_site_fract_x
_atom_site_fract_y
_atom_site_fract_z
Si Si1 0.621728 0.327834 0.451112
Si Si2 0.006806 0.326150 0.806630
Si Si3 0.781924 0.330955 0.204294
Si Si4 0.025454 0.671111 0.679832
Si Si5 0.310420 0.172539 0.078012
Si Si6 0.676783 0.826164 0.248936
Si Si7 0.246995 0.172790 0.403270
O O1 0.618525 0.500000 0.464410
O O2 0.526534 0.264974 0.396321
O O3 0.665829 0.245879 0.530030
O O4 0.672545 0.292708 0.414134
O O5 0.018565 0.500000 0.805072
O O6 0.000348 0.264323 0.734191
O O7 0.923042 0.282349 0.802452
O O8 0.092622 0.267948 0.882842
O O9 0.753604 0.500000 0.199464
O O10 0.781640 0.289442 0.132593
O O11 0.715021 0.223660 0.203366
O O12 0.874454 0.306284 0.280676
O O13 0.999726 0.500000 0.660372
O O14 0.304835 0.000000 0.062536
O O15 0.250000 0.250000 0.000000
O O16 0.724206 0.742383 0.326912
O O17 0.688079 0.000000 0.264299
O O18 0.262173 0.000000 0.402205
#
# Coordination Sequence:
#
# PCOD8085677 Si02
#       7
#     8   8   8   8   8   8   8
#     4  10  19  30  48  76 104 132 174 225 264 299
#     4   8  16  31  53  77 101 134 173 209 252 304
#     4   9  20  36  54  76 107 142 170 205 261 317
#     4   9  16  32  54  72  97 137 178 215 256 311
#     4   9  18  36  59  81 105 135 171 210 250 303
#     4  11  20  33  54  78 105 136 174 219 259 304
#     4  10  20  32  48  72 105 141 173 213 264 313
#
# _framework density 18.020811999999999
#
# number of rings (size 3 to 8) (size 9 to 14) (size 15 to 20)
#    0.000    2.571    1.429    3.000    0.000    2.286 
#    0.000    5.000    0.000    8.571    0.000    0.000 
#    0.000    0.000    0.000    0.000    0.000    0.000 
#
# Total GULP energy -347166.761365 kJ/mol
# GULP energy per Si atom -12398.812906 kJ/mol
# Density = 1.797980 g / cm^3
# Si number density = 18.020812 Si / 1000 Ang^3
#
#
#
# Elastic Constant Matrix: (Units=GPa)
#
#
# Indices 1 2 3 4 5 6 
#
# 1 96.9740 46.0401 55.2582 0.0000 11.3636 0.0000
# 2 46.0401 75.1226 53.9417 0.0000 5.9177 0.0000
# 3 55.2582 53.9417 135.5288 0.0000 22.5333 0.0000
# 4 0.0000 0.0000 0.0000 34.0574 0.0000 0.3183
# 5 11.3636 5.9177 22.5333 0.0000 22.8560 0.0000
# 6 0.0000 0.0000 0.0000 0.3183 0.0000 28.3002
#
#
#
# Elastic Compliance Matrix: (Units=1/GPa)
#
#
# Indices 1 2 3 4 5 6 
#
# 1 0.015872 -0.007283 -0.003079 0.000000 -0.002970 0.000000
# 2 -0.007283 0.022150 -0.006573 0.000000 0.004366 0.000000
# 3 -0.003079 -0.006573 0.012813 0.000000 -0.009399 0.000000
# 4 0.000000 0.000000 0.000000 0.029365 0.000000 -0.000330
# 5 -0.002970 0.004366 -0.009399 0.000000 0.053365 0.000000
# 6 0.000000 0.000000 0.000000 -0.000330 0.000000 0.035339
#
#
# Mechanical properties :
#
#
# Convention : Reuss Voigt Hill
#
# Bulk Modulus (GPa) = 58.93941 68.67838 63.80889
# Shear Modulus (GPa) = 23.98901 27.20175 25.59538
#
# Velocity S-wave (km/s) = 3.65250 3.88940 3.77281
# Velocity P-wave (km/s) = 7.11090 7.63958 7.37998
#
# Compressibility (1/GPa) = 0.01696658
#
# Stress axis : x y z
#
# Youngs Moduli (GPa) = 63.00336 45.14588 78.04823
#
# Poissons Ratio (x) = 0.32878 0.24032
# Poissons Ratio (y) = 0.45883 0.51298
# Poissons Ratio (z) = 0.19399 0.29673
#
# Static dielectric constant tensor:
#      x y z
#    x 3.285170 0.000000 0.199480 
#    y 0.000000 3.166910 0.000000 
#    z 0.199480 0.000000 3.239990 
# 
# 
# High freq. dielectric constant tensor:
#      x y z
#    x 1.686210 0.000000 0.015150 
#    y 0.000000 1.687730 0.000000 
#    z 0.015150 0.000000 1.689880 
# 
# From -- ./inp_files/314375.got.cif
#   From: 2010.06.25/outbox.cif.g09.slc.cpg/sg12_158_cif.got.tgz:314375.got - 2010.06.28 00:19:55.
