data_PCOD8085110
_publ_section_title
;
Structure prediction by ZEFSAII (Michael W. Deem and Ramdas Pophale) SiO2 
 PCOD8085110
Probable space group: C 2/M
;
_chemical_formula_sum "Si O2"
_cell_formula_units_Z 64
_cell_length_a 5.218398
_cell_length_b 36.357921
_cell_length_c 28.367893
_cell_angle_alpha 90.000000
_cell_angle_beta 106.017544
_cell_angle_gamma 90.000000
_cell_volume 5173.289758
_symmetry_space_group_name_H-M "C 2/M"
_symmetry_group_IT_number 12
_symmetry_cell_setting 'monoclinic'
loop_
_space_group_symop_operation_xyz
x,y,z
-x,y,-z
-x,-y,-z
x,-y,z
1/2+x,1/2+y,z
1/2-x,1/2+y,-z
1/2-x,1/2-y,-z
1/2+x,1/2-y,z
loop_
_atom_site_type_symbol
_atom_site_label
_atom_site_fract_x
_atom_site_fract_y
_atom_site_fract_z
Si Si1 0.291875 0.543852 0.527917
Si Si2 0.412960 0.353617 0.941974
Si Si3 0.041968 0.043834 0.361291
Si Si4 0.587783 0.728951 0.058523
Si Si5 0.458000 0.043906 0.305312
Si Si6 0.086991 0.397482 0.057993
Si Si7 0.205052 0.456507 0.136702
Si Si8 0.292781 0.956486 0.195190
O O1 0.500000 0.558946 0.500000
O O2 0.292226 0.500000 0.528150
O O3 0.374973 0.559075 0.583316
O O4 0.000000 0.558945 0.500000
O O5 0.380150 0.312431 0.920098
O O6 0.638814 0.374858 0.924217
O O7 0.133829 0.374856 0.924217
O O8 0.500000 0.350920 0.000000
O O9 0.750008 0.058868 0.333370
O O10 0.250214 0.058868 0.333381
O O11 0.042501 0.000000 0.361647
O O12 0.367580 0.750000 0.078387
O O13 0.500000 0.728301 0.000000
O O14 0.375180 0.059895 0.250119
O O15 0.456910 0.000000 0.304586
O O16 0.125760 0.437125 0.083843
O O17 0.000000 0.404729 0.000000
O O18 0.190580 0.500000 0.127050
O O19 0.497812 0.443165 0.166877
O O20 0.002813 0.443167 0.166877
O O21 0.298169 0.000000 0.198790
#
# Coordination Sequence:
#
# PCOD8085110 Si02
#       8
#     8   8   8   8   8   8   8   8
#     4   9  15  21  27  36  53  75  95 113 131 155
#     4   9  17  28  40  55  74  93 111 129 152 181
#     4   9  15  21  30  43  56  72  93 113 137 174
#     4   9  15  23  37  56  75  93 111 129 147 170
#     4   9  15  23  34  46  58  70  87 115 152 190
#     4  10  19  30  42  54  70  91 111 133 160 192
#     4  10  19  30  42  54  66  82 107 136 168 205
#     4   9  17  28  40  52  64  76  93 126 169 205
#
# _framework density 12.371238999999999
#
# number of rings (size 3 to 8) (size 9 to 14) (size 15 to 20)
#    0.000    2.750    0.000    3.000    0.000    9.250 
#    0.000    0.000    0.000    4.500    0.000    0.000 
#    0.000    0.000    0.000    0.000    0.000    0.000 
#
# Total GULP energy -396738.066375 kJ/mol
# GULP energy per Si atom -12398.064574 kJ/mol
# Density = 1.234308 g / cm^3
# Si number density = 12.371239 Si / 1000 Ang^3
#
#
#
# Elastic Constant Matrix: (Units=GPa)
#
#
# Indices 1 2 3 4 5 6 
#
# 1 134.8769 29.5783 46.4626 0.0000 -0.8502 0.0000
# 2 29.5783 39.6563 27.5498 0.0000 -0.0321 0.0000
# 3 46.4626 27.5498 74.6108 0.0000 -0.0380 0.0000
# 4 0.0000 0.0000 0.0000 0.8919 0.0000 -0.1220
# 5 -0.8502 -0.0321 -0.0380 0.0000 15.3487 0.0000
# 6 0.0000 0.0000 0.0000 -0.1220 0.0000 9.1952
#
#
#
# Elastic Compliance Matrix: (Units=1/GPa)
#
#
# Indices 1 2 3 4 5 6 
#
# 1 0.009934 -0.004185 -0.004641 0.000000 0.000530 0.000000
# 2 -0.004185 0.035680 -0.010569 0.000000 -0.000183 0.000000
# 3 -0.004641 -0.010569 0.020195 0.000000 -0.000229 0.000000
# 4 0.000000 0.000000 0.000000 1.123219 0.000000 0.014901
# 5 0.000530 -0.000183 -0.000229 0.000000 0.065180 0.000000
# 6 0.000000 0.000000 0.000000 0.014901 0.000000 0.108950
#
#
# Mechanical properties :
#
#
# Convention : Reuss Voigt Hill
#
# Bulk Modulus (GPa) = 37.00892 50.70282 43.85587
# Shear Modulus (GPa) = 3.54370 14.79073 9.16721
#
# Velocity S-wave (km/s) = 1.69431 3.46146 2.72510
# Velocity P-wave (km/s) = 5.81445 7.55308 6.74006
#
# Compressibility (1/GPa) = 0.02702052
#
# Stress axis : x y z
#
# Youngs Moduli (GPa) = 100.66571 28.02666 49.51704
#
# Poissons Ratio (x) = 0.11729 0.22979
# Poissons Ratio (y) = 0.42129 0.52333
# Poissons Ratio (z) = 0.46715 0.29621
#
# Static dielectric constant tensor:
#      x y z
#    x 2.831380 0.000000 -0.005470 
#    y 0.000000 2.135660 0.000000 
#    z -0.005470 0.000000 2.458360 
# 
# 
# High freq. dielectric constant tensor:
#      x y z
#    x 1.495980 0.000000 -0.000690 
#    y 0.000000 1.403480 0.000000 
#    z -0.000690 0.000000 1.449190 
# 
# From -- ./inp_files/331643.got.cif
#   From: 2010.06.25/outbox.cif.g09.slc.cpg/sg12_166_cif.got.tgz:331643.got - 2010.06.28 00:19:55.
