data_PCOD8085966
_publ_section_title
;
Structure prediction by ZEFSAII (Michael W. Deem and Ramdas Pophale) SiO2 
 PCOD8085966
Probable space group: C 2/M
;
_chemical_formula_sum "Si O2"
_cell_formula_units_Z 64
_cell_length_a 25.367051
_cell_length_b 9.358641
_cell_length_c 15.194289
_cell_angle_alpha 90.000000
_cell_angle_beta 105.881927
_cell_angle_gamma 90.000000
_cell_volume 3469.448320
_symmetry_space_group_name_H-M "C 2/M"
_symmetry_group_IT_number 12
_symmetry_cell_setting 'monoclinic'
loop_
_space_group_symop_operation_xyz
x,y,z
-x,y,-z
-x,-y,-z
x,-y,z
1/2+x,1/2+y,z
1/2-x,1/2+y,-z
1/2-x,1/2-y,-z
1/2+x,1/2-y,z
loop_
_atom_site_type_symbol
_atom_site_label
_atom_site_fract_x
_atom_site_fract_y
_atom_site_fract_z
Si Si1 0.125255 0.659094 0.306804
Si Si2 0.652780 0.336437 0.798500
Si Si3 0.250176 0.842573 0.585551
Si Si4 0.563585 0.669747 0.428507
Si Si5 0.274416 0.843381 0.277315
Si Si6 0.346997 0.342288 0.834066
Si Si7 0.804743 0.834987 0.999402
Si Si8 0.440193 0.668324 0.375209
O O1 0.098789 0.500000 0.290747
O O2 0.189701 0.641888 0.348102
O O3 0.101795 0.748438 0.377473
O O4 0.114445 0.739698 0.208113
O O5 0.664991 0.500000 0.775842
O O6 0.703793 0.234350 0.799678
O O7 0.648964 0.325093 0.902535
O O8 0.599804 0.276924 0.721261
O O9 0.250000 0.750000 0.500000
O O10 0.210065 0.760307 0.634615
O O11 0.225278 0.000000 0.555584
O O12 0.570362 0.500000 0.417253
O O13 0.501412 0.723396 0.383201
O O14 0.579860 0.714989 0.536162
O O15 0.209745 0.861512 0.242913
O O16 0.301582 0.000000 0.302152
O O17 0.374700 0.500000 0.855340
O O18 0.334609 0.275247 0.925109
O O19 0.787353 0.000000 0.974706
O O20 0.750000 0.750000 0.000000
O O21 0.443412 0.500000 0.375606
#
# Coordination Sequence:
#
# PCOD8085966 Si02
#       8
#     8   8   8   8   8   8   8   8
#     4  10  21  34  50  74  99 126 166 213 255 295
#     4  10  19  31  50  76 103 132 166 210 255 296
#     4  10  21  34  46  66  98 133 169 206 247 296
#     4   9  17  34  57  75  98 132 168 205 249 307
#     4  10  19  31  46  67 100 135 170 204 239 291
#     4   9  18  33  49  69  98 135 173 202 238 296
#     4  10  19  31  50  74 103 136 170 209 251 297
#     4   8  17  33  53  78 101 128 168 207 248 302
#
# _framework density 18.446736000000001
#
# number of rings (size 3 to 8) (size 9 to 14) (size 15 to 20)
#    0.000    2.500    1.250    1.875    1.750    2.500 
#    0.000    1.875    0.000    0.750    0.000    5.250 
#    0.000    0.000    0.000    0.000    0.000    0.000 
#
# Total GULP energy -396515.087199 kJ/mol
# GULP energy per Si atom -12391.096475 kJ/mol
# Density = 1.840475 g / cm^3
# Si number density = 18.446736 Si / 1000 Ang^3
#
#
#
# Elastic Constant Matrix: (Units=GPa)
#
#
# Indices 1 2 3 4 5 6 
#
# 1 35.9679 20.3235 23.5273 0.0000 -7.8626 0.0000
# 2 20.3235 103.5490 43.2281 0.0000 -15.7689 0.0000
# 3 23.5273 43.2281 116.5607 0.0000 -17.3794 0.0000
# 4 0.0000 0.0000 0.0000 19.8196 0.0000 -5.3456
# 5 -7.8626 -15.7689 -17.3794 0.0000 27.8868 0.0000
# 6 0.0000 0.0000 0.0000 -5.3456 0.0000 16.3905
#
#
#
# Elastic Compliance Matrix: (Units=1/GPa)
#
#
# Indices 1 2 3 4 5 6 
#
# 1 0.034151 -0.004059 -0.004734 0.000000 0.004383 0.000000
# 2 -0.004059 0.012376 -0.003194 0.000000 0.003863 0.000000
# 3 -0.004734 -0.003194 0.011301 0.000000 0.003902 0.000000
# 4 0.000000 0.000000 0.000000 0.055321 0.000000 0.018042
# 5 0.004383 0.003863 0.003902 0.000000 0.041711 0.000000
# 6 0.000000 0.000000 0.000000 0.018042 0.000000 0.066895
#
#
# Mechanical properties :
#
#
# Convention : Reuss Voigt Hill
#
# Bulk Modulus (GPa) = 29.53986 47.80391 38.67188
# Shear Modulus (GPa) = 19.45408 24.08596 21.77002
#
# Velocity S-wave (km/s) = 3.25100 3.61737 3.43907
# Velocity P-wave (km/s) = 5.49002 6.58923 6.06458
#
# Compressibility (1/GPa) = 0.03385257
#
# Stress axis : x y z
#
# Youngs Moduli (GPa) = 29.28166 80.80340 88.48500
#
# Poissons Ratio (x) = 0.32797 0.41893
# Poissons Ratio (y) = 0.11885 0.28266
# Poissons Ratio (z) = 0.13863 0.25813
#
# Static dielectric constant tensor:
#      x y z
#    x 3.498220 0.000000 -0.039610 
#    y 0.000000 3.589810 0.000000 
#    z -0.039610 0.000000 3.666720 
# 
# 
# High freq. dielectric constant tensor:
#      x y z
#    x 1.675300 0.000000 -0.020830 
#    y 0.000000 1.710730 0.000000 
#    z -0.020830 0.000000 1.716640 
# 
# From -- ./inp_files/244157.got.cif
#   From: 2010.06.25/outbox.cif.g09.slc.cpg/sg12_123_cif.got.tgz:244157.got - 2010.06.28 00:19:55.
