data_PCOD8085636
_publ_section_title
;
Structure prediction by ZEFSAII (Michael W. Deem and Ramdas Pophale) SiO2 
 PCOD8085636
Probable space group: C 2/M
;
_chemical_formula_sum "Si O2"
_cell_formula_units_Z 56
_cell_length_a 18.398828
_cell_length_b 9.221789
_cell_length_c 20.362941
_cell_angle_alpha 90.000000
_cell_angle_beta 118.438400
_cell_angle_gamma 90.000000
_cell_volume 3038.068351
_symmetry_space_group_name_H-M "C 2/M"
_symmetry_group_IT_number 12
_symmetry_cell_setting 'monoclinic'
loop_
_space_group_symop_operation_xyz
x,y,z
-x,y,-z
-x,-y,-z
x,-y,z
1/2+x,1/2+y,z
1/2-x,1/2+y,-z
1/2-x,1/2-y,-z
1/2+x,1/2-y,z
loop_
_atom_site_type_symbol
_atom_site_label
_atom_site_fract_x
_atom_site_fract_y
_atom_site_fract_z
Si Si1 0.310858 0.831837 0.439626
Si Si2 0.981324 0.667018 0.286761
Si Si3 0.177447 0.671978 0.703396
Si Si4 0.346451 0.671932 0.838127
Si Si5 0.413857 0.659704 0.000557
Si Si6 0.994250 0.333577 0.141318
Si Si7 0.370376 0.668307 0.585960
O O1 0.329294 0.774441 0.374484
O O2 0.368637 0.741777 0.513628
O O3 0.214958 0.804019 0.413030
O O4 0.333916 0.000000 0.457722
O O5 0.998820 0.500000 0.313034
O O6 0.901846 0.728785 0.291108
O O7 0.963272 0.683581 0.202121
O O8 0.059770 0.761609 0.339444
O O9 0.182012 0.500000 0.707997
O O10 0.260832 0.733371 0.772361
O O11 0.357128 0.500000 0.831926
O O12 0.347392 0.709199 0.916718
O O13 0.420529 0.748195 0.831140
O O14 0.391414 0.500000 0.018650
O O15 0.500000 0.652839 0.000000
O O16 0.420457 0.771306 0.063708
O O17 0.009220 0.500000 0.128561
O O18 0.389221 0.500000 0.584478
#
# Coordination Sequence:
#
# PCOD8085636 Si02
#       7
#     8   8   8   8   8   8   8
#     4   9  18  34  56  77  96 125 164 202 240 285
#     4  10  21  35  50  71 100 133 166 199 239 289
#     4   9  18  34  54  72  94 130 172 203 231 282
#     4   9  17  32  54  75  95 125 168 209 240 280
#     4   8  15  28  48  73  97 125 163 204 242 283
#     4  10  19  30  48  74 102 129 158 200 251 294
#     4  10  20  34  54  78 101 125 157 202 249 289
#
# _framework density 18.432765
#
# number of rings (size 3 to 8) (size 9 to 14) (size 15 to 20)
#    0.000    2.714    0.000    2.571    0.000    6.000 
#    0.000    5.714    0.000    0.000    0.000    0.000 
#    0.000    0.000    0.000    0.000    0.000    0.000 
#
# Total GULP energy -347178.495575 kJ/mol
# GULP energy per Si atom -12399.231985 kJ/mol
# Density = 1.839081 g / cm^3
# Si number density = 18.432765 Si / 1000 Ang^3
#
#
#
# Elastic Constant Matrix: (Units=GPa)
#
#
# Indices 1 2 3 4 5 6 
#
# 1 61.4099 31.9814 35.2930 0.0000 -18.1302 0.0000
# 2 31.9814 70.8074 46.9634 0.0000 -9.9713 0.0000
# 3 35.2930 46.9634 109.7249 0.0000 -22.2330 0.0000
# 4 0.0000 0.0000 0.0000 32.2841 0.0000 -1.3047
# 5 -18.1302 -9.9713 -22.2330 0.0000 17.1525 0.0000
# 6 0.0000 0.0000 0.0000 -1.3047 0.0000 14.6526
#
#
#
# Elastic Compliance Matrix: (Units=1/GPa)
#
#
# Indices 1 2 3 4 5 6 
#
# 1 0.028434 -0.009244 -0.000255 0.000000 0.024350 0.000000
# 2 -0.009244 0.022733 -0.008217 0.000000 -0.007206 0.000000
# 3 -0.000255 -0.008217 0.015854 0.000000 0.015504 0.000000
# 4 0.000000 0.000000 0.000000 0.031087 0.000000 0.002768
# 5 0.024350 -0.007206 0.015504 0.000000 0.099945 0.000000
# 6 0.000000 0.000000 0.000000 0.002768 0.000000 0.068494
#
#
# Mechanical properties :
#
#
# Convention : Reuss Voigt Hill
#
# Bulk Modulus (GPa) = 31.65709 52.26864 41.96287
# Shear Modulus (GPa) = 15.99956 21.33149 18.66553
#
# Velocity S-wave (km/s) = 2.94937 3.40554 3.18563
# Velocity P-wave (km/s) = 5.36750 6.62432 6.02875
#
# Compressibility (1/GPa) = 0.03158850
#
# Stress axis : x y z
#
# Youngs Moduli (GPa) = 35.16933 43.98856 63.07532
#
# Poissons Ratio (x) = 0.40665 0.01609
# Poissons Ratio (y) = 0.32512 0.51828
# Poissons Ratio (z) = 0.00897 0.36144
#
# Static dielectric constant tensor:
#      x y z
#    x 3.211880 0.000000 -0.028980 
#    y 0.000000 3.292110 0.000000 
#    z -0.028980 0.000000 3.746310 
# 
# 
# High freq. dielectric constant tensor:
#      x y z
#    x 1.688130 0.000000 -0.004350 
#    y 0.000000 1.698190 0.000000 
#    z -0.004350 0.000000 1.732430 
# 
# From -- ./inp_files/314412.got.cif
#   From: 2010.06.25/outbox.cif.g09.slc.cpg/sg12_158_cif.got.tgz:314412.got - 2010.06.28 00:19:55.
