data_PCOD8085742
_publ_section_title
;
Structure prediction by ZEFSAII (Michael W. Deem and Ramdas Pophale) SiO2 
 PCOD8085742
Probable space group: C 2/M
;
_chemical_formula_sum "Si O2"
_cell_formula_units_Z 40
_cell_length_a 24.850647
_cell_length_b 9.087387
_cell_length_c 12.089484
_cell_angle_alpha 90.000000
_cell_angle_beta 120.860416
_cell_angle_gamma 90.000000
_cell_volume 2343.603074
_symmetry_space_group_name_H-M "C 2/M"
_symmetry_group_IT_number 12
_symmetry_cell_setting 'monoclinic'
loop_
_space_group_symop_operation_xyz
x,y,z
-x,y,-z
-x,-y,-z
x,-y,z
1/2+x,1/2+y,z
1/2-x,1/2+y,-z
1/2-x,1/2-y,-z
1/2+x,1/2-y,z
loop_
_atom_site_type_symbol
_atom_site_label
_atom_site_fract_x
_atom_site_fract_y
_atom_site_fract_z
Si Si1 0.164156 0.329524 0.326479
Si Si2 0.540382 0.327964 0.149492
Si Si3 0.301628 0.669876 0.414087
Si Si4 0.898568 0.330676 0.391451
Si Si5 0.503410 0.830076 0.683476
O O1 0.147510 0.500000 0.324839
O O2 0.107241 0.250835 0.204352
O O3 0.227087 0.307486 0.320452
O O4 0.172933 0.262318 0.456463
O O5 0.552316 0.500000 0.175548
O O6 0.502549 0.270970 0.215798
O O7 0.500000 0.289560 0.000000
O O8 0.317973 0.500000 0.451553
O O9 0.336869 0.729677 0.341911
O O10 0.877830 0.500000 0.368841
O O11 0.945843 0.298707 0.541479
O O12 0.931862 0.289788 0.310830
O O13 0.503693 0.000000 0.720082
#
# Coordination Sequence:
#
# PCOD8085742 Si02
#       5
#     8   8   8   8   8
#     4  10  20  33  49  72 102 135 170 204 246 301
#     4  11  23  36  51  74 103 133 170 214 251 289
#     4  10  19  30  49  77 105 131 162 206 254 298
#     4   9  17  30  50  76 105 132 161 204 252 300
#     4   9  18  32  50  74 102 133 169 203 246 302
#
# _framework density 17.067737000000001
#
# number of rings (size 3 to 8) (size 9 to 14) (size 15 to 20)
#    0.000    2.200    2.000    3.000    0.000    4.800 
#    0.000    2.000    0.000    1.200    0.000    0.000 
#    0.000    0.000    0.000    0.000    0.000    0.000 
#
# Total GULP energy -247999.858839 kJ/mol
# GULP energy per Si atom -12399.992942 kJ/mol
# Density = 1.702889 g / cm^3
# Si number density = 17.067737 Si / 1000 Ang^3
#
#
#
# Elastic Constant Matrix: (Units=GPa)
#
#
# Indices 1 2 3 4 5 6 
#
# 1 147.0052 71.1200 48.1901 0.0000 5.6039 0.0000
# 2 71.1200 109.5780 57.2151 0.0000 7.8059 0.0000
# 3 48.1901 57.2151 76.4966 0.0000 4.2975 0.0000
# 4 0.0000 0.0000 0.0000 23.7759 0.0000 -0.2404
# 5 5.6039 7.8059 4.2975 0.0000 19.9358 0.0000
# 6 0.0000 0.0000 0.0000 -0.2404 0.0000 35.8855
#
#
#
# Elastic Compliance Matrix: (Units=1/GPa)
#
#
# Indices 1 2 3 4 5 6 
#
# 1 0.010182 -0.005330 -0.002413 0.000000 -0.000255 0.000000
# 2 -0.005330 0.018008 -0.009919 0.000000 -0.003414 0.000000
# 3 -0.002413 -0.009919 0.022022 0.000000 -0.000185 0.000000
# 4 0.000000 0.000000 0.000000 0.042062 0.000000 0.000282
# 5 -0.000255 -0.003414 -0.000185 0.000000 0.051609 0.000000
# 6 0.000000 0.000000 0.000000 0.000282 0.000000 0.027868
#
#
# Mechanical properties :
#
#
# Convention : Reuss Voigt Hill
#
# Bulk Modulus (GPa) = 67.17438 76.23668 71.70553
# Shear Modulus (GPa) = 23.58049 26.35642 24.96846
#
# Velocity S-wave (km/s) = 3.72100 3.93393 3.82894
# Velocity P-wave (km/s) = 7.60947 8.08693 7.85183
#
# Compressibility (1/GPa) = 0.01488663
#
# Stress axis : x y z
#
# Youngs Moduli (GPa) = 98.21209 55.53115 45.40889
#
# Poissons Ratio (x) = 0.29600 0.10958
# Poissons Ratio (y) = 0.52350 0.45042
# Poissons Ratio (z) = 0.23701 0.55082
#
# Static dielectric constant tensor:
#      x y z
#    x 3.554750 0.000000 0.026000 
#    y 0.000000 3.231790 0.000000 
#    z 0.026000 0.000000 2.784070 
# 
# 
# High freq. dielectric constant tensor:
#      x y z
#    x 1.677580 0.000000 0.001250 
#    y 0.000000 1.668720 0.000000 
#    z 0.001250 0.000000 1.606420 
# 
# From -- ./inp_files/162718.got.cif
#   From: 2010.06.25/outbox.cif.g09.slc.cpg/sg12_82_cif.got.tgz:162718.got - 2010.06.28 00:19:55.
