data_PCOD8085805
_publ_section_title
;
Structure prediction by ZEFSAII (Michael W. Deem and Ramdas Pophale) SiO2 
 PCOD8085805
Probable space group: C 2/M
;
_chemical_formula_sum "Si O2"
_cell_formula_units_Z 44
_cell_length_a 8.178687
_cell_length_b 21.004434
_cell_length_c 15.672871
_cell_angle_alpha 90.000000
_cell_angle_beta 66.635247
_cell_angle_gamma 90.000000
_cell_volume 2471.640077
_symmetry_space_group_name_H-M "C 2/M"
_symmetry_group_IT_number 12
_symmetry_cell_setting 'monoclinic'
loop_
_space_group_symop_operation_xyz
x,y,z
-x,y,-z
-x,-y,-z
x,-y,z
1/2+x,1/2+y,z
1/2-x,1/2+y,-z
1/2-x,1/2-y,-z
1/2+x,1/2-y,z
loop_
_atom_site_type_symbol
_atom_site_label
_atom_site_fract_x
_atom_site_fract_y
_atom_site_fract_z
Si Si1 0.500000 0.858045 0.500000
Si Si2 0.535947 0.724194 0.189616
Si Si3 0.698304 0.572934 0.456880
Si Si4 0.554250 0.926455 0.748030
Si Si5 0.599854 0.836234 0.894391
Si Si6 0.838561 0.323231 0.703083
O O1 0.663207 0.898603 0.504069
O O2 0.412679 0.815193 0.591934
O O3 0.491900 0.772468 0.122350
O O4 0.695455 0.678927 0.126140
O O5 0.373886 0.678318 0.248005
O O6 0.582098 0.762966 0.264674
O O7 0.500000 0.604496 0.500000
O O8 0.681530 0.500000 0.487403
O O9 0.768932 0.581080 0.345793
O O10 0.591260 0.895048 0.831413
O O11 0.393806 0.890537 0.733068
O O12 0.499829 0.000000 0.771343
O O13 0.500000 0.858298 0.000000
#
# Coordination Sequence:
#
# PCOD8085805 Si02
#       6
#     4   8   8   8   8   8
#     4  10  19  30  50  78 106 140 177 212 266 312
#     4   9  19  35  52  74 104 130 176 215 256 305
#     4   9  18  32  50  73 104 143 183 215 249 309
#     4   9  19  35  51  75 108 134 165 217 266 305
#     4  10  19  33  56  77  99 134 172 215 261 310
#     4   9  19  34  52  75 102 141 169 215 257 305
#
# _framework density 17.801946000000001
#
# number of rings (size 3 to 8) (size 9 to 14) (size 15 to 20)
#    0.000    2.727    0.000    0.818    2.545    1.818 
#    0.000    0.909    0.000    1.091    0.000    0.000 
#    0.000    0.000    0.000    0.000    0.000    0.000 
#
# Total GULP energy -272774.351665 kJ/mol
# GULP energy per Si atom -12398.834167 kJ/mol
# Density = 1.776143 g / cm^3
# Si number density = 17.801946 Si / 1000 Ang^3
#
#
#
# Elastic Constant Matrix: (Units=GPa)
#
#
# Indices 1 2 3 4 5 6 
#
# 1 133.3904 40.8465 59.8998 0.0000 -22.6097 0.0000
# 2 40.8465 78.2610 41.4058 0.0000 -14.8264 0.0000
# 3 59.8998 41.4058 125.6759 0.0000 -9.2674 0.0000
# 4 0.0000 0.0000 0.0000 19.0065 0.0000 -4.0518
# 5 -22.6097 -14.8264 -9.2674 0.0000 25.7082 0.0000
# 6 0.0000 0.0000 0.0000 -4.0518 0.0000 14.4320
#
#
#
# Elastic Compliance Matrix: (Units=1/GPa)
#
#
# Indices 1 2 3 4 5 6 
#
# 1 0.011243 -0.002389 -0.004052 0.000000 0.007049 0.000000
# 2 -0.002389 0.017434 -0.004129 0.000000 0.006465 0.000000
# 3 -0.004052 -0.004129 0.011105 0.000000 -0.001941 0.000000
# 4 0.000000 0.000000 0.000000 0.055963 0.000000 0.015712
# 5 0.007049 0.006465 -0.001941 0.000000 0.048127 0.000000
# 6 0.000000 0.000000 0.000000 0.015712 0.000000 0.073701
#
#
# Mechanical properties :
#
#
# Convention : Reuss Voigt Hill
#
# Bulk Modulus (GPa) = 53.63765 69.07016 61.35391
# Shear Modulus (GPa) = 20.41444 24.84102 22.62773
#
# Velocity S-wave (km/s) = 3.39005 3.73957 3.56909
# Velocity P-wave (km/s) = 6.74677 7.58481 7.17803
#
# Compressibility (1/GPa) = 0.01864362
#
# Stress axis : x y z
#
# Youngs Moduli (GPa) = 88.94803 57.36061 90.04852
#
# Poissons Ratio (x) = 0.13702 0.36484
# Poissons Ratio (y) = 0.21247 0.37177
# Poissons Ratio (z) = 0.36038 0.23681
#
# Static dielectric constant tensor:
#      x y z
#    x 3.496580 0.000000 -0.081460 
#    y 0.000000 3.130440 0.000000 
#    z -0.081460 0.000000 3.282420 
# 
# 
# High freq. dielectric constant tensor:
#      x y z
#    x 1.695740 0.000000 -0.002710 
#    y 0.000000 1.669670 0.000000 
#    z -0.002710 0.000000 1.690370 
# 
# From -- ./inp_files/196447.got.cif
#   From: 2010.06.25/outbox.cif.g09.slc.cpg/sg12_99_cif.got.tgz:196447.got - 2010.06.28 00:19:55.
