data_PCOD8085739
_publ_section_title
;
Structure prediction by ZEFSAII (Michael W. Deem and Ramdas Pophale) SiO2 
 PCOD8085739
Probable space group: C 2/M
;
_chemical_formula_sum "Si O2"
_cell_formula_units_Z 64
_cell_length_a 9.841972
_cell_length_b 30.777902
_cell_length_c 25.491772
_cell_angle_alpha 90.000000
_cell_angle_beta 26.673332
_cell_angle_gamma 90.000000
_cell_volume 3466.361095
_symmetry_space_group_name_H-M "C 2/M"
_symmetry_group_IT_number 12
_symmetry_cell_setting 'monoclinic'
loop_
_space_group_symop_operation_xyz
x,y,z
-x,y,-z
-x,-y,-z
x,-y,z
1/2+x,1/2+y,z
1/2-x,1/2+y,-z
1/2-x,1/2-y,-z
1/2+x,1/2-y,z
loop_
_atom_site_type_symbol
_atom_site_label
_atom_site_fract_x
_atom_site_fract_y
_atom_site_fract_z
Si Si1 0.292706 0.772612 0.430203
Si Si2 0.112903 0.177740 0.755479
Si Si3 0.897875 0.191518 0.714397
Si Si4 0.353011 0.910253 0.674341
Si Si5 0.464199 0.389350 0.400853
Si Si6 0.807793 0.256278 0.919605
Si Si7 0.215603 0.451741 0.635308
Si Si8 0.670791 0.453396 0.637656
O O1 0.250000 0.750000 0.500000
O O2 0.537267 0.809300 0.357304
O O3 0.408959 0.735492 0.351206
O O4 0.000000 0.792589 0.500000
O O5 0.125480 0.128134 0.771361
O O6 0.988500 0.171984 0.739189
O O7 0.901522 0.210123 0.861319
O O8 0.971911 0.160524 0.638670
O O9 0.548469 0.205236 0.828384
O O10 0.430438 0.937775 0.698988
O O11 0.176743 0.942764 0.697032
O O12 0.645510 0.891443 0.541293
O O13 0.727378 0.412246 0.344012
O O14 0.491766 0.415069 0.336929
O O15 0.500000 0.273085 0.000000
O O16 0.750000 0.250000 0.000000
O O17 0.500000 0.456567 0.500000
O O18 0.158836 0.500000 0.680504
O O19 0.503751 0.500000 0.688238
O O20 0.000000 0.458065 0.500000
#
# Coordination Sequence:
#
# PCOD8085739 Si02
#       8
#     8   8   8   8   8   8   8   8
#     4  11  22  33  50  74 112 151 176 208 259 327
#     4  11  22  36  56  80 107 139 185 227 274 327
#     4  11  22  36  56  80 106 140 184 229 274 325
#     4  10  19  30  49  76 112 147 178 222 261 307
#     4  10  19  30  51  75 111 147 180 221 259 308
#     4  11  24  43  62  78 103 140 180 236 294 336
#     4   9  18  32  46  70 111 157 191 216 252 303
#     4   9  16  26  44  70 102 147 185 207 247 306
#
# _framework density 18.463165
#
# number of rings (size 3 to 8) (size 9 to 14) (size 15 to 20)
#    0.000    1.750    3.750    1.500    0.000    6.500 
#    0.000    0.000    0.000    0.000    0.000    0.000 
#    0.000   20.000    0.000    0.000    0.000    0.000 
#
# Total GULP energy -396422.417931 kJ/mol
# GULP energy per Si atom -12388.200560 kJ/mol
# Density = 1.842114 g / cm^3
# Si number density = 18.463165 Si / 1000 Ang^3
#
#
#
# Elastic Constant Matrix: (Units=GPa)
#
#
# Indices 1 2 3 4 5 6 
#
# 1 110.3822 18.4301 15.1531 -0.0939 -11.6976 -0.1451
# 2 18.4301 91.6146 7.9066 -0.0736 -6.4433 -0.1165
# 3 15.1531 7.9066 42.6668 -0.3674 -9.4139 -0.4813
# 4 -0.0939 -0.0736 -0.3674 -33.2239 0.0852 -55.6529
# 5 -11.6976 -6.4433 -9.4139 0.0852 26.4241 0.1111
# 6 -0.1451 -0.1165 -0.4813 -55.6529 0.1111 -60.3037
#
#
#
# Elastic Compliance Matrix: (Units=1/GPa)
#
#
# Indices 1 2 3 4 5 6 
#
# 1 0.010007 -0.001571 -0.002572 -0.000005 0.003130 0.000010
# 2 -0.001571 0.011452 -0.001196 -0.000011 0.001671 0.000005
# 3 -0.002572 -0.001196 0.026324 -0.000096 0.007949 -0.000098
# 4 -0.000005 -0.000011 -0.000096 0.055136 -0.000003 -0.050883
# 5 0.003130 0.001671 0.007949 -0.000003 0.042469 0.000007
# 6 0.000010 0.000005 -0.000098 -0.050883 0.000007 0.030377
#
#
# Mechanical properties :
#
#
# Convention : Reuss Voigt Hill
#
# Bulk Modulus (GPa) = 26.94981 36.40477 31.67729
# Shear Modulus (GPa) = 25.14946 0.12424 12.63685
#
# Velocity S-wave (km/s) = 3.69473 0.25969 2.61901
# Velocity P-wave (km/s) = 5.72971 4.45536 5.13224
#
# Compressibility (1/GPa) = 0.03710601
#
# Stress axis : x y z
#
# Youngs Moduli (GPa) = 99.93470 87.32087 37.98766
#
# Poissons Ratio (x) = 0.13717 0.09770
# Poissons Ratio (y) = 0.15698 0.04542
# Poissons Ratio (z) = 0.25703 0.10440
#
# Static dielectric constant tensor:
#      x y z
#    x 3.632990 -0.000040 -0.079710 
#    y -0.000040 3.454150 0.000040 
#    z -0.079710 0.000040 2.978650 
# 
# 
# High freq. dielectric constant tensor:
#      x y z
#    x 1.735850 0.000000 -0.003040 
#    y 0.000000 1.725230 0.000000 
#    z -0.003040 0.000000 1.645150 
# 
# From -- ./inp_files/260408.got.cif
#   From: 2010.06.25/outbox.cif.g09.slc.cpg/sg12_131_cif.got.tgz:260408.got - 2010.06.28 00:19:55.
