data_PCOD8085491
_publ_section_title
;
Structure prediction by ZEFSAII (Michael W. Deem and Ramdas Pophale) SiO2 
 PCOD8085491
Probable space group: C 2/M
;
_chemical_formula_sum "Si O2"
_cell_formula_units_Z 48
_cell_length_a 18.997689
_cell_length_b 9.060800
_cell_length_c 17.959262
_cell_angle_alpha 90.000000
_cell_angle_beta 121.241003
_cell_angle_gamma 90.000000
_cell_volume 2643.130017
_symmetry_space_group_name_H-M "C 2/M"
_symmetry_group_IT_number 12
_symmetry_cell_setting 'monoclinic'
loop_
_space_group_symop_operation_xyz
x,y,z
-x,y,-z
-x,-y,-z
x,-y,z
1/2+x,1/2+y,z
1/2-x,1/2+y,-z
1/2-x,1/2-y,-z
1/2+x,1/2-y,z
loop_
_atom_site_type_symbol
_atom_site_label
_atom_site_fract_x
_atom_site_fract_y
_atom_site_fract_z
Si Si1 0.351334 0.673824 0.352468
Si Si2 0.742163 0.826898 0.155788
Si Si3 0.085070 0.824833 0.010445
Si Si4 0.603401 0.324934 0.854125
Si Si5 0.999931 0.824368 0.661780
Si Si6 0.672464 0.324117 0.494717
O O1 0.360862 0.500000 0.364382
O O2 0.276341 0.713925 0.256287
O O3 0.437036 0.737440 0.366384
O O4 0.334158 0.738247 0.424806
O O5 0.658363 0.738581 0.100067
O O6 0.808226 0.774950 0.129819
O O7 0.724624 0.000000 0.138915
O O8 0.091960 0.000000 0.014218
O O9 0.090566 0.759710 0.929568
O O10 0.000000 0.771253 0.000000
O O11 0.600195 0.500000 0.854772
O O12 0.530165 0.267563 0.759606
O O13 0.908058 0.769323 0.594515
O O14 0.003644 0.000000 0.661788
O O15 0.681783 0.500000 0.497591
O O16 0.750000 0.250000 0.500000
#
# Coordination Sequence:
#
# PCOD8085491 Si02
#       6
#     8   8   8   8   8   8
#     4   8  15  29  49  71  90 113 153 198 227 253
#     4   9  17  31  51  69  87 116 155 196 229 259
#     4  10  20  31  44  66  97 126 149 181 227 276
#     4   8  15  29  48  69  90 115 153 196 229 259
#     4   8  14  27  49  70  86 115 160 196 219 256
#     4  10  19  30  47  71  97 122 148 182 226 274
#
# _framework density 18.160287
#
# number of rings (size 3 to 8) (size 9 to 14) (size 15 to 20)
#    0.000    3.167    0.000    3.000    0.000    3.667 
#    0.000    2.500    0.000    7.000    0.000    0.000 
#    0.000    0.000    0.000    0.000    0.000    0.000 
#
# Total GULP energy -297479.547071 kJ/mol
# GULP energy per Si atom -12394.981128 kJ/mol
# Density = 1.811895 g / cm^3
# Si number density = 18.160287 Si / 1000 Ang^3
#
#
#
# Elastic Constant Matrix: (Units=GPa)
#
#
# Indices 1 2 3 4 5 6 
#
# 1 120.1953 21.8039 77.2361 0.0000 21.1025 0.0000
# 2 21.8039 12.3382 21.5628 0.0000 5.0111 0.0000
# 3 77.2361 21.5628 131.1364 0.0000 19.8527 0.0000
# 4 0.0000 0.0000 0.0000 19.2917 0.0000 3.8993
# 5 21.1025 5.0111 19.8527 0.0000 27.3235 0.0000
# 6 0.0000 0.0000 0.0000 3.8993 0.0000 20.5099
#
#
#
# Elastic Compliance Matrix: (Units=1/GPa)
#
#
# Indices 1 2 3 4 5 6 
#
# 1 0.015906 -0.015467 -0.006061 0.000000 -0.005044 0.000000
# 2 -0.015467 0.130419 -0.011823 0.000000 -0.003383 0.000000
# 3 -0.006061 -0.011823 0.013599 0.000000 -0.003031 0.000000
# 4 0.000000 0.000000 0.000000 0.053907 0.000000 -0.010249
# 5 -0.005044 -0.003383 -0.003031 0.000000 0.043316 0.000000
# 6 0.000000 0.000000 0.000000 -0.010249 0.000000 0.050705
#
#
# Mechanical properties :
#
#
# Convention : Reuss Voigt Hill
#
# Bulk Modulus (GPa) = 10.72726 56.09729 33.41227
# Shear Modulus (GPa) = 12.32652 22.96284 17.64468
#
# Velocity S-wave (km/s) = 2.60813 3.55977 3.12044
# Velocity P-wave (km/s) = 3.87164 6.91760 5.60548
#
# Compressibility (1/GPa) = 0.09322045
#
# Stress axis : x y z
#
# Youngs Moduli (GPa) = 62.86860 7.66760 73.53717
#
# Poissons Ratio (x) = 0.11860 0.44574
# Poissons Ratio (y) = 0.97241 0.86942
# Poissons Ratio (z) = 0.38108 0.09065
#
# Static dielectric constant tensor:
#      x y z
#    x 3.517640 0.000000 -0.188760 
#    y 0.000000 2.743480 0.000000 
#    z -0.188760 0.000000 3.757510 
# 
# 
# High freq. dielectric constant tensor:
#      x y z
#    x 1.704110 0.000000 -0.001360 
#    y 0.000000 1.641840 0.000000 
#    z -0.001360 0.000000 1.720920 
# 
# From -- ./inp_files/212919.got.cif
#   From: 2010.06.25/outbox.cif.g09.slc.cpg/sg12_107_cif.got.tgz:212919.got - 2010.06.28 00:19:55.
