data_PCOD8085712
_publ_section_title
;
Structure prediction by ZEFSAII (Michael W. Deem and Ramdas Pophale) SiO2 
 PCOD8085712
Probable space group: C 2/M
;
_chemical_formula_sum "Si O2"
_cell_formula_units_Z 64
_cell_length_a 28.535403
_cell_length_b 9.053958
_cell_length_c 15.327626
_cell_angle_alpha 90.000000
_cell_angle_beta 88.558178
_cell_angle_gamma 90.000000
_cell_volume 3958.766230
_symmetry_space_group_name_H-M "C 2/M"
_symmetry_group_IT_number 12
_symmetry_cell_setting 'monoclinic'
loop_
_space_group_symop_operation_xyz
x,y,z
-x,y,-z
-x,-y,-z
x,-y,z
1/2+x,1/2+y,z
1/2-x,1/2+y,-z
1/2-x,1/2-y,-z
1/2+x,1/2-y,z
loop_
_atom_site_type_symbol
_atom_site_label
_atom_site_fract_x
_atom_site_fract_y
_atom_site_fract_z
Si Si1 0.704753 0.827300 0.400187
Si Si2 0.944724 0.162226 0.013720
Si Si3 0.556078 0.325018 0.178474
Si Si4 0.601595 0.829989 0.648085
Si Si5 0.203975 0.329003 0.599065
Si Si6 0.957677 0.670752 0.179235
Si Si7 0.555023 0.329217 0.490891
Si Si8 0.106072 0.675217 0.331536
O O1 0.751833 0.753591 0.359450
O O2 0.696294 0.774857 0.499961
O O3 0.659730 0.778402 0.346666
O O4 0.712069 0.000000 0.394627
O O5 0.925209 0.212848 0.920090
O O6 0.924913 0.000000 0.039743
O O7 0.932395 0.277187 0.090800
O O8 0.000000 0.151490 0.000000
O O9 0.554065 0.500000 0.194474
O O10 0.504163 0.262775 0.197897
O O11 0.592528 0.248950 0.241176
O O12 0.656707 0.792146 0.654156
O O13 0.579200 0.800717 0.742740
O O14 0.578021 0.724285 0.579143
O O15 0.595067 0.000000 0.617937
O O16 0.216213 0.500000 0.601199
O O17 0.971530 0.500000 0.169795
O O18 0.500000 0.304372 0.500000
O O19 0.567863 0.500000 0.475052
O O20 0.572892 0.233869 0.409318
O O21 0.099702 0.500000 0.326698
#
# Coordination Sequence:
#
# PCOD8085712 Si02
#       8
#     8   8   8   8   8   8   8   8
#     4   9  18  32  49  69  91 118 154 196 239 280
#     4   8  16  31  48  66  94 127 156 196 241 277
#     4  10  20  33  48  69  98 129 162 197 235 280
#     4  10  20  34  48  68  96 127 159 193 236 280
#     4   9  17  32  50  67  91 121 154 194 237 281
#     4  10  19  30  49  73  97 127 162 197 234 280
#     4  11  23  34  45  65  94 129 166 197 225 270
#     4  11  21  34  50  69  95 126 158 196 239 282
#
# _framework density 16.166653
#
# number of rings (size 3 to 8) (size 9 to 14) (size 15 to 20)
#    0.000    2.250    1.250    3.000    0.000    8.250 
#    0.000    0.000    0.000    0.000    0.000    0.875 
#    0.000    0.000    0.000    0.000    0.000    0.000 
#
# Total GULP energy -396776.157668 kJ/mol
# GULP energy per Si atom -12399.254927 kJ/mol
# Density = 1.612986 g / cm^3
# Si number density = 16.166653 Si / 1000 Ang^3
#
#
#
# Elastic Constant Matrix: (Units=GPa)
#
#
# Indices 1 2 3 4 5 6 
#
# 1 100.4234 46.2021 47.8668 0.0000 16.1370 0.0000
# 2 46.2021 69.7565 43.8303 0.0000 16.7247 0.0000
# 3 47.8668 43.8303 98.1255 0.0000 21.2483 0.0000
# 4 0.0000 0.0000 0.0000 27.1994 0.0000 5.9935
# 5 16.1370 16.7247 21.2483 0.0000 9.9783 0.0000
# 6 0.0000 0.0000 0.0000 5.9935 0.0000 12.4045
#
#
#
# Elastic Compliance Matrix: (Units=1/GPa)
#
#
# Indices 1 2 3 4 5 6 
#
# 1 0.015702 -0.006622 -0.002981 0.000000 -0.007947 0.000000
# 2 -0.006622 0.027516 -0.002584 0.000000 -0.029908 0.000000
# 3 -0.002981 -0.002584 0.020074 0.000000 -0.033595 0.000000
# 4 0.000000 0.000000 0.000000 0.041146 0.000000 -0.019881
# 5 -0.007947 -0.029908 -0.033595 0.000000 0.234738 0.000000
# 6 0.000000 0.000000 0.000000 -0.019881 0.000000 0.090222
#
#
# Mechanical properties :
#
#
# Convention : Reuss Voigt Hill
#
# Bulk Modulus (GPa) = 25.69477 60.45596 43.07537
# Shear Modulus (GPa) = 10.71249 18.61017 14.66133
#
# Velocity S-wave (km/s) = 2.57695 3.39653 3.01472
# Velocity P-wave (km/s) = 4.97819 7.27039 6.23061
#
# Compressibility (1/GPa) = 0.03891842
#
# Stress axis : x y z
#
# Youngs Moduli (GPa) = 63.68528 36.34274 49.81520
#
# Poissons Ratio (x) = 0.24065 0.14851
# Poissons Ratio (y) = 0.42170 0.12873
# Poissons Ratio (z) = 0.18986 0.09391
#
# Static dielectric constant tensor:
#      x y z
#    x 3.004800 0.000000 0.091370 
#    y 0.000000 3.171280 0.000000 
#    z 0.091370 0.000000 3.241430 
# 
# 
# High freq. dielectric constant tensor:
#      x y z
#    x 1.602370 0.000000 0.004780 
#    y 0.000000 1.632190 0.000000 
#    z 0.004780 0.000000 1.609350 
# 
# From -- ./inp_files/244027.got.cif
#   From: 2010.06.25/outbox.cif.g09.slc.cpg/sg12_123_cif.got.tgz:244027.got - 2010.06.28 00:19:55.
