data_PCOD8085163
_publ_section_title
;
Structure prediction by ZEFSAII (Michael W. Deem and Ramdas Pophale) SiO2 
 PCOD8085163
Probable space group: C 2/M
;
_chemical_formula_sum "Si O2"
_cell_formula_units_Z 48
_cell_length_a 31.040547
_cell_length_b 13.061121
_cell_length_c 7.677512
_cell_angle_alpha 90.000000
_cell_angle_beta 71.965255
_cell_angle_gamma 90.000000
_cell_volume 2959.722460
_symmetry_space_group_name_H-M "C 2/M"
_symmetry_group_IT_number 12
_symmetry_cell_setting 'monoclinic'
loop_
_space_group_symop_operation_xyz
x,y,z
-x,y,-z
-x,-y,-z
x,-y,z
1/2+x,1/2+y,z
1/2-x,1/2+y,-z
1/2-x,1/2-y,-z
1/2+x,1/2-y,z
loop_
_atom_site_type_symbol
_atom_site_label
_atom_site_fract_x
_atom_site_fract_y
_atom_site_fract_z
Si Si1 0.379804 0.381046 0.394536
Si Si2 0.224408 0.617669 0.189559
Si Si3 0.188423 0.738491 0.931327
Si Si4 0.049486 0.119432 0.410145
Si Si5 0.197727 0.724323 0.544118
Si Si6 0.891931 0.883111 0.983444
O O1 0.368962 0.500000 0.441361
O O2 0.414571 0.335816 0.494622
O O3 0.331671 0.323743 0.473582
O O4 0.402074 0.364014 0.175072
O O5 0.238642 0.500000 0.161890
O O6 0.268730 0.686901 0.136136
O O7 0.193866 0.637814 0.400098
O O8 0.194347 0.647382 0.060491
O O9 0.179593 0.685312 0.754267
O O10 0.146805 0.808950 0.040439
O O11 0.064278 0.139784 0.191454
O O12 0.000000 0.170574 0.500000
O O13 0.045872 0.000000 0.456230
O O14 0.250000 0.750000 0.500000
O O15 0.875821 0.000000 0.974672
#
# Coordination Sequence:
#
# PCOD8085163 Si02
#       6
#     8   8   8   8   8   8
#     4   9  17  29  45  64  88 121 154 181 217 263
#     4  10  19  30  44  62  87 117 148 184 223 259
#     4   9  18  31  44  63  86 114 153 186 214 259
#     4   9  17  27  40  62  90 119 152 185 216 257
#     4   9  18  30  44  64  88 114 149 188 218 254
#     4   9  16  27  44  62  85 118 149 180 217 257
#
# _framework density 16.217737
#
# number of rings (size 3 to 8) (size 9 to 14) (size 15 to 20)
#    0.000    2.833    0.000    1.500    0.000    5.333 
#    0.000   11.667    0.000    0.000    0.000    0.000 
#    0.000   10.667    0.000   29.333    0.000    1.667 
#
# Total GULP energy -297415.456601 kJ/mol
# GULP energy per Si atom -12392.310692 kJ/mol
# Density = 1.618082 g / cm^3
# Si number density = 16.217737 Si / 1000 Ang^3
#
#
#
# Elastic Constant Matrix: (Units=GPa)
#
#
# Indices 1 2 3 4 5 6 
#
# 1 84.3715 18.6992 38.3113 0.0000 -0.3298 0.0000
# 2 18.6992 47.3188 31.8099 0.0000 7.2354 0.0000
# 3 38.3113 31.8099 97.8066 0.0000 4.8738 0.0000
# 4 0.0000 0.0000 0.0000 18.5006 0.0000 1.8389
# 5 -0.3298 7.2354 4.8738 0.0000 28.4023 0.0000
# 6 0.0000 0.0000 0.0000 1.8389 0.0000 17.8938
#
#
#
# Elastic Compliance Matrix: (Units=1/GPa)
#
#
# Indices 1 2 3 4 5 6 
#
# 1 0.014719 -0.002747 -0.004958 0.000000 0.001721 0.000000
# 2 -0.002747 0.028415 -0.007871 0.000000 -0.005920 0.000000
# 3 -0.004958 -0.007871 0.014755 0.000000 -0.000585 0.000000
# 4 0.000000 0.000000 0.000000 0.054610 0.000000 -0.005612
# 5 0.001721 -0.005920 -0.000585 0.000000 0.036837 0.000000
# 6 0.000000 0.000000 0.000000 -0.005612 0.000000 0.056462
#
#
# Mechanical properties :
#
#
# Convention : Reuss Voigt Hill
#
# Bulk Modulus (GPa) = 37.39920 45.23752 41.31836
# Shear Modulus (GPa) = 20.33664 22.33777 21.33720
#
# Velocity S-wave (km/s) = 3.54499 3.71532 3.63115
# Velocity P-wave (km/s) = 6.31401 6.80876 6.56604
#
# Compressibility (1/GPa) = 0.02673854
#
# Stress axis : x y z
#
# Youngs Moduli (GPa) = 67.93867 35.19282 67.77274
#
# Poissons Ratio (x) = 0.09667 0.33601
# Poissons Ratio (y) = 0.18662 0.53341
# Poissons Ratio (z) = 0.33684 0.27699
#
# Static dielectric constant tensor:
#      x y z
#    x 3.138120 0.000000 0.238700 
#    y 0.000000 2.700210 0.000000 
#    z 0.238700 0.000000 3.479740 
# 
# 
# High freq. dielectric constant tensor:
#      x y z
#    x 1.610570 0.000000 0.018410 
#    y 0.000000 1.572250 0.000000 
#    z 0.018410 0.000000 1.641910 
# 
# From -- ./inp_files/101957.got.cif
#   From: 2010.06.25/outbox.cif.g09.slc.cpg/sg12_51_cif.got.tgz:101957.got - 2010.06.28 00:19:55.
