data_PCOD8085035
_publ_section_title
;
Structure prediction by ZEFSAII (Michael W. Deem and Ramdas Pophale) SiO2 
 PCOD8085035
Probable space group: C 2/M
;
_chemical_formula_sum "Si O2"
_cell_formula_units_Z 48
_cell_length_a 26.165988
_cell_length_b 14.446165
_cell_length_c 17.155966
_cell_angle_alpha 90.000000
_cell_angle_beta 151.220106
_cell_angle_gamma 90.000000
_cell_volume 3122.141556
_symmetry_space_group_name_H-M "C 2/M"
_symmetry_group_IT_number 12
_symmetry_cell_setting 'monoclinic'
loop_
_space_group_symop_operation_xyz
x,y,z
-x,y,-z
-x,-y,-z
x,-y,z
1/2+x,1/2+y,z
1/2-x,1/2+y,-z
1/2-x,1/2-y,-z
1/2+x,1/2-y,z
loop_
_atom_site_type_symbol
_atom_site_label
_atom_site_fract_x
_atom_site_fract_y
_atom_site_fract_z
Si Si1 0.078078 0.736941 0.395505
Si Si2 0.258362 0.391978 0.359446
Si Si3 0.650587 0.195930 0.899728
Si Si4 0.004035 0.393516 0.415658
Si Si5 0.851525 0.393337 0.942609
Si Si6 0.404383 0.105976 0.720789
O O1 0.137096 0.834105 0.480570
O O2 0.125188 0.676710 0.387384
O O3 0.952035 0.760479 0.216905
O O4 0.091473 0.672114 0.490549
O O5 0.289502 0.500000 0.398193
O O6 0.213747 0.353648 0.217903
O O7 0.169431 0.373151 0.304850
O O8 0.609983 0.121240 0.780642
O O9 0.750000 0.250000 0.000000
O O10 0.689338 0.149899 0.031545
O O11 0.038430 0.500000 0.453493
O O12 0.000000 0.363230 0.500000
O O13 0.825454 0.500000 0.914150
O O14 0.975317 0.376130 0.091992
O O15 0.390923 0.000000 0.673155
#
# Coordination Sequence:
#
# PCOD8085035 Si02
#       6
#     8   8   8   8   8   8
#     4   9  19  30  48  68  98 122 156 192 237 273
#     4  10  19  29  46  72 100 127 152 187 235 289
#     4   9  19  30  49  67  93 121 155 190 238 273
#     4   9  18  32  51  69  88 117 158 200 231 267
#     4   9  17  30  48  69  95 122 156 195 232 276
#     4   9  16  30  50  72  94 121 159 195 234 275
#
# _framework density 15.374063
#
# number of rings (size 3 to 8) (size 9 to 14) (size 15 to 20)
#    1.000    1.833    0.000    2.000    2.333    2.000 
#    0.000    1.667    0.000    2.500    0.000    0.000 
#    0.000   11.667    0.000    0.000    0.000    0.000 
#
# Total GULP energy -297357.105750 kJ/mol
# GULP energy per Si atom -12389.879406 kJ/mol
# Density = 1.533907 g / cm^3
# Si number density = 15.374063 Si / 1000 Ang^3
#
#
#
# Elastic Constant Matrix: (Units=GPa)
#
#
# Indices 1 2 3 4 5 6 
#
# 1 99.8137 41.2072 44.7083 0.0000 -16.4270 0.0000
# 2 41.2072 65.4569 39.2907 0.0000 -3.9070 0.0000
# 3 44.7083 39.2907 64.9339 0.0000 -10.4539 0.0000
# 4 0.0000 0.0000 0.0000 19.6484 0.0000 2.0873
# 5 -16.4270 -3.9070 -10.4539 0.0000 27.8266 0.0000
# 6 0.0000 0.0000 0.0000 2.0873 0.0000 26.2065
#
#
#
# Elastic Compliance Matrix: (Units=1/GPa)
#
#
# Indices 1 2 3 4 5 6 
#
# 1 0.016573 -0.006000 -0.006749 0.000000 0.006406 0.000000
# 2 -0.006000 0.026292 -0.012511 0.000000 -0.004550 0.000000
# 3 -0.006749 -0.012511 0.028412 0.000000 0.004933 0.000000
# 4 0.000000 0.000000 0.000000 0.051329 0.000000 -0.004088
# 5 0.006406 -0.004550 0.004933 0.000000 0.040933 0.000000
# 6 0.000000 0.000000 0.000000 -0.004088 0.000000 0.038484
#
#
# Mechanical properties :
#
#
# Convention : Reuss Voigt Hill
#
# Bulk Modulus (GPa) = 48.17567 53.40188 50.78878
# Shear Modulus (GPa) = 19.27074 21.73618 20.50346
#
# Velocity S-wave (km/s) = 3.54426 3.76416 3.65586
# Velocity P-wave (km/s) = 6.93922 7.32819 7.13635
#
# Compressibility (1/GPa) = 0.02075737
#
# Stress axis : x y z
#
# Youngs Moduli (GPa) = 60.33961 38.03405 35.19689
#
# Poissons Ratio (x) = 0.22819 0.23755
# Poissons Ratio (y) = 0.36201 0.44034
# Poissons Ratio (z) = 0.40725 0.47584
#
# Static dielectric constant tensor:
#      x y z
#    x 3.055150 0.000000 -0.222990 
#    y 0.000000 2.723400 0.000000 
#    z -0.222990 0.000000 2.832790 
# 
# 
# High freq. dielectric constant tensor:
#      x y z
#    x 1.600780 0.000000 -0.014520 
#    y 0.000000 1.571270 0.000000 
#    z -0.014520 0.000000 1.570660 
# 
# From -- ./inp_files/292942.got.cif
#   From: 2010.06.25/outbox.cif.g09.slc.cpg/sg12_147_cif.got.tgz:292942.got - 2010.06.28 00:19:55.
