data_PCOD8085708
_publ_section_title
;
Structure prediction by ZEFSAII (Michael W. Deem and Ramdas Pophale) SiO2 
 PCOD8085708
Probable space group: C 2/M
;
_chemical_formula_sum "Si O2"
_cell_formula_units_Z 48
_cell_length_a 12.540966
_cell_length_b 12.988728
_cell_length_c 16.466531
_cell_angle_alpha 90.000000
_cell_angle_beta 100.732790
_cell_angle_gamma 90.000000
_cell_volume 2635.330618
_symmetry_space_group_name_H-M "C 2/M"
_symmetry_group_IT_number 12
_symmetry_cell_setting 'monoclinic'
loop_
_space_group_symop_operation_xyz
x,y,z
-x,y,-z
-x,-y,-z
x,-y,z
1/2+x,1/2+y,z
1/2-x,1/2+y,-z
1/2-x,1/2-y,-z
1/2+x,1/2-y,z
loop_
_atom_site_type_symbol
_atom_site_label
_atom_site_fract_x
_atom_site_fract_y
_atom_site_fract_z
Si Si1 0.546521 0.616837 0.592971
Si Si2 0.519458 0.203975 0.814368
Si Si3 0.602452 0.616660 0.274777
Si Si4 0.115464 0.613134 0.976316
Si Si5 0.696007 0.882330 0.155806
Si Si6 0.681060 0.236596 0.711259
O O1 0.500000 0.651391 0.500000
O O2 0.592561 0.500000 0.595796
O O3 0.449955 0.624247 0.644149
O O4 0.643161 0.695959 0.628694
O O5 0.467840 0.318940 0.800740
O O6 0.606573 0.193886 0.900608
O O7 0.420295 0.125930 0.815123
O O8 0.579896 0.175238 0.737991
O O9 0.607720 0.500000 0.243584
O O10 0.724214 0.660091 0.301484
O O11 0.155549 0.500000 0.950780
O O12 0.191646 0.654371 0.060552
O O13 0.000000 0.597008 0.000000
O O14 0.785744 0.814846 0.212551
O O15 0.733651 0.000000 0.165924
#
# Coordination Sequence:
#
# PCOD8085708 Si02
#       6
#     8   8   8   8   8   8
#     4   9  18  34  54  73  93 118 150 188 230 278
#     4   9  17  29  46  66  91 123 157 188 227 272
#     4   9  19  33  47  68  97 126 153 185 229 274
#     4   8  14  26  45  67  91 120 156 198 233 261
#     4   9  17  30  48  69  92 120 159 200 231 265
#     4  10  19  30  49  72  95 123 152 188 232 279
#
# _framework density 18.214034999999999
#
# number of rings (size 3 to 8) (size 9 to 14) (size 15 to 20)
#    0.000    3.000    0.000    2.000    0.000    3.333 
#    0.000    0.000    0.000   13.000    0.000    0.000 
#    0.000    0.000    0.000    0.000    0.000    0.000 
#
# Total GULP energy -297404.523919 kJ/mol
# GULP energy per Si atom -12391.855163 kJ/mol
# Density = 1.817258 g / cm^3
# Si number density = 18.214035 Si / 1000 Ang^3
#
#
#
# Elastic Constant Matrix: (Units=GPa)
#
#
# Indices 1 2 3 4 5 6 
#
# 1 52.2827 25.9823 14.9647 0.0000 4.1902 0.0000
# 2 25.9823 88.0062 51.0447 0.0000 7.9842 0.0000
# 3 14.9647 51.0447 112.5795 0.0000 18.5669 0.0000
# 4 0.0000 0.0000 0.0000 26.7651 0.0000 0.7719
# 5 4.1902 7.9842 18.5669 0.0000 20.6738 0.0000
# 6 0.0000 0.0000 0.0000 0.7719 0.0000 19.8414
#
#
#
# Elastic Compliance Matrix: (Units=1/GPa)
#
#
# Indices 1 2 3 4 5 6 
#
# 1 0.022514 -0.006679 0.000426 0.000000 -0.002366 0.000000
# 2 -0.006679 0.017401 -0.007181 0.000000 0.001082 0.000000
# 3 0.000426 -0.007181 0.013662 0.000000 -0.009583 0.000000
# 4 0.000000 0.000000 0.000000 0.037404 0.000000 -0.001455
# 5 -0.002366 0.001082 -0.009583 0.000000 0.057039 0.000000
# 6 0.000000 0.000000 0.000000 -0.001455 0.000000 0.050456
#
#
# Mechanical properties :
#
#
# Convention : Reuss Voigt Hill
#
# Bulk Modulus (GPa) = 37.43951 48.53910 42.98931
# Shear Modulus (GPa) = 21.34496 24.18117 22.76306
#
# Velocity S-wave (km/s) = 3.42701 3.64759 3.53902
# Velocity P-wave (km/s) = 6.02156 6.66686 6.35241
#
# Compressibility (1/GPa) = 0.02670975
#
# Stress axis : x y z
#
# Youngs Moduli (GPa) = 44.41725 57.46642 73.19440
#
# Poissons Ratio (x) = 0.38383 -0.03118
# Poissons Ratio (y) = 0.29667 0.52558
# Poissons Ratio (z) = -0.01892 0.41265
#
# Static dielectric constant tensor:
#      x y z
#    x 3.226430 0.000000 0.105960 
#    y 0.000000 3.352870 0.000000 
#    z 0.105960 0.000000 3.448670 
# 
# 
# High freq. dielectric constant tensor:
#      x y z
#    x 1.694930 0.000000 0.005370 
#    y 0.000000 1.694500 0.000000 
#    z 0.005370 0.000000 1.694160 
# 
# From -- ./inp_files/204363.got.cif
#   From: 2010.06.25/outbox.cif.g09.slc.cpg/sg12_103_cif.got.tgz:204363.got - 2010.06.28 00:19:55.
