data_PCOD8085528
_publ_section_title
;
Structure prediction by ZEFSAII (Michael W. Deem and Ramdas Pophale) SiO2 
 PCOD8085528
Probable space group: C 2/M
;
_chemical_formula_sum "Si O2"
_cell_formula_units_Z 48
_cell_length_a 18.329279
_cell_length_b 9.356302
_cell_length_c 15.292142
_cell_angle_alpha 90.000000
_cell_angle_beta 95.108820
_cell_angle_gamma 90.000000
_cell_volume 2612.096443
_symmetry_space_group_name_H-M "C 2/M"
_symmetry_group_IT_number 12
_symmetry_cell_setting 'monoclinic'
loop_
_space_group_symop_operation_xyz
x,y,z
-x,y,-z
-x,-y,-z
x,-y,z
1/2+x,1/2+y,z
1/2-x,1/2+y,-z
1/2-x,1/2-y,-z
1/2+x,1/2-y,z
loop_
_atom_site_type_symbol
_atom_site_label
_atom_site_fract_x
_atom_site_fract_y
_atom_site_fract_z
Si Si1 0.851464 0.833941 0.071878
Si Si2 0.404579 0.659811 0.573725
Si Si3 0.577610 0.661490 0.615546
Si Si4 0.814192 0.334681 0.900355
Si Si5 0.891158 0.663040 0.733772
Si Si6 0.562639 0.834531 0.777773
O O1 0.772751 0.813817 0.108351
O O2 0.911110 0.751257 0.135043
O O3 0.873092 0.000000 0.066452
O O4 0.852508 0.764367 0.976314
O O5 0.374836 0.500000 0.582743
O O6 0.490967 0.664252 0.596173
O O7 0.386334 0.712357 0.472742
O O8 0.366029 0.755972 0.643127
O O9 0.603207 0.500000 0.641473
O O10 0.601167 0.768574 0.695333
O O11 0.835760 0.500000 0.920266
O O12 0.843282 0.281151 0.809861
O O13 0.873064 0.500000 0.712700
O O14 0.975897 0.686141 0.765045
O O15 0.585321 0.000000 0.787376
#
# Coordination Sequence:
#
# PCOD8085528 Si02
#       6
#     8   8   8   8   8   8
#     4  10  20  34  52  70  90 121 158 194 231 275
#     4   8  14  25  43  67  95 125 154 188 228 270
#     4   8  14  26  43  65  95 127 156 186 225 272
#     4   9  19  36  53  68  90 122 158 192 230 278
#     4   9  18  31  48  71  97 124 153 189 233 276
#     4  10  19  30  47  72  99 124 152 190 233 275
#
# _framework density 18.376042999999999
#
# number of rings (size 3 to 8) (size 9 to 14) (size 15 to 20)
#    0.000    3.000    0.000    2.000    0.000    3.333 
#    0.000    6.667    0.000    1.000    0.000    0.000 
#    0.000    0.000    0.000    0.000    0.000    0.000 
#
# Total GULP energy -297523.349164 kJ/mol
# GULP energy per Si atom -12396.806215 kJ/mol
# Density = 1.833422 g / cm^3
# Si number density = 18.376043 Si / 1000 Ang^3
#
#
#
# Elastic Constant Matrix: (Units=GPa)
#
#
# Indices 1 2 3 4 5 6 
#
# 1 15.5934 15.0976 22.5031 0.0000 -13.5557 0.0000
# 2 15.0976 85.9597 43.4668 0.0000 -16.2336 0.0000
# 3 22.5031 43.4668 95.1136 0.0000 -41.1428 0.0000
# 4 0.0000 0.0000 0.0000 42.9016 0.0000 0.3025
# 5 -13.5557 -16.2336 -41.1428 0.0000 24.8833 0.0000
# 6 0.0000 0.0000 0.0000 0.3025 0.0000 17.9609
#
#
#
# Elastic Compliance Matrix: (Units=1/GPa)
#
#
# Indices 1 2 3 4 5 6 
#
# 1 0.131256 -0.012486 0.007229 0.000000 0.075312 0.000000
# 2 -0.012486 0.016534 -0.010107 0.000000 -0.012727 0.000000
# 3 0.007229 -0.010107 0.043098 0.000000 0.068604 0.000000
# 4 0.000000 0.000000 0.000000 0.023312 0.000000 -0.000393
# 5 0.075312 -0.012727 0.068604 0.000000 0.186345 0.000000
# 6 0.000000 0.000000 0.000000 -0.000393 0.000000 0.055683
#
#
# Mechanical properties :
#
#
# Convention : Reuss Voigt Hill
#
# Bulk Modulus (GPa) = 6.24373 39.86686 23.05530
# Shear Modulus (GPa) = 9.25339 24.85577 17.05458
#
# Velocity S-wave (km/s) = 2.24644 3.68179 3.04976
# Velocity P-wave (km/s) = 3.18336 6.31001 4.99750
#
# Compressibility (1/GPa) = 0.16016061
#
# Stress axis : x y z
#
# Youngs Moduli (GPa) = 7.61867 60.48284 23.20296
#
# Poissons Ratio (x) = 0.75521 -0.16774
# Poissons Ratio (y) = 0.09513 0.23451
# Poissons Ratio (z) = -0.05508 0.61129
#
# Static dielectric constant tensor:
#      x y z
#    x 2.964400 0.000000 -0.150990 
#    y 0.000000 3.508480 0.000000 
#    z -0.150990 0.000000 3.689320 
# 
# 
# High freq. dielectric constant tensor:
#      x y z
#    x 1.666270 0.000000 -0.007980 
#    y 0.000000 1.713740 0.000000 
#    z -0.007980 0.000000 1.726120 
# 
# From -- ./inp_files/229260.got.cif
#   From: 2010.06.25/outbox.cif.g09.slc.cpg/sg12_115_cif.got.tgz:229260.got - 2010.06.28 00:19:55.
