data_PCOD8085417
_publ_section_title
;
Structure prediction by ZEFSAII (Michael W. Deem and Ramdas Pophale) SiO2 
 PCOD8085417
Probable space group: C 2/M
;
_chemical_formula_sum "Si O2"
_cell_formula_units_Z 64
_cell_length_a 17.830164
_cell_length_b 19.188752
_cell_length_c 17.142009
_cell_angle_alpha 90.000000
_cell_angle_beta 37.215864
_cell_angle_gamma 90.000000
_cell_volume 3547.232605
_symmetry_space_group_name_H-M "C 2/M"
_symmetry_group_IT_number 12
_symmetry_cell_setting 'monoclinic'
loop_
_space_group_symop_operation_xyz
x,y,z
-x,y,-z
-x,-y,-z
x,-y,z
1/2+x,1/2+y,z
1/2-x,1/2+y,-z
1/2-x,1/2-y,-z
1/2+x,1/2-y,z
loop_
_atom_site_type_symbol
_atom_site_label
_atom_site_fract_x
_atom_site_fract_y
_atom_site_fract_z
Si Si1 0.092134 0.805828 0.632076
Si Si2 0.861957 0.803987 0.908830
Si Si3 0.703991 0.197137 0.647854
Si Si4 0.439910 0.284613 0.125154
Si Si5 0.711595 0.080952 0.110385
Si Si6 0.745852 0.422649 0.585579
Si Si7 0.804222 0.921118 0.202859
Si Si8 0.561730 0.920410 0.704079
O O1 0.149242 0.813078 0.496604
O O2 0.139255 0.732354 0.626268
O O3 0.140993 0.867428 0.648389
O O4 0.940356 0.808919 0.761898
O O5 0.961798 0.777047 0.887827
O O6 0.750000 0.750000 0.000000
O O7 0.813203 0.879381 0.974644
O O8 0.683546 0.242008 0.744006
O O9 0.634334 0.122514 0.711296
O O10 0.412860 0.364541 0.123760
O O11 0.500000 0.247267 0.000000
O O12 0.725291 0.097665 0.191268
O O13 0.577490 0.106890 0.193153
O O14 0.731192 0.000000 0.077564
O O15 0.692278 0.500000 0.612575
O O16 0.779695 0.415584 0.649471
O O17 0.871764 0.410513 0.434274
O O18 0.859752 0.000000 0.149561
O O19 0.562416 0.000000 0.731597
#
# Coordination Sequence:
#
# PCOD8085417 Si02
#       8
#     8   8   8   8   8   8   8   8
#     4   9  17  30  48  68  92 123 168 209 248 287
#     4  11  21  33  49  71  98 130 169 211 250 293
#     4   9  17  31  52  71  88 126 168 208 253 287
#     4  11  20  34  51  72 101 131 169 206 246 299
#     4  10  20  31  45  70 105 140 167 196 242 295
#     4   9  16  28  48  72  99 134 172 204 238 289
#     4  10  19  30  46  72 105 140 171 196 231 293
#     4   9  18  32  49  71 100 131 169 213 252 290
#
# _framework density 18.042233
#
# number of rings (size 3 to 8) (size 9 to 14) (size 15 to 20)
#    0.000    2.250    3.750    1.500    0.000    1.750 
#    0.000    2.500    0.000    1.125    0.000    0.000 
#    0.000    0.000    0.000   10.750    0.000    0.000 
#
# Total GULP energy -396461.184924 kJ/mol
# GULP energy per Si atom -12389.412029 kJ/mol
# Density = 1.800117 g / cm^3
# Si number density = 18.042233 Si / 1000 Ang^3
#
#
#
# Elastic Constant Matrix: (Units=GPa)
#
#
# Indices 1 2 3 4 5 6 
#
# 1 29.1213 24.9835 28.7989 0.0002 -4.2205 -0.0001
# 2 24.9835 76.7126 45.5213 0.0002 -0.4219 -0.0001
# 3 28.7989 45.5213 146.9932 0.0008 -2.3885 -0.0004
# 4 0.0002 0.0002 0.0008 28.4324 -0.0003 -2.8418
# 5 -4.2205 -0.4219 -2.3885 -0.0003 23.1445 0.0001
# 6 -0.0001 -0.0001 -0.0004 -2.8418 0.0001 19.4554
#
#
#
# Elastic Compliance Matrix: (Units=1/GPa)
#
#
# Indices 1 2 3 4 5 6 
#
# 1 0.053416 -0.013750 -0.006063 0.000000 0.008864 0.000000
# 2 -0.013750 0.019511 -0.003389 0.000000 -0.002501 0.000000
# 3 -0.006063 -0.003389 0.009037 0.000000 -0.000235 0.000000
# 4 0.000000 0.000000 0.000000 0.035692 0.000000 0.005214
# 5 0.008864 -0.002501 -0.000235 0.000000 0.044753 0.000000
# 6 0.000000 0.000000 0.000000 0.005214 0.000000 0.052161
#
#
# Mechanical properties :
#
#
# Convention : Reuss Voigt Hill
#
# Bulk Modulus (GPa) = 28.12170 50.15938 39.14054
# Shear Modulus (GPa) = 18.32663 24.44135 21.38399
#
# Velocity S-wave (km/s) = 3.19056 3.68458 3.44644
# Velocity P-wave (km/s) = 5.40309 6.77960 6.13010
#
# Compressibility (1/GPa) = 0.03555973
#
# Stress axis : x y z
#
# Youngs Moduli (GPa) = 18.72105 51.25349 110.66060
#
# Poissons Ratio (x) = 0.70471 0.67096
# Poissons Ratio (y) = 0.25741 0.37503
# Poissons Ratio (z) = 0.11351 0.17370
#
# Static dielectric constant tensor:
#      x y z
#    x 2.838460 0.000000 0.012690 
#    y 0.000000 3.498430 0.000000 
#    z 0.012690 0.000000 3.874620 
# 
# 
# High freq. dielectric constant tensor:
#      x y z
#    x 1.628850 0.000000 -0.000800 
#    y 0.000000 1.706060 0.000000 
#    z -0.000800 0.000000 1.716160 
# 
# From -- ./inp_files/278909.got.cif
#   From: 2010.06.25/outbox.cif.g09.slc.cpg/sg12_140_cif.got.tgz:278909.got - 2010.06.28 00:19:55.
