data_PCOD8085506
_publ_section_title
;
Structure prediction by ZEFSAII (Michael W. Deem and Ramdas Pophale) SiO2 
 PCOD8085506
Probable space group: C 2/M
;
_chemical_formula_sum "Si O2"
_cell_formula_units_Z 52
_cell_length_a 30.841338
_cell_length_b 19.817669
_cell_length_c 10.181026
_cell_angle_alpha 90.000000
_cell_angle_beta 29.087826
_cell_angle_gamma 90.000000
_cell_volume 3025.153123
_symmetry_space_group_name_H-M "C 2/M"
_symmetry_group_IT_number 12
_symmetry_cell_setting 'monoclinic'
loop_
_space_group_symop_operation_xyz
x,y,z
-x,y,-z
-x,-y,-z
x,-y,z
1/2+x,1/2+y,z
1/2-x,1/2+y,-z
1/2-x,1/2-y,-z
1/2+x,1/2-y,z
loop_
_atom_site_type_symbol
_atom_site_label
_atom_site_fract_x
_atom_site_fract_y
_atom_site_fract_z
Si Si1 0.272336 0.287101 0.750684
Si Si2 0.895389 0.696994 0.265652
Si Si3 0.000000 0.211137 0.500000
Si Si4 0.108792 0.306335 0.015319
Si Si5 0.010217 0.423268 0.625815
Si Si6 0.678080 0.341254 0.122120
Si Si7 0.828515 0.422197 0.613304
O O1 0.359198 0.257448 0.450665
O O2 0.306964 0.343536 0.760591
O O3 0.202193 0.321606 0.838489
O O4 0.220170 0.227451 0.959348
O O5 0.855595 0.624857 0.418745
O O6 0.867465 0.719496 0.192852
O O7 0.000000 0.693365 0.000000
O O8 0.042890 0.256998 0.271137
O O9 0.073312 0.160483 0.366565
O O10 0.059742 0.376740 0.114052
O O11 0.982152 0.500000 0.724105
O O12 0.108213 0.408784 0.426603
O O13 0.000000 0.403706 0.500000
O O14 0.727380 0.405025 0.925297
O O15 0.833594 0.500000 0.554503
#
# Coordination Sequence:
#
# PCOD8085506 Si02
#       7
#     8   8   4   8   8   8   8
#     4   9  19  31  49  73 101 131 165 204 252 299
#     4  11  20  31  48  72 104 137 168 202 254 303
#     4  10  20  32  54  78 100 126 172 210 254 302
#     4  11  19  31  49  72 105 134 168 206 250 299
#     4  10  19  30  47  71  99 134 171 203 243 292
#     4   9  18  33  52  72  98 129 163 211 254 293
#     4  10  21  35  50  72 102 135 170 210 248 295
#
# _framework density 17.189212000000001
#
# number of rings (size 3 to 8) (size 9 to 14) (size 15 to 20)
#    0.000    2.000    2.308    2.308    4.308    0.923 
#    0.000    0.385    0.000    0.000    0.000    0.000 
#    0.000    3.692    0.000    0.000    0.000    0.000 
#
# Total GULP energy -322288.580859 kJ/mol
# GULP energy per Si atom -12395.714648 kJ/mol
# Density = 1.715009 g / cm^3
# Si number density = 17.189212 Si / 1000 Ang^3
#
#
#
# Elastic Constant Matrix: (Units=GPa)
#
#
# Indices 1 2 3 4 5 6 
#
# 1 112.2475 20.6722 50.4406 0.0000 -2.0547 0.0000
# 2 20.6722 46.3512 35.5978 0.0000 -12.8534 0.0000
# 3 50.4406 35.5978 101.4763 0.0000 -8.5704 0.0000
# 4 0.0000 0.0000 0.0000 13.0721 0.0000 -3.3330
# 5 -2.0547 -12.8534 -8.5704 0.0000 28.7149 0.0000
# 6 0.0000 0.0000 0.0000 -3.3330 0.0000 12.6559
#
#
#
# Elastic Compliance Matrix: (Units=1/GPa)
#
#
# Indices 1 2 3 4 5 6 
#
# 1 0.011556 -0.001427 -0.005363 0.000000 -0.001412 0.000000
# 2 -0.001427 0.033071 -0.009900 0.000000 0.011747 0.000000
# 3 -0.005363 -0.009900 0.015989 0.000000 -0.000043 0.000000
# 4 0.000000 0.000000 0.000000 0.082005 0.000000 0.021597
# 5 -0.001412 0.011747 -0.000043 0.000000 0.039969 0.000000
# 6 0.000000 0.000000 0.000000 0.021597 0.000000 0.084702
#
#
# Mechanical properties :
#
#
# Convention : Reuss Voigt Hill
#
# Bulk Modulus (GPa) = 36.71439 52.61069 44.66254
# Shear Modulus (GPa) = 16.14197 21.11287 18.62742
#
# Velocity S-wave (km/s) = 3.06776 3.50846 3.29548
# Velocity P-wave (km/s) = 5.82697 6.86190 6.36550
#
# Compressibility (1/GPa) = 0.02723728
#
# Stress axis : x y z
#
# Youngs Moduli (GPa) = 86.53783 30.23756 62.54115
#
# Poissons Ratio (x) = 0.04314 0.33539
# Poissons Ratio (y) = 0.12347 0.61917
# Poissons Ratio (z) = 0.46408 0.29936
#
# Static dielectric constant tensor:
#      x y z
#    x 3.574420 0.000000 0.083020 
#    y 0.000000 2.936020 0.000000 
#    z 0.083020 0.000000 3.260470 
# 
# 
# High freq. dielectric constant tensor:
#      x y z
#    x 1.676640 0.000000 0.001570 
#    y 0.000000 1.627000 0.000000 
#    z 0.001570 0.000000 1.659050 
# 
# From -- ./inp_files/113549.got.cif
#   From: 2010.06.25/outbox.cif.g09.slc.cpg/sg12_57_cif.got.tgz:113549.got - 2010.06.28 00:19:55.
