data_PCOD8085192
_publ_section_title
;
Structure prediction by ZEFSAII (Michael W. Deem and Ramdas Pophale) SiO2 
 PCOD8085192
Probable space group: C 2/M
;
_chemical_formula_sum "Si O2"
_cell_formula_units_Z 64
_cell_length_a 23.782527
_cell_length_b 9.253818
_cell_length_c 16.218442
_cell_angle_alpha 90.000000
_cell_angle_beta 100.656853
_cell_angle_gamma 90.000000
_cell_volume 3507.778556
_symmetry_space_group_name_H-M "C 2/M"
_symmetry_group_IT_number 12
_symmetry_cell_setting 'monoclinic'
loop_
_space_group_symop_operation_xyz
x,y,z
-x,y,-z
-x,-y,-z
x,-y,z
1/2+x,1/2+y,z
1/2-x,1/2+y,-z
1/2-x,1/2-y,-z
1/2+x,1/2-y,z
loop_
_atom_site_type_symbol
_atom_site_label
_atom_site_fract_x
_atom_site_fract_y
_atom_site_fract_z
Si Si1 0.092192 0.167923 0.512112
Si Si2 0.201686 0.842997 0.449234
Si Si3 0.011502 0.671613 0.093558
Si Si4 0.119566 0.671711 0.223838
Si Si5 0.649664 0.672297 0.698227
Si Si6 0.062572 0.665949 0.776282
Si Si7 0.451734 0.164182 0.637593
Si Si8 0.730170 0.662822 0.269447
O O1 0.141028 0.216973 0.460743
O O2 0.112823 0.220527 0.607641
O O3 0.041733 0.250183 0.448789
O O4 0.076538 0.000000 0.509672
O O5 0.250000 0.750000 0.500000
O O6 0.207230 0.851427 0.354503
O O7 0.207717 0.000000 0.492558
O O8 0.011549 0.500000 0.090919
O O9 0.073035 0.722955 0.143602
O O10 0.960965 0.720294 0.141760
O O11 0.000000 0.738470 0.000000
O O12 0.129399 0.500000 0.224012
O O13 0.096052 0.717359 0.308334
O O14 0.178563 0.749993 0.211797
O O15 0.657821 0.500000 0.703418
O O16 0.615228 0.729551 0.767925
O O17 0.711346 0.747436 0.716659
O O18 0.083936 0.500000 0.786293
O O19 0.013440 0.681450 0.695198
O O20 0.438309 0.000000 0.611065
O O21 0.738714 0.500000 0.234941
#
# Coordination Sequence:
#
# PCOD8085192 Si02
#       8
#     8   8   8   8   8   8   8   8
#     4  10  20  32  45  66  96 132 178 222 258 295
#     4  10  19  30  44  65  93 129 174 222 260 292
#     4   8  15  32  61  90 109 128 157 197 249 307
#     4   9  17  30  51  80 108 131 161 204 253 303
#     4  11  23  36  49  68  99 141 181 215 253 297
#     4   9  19  36  54  76 104 132 167 207 249 304
#     4   9  18  31  49  71  98 133 170 213 259 298
#     4  11  21  32  49  72 100 136 174 214 257 298
#
# _framework density 18.245165
#
# number of rings (size 3 to 8) (size 9 to 14) (size 15 to 20)
#    0.000    2.375    2.500    2.250    0.000    3.000 
#    0.000    4.375    0.000    2.250    0.000    0.000 
#    0.000    0.000    0.000    0.000    0.000    0.000 
#
# Total GULP energy -396470.033187 kJ/mol
# GULP energy per Si atom -12389.688537 kJ/mol
# Density = 1.820364 g / cm^3
# Si number density = 18.245165 Si / 1000 Ang^3
#
#
#
# Elastic Constant Matrix: (Units=GPa)
#
#
# Indices 1 2 3 4 5 6 
#
# 1 58.6566 29.5592 40.0124 0.0000 -10.9631 0.0000
# 2 29.5592 63.8129 34.3732 0.0000 -0.8249 0.0000
# 3 40.0124 34.3732 103.7124 0.0000 1.2237 0.0000
# 4 0.0000 0.0000 0.0000 14.5158 0.0000 -0.6075
# 5 -10.9631 -0.8249 1.2237 0.0000 18.9112 0.0000
# 6 0.0000 0.0000 0.0000 -0.6075 0.0000 29.3361
#
#
#
# Elastic Compliance Matrix: (Units=1/GPa)
#
#
# Indices 1 2 3 4 5 6 
#
# 1 0.031568 -0.009381 -0.009288 0.000000 0.018492 0.000000
# 2 -0.009381 0.021893 -0.003587 0.000000 -0.004251 0.000000
# 3 -0.009288 -0.003587 0.014491 0.000000 -0.006479 0.000000
# 4 0.000000 0.000000 0.000000 0.068950 0.000000 0.001428
# 5 0.018492 -0.004251 -0.006479 0.000000 0.063833 0.000000
# 6 0.000000 0.000000 0.000000 0.001428 0.000000 0.034117
#
#
# Mechanical properties :
#
#
# Convention : Reuss Voigt Hill
#
# Bulk Modulus (GPa) = 42.66109 48.23014 45.44562
# Shear Modulus (GPa) = 17.41095 20.70176 19.05636
#
# Velocity S-wave (km/s) = 3.09249 3.37210 3.23532
# Velocity P-wave (km/s) = 6.01533 6.45394 6.23849
#
# Compressibility (1/GPa) = 0.02344056
#
# Stress axis : x y z
#
# Youngs Moduli (GPa) = 31.67806 45.67642 69.01026
#
# Poissons Ratio (x) = 0.42847 0.64097
# Poissons Ratio (y) = 0.29716 0.24753
# Poissons Ratio (z) = 0.29423 0.16383
#
# Static dielectric constant tensor:
#      x y z
#    x 3.360040 0.000000 0.009180 
#    y 0.000000 3.337510 0.000000 
#    z 0.009180 0.000000 3.362270 
# 
# 
# High freq. dielectric constant tensor:
#      x y z
#    x 1.710740 0.000000 0.002850 
#    y 0.000000 1.694510 0.000000 
#    z 0.002850 0.000000 1.676770 
# 
# From -- ./inp_files/287769.got.cif
#   From: 2010.06.25/outbox.cif.g09.slc.cpg/sg12_144_cif.got.tgz:287769.got - 2010.06.28 00:19:55.
