data_PCOD8085287
_publ_section_title
;
Structure prediction by ZEFSAII (Michael W. Deem and Ramdas Pophale) SiO2 
 PCOD8085287
Probable space group: C 2/M
;
_chemical_formula_sum "Si O2"
_cell_formula_units_Z 60
_cell_length_a 17.661801
_cell_length_b 13.605483
_cell_length_c 14.828313
_cell_angle_alpha 90.000000
_cell_angle_beta 75.267911
_cell_angle_gamma 90.000000
_cell_volume 3446.065453
_symmetry_space_group_name_H-M "C 2/M"
_symmetry_group_IT_number 12
_symmetry_cell_setting 'monoclinic'
loop_
_space_group_symop_operation_xyz
x,y,z
-x,y,-z
-x,-y,-z
x,-y,z
1/2+x,1/2+y,z
1/2-x,1/2+y,-z
1/2-x,1/2-y,-z
1/2+x,1/2-y,z
loop_
_atom_site_type_symbol
_atom_site_label
_atom_site_fract_x
_atom_site_fract_y
_atom_site_fract_z
Si Si1 0.678376 0.113436 0.928651
Si Si2 0.447915 0.769726 0.930282
Si Si3 0.794139 0.890202 0.498660
Si Si4 0.423150 0.885171 0.212349
Si Si5 0.395970 0.611059 0.638835
Si Si6 0.867711 0.302088 0.416969
Si Si7 0.355534 0.614867 0.851980
Si Si8 0.000000 0.249806 0.500000
O O1 0.646495 0.132108 0.837562
O O2 0.768395 0.146725 0.907555
O O3 0.668656 0.000000 0.956744
O O4 0.629713 0.173049 0.016770
O O5 0.496288 0.839753 0.848822
O O6 0.421347 0.670677 0.889084
O O7 0.500000 0.739006 0.000000
O O8 0.824007 0.878640 0.591777
O O9 0.838387 0.811572 0.421855
O O10 0.701603 0.872618 0.529310
O O11 0.810590 0.000000 0.456152
O O12 0.399768 0.830272 0.310272
O O13 0.436927 0.000000 0.227270
O O14 0.428550 0.500000 0.630919
O O15 0.364300 0.643724 0.745075
O O16 0.466819 0.681082 0.589455
O O17 0.934532 0.316948 0.472691
O O18 0.369072 0.500000 0.864129
#
# Coordination Sequence:
#
# PCOD8085287 Si02
#       8
#     8   8   8   8   8   8   8   4
#     4   9  18  33  54  75  92 118 161 210 248 276
#     4  10  20  33  49  72 101 130 155 189 242 296
#     4   9  18  33  51  71  97 127 163 203 238 275
#     4  10  19  33  53  74  96 122 160 205 243 281
#     4   9  17  30  49  71  93 122 162 207 243 269
#     4  10  19  31  50  73  97 129 161 196 240 284
#     4  10  19  31  50  74  98 126 161 197 235 284
#     4  10  19  30  45  70 102 130 158 192 236 288
#
# _framework density 17.411161
#
# number of rings (size 3 to 8) (size 9 to 14) (size 15 to 20)
#    0.000    2.400    0.000    3.000    0.000    4.533 
#    0.000    2.000    0.000    0.800    0.000   10.267 
#    0.000    0.000    0.000    0.000    0.000    0.000 
#
# Total GULP energy -372034.043751 kJ/mol
# GULP energy per Si atom -12401.134792 kJ/mol
# Density = 1.737153 g / cm^3
# Si number density = 17.411161 Si / 1000 Ang^3
#
#
#
# Elastic Constant Matrix: (Units=GPa)
#
#
# Indices 1 2 3 4 5 6 
#
# 1 96.5712 47.9240 44.3723 0.0000 -2.6794 0.0000
# 2 47.9240 93.0762 59.6209 0.0000 -0.5873 0.0000
# 3 44.3723 59.6209 106.4307 0.0000 -9.6957 0.0000
# 4 0.0000 0.0000 0.0000 25.7467 0.0000 -0.3631
# 5 -2.6794 -0.5873 -9.6957 0.0000 20.3133 0.0000
# 6 0.0000 0.0000 0.0000 -0.3631 0.0000 28.3914
#
#
#
# Elastic Compliance Matrix: (Units=1/GPa)
#
#
# Indices 1 2 3 4 5 6 
#
# 1 0.014463 -0.005622 -0.002845 0.000000 0.000387 0.000000
# 2 -0.005622 0.019288 -0.008863 0.000000 -0.004414 0.000000
# 3 -0.002845 -0.008863 0.016194 0.000000 0.007098 0.000000
# 4 0.000000 0.000000 0.000000 0.038847 0.000000 0.000497
# 5 0.000387 -0.004414 0.007098 0.000000 0.052540 0.000000
# 6 0.000000 0.000000 0.000000 0.000497 0.000000 0.035228
#
#
# Mechanical properties :
#
#
# Convention : Reuss Voigt Hill
#
# Bulk Modulus (GPa) = 65.42760 66.65696 66.04228
# Shear Modulus (GPa) = 23.11438 24.50101 23.80769
#
# Velocity S-wave (km/s) = 3.64752 3.75534 3.70182
# Velocity P-wave (km/s) = 7.44304 7.56112 7.50231
#
# Compressibility (1/GPa) = 0.01528407
#
# Stress axis : x y z
#
# Youngs Moduli (GPa) = 69.14199 51.84543 61.75253
#
# Poissons Ratio (x) = 0.29147 0.17570
# Poissons Ratio (y) = 0.38871 0.54733
# Poissons Ratio (z) = 0.19673 0.45952
#
# Static dielectric constant tensor:
#      x y z
#    x 3.337720 0.000000 -0.099110 
#    y 0.000000 3.212070 0.000000 
#    z -0.099110 0.000000 3.154630 
# 
# 
# High freq. dielectric constant tensor:
#      x y z
#    x 1.679710 0.000000 -0.010810 
#    y 0.000000 1.665400 0.000000 
#    z -0.010810 0.000000 1.666720 
# 
# From -- ./inp_files/156583.got.cif
#   From: 2010.06.25/outbox.cif.g09.slc.cpg/sg12_79_cif.got.tgz:156583.got - 2010.06.28 00:19:55.
