data_PCOD8085509
_publ_section_title
;
Structure prediction by ZEFSAII (Michael W. Deem and Ramdas Pophale) SiO2 
 PCOD8085509
Probable space group: C 2/M
;
_chemical_formula_sum "Si O2"
_cell_formula_units_Z 64
_cell_length_a 17.220146
_cell_length_b 13.337681
_cell_length_c 20.838524
_cell_angle_alpha 90.000000
_cell_angle_beta 47.957353
_cell_angle_gamma 90.000000
_cell_volume 3554.399889
_symmetry_space_group_name_H-M "C 2/M"
_symmetry_group_IT_number 12
_symmetry_cell_setting 'monoclinic'
loop_
_space_group_symop_operation_xyz
x,y,z
-x,y,-z
-x,-y,-z
x,-y,z
1/2+x,1/2+y,z
1/2-x,1/2+y,-z
1/2-x,1/2-y,-z
1/2+x,1/2-y,z
loop_
_atom_site_type_symbol
_atom_site_label
_atom_site_fract_x
_atom_site_fract_y
_atom_site_fract_z
Si Si1 0.549894 0.235842 0.536238
Si Si2 0.882961 0.752347 0.808218
Si Si3 0.165622 0.207345 0.298683
Si Si4 0.226115 0.885257 0.389242
Si Si5 0.935665 0.383070 0.348981
Si Si6 0.306224 0.612812 0.208395
Si Si7 0.706652 0.386870 0.934731
Si Si8 0.029762 0.882083 0.130215
O O1 0.500000 0.184360 0.500000
O O2 0.457289 0.301276 0.618514
O O3 0.643034 0.311287 0.467431
O O4 0.591433 0.153113 0.563549
O O5 0.822323 0.813094 0.784473
O O6 0.802356 0.688269 0.895816
O O7 0.939863 0.833094 0.819665
O O8 0.962953 0.674068 0.732412
O O9 0.227976 0.130773 0.310628
O O10 0.210877 0.319472 0.286395
O O11 0.339218 0.859857 0.355448
O O12 0.195564 0.000000 0.421290
O O13 0.962658 0.500000 0.335895
O O14 0.281801 0.500000 0.244924
O O15 0.322891 0.616666 0.123211
O O16 0.413505 0.654772 0.178614
O O17 0.738442 0.500000 0.937546
O O18 0.607601 0.349251 0.030350
O O19 0.032231 0.000000 0.138336
#
# Coordination Sequence:
#
# PCOD8085509 Si02
#       8
#     8   8   8   8   8   8   8   8
#     4   9  19  34  52  74  97 121 153 195 240 285
#     4  10  19  32  49  71 101 130 161 200 240 283
#     4   9  19  32  49  71  93 125 161 194 235 282
#     4  10  20  35  53  71  95 128 163 196 232 281
#     4  10  20  34  53  74  96 125 159 197 240 285
#     4   9  17  31  50  71  97 126 159 201 245 288
#     4   9  17  30  49  72  97 128 165 201 241 286
#     4  10  19  30  47  72 100 130 162 199 242 285
#
# _framework density 18.005852000000001
#
# number of rings (size 3 to 8) (size 9 to 14) (size 15 to 20)
#    0.000    2.500    0.000    2.250    0.000    7.500 
#    0.000    3.750    0.000   13.500    0.000    0.000 
#    0.000   18.000    0.000    0.000    0.000    0.000 
#
# Total GULP energy -396653.063055 kJ/mol
# GULP energy per Si atom -12395.408220 kJ/mol
# Density = 1.796487 g / cm^3
# Si number density = 18.005852 Si / 1000 Ang^3
#
#
#
# Elastic Constant Matrix: (Units=GPa)
#
#
# Indices 1 2 3 4 5 6 
#
# 1 99.0237 33.9587 16.4137 0.0000 3.4840 0.0000
# 2 33.9587 44.7770 27.0820 0.0000 -0.0855 0.0000
# 3 16.4137 27.0820 49.3735 0.0000 -3.1599 0.0000
# 4 0.0000 0.0000 0.0000 26.5448 0.0000 0.1870
# 5 3.4840 -0.0855 -3.1599 0.0000 24.9399 0.0000
# 6 0.0000 0.0000 0.0000 0.1870 0.0000 28.2883
#
#
#
# Elastic Compliance Matrix: (Units=1/GPa)
#
#
# Indices 1 2 3 4 5 6 
#
# 1 0.013822 -0.011430 0.001561 0.000000 -0.001772 0.000000
# 2 -0.011430 0.042995 -0.019833 0.000000 -0.000769 0.000000
# 3 0.001561 -0.019833 0.030845 0.000000 0.003622 0.000000
# 4 0.000000 0.000000 0.000000 0.037674 0.000000 -0.000249
# 5 -0.001772 -0.000769 0.003622 0.000000 0.040800 0.000000
# 6 0.000000 0.000000 0.000000 -0.000249 0.000000 0.035352
#
#
# Mechanical properties :
#
#
# Convention : Reuss Voigt Hill
#
# Bulk Modulus (GPa) = 35.38717 38.67589 37.03153
# Shear Modulus (GPa) = 18.49719 23.66926 21.08322
#
# Velocity S-wave (km/s) = 3.20861 3.62958 3.42557
# Velocity P-wave (km/s) = 5.78124 6.25231 6.02138
#
# Compressibility (1/GPa) = 0.02825883
#
# Stress axis : x y z
#
# Youngs Moduli (GPa) = 72.34856 23.25842 32.42008
#
# Poissons Ratio (x) = 0.26585 -0.05061
# Poissons Ratio (y) = 0.82695 0.64298
# Poissons Ratio (z) = -0.11295 0.46128
#
# Static dielectric constant tensor:
#      x y z
#    x 3.567080 0.000000 0.083150 
#    y 0.000000 3.186910 0.000000 
#    z 0.083150 0.000000 3.332590 
# 
# 
# High freq. dielectric constant tensor:
#      x y z
#    x 1.711000 0.000000 0.000130 
#    y 0.000000 1.676760 0.000000 
#    z 0.000130 0.000000 1.691790 
# 
# From -- ./inp_files/276569.got.cif
#   From: 2010.06.25/outbox.cif.g09.slc.cpg/sg12_139_cif.got.tgz:276569.got - 2010.06.28 00:19:55.
