data_PCOD8085153
_publ_section_title
;
Structure prediction by ZEFSAII (Michael W. Deem and Ramdas Pophale) SiO2 
 PCOD8085153
Probable space group: C 2/M
;
_chemical_formula_sum "Si O2"
_cell_formula_units_Z 56
_cell_length_a 20.107856
_cell_length_b 14.808249
_cell_length_c 20.397679
_cell_angle_alpha 90.000000
_cell_angle_beta 148.822952
_cell_angle_gamma 90.000000
_cell_volume 3144.236740
_symmetry_space_group_name_H-M "C 2/M"
_symmetry_group_IT_number 12
_symmetry_cell_setting 'monoclinic'
loop_
_space_group_symop_operation_xyz
x,y,z
-x,y,-z
-x,-y,-z
x,-y,z
1/2+x,1/2+y,z
1/2-x,1/2+y,-z
1/2-x,1/2-y,-z
1/2+x,1/2-y,z
loop_
_atom_site_type_symbol
_atom_site_label
_atom_site_fract_x
_atom_site_fract_y
_atom_site_fract_z
Si Si1 0.342314 0.097872 0.530438
Si Si2 0.146247 0.398529 0.805649
Si Si3 0.411165 0.105885 0.103234
Si Si4 0.133421 0.251121 0.544177
Si Si5 0.360369 0.894429 0.913088
Si Si6 0.807047 0.397242 0.646488
Si Si7 0.342400 0.753883 0.289278
O O1 0.494487 0.098955 0.668112
O O2 0.296948 0.176336 0.443779
O O3 0.271623 0.111243 0.540037
O O4 0.302724 0.000000 0.467791
O O5 0.203413 0.500000 0.843441
O O6 0.171490 0.362356 0.902221
O O7 0.208714 0.330121 0.805054
O O8 0.553865 0.147841 0.223204
O O9 0.430943 0.000000 0.130599
O O10 0.347806 0.127894 0.980056
O O11 0.204522 0.155977 0.602623
O O12 0.148665 0.293076 0.629539
O O13 0.989732 0.228634 0.397565
O O14 0.250237 0.833158 0.788214
O O15 0.331360 0.000000 0.875226
O O16 0.500000 0.869994 0.000000
O O17 0.802256 0.500000 0.667497
#
# Coordination Sequence:
#
# PCOD8085153 Si02
#       7
#     8   8   8   8   8   8   8
#     4   8  15  28  47  69  91 119 155 187 217 261
#     4   8  15  30  49  69  92 116 148 189 227 265
#     4   8  15  29  50  71  88 114 154 192 223 259
#     4  10  19  30  43  66 100 125 146 182 225 269
#     4  10  20  34  50  67  89 117 153 194 226 261
#     4   9  16  28  48  71  93 120 151 183 224 268
#     4  10  21  31  44  69  94 122 154 181 223 275
#
# _framework density 17.810364
#
# number of rings (size 3 to 8) (size 9 to 14) (size 15 to 20)
#    0.000    3.000    0.000    3.000    0.000    3.429 
#    0.000    4.286    0.000    0.429    0.000    3.000 
#    0.000    0.000    0.000    0.000    0.000    0.000 
#
# Total GULP energy -346906.296931 kJ/mol
# GULP energy per Si atom -12389.510605 kJ/mol
# Density = 1.776983 g / cm^3
# Si number density = 17.810364 Si / 1000 Ang^3
#
#
#
# Elastic Constant Matrix: (Units=GPa)
#
#
# Indices 1 2 3 4 5 6 
#
# 1 65.5273 33.7991 22.6111 0.0005 -13.0817 0.0004
# 2 33.7991 70.6780 26.9227 0.0002 -4.5104 0.0002
# 3 22.6111 26.9227 55.0513 0.0001 -11.8055 0.0002
# 4 0.0005 0.0002 0.0001 19.1749 0.0001 -2.2587
# 5 -13.0817 -4.5104 -11.8055 0.0001 23.7111 0.0002
# 6 0.0004 0.0002 0.0002 -2.2587 0.0002 26.9663
#
#
#
# Elastic Compliance Matrix: (Units=1/GPa)
#
#
# Indices 1 2 3 4 5 6 
#
# 1 0.022913 -0.009268 -0.002850 -0.000001 0.009459 0.000000
# 2 -0.009268 0.021159 -0.007584 0.000000 -0.004864 0.000000
# 3 -0.002850 -0.007584 0.025075 0.000000 0.009470 0.000000
# 4 -0.000001 0.000000 0.000000 0.052671 -0.000001 0.004412
# 5 0.009459 -0.004864 0.009470 -0.000001 0.051183 -0.000001
# 6 0.000000 0.000000 0.000000 0.004412 -0.000001 0.037453
#
#
# Mechanical properties :
#
#
# Convention : Reuss Voigt Hill
#
# Bulk Modulus (GPa) = 33.62157 39.76914 36.69535
# Shear Modulus (GPa) = 19.24751 21.16539 20.20645
#
# Velocity S-wave (km/s) = 3.29095 3.45102 3.37194
# Velocity P-wave (km/s) = 5.77573 6.18523 5.98398
#
# Compressibility (1/GPa) = 0.02974282
#
# Stress axis : x y z
#
# Youngs Moduli (GPa) = 43.64302 47.26028 39.87984
#
# Poissons Ratio (x) = 0.43801 0.11366
# Poissons Ratio (y) = 0.40449 0.30247
# Poissons Ratio (z) = 0.12438 0.35844
#
# Static dielectric constant tensor:
#      x y z
#    x 3.415330 0.000000 -0.332480 
#    y 0.000000 3.246930 0.000000 
#    z -0.332480 0.000000 3.064890 
# 
# 
# High freq. dielectric constant tensor:
#      x y z
#    x 1.689750 0.000000 -0.029290 
#    y 0.000000 1.672460 0.000000 
#    z -0.029290 0.000000 1.658430 
# 
# From -- ./inp_files/183470.got.cif
#   From: 2010.06.25/outbox.cif.g09.slc.cpg/sg12_92_cif.got.tgz:183470.got - 2010.06.28 00:19:55.
