data_PCOD8085482
_publ_section_title
;
Structure prediction by ZEFSAII (Michael W. Deem and Ramdas Pophale) SiO2 
 PCOD8085482
Probable space group: C 2/M
;
_chemical_formula_sum "Si O2"
_cell_formula_units_Z 64
_cell_length_a 31.314172
_cell_length_b 9.079783
_cell_length_c 14.676969
_cell_angle_alpha 90.000000
_cell_angle_beta 62.695012
_cell_angle_gamma 90.000000
_cell_volume 3708.070594
_symmetry_space_group_name_H-M "C 2/M"
_symmetry_group_IT_number 12
_symmetry_cell_setting 'monoclinic'
loop_
_space_group_symop_operation_xyz
x,y,z
-x,y,-z
-x,-y,-z
x,-y,z
1/2+x,1/2+y,z
1/2-x,1/2+y,-z
1/2-x,1/2-y,-z
1/2+x,1/2-y,z
loop_
_atom_site_type_symbol
_atom_site_label
_atom_site_fract_x
_atom_site_fract_y
_atom_site_fract_z
Si Si1 0.072808 0.830245 0.269154
Si Si2 0.606904 0.331440 0.429257
Si Si3 0.470172 0.830019 0.181319
Si Si4 0.302634 0.826411 0.351321
Si Si5 0.385709 0.825124 0.142085
Si Si6 0.026476 0.670709 0.616642
Si Si7 0.805622 0.827946 0.533486
Si Si8 0.422346 0.825293 0.915946
O O1 0.109738 0.812593 0.317274
O O2 0.096304 0.751136 0.158213
O O3 0.022785 0.758098 0.348173
O O4 0.063572 0.000000 0.254436
O O5 0.594600 0.500000 0.467384
O O6 0.565390 0.227876 0.507913
O O7 0.658231 0.284479 0.420742
O O8 0.431089 0.755249 0.152661
O O9 0.452972 0.805673 0.301792
O O10 0.523786 0.765454 0.115293
O O11 0.473243 0.000000 0.152563
O O12 0.336013 0.768854 0.235543
O O13 0.247903 0.779055 0.383400
O O14 0.321214 0.755207 0.426682
O O15 0.307753 0.000000 0.358326
O O16 0.388516 0.000000 0.146906
O O17 0.388269 0.778073 0.033525
O O18 0.015809 0.500000 0.607684
O O19 0.806922 0.000000 0.510472
O O20 0.422653 0.000000 0.899087
#
# Coordination Sequence:
#
# PCOD8085482 Si02
#       8
#     8   8   8   8   8   8   8   8
#     4  10  20  33  46  61  88 125 158 187 223 269
#     4  10  20  32  46  64  89 124 158 185 222 272
#     4   8  14  24  40  65  93 116 139 172 218 269
#     4   9  17  30  49  72  95 119 148 184 229 277
#     4   9  15  25  45  69  90 115 149 186 224 269
#     4  10  19  30  47  71  95 118 148 188 228 266
#     4   9  18  32  48  68  95 122 149 184 225 272
#     4   9  17  29  45  65  89 118 153 191 225 259
#
# _framework density 17.259650000000001
#
# number of rings (size 3 to 8) (size 9 to 14) (size 15 to 20)
#    0.000    2.750    0.000    3.000    0.000    5.500 
#    0.000    0.625    0.000    7.500    0.000    0.000 
#    0.000    0.000    0.000    0.000    0.000    0.125 
#
# Total GULP energy -396686.280175 kJ/mol
# GULP energy per Si atom -12396.446255 kJ/mol
# Density = 1.722037 g / cm^3
# Si number density = 17.259650 Si / 1000 Ang^3
#
#
#
# Elastic Constant Matrix: (Units=GPa)
#
#
# Indices 1 2 3 4 5 6 
#
# 1 97.9659 31.6540 63.7571 0.0000 14.3249 0.0000
# 2 31.6540 48.0803 36.9363 0.0000 6.5173 0.0000
# 3 63.7571 36.9363 144.2495 0.0000 4.5524 0.0000
# 4 0.0000 0.0000 0.0000 21.0609 0.0000 3.4285
# 5 14.3249 6.5173 4.5524 0.0000 21.1849 0.0000
# 6 0.0000 0.0000 0.0000 3.4285 0.0000 16.5976
#
#
#
# Elastic Compliance Matrix: (Units=1/GPa)
#
#
# Indices 1 2 3 4 5 6 
#
# 1 0.017068 -0.005587 -0.005843 0.000000 -0.008567 0.000000
# 2 -0.005587 0.028666 -0.004744 0.000000 -0.004022 0.000000
# 3 -0.005843 -0.004744 0.010631 0.000000 0.003126 0.000000
# 4 0.000000 0.000000 0.000000 0.049134 0.000000 -0.010149
# 5 -0.008567 -0.004022 0.003126 0.000000 0.053562 0.000000
# 6 0.000000 0.000000 0.000000 -0.010149 0.000000 0.062346
#
#
# Mechanical properties :
#
#
# Convention : Reuss Voigt Hill
#
# Bulk Modulus (GPa) = 41.63600 61.66561 51.65080
# Shear Modulus (GPa) = 19.10138 22.29855 20.69996
#
# Velocity S-wave (km/s) = 3.33033 3.59827 3.46689
# Velocity P-wave (km/s) = 6.24210 7.28485 6.78354
#
# Compressibility (1/GPa) = 0.02401768
#
# Stress axis : x y z
#
# Youngs Moduli (GPa) = 58.58822 34.88417 94.06362
#
# Poissons Ratio (x) = 0.19490 0.54962
# Poissons Ratio (y) = 0.32733 0.44623
# Poissons Ratio (z) = 0.34234 0.16549
#
# Static dielectric constant tensor:
#      x y z
#    x 3.285060 0.000000 0.052320 
#    y 0.000000 3.011380 0.000000 
#    z 0.052320 0.000000 3.338680 
# 
# 
# High freq. dielectric constant tensor:
#      x y z
#    x 1.651560 0.000000 0.010790 
#    y 0.000000 1.642280 0.000000 
#    z 0.010790 0.000000 1.662820 
# 
# From -- ./inp_files/249082.got.cif
#   From: 2010.06.25/outbox.cif.g09.slc.cpg/sg12_125_cif.got.tgz:249082.got - 2010.06.28 00:19:55.
