data_PCOD8085704
_publ_section_title
;
Structure prediction by ZEFSAII (Michael W. Deem and Ramdas Pophale) SiO2 
 PCOD8085704
Probable space group: C 2/M
;
_chemical_formula_sum "Si O2"
_cell_formula_units_Z 64
_cell_length_a 21.437096
_cell_length_b 13.901197
_cell_length_c 13.364261
_cell_angle_alpha 90.000000
_cell_angle_beta 111.639479
_cell_angle_gamma 90.000000
_cell_volume 3701.886159
_symmetry_space_group_name_H-M "C 2/M"
_symmetry_group_IT_number 12
_symmetry_cell_setting 'monoclinic'
loop_
_space_group_symop_operation_xyz
x,y,z
-x,y,-z
-x,-y,-z
x,-y,z
1/2+x,1/2+y,z
1/2-x,1/2+y,-z
1/2-x,1/2-y,-z
1/2+x,1/2-y,z
loop_
_atom_site_type_symbol
_atom_site_label
_atom_site_fract_x
_atom_site_fract_y
_atom_site_fract_z
Si Si1 0.560562 0.286040 0.237566
Si Si2 0.985437 0.607760 0.879372
Si Si3 0.523484 0.273823 0.626494
Si Si4 0.061221 0.893948 0.920121
Si Si5 0.405246 0.891495 0.219034
Si Si6 0.271904 0.776395 0.124437
Si Si7 0.357975 0.391428 0.225686
Si Si8 0.653519 0.389244 0.158274
O O1 0.570211 0.175403 0.207737
O O2 0.542627 0.295153 0.344451
O O3 0.494543 0.316181 0.136151
O O4 0.626297 0.348855 0.249116
O O5 0.955467 0.500000 0.860559
O O6 0.055624 0.612616 0.862132
O O7 0.000000 0.642551 0.000000
O O8 0.500000 0.268648 0.500000
O O9 0.556925 0.172502 0.675795
O O10 0.577946 0.359022 0.670612
O O11 0.123021 0.884935 0.880024
O O12 0.028333 0.000000 0.891018
O O13 0.090063 0.878708 0.047504
O O14 0.331572 0.852737 0.152675
O O15 0.400972 0.000000 0.258523
O O16 0.294973 0.680709 0.199399
O O17 0.213706 0.824173 0.155186
O O18 0.250000 0.750000 0.000000
O O19 0.337623 0.500000 0.244832
O O20 0.676740 0.500000 0.183244
#
# Coordination Sequence:
#
# PCOD8085704 Si02
#       8
#     8   8   8   8   8   8   8   8
#     4  10  19  30  49  70 103 132 162 213 264 311
#     4   9  17  28  45  68  98 134 168 200 245 304
#     4   9  19  35  56  81 100 125 169 224 275 314
#     4   9  16  28  46  70  98 131 165 201 248 302
#     4   9  19  34  51  75 105 139 175 213 253 301
#     4  11  21  31  49  72 106 145 177 206 234 290
#     4   9  18  33  50  72 103 135 171 210 251 303
#     4  11  21  31  47  73 104 138 173 206 245 301
#
# _framework density 17.288482999999999
#
# number of rings (size 3 to 8) (size 9 to 14) (size 15 to 20)
#    0.000    2.375    1.250    2.625    1.750    2.500 
#    0.000    0.625    0.000    3.000    0.000    1.750 
#    0.000    0.000    0.000    0.000    0.000    0.000 
#
# Total GULP energy -396705.439227 kJ/mol
# GULP energy per Si atom -12397.044976 kJ/mol
# Density = 1.724913 g / cm^3
# Si number density = 17.288483 Si / 1000 Ang^3
#
#
#
# Elastic Constant Matrix: (Units=GPa)
#
#
# Indices 1 2 3 4 5 6 
#
# 1 79.9587 47.5951 37.9418 0.0000 -14.6758 0.0000
# 2 47.5951 125.3451 36.0792 0.0000 -6.3995 0.0000
# 3 37.9418 36.0792 94.9700 0.0000 -13.1540 0.0000
# 4 0.0000 0.0000 0.0000 12.8312 0.0000 -1.8038
# 5 -14.6758 -6.3995 -13.1540 0.0000 14.6585 0.0000
# 6 0.0000 0.0000 0.0000 -1.8038 0.0000 25.7299
#
#
#
# Elastic Compliance Matrix: (Units=1/GPa)
#
#
# Indices 1 2 3 4 5 6 
#
# 1 0.020570 -0.005932 -0.003963 0.000000 0.014448 0.000000
# 2 -0.005932 0.010681 -0.002129 0.000000 -0.003187 0.000000
# 3 -0.003963 -0.002129 0.013981 0.000000 0.007649 0.000000
# 4 0.000000 0.000000 0.000000 0.078711 0.000000 0.005518
# 5 0.014448 -0.003187 0.007649 0.000000 0.088157 0.000000
# 6 0.000000 0.000000 0.000000 0.005518 0.000000 0.039252
#
#
# Mechanical properties :
#
#
# Convention : Reuss Voigt Hill
#
# Bulk Modulus (GPa) = 47.20762 60.38956 53.79859
# Shear Modulus (GPa) = 17.70151 22.55445 20.12798
#
# Velocity S-wave (km/s) = 3.20330 3.61583 3.41580
# Velocity P-wave (km/s) = 6.40676 7.24146 6.83686
#
# Compressibility (1/GPa) = 0.02118302
#
# Stress axis : x y z
#
# Youngs Moduli (GPa) = 48.61437 93.62736 71.52455
#
# Poissons Ratio (x) = 0.55543 0.28346
# Poissons Ratio (y) = 0.28840 0.15227
# Poissons Ratio (z) = 0.19267 0.19933
#
# Static dielectric constant tensor:
#      x y z
#    x 3.122590 0.000000 -0.148540 
#    y 0.000000 3.675310 0.000000 
#    z -0.148540 0.000000 2.800550 
# 
# 
# High freq. dielectric constant tensor:
#      x y z
#    x 1.653240 0.000000 -0.015450 
#    y 0.000000 1.690240 0.000000 
#    z -0.015450 0.000000 1.619940 
# 
# From -- ./inp_files/167290.got.cif
#   From: 2010.06.25/outbox.cif.g09.slc.cpg/sg12_84_cif.got.tgz:167290.got - 2010.06.28 00:19:55.
