data_PCOD8085786
_publ_section_title
;
Structure prediction by ZEFSAII (Michael W. Deem and Ramdas Pophale) SiO2 
 PCOD8085786
Probable space group: C 2/M
;
_chemical_formula_sum "Si O2"
_cell_formula_units_Z 48
_cell_length_a 27.563577
_cell_length_b 11.766779
_cell_length_c 13.469637
_cell_angle_alpha 90.000000
_cell_angle_beta 40.282338
_cell_angle_gamma 90.000000
_cell_volume 2824.582757
_symmetry_space_group_name_H-M "C 2/M"
_symmetry_group_IT_number 12
_symmetry_cell_setting 'monoclinic'
loop_
_space_group_symop_operation_xyz
x,y,z
-x,y,-z
-x,-y,-z
x,-y,z
1/2+x,1/2+y,z
1/2-x,1/2+y,-z
1/2-x,1/2-y,-z
1/2+x,1/2-y,z
loop_
_atom_site_type_symbol
_atom_site_label
_atom_site_fract_x
_atom_site_fract_y
_atom_site_fract_z
Si Si1 0.026672 0.633295 0.564710
Si Si2 0.666143 0.732126 0.812750
Si Si3 0.508836 0.500000 0.820063
Si Si4 0.184924 0.629743 0.400492
Si Si5 0.475030 0.742993 0.833364
Si Si6 0.615782 0.500000 0.817715
Si Si7 0.393985 0.129718 0.269751
O O1 0.012470 0.500000 0.596834
O O2 0.114089 0.662820 0.442391
O O3 0.000000 0.679995 0.500000
O O4 0.976196 0.689229 0.729102
O O5 0.751154 0.724835 0.722799
O O6 0.663442 0.612804 0.758841
O O7 0.650970 0.832023 0.758023
O O8 0.609037 0.746035 0.992861
O O9 0.497932 0.613134 0.772009
O O10 0.590754 0.500000 0.741912
O O11 0.452132 0.500000 0.999925
O O12 0.210609 0.500000 0.336195
O O13 0.161656 0.640600 0.551266
O O14 0.531376 0.794578 0.828561
O O15 0.420461 0.000000 0.214119
#
# Coordination Sequence:
#
# PCOD8085786 Si02
#       7
#     8   8   4   8   8   4   8
#     4   9  19  38  59  74  92 125 167 208 254 306
#     4  11  18  29  48  74 105 131 164 205 242 288
#     4   9  16  28  43  72 100 132 166 196 230 283
#     4   9  18  32  50  72  98 128 167 206 242 292
#     4  10  19  30  50  76  98 129 170 208 242 285
#     4   9  16  26  44  68 103 136 164 189 233 280
#     4  10  20  31  45  71 107 143 168 194 236 291
#
# _framework density 16.993659999999998
#
# number of rings (size 3 to 8) (size 9 to 14) (size 15 to 20)
#    0.000    2.333    2.500    2.500    0.000    2.000 
#    0.000    1.250    0.000    0.000    0.000    0.000 
#    0.000    0.000    0.000    0.000    0.000    0.000 
#
# Total GULP energy -297523.812269 kJ/mol
# GULP energy per Si atom -12396.825511 kJ/mol
# Density = 1.695498 g / cm^3
# Si number density = 16.993660 Si / 1000 Ang^3
#
#
#
# Elastic Constant Matrix: (Units=GPa)
#
#
# Indices 1 2 3 4 5 6 
#
# 1 106.9924 34.4987 55.7111 0.0000 3.5576 0.0000
# 2 34.4987 83.0770 34.5638 0.0000 -2.3129 0.0000
# 3 55.7111 34.5638 83.5192 0.0000 -12.2987 0.0000
# 4 0.0000 0.0000 0.0000 23.9073 0.0000 0.6452
# 5 3.5576 -2.3129 -12.2987 0.0000 22.9270 0.0000
# 6 0.0000 0.0000 0.0000 0.6452 0.0000 20.5734
#
#
#
# Elastic Compliance Matrix: (Units=1/GPa)
#
#
# Indices 1 2 3 4 5 6 
#
# 1 0.016169 -0.002339 -0.011098 0.000000 -0.008698 0.000000
# 2 -0.002339 0.014957 -0.004727 0.000000 -0.000664 0.000000
# 3 -0.011098 -0.004727 0.023361 0.000000 0.013777 0.000000
# 4 0.000000 0.000000 0.000000 0.041864 0.000000 -0.001313
# 5 -0.008698 -0.000664 0.013777 0.000000 0.052290 0.000000
# 6 0.000000 0.000000 0.000000 -0.001313 0.000000 0.048648
#
#
# Mechanical properties :
#
#
# Convention : Reuss Voigt Hill
#
# Bulk Modulus (GPa) = 55.07267 58.12621 56.59944
# Shear Modulus (GPa) = 20.86212 23.40255 22.13233
#
# Velocity S-wave (km/s) = 3.50757 3.71500 3.61278
# Velocity P-wave (km/s) = 6.99158 7.25814 7.12611
#
# Compressibility (1/GPa) = 0.01815783
#
# Stress axis : x y z
#
# Youngs Moduli (GPa) = 61.84792 66.86015 42.80587
#
# Poissons Ratio (x) = 0.15639 0.47506
# Poissons Ratio (y) = 0.14467 0.20235
# Poissons Ratio (z) = 0.68639 0.31606
#
# Static dielectric constant tensor:
#      x y z
#    x 3.108600 0.000000 -0.164220 
#    y 0.000000 3.283620 0.000000 
#    z -0.164220 0.000000 2.976720 
# 
# 
# High freq. dielectric constant tensor:
#      x y z
#    x 1.630250 0.000000 -0.017470 
#    y 0.000000 1.654490 0.000000 
#    z -0.017470 0.000000 1.640500 
# 
# From -- ./inp_files/250373.got.cif
#   From: 2010.06.25/outbox.cif.g09.slc.cpg/sg12_126_cif.got.tgz:250373.got - 2010.06.28 00:19:55.
