data_PCOD8085499
_publ_section_title
;
Structure prediction by ZEFSAII (Michael W. Deem and Ramdas Pophale) SiO2 
 PCOD8085499
Probable space group: C 2/M
;
_chemical_formula_sum "Si O2"
_cell_formula_units_Z 56
_cell_length_a 18.779148
_cell_length_b 9.112726
_cell_length_c 29.489577
_cell_angle_alpha 90.000000
_cell_angle_beta 37.645143
_cell_angle_gamma 90.000000
_cell_volume 3082.264317
_symmetry_space_group_name_H-M "C 2/M"
_symmetry_group_IT_number 12
_symmetry_cell_setting 'monoclinic'
loop_
_space_group_symop_operation_xyz
x,y,z
-x,y,-z
-x,-y,-z
x,-y,z
1/2+x,1/2+y,z
1/2-x,1/2+y,-z
1/2-x,1/2-y,-z
1/2+x,1/2-y,z
loop_
_atom_site_type_symbol
_atom_site_label
_atom_site_fract_x
_atom_site_fract_y
_atom_site_fract_z
Si Si1 0.050417 0.673881 0.297312
Si Si2 0.211236 0.673831 0.565245
Si Si3 0.794561 0.672788 0.698108
Si Si4 0.673238 0.675027 0.001158
Si Si5 0.132775 0.826859 0.428709
Si Si6 0.088378 0.173165 0.865482
Si Si7 0.745206 0.325330 0.866499
O O1 0.054022 0.500000 0.295689
O O2 0.105266 0.727566 0.317469
O O3 0.128963 0.730749 0.215487
O O4 0.918941 0.731064 0.357527
O O5 0.213885 0.500000 0.556763
O O6 0.250000 0.750000 0.500000
O O7 0.297151 0.723346 0.562042
O O8 0.804598 0.500000 0.684527
O O9 0.806682 0.754853 0.644830
O O10 0.668036 0.715800 0.782221
O O11 0.681049 0.500000 0.001205
O O12 0.541813 0.734688 0.074399
O O13 0.750000 0.750000 0.000000
O O14 0.721315 0.733476 0.928777
O O15 0.000000 0.771450 0.500000
O O16 0.138318 0.000000 0.419392
O O17 0.145513 0.235813 0.882894
O O18 0.082605 0.000000 0.873243
O O19 0.741638 0.500000 0.868205
#
# Coordination Sequence:
#
# PCOD8085499 Si02
#       7
#     8   8   8   8   8   8   8
#     4   8  15  29  49  72  92 113 153 203 235 262
#     4  10  20  33  49  68  92 122 155 193 232 271
#     4   9  17  31  52  73  92 118 155 199 239 274
#     4  10  19  30  47  71  98 126 155 191 234 278
#     4  10  21  34  47  68 100 131 155 186 232 284
#     4   8  15  29  49  72  94 118 156 201 234 266
#     4   8  14  27  49  71  89 118 160 196 228 272
#
# _framework density 18.168462000000002
#
# number of rings (size 3 to 8) (size 9 to 14) (size 15 to 20)
#    0.000    3.000    0.000    3.000    0.000    3.714 
#    0.000    2.143    0.000    6.000    0.000    0.000 
#    0.000    0.000    0.000    0.000    0.000    0.000 
#
# Total GULP energy -347080.709365 kJ/mol
# GULP energy per Si atom -12395.739620 kJ/mol
# Density = 1.812711 g / cm^3
# Si number density = 18.168462 Si / 1000 Ang^3
#
#
#
# Elastic Constant Matrix: (Units=GPa)
#
#
# Indices 1 2 3 4 5 6 
#
# 1 166.9615 28.2102 115.3323 -0.0002 -6.1015 -0.0013
# 2 28.2102 15.7332 30.4498 -0.0005 3.8971 -0.0027
# 3 115.3323 30.4498 174.6485 0.0000 0.0127 0.0000
# 4 -0.0002 -0.0005 0.0000 20.0069 0.0001 5.1602
# 5 -6.1015 3.8971 0.0127 0.0001 38.6553 -0.0002
# 6 -0.0013 -0.0027 0.0000 5.1602 -0.0002 20.9981
#
#
#
# Elastic Compliance Matrix: (Units=1/GPa)
#
#
# Indices 1 2 3 4 5 6 
#
# 1 0.012157 -0.010564 -0.006186 0.000000 0.002986 -0.000001
# 2 -0.010564 0.108863 -0.012003 -0.000001 -0.012639 0.000013
# 3 -0.006186 -0.012003 0.011904 0.000000 0.000230 -0.000002
# 4 0.000000 -0.000001 0.000000 0.053365 0.000000 -0.013114
# 5 0.002986 -0.012639 0.000230 0.000000 0.027615 -0.000001
# 6 -0.000001 0.000013 -0.000002 -0.013114 -0.000001 0.050846
#
#
# Mechanical properties :
#
#
# Convention : Reuss Voigt Hill
#
# Bulk Modulus (GPa) = 13.25969 78.36975 45.81472
# Shear Modulus (GPa) = 14.39278 28.15544 21.27411
#
# Velocity S-wave (km/s) = 2.81763 3.94088 3.42561
# Velocity P-wave (km/s) = 4.23077 7.99600 6.39670
#
# Compressibility (1/GPa) = 0.07541656
#
# Stress axis : x y z
#
# Youngs Moduli (GPa) = 82.25822 9.18584 84.00749
#
# Poissons Ratio (x) = 0.09704 0.51970
# Poissons Ratio (y) = 0.86901 1.00833
# Poissons Ratio (z) = 0.50887 0.11026
#
# Static dielectric constant tensor:
#      x y z
#    x 3.591830 0.000000 -0.264710 
#    y 0.000000 2.824340 0.000000 
#    z -0.264710 0.000000 3.783930 
# 
# 
# High freq. dielectric constant tensor:
#      x y z
#    x 1.708410 0.000000 -0.004550 
#    y 0.000000 1.649900 0.000000 
#    z -0.004550 0.000000 1.721360 
# 
# From -- ./inp_files/342265.got.cif
#   From: 2010.06.25/outbox.cif.g09.slc.cpg/sg12_172_cif.got.tgz:342265.got - 2010.06.28 00:19:55.
