data_PCOD8085735
_publ_section_title
;
Structure prediction by ZEFSAII (Michael W. Deem and Ramdas Pophale) SiO2 
 PCOD8085735
Probable space group: C 2/M
;
_chemical_formula_sum "Si O2"
_cell_formula_units_Z 64
_cell_length_a 25.171095
_cell_length_b 9.545826
_cell_length_c 15.352658
_cell_angle_alpha 90.000000
_cell_angle_beta 106.933886
_cell_angle_gamma 90.000000
_cell_volume 3528.973606
_symmetry_space_group_name_H-M "C 2/M"
_symmetry_group_IT_number 12
_symmetry_cell_setting 'monoclinic'
loop_
_space_group_symop_operation_xyz
x,y,z
-x,y,-z
-x,-y,-z
x,-y,z
1/2+x,1/2+y,z
1/2-x,1/2+y,-z
1/2-x,1/2-y,-z
1/2+x,1/2-y,z
loop_
_atom_site_type_symbol
_atom_site_label
_atom_site_fract_x
_atom_site_fract_y
_atom_site_fract_z
Si Si1 0.291374 0.159732 0.466119
Si Si2 0.082298 0.658847 0.457202
Si Si3 0.268308 0.656147 0.115929
Si Si4 0.034210 0.665436 0.932729
Si Si5 0.659760 0.835512 0.964255
Si Si6 0.929950 0.841405 0.382866
Si Si7 0.506113 0.161700 0.724646
Si Si8 0.801195 0.150695 0.320180
O O1 0.250000 0.250000 0.500000
O O2 0.353319 0.189032 0.529372
O O3 0.284323 0.212832 0.364955
O O4 0.273813 0.000000 0.462738
O O5 0.073497 0.500000 0.487535
O O6 0.057425 0.762663 0.518990
O O7 0.054133 0.680075 0.349242
O O8 0.280568 0.500000 0.085447
O O9 0.318964 0.756872 0.112035
O O10 0.264534 0.657703 0.217084
O O11 0.206671 0.704747 0.057632
O O12 0.033302 0.500000 0.941700
O O13 0.098577 0.718159 0.964638
O O14 0.005777 0.709275 0.826374
O O15 0.000000 0.728814 0.000000
O O16 0.656776 0.000000 0.942670
O O17 0.865733 0.844448 0.329875
O O18 0.953750 0.759090 0.311937
O O19 0.953938 0.000000 0.400579
O O20 0.526255 0.000000 0.728573
O O21 0.788489 0.000000 0.361238
#
# Coordination Sequence:
#
# PCOD8085735 Si02
#       8
#     8   8   8   8   8   8   8   8
#     4  10  20  35  52  70  96 129 164 200 243 289
#     4   9  19  34  50  73 101 130 164 201 244 295
#     4   9  17  30  49  76 103 128 161 204 253 302
#     4   9  18  33  51  73 100 130 171 215 251 290
#     4   9  17  30  50  75 100 129 162 205 257 299
#     4  10  19  30  49  76 105 134 161 197 247 296
#     4  10  19  32  51  74  99 130 166 205 246 290
#     4   9  18  32  48  71 101 131 165 199 239 293
#
# _framework density 18.135586
#
# number of rings (size 3 to 8) (size 9 to 14) (size 15 to 20)
#    0.000    2.625    0.000    1.875    0.000    3.500 
#    2.250    0.000    0.000    1.500    0.000    0.000 
#    0.000    0.000    0.000    0.000    0.000    0.000 
#
# Total GULP energy -396524.529562 kJ/mol
# GULP energy per Si atom -12391.391549 kJ/mol
# Density = 1.809431 g / cm^3
# Si number density = 18.135586 Si / 1000 Ang^3
#
#
#
# Elastic Constant Matrix: (Units=GPa)
#
#
# Indices 1 2 3 4 5 6 
#
# 1 92.9022 54.4412 57.0579 0.0000 -10.9815 0.0000
# 2 54.4412 94.0029 48.1484 0.0000 -11.1475 0.0000
# 3 57.0579 48.1484 122.6973 0.0000 -2.7753 0.0000
# 4 0.0000 0.0000 0.0000 21.8630 0.0000 -5.2255
# 5 -10.9815 -11.1475 -2.7753 0.0000 21.8544 0.0000
# 6 0.0000 0.0000 0.0000 -5.2255 0.0000 27.0558
#
#
#
# Elastic Compliance Matrix: (Units=1/GPa)
#
#
# Indices 1 2 3 4 5 6 
#
# 1 0.019506 -0.007634 -0.005959 0.000000 0.005151 0.000000
# 2 -0.007634 0.017179 -0.003089 0.000000 0.004534 0.000000
# 3 -0.005959 -0.003089 0.012064 0.000000 -0.003038 0.000000
# 4 0.000000 0.000000 0.000000 0.047953 0.000000 0.009262
# 5 0.005151 0.004534 -0.003038 0.000000 0.050273 0.000000
# 6 0.000000 0.000000 0.000000 0.009262 0.000000 0.038749
#
#
# Mechanical properties :
#
#
# Convention : Reuss Voigt Hill
#
# Bulk Modulus (GPa) = 64.99111 69.87749 67.43430
# Shear Modulus (GPa) = 22.29991 24.15164 23.22578
#
# Velocity S-wave (km/s) = 3.51040 3.65324 3.58253
# Velocity P-wave (km/s) = 7.23496 7.51060 7.37407
#
# Compressibility (1/GPa) = 0.01538672
#
# Stress axis : x y z
#
# Youngs Moduli (GPa) = 51.26612 58.21108 82.88810
#
# Poissons Ratio (x) = 0.44438 0.49391
# Poissons Ratio (y) = 0.39136 0.25602
# Poissons Ratio (z) = 0.30548 0.17980
#
# Static dielectric constant tensor:
#      x y z
#    x 3.394110 0.000000 0.185620 
#    y 0.000000 3.473730 0.000000 
#    z 0.185620 0.000000 3.327440 
# 
# 
# High freq. dielectric constant tensor:
#      x y z
#    x 1.694010 0.000000 0.015780 
#    y 0.000000 1.694580 0.000000 
#    z 0.015780 0.000000 1.698850 
# 
# From -- ./inp_files/244041.got.cif
#   From: 2010.06.25/outbox.cif.g09.slc.cpg/sg12_123_cif.got.tgz:244041.got - 2010.06.28 00:19:55.
