data_PCOD8085190
_publ_section_title
;
Structure prediction by ZEFSAII (Michael W. Deem and Ramdas Pophale) SiO2 
 PCOD8085190
Probable space group: C 2/M
;
_chemical_formula_sum "Si O2"
_cell_formula_units_Z 56
_cell_length_a 23.401409
_cell_length_b 9.072164
_cell_length_c 19.151588
_cell_angle_alpha 90.000000
_cell_angle_beta 128.038426
_cell_angle_gamma 90.000000
_cell_volume 3202.300745
_symmetry_space_group_name_H-M "C 2/M"
_symmetry_group_IT_number 12
_symmetry_cell_setting 'monoclinic'
loop_
_space_group_symop_operation_xyz
x,y,z
-x,y,-z
-x,-y,-z
x,-y,z
1/2+x,1/2+y,z
1/2-x,1/2+y,-z
1/2-x,1/2-y,-z
1/2+x,1/2-y,z
loop_
_atom_site_type_symbol
_atom_site_label
_atom_site_fract_x
_atom_site_fract_y
_atom_site_fract_z
Si Si1 0.196670 0.168775 0.908353
Si Si2 0.474452 0.169317 0.368821
Si Si3 0.382139 0.330185 0.679365
Si Si4 0.037198 0.167902 0.779973
Si Si5 0.384544 0.674368 0.521471
Si Si6 0.244782 0.673163 0.655680
Si Si7 0.814688 0.330604 0.244764
O O1 0.114306 0.186119 0.877236
O O2 0.202730 0.229088 0.834374
O O3 0.220355 0.000000 0.923612
O O4 0.250000 0.250000 0.000000
O O5 0.465247 0.209791 0.281076
O O6 0.538679 0.265560 0.451941
O O7 0.394171 0.200519 0.339590
O O8 0.497089 0.000000 0.394658
O O9 0.362448 0.500000 0.661738
O O10 0.464394 0.305306 0.771943
O O11 0.377796 0.269771 0.596764
O O12 0.321189 0.260570 0.684137
O O13 0.032333 0.000000 0.745019
O O14 0.384394 0.500000 0.514640
O O15 0.318288 0.739223 0.429567
O O16 0.233991 0.500000 0.632955
O O17 0.243078 0.703432 0.737586
O O18 0.810569 0.500000 0.216377
#
# Coordination Sequence:
#
# PCOD8085190 Si02
#       7
#     8   8   8   8   8   8   8
#     4  10  19  32  54  78  99 119 144 182 228 278
#     4   9  16  28  45  64  89 121 155 193 232 273
#     4   8  15  29  48  67  90 121 159 197 231 266
#     4   8  15  29  48  71  94 117 147 187 230 270
#     4  10  19  30  44  65  92 123 163 205 235 267
#     4  10  19  31  47  66  91 125 159 195 234 273
#     4   9  19  33  48  69  96 122 152 188 232 282
#
# _framework density 17.487428000000001
#
# number of rings (size 3 to 8) (size 9 to 14) (size 15 to 20)
#    0.000    2.857    0.000    2.571    0.000    2.286 
#    0.000    5.714    0.000    0.857    0.000    6.000 
#    0.000    0.000    0.000    0.000    0.000    0.000 
#
# Total GULP energy -346868.166224 kJ/mol
# GULP energy per Si atom -12388.148794 kJ/mol
# Density = 1.744763 g / cm^3
# Si number density = 17.487428 Si / 1000 Ang^3
#
#
#
# Elastic Constant Matrix: (Units=GPa)
#
#
# Indices 1 2 3 4 5 6 
#
# 1 89.9463 39.3503 48.6420 0.0000 7.8053 0.0000
# 2 39.3503 70.9618 40.5479 0.0000 6.5476 0.0000
# 3 48.6420 40.5479 81.6150 0.0000 17.3352 0.0000
# 4 0.0000 0.0000 0.0000 26.7851 0.0000 5.0167
# 5 7.8053 6.5476 17.3352 0.0000 22.0255 0.0000
# 6 0.0000 0.0000 0.0000 5.0167 0.0000 17.2360
#
#
#
# Elastic Compliance Matrix: (Units=1/GPa)
#
#
# Indices 1 2 3 4 5 6 
#
# 1 0.017787 -0.005239 -0.008393 0.000000 0.001860 0.000000
# 2 -0.005239 0.021312 -0.007822 0.000000 0.001678 0.000000
# 3 -0.008393 -0.007822 0.024033 0.000000 -0.013616 0.000000
# 4 0.000000 0.000000 0.000000 0.039487 0.000000 -0.011493
# 5 0.001860 0.001678 -0.013616 0.000000 0.054960 0.000000
# 6 0.000000 0.000000 0.000000 -0.011493 0.000000 0.061363
#
#
# Mechanical properties :
#
#
# Convention : Reuss Voigt Hill
#
# Bulk Modulus (GPa) = 49.44733 55.51153 52.47943
# Shear Modulus (GPa) = 18.61547 20.80816 19.71182
#
# Velocity S-wave (km/s) = 3.26622 3.45322 3.36102
# Velocity P-wave (km/s) = 6.52392 6.90741 6.71840
#
# Compressibility (1/GPa) = 0.02022354
#
# Stress axis : x y z
#
# Youngs Moduli (GPa) = 56.21930 46.92144 41.60913
#
# Poissons Ratio (x) = 0.24584 0.34924
# Poissons Ratio (y) = 0.29455 0.32547
# Poissons Ratio (z) = 0.47187 0.36702
#
# Static dielectric constant tensor:
#      x y z
#    x 3.811450 0.000000 0.160840 
#    y 0.000000 3.189200 0.000000 
#    z 0.160840 0.000000 2.901000 
# 
# 
# High freq. dielectric constant tensor:
#      x y z
#    x 1.684840 0.000000 0.017450 
#    y 0.000000 1.670240 0.000000 
#    z 0.017450 0.000000 1.634000 
# 
# From -- ./inp_files/238882.got.cif
#   From: 2010.06.25/outbox.cif.g09.slc.cpg/sg12_120_cif.got.tgz:238882.got - 2010.06.28 00:19:55.
