data_PCOD8085773
_publ_section_title
;
Structure prediction by ZEFSAII (Michael W. Deem and Ramdas Pophale) SiO2 
 PCOD8085773
Probable space group: C 2/M
;
_chemical_formula_sum "Si O2"
_cell_formula_units_Z 64
_cell_length_a 19.728663
_cell_length_b 18.617957
_cell_length_c 11.151809
_cell_angle_alpha 90.000000
_cell_angle_beta 124.650891
_cell_angle_gamma 90.000000
_cell_volume 3369.616129
_symmetry_space_group_name_H-M "C 2/M"
_symmetry_group_IT_number 12
_symmetry_cell_setting 'monoclinic'
loop_
_space_group_symop_operation_xyz
x,y,z
-x,y,-z
-x,-y,-z
x,-y,z
1/2+x,1/2+y,z
1/2-x,1/2+y,-z
1/2-x,1/2-y,-z
1/2+x,1/2-y,z
loop_
_atom_site_type_symbol
_atom_site_label
_atom_site_fract_x
_atom_site_fract_y
_atom_site_fract_z
Si Si1 0.587159 0.718559 0.318875
Si Si2 0.351463 0.922308 0.100355
Si Si3 0.152516 0.803700 0.133104
Si Si4 0.553911 0.663818 0.661959
Si Si5 0.468358 0.182519 0.087091
Si Si6 0.095454 0.578488 0.580415
Si Si7 0.329599 0.415823 0.054627
Si Si8 0.664080 0.770832 0.624702
O O1 0.624444 0.676379 0.241120
O O2 0.506765 0.680098 0.289857
O O3 0.551735 0.795003 0.239581
O O4 0.656756 0.727119 0.491998
O O5 0.419645 0.869649 0.122196
O O6 0.359782 0.929644 0.249367
O O7 0.363405 0.000000 0.050512
O O8 0.259933 0.893137 0.985578
O O9 0.243351 0.768034 0.231598
O O10 0.088750 0.749540 0.007740
O O11 0.151269 0.874741 0.050228
O O12 0.500000 0.630339 0.500000
O O13 0.613806 0.603946 0.775352
O O14 0.603426 0.734874 0.663812
O O15 0.500000 0.141640 0.000000
O O16 0.106821 0.500000 0.524673
O O17 0.137632 0.647700 0.562012
O O18 0.000000 0.595639 0.500000
O O19 0.336144 0.500000 0.032375
#
# Coordination Sequence:
#
# PCOD8085773 Si02
#       8
#     8   8   8   8   8   8   8   8
#     4  10  21  36  53  84 116 143 189 236 283 345
#     4  10  20  34  52  81 113 143 189 236 276 336
#     4  11  22  35  57  82 116 149 190 241 288 337
#     4  10  21  37  60  84 110 148 192 242 290 350
#     4  10  20  34  55  78 110 149 187 229 285 339
#     4  10  19  30  49  80 114 147 185 232 281 332
#     4  11  23  38  59  85 113 150 197 245 290 343
#     4  11  20  34  59  84 114 150 191 235 291 344
#
# _framework density 18.993262000000001
#
# number of rings (size 3 to 8) (size 9 to 14) (size 15 to 20)
#    0.000    1.625    2.500    3.750    0.000    1.500 
#    0.000    1.250    0.000    1.500    0.000    0.000 
#    0.000    0.000    0.000    0.000    0.000    0.000 
#
# Total GULP energy -396505.119365 kJ/mol
# GULP energy per Si atom -12390.784980 kJ/mol
# Density = 1.895003 g / cm^3
# Si number density = 18.993262 Si / 1000 Ang^3
#
#
#
# Elastic Constant Matrix: (Units=GPa)
#
#
# Indices 1 2 3 4 5 6 
#
# 1 63.7767 26.2756 23.4236 0.0000 -0.2293 0.0000
# 2 26.2756 61.4576 16.4239 0.0000 -8.1919 0.0000
# 3 23.4236 16.4239 104.4006 0.0000 10.1788 0.0000
# 4 0.0000 0.0000 0.0000 27.5612 0.0000 7.1135
# 5 -0.2293 -8.1919 10.1788 0.0000 27.0400 0.0000
# 6 0.0000 0.0000 0.0000 7.1135 0.0000 20.9180
#
#
#
# Elastic Compliance Matrix: (Units=1/GPa)
#
#
# Indices 1 2 3 4 5 6 
#
# 1 0.020085 -0.007877 -0.003167 0.000000 -0.001024 0.000000
# 2 -0.007877 0.021208 -0.002272 0.000000 0.007214 0.000000
# 3 -0.003167 -0.002272 0.011125 0.000000 -0.004903 0.000000
# 4 0.000000 0.000000 0.000000 0.039774 0.000000 -0.013526
# 5 -0.001024 0.007214 -0.004903 0.000000 0.041005 0.000000
# 6 0.000000 0.000000 0.000000 -0.013526 0.000000 0.052405
#
#
# Mechanical properties :
#
#
# Convention : Reuss Voigt Hill
#
# Bulk Modulus (GPa) = 38.78391 40.20901 39.49646
# Shear Modulus (GPa) = 22.64196 26.00461 24.32328
#
# Velocity S-wave (km/s) = 3.45643 3.70422 3.58247
# Velocity P-wave (km/s) = 6.03269 6.28578 6.16054
#
# Compressibility (1/GPa) = 0.02578389
#
# Stress axis : x y z
#
# Youngs Moduli (GPa) = 49.78946 47.15216 89.89083
#
# Poissons Ratio (x) = 0.37142 0.28471
# Poissons Ratio (y) = 0.39219 0.20426
# Poissons Ratio (z) = 0.15769 0.10715
#
# Static dielectric constant tensor:
#      x y z
#    x 3.618420 0.000000 0.107870 
#    y 0.000000 3.524400 0.000000 
#    z 0.107870 0.000000 3.824240 
# 
# 
# High freq. dielectric constant tensor:
#      x y z
#    x 1.730230 0.000000 0.012560 
#    y 0.000000 1.712000 0.000000 
#    z 0.012560 0.000000 1.758250 
# 
# From -- ./inp_files/168813.got.cif
#   From: 2010.06.25/outbox.cif.g09.slc.cpg/sg12_85_cif.got.tgz:168813.got - 2010.06.28 00:19:55.
