data_PCOD8085268
_publ_section_title
;
Structure prediction by ZEFSAII (Michael W. Deem and Ramdas Pophale) SiO2 
 PCOD8085268
Probable space group: C 2/M
;
_chemical_formula_sum "Si O2"
_cell_formula_units_Z 56
_cell_length_a 23.370510
_cell_length_b 16.341307
_cell_length_c 7.997997
_cell_angle_alpha 90.000000
_cell_angle_beta 81.921658
_cell_angle_gamma 90.000000
_cell_volume 3024.162480
_symmetry_space_group_name_H-M "C 2/M"
_symmetry_group_IT_number 12
_symmetry_cell_setting 'monoclinic'
loop_
_space_group_symop_operation_xyz
x,y,z
-x,y,-z
-x,-y,-z
x,-y,z
1/2+x,1/2+y,z
1/2-x,1/2+y,-z
1/2-x,1/2-y,-z
1/2+x,1/2-y,z
loop_
_atom_site_type_symbol
_atom_site_label
_atom_site_fract_x
_atom_site_fract_y
_atom_site_fract_z
Si Si1 0.784425 0.407046 0.062753
Si Si2 0.264678 0.308412 0.647017
Si Si3 0.940788 0.792955 0.587183
Si Si4 0.837735 0.128825 0.057184
Si Si5 0.653366 0.780873 0.155668
Si Si6 0.857835 0.096524 0.426593
Si Si7 0.542811 0.410487 0.118859
O O1 0.801369 0.500000 0.091338
O O2 0.787293 0.356535 0.237802
O O3 0.720611 0.401764 0.007748
O O4 0.833995 0.371840 0.917669
O O5 0.250000 0.250000 0.500000
O O6 0.288899 0.247093 0.775276
O O7 0.309110 0.380610 0.581794
O O8 0.899937 0.724047 0.690420
O O9 0.911454 0.843458 0.446699
O O10 0.959152 0.858954 0.714365
O O11 0.000000 0.749813 0.500000
O O12 0.831486 0.119306 0.257996
O O13 0.854726 0.221710 0.000715
O O14 0.892257 0.075906 0.975360
O O15 0.873368 0.000000 0.435181
O O16 0.517613 0.500000 0.173020
O O17 0.500000 0.369209 0.000000
#
# Coordination Sequence:
#
# PCOD8085268 Si02
#       7
#     8   8   8   8   8   8   8
#     4  11  20  33  53  75  99 129 168 207 245 293
#     4  10  19  32  49  72 104 135 163 196 242 293
#     4  10  21  34  48  68  96 130 170 211 256 301
#     4  10  19  32  49  71 103 141 171 196 239 293
#     4   9  20  35  51  69  95 131 166 203 246 299
#     4  11  20  29  46  74 105 135 169 207 246 288
#     4  10  19  30  45  68 100 136 173 207 238 283
#
# _framework density 18.517524000000002
#
# number of rings (size 3 to 8) (size 9 to 14) (size 15 to 20)
#    0.000    1.857    0.000    7.286    0.000    2.286 
#    0.000    0.714    0.000    0.429    0.000    0.000 
#    0.000   33.143    0.000    0.000    0.000    6.857 
#
# Total GULP energy -346966.422170 kJ/mol
# GULP energy per Si atom -12391.657935 kJ/mol
# Density = 1.847538 g / cm^3
# Si number density = 18.517524 Si / 1000 Ang^3
#
#
#
# Elastic Constant Matrix: (Units=GPa)
#
#
# Indices 1 2 3 4 5 6 
#
# 1 59.2841 33.9325 19.8707 0.0000 -7.7530 0.0000
# 2 33.9325 95.7510 44.3554 0.0000 -10.7432 0.0000
# 3 19.8707 44.3554 87.7050 0.0000 2.4465 0.0000
# 4 0.0000 0.0000 0.0000 16.1697 0.0000 -0.7972
# 5 -7.7530 -10.7432 2.4465 0.0000 35.2938 0.0000
# 6 0.0000 0.0000 0.0000 -0.7972 0.0000 10.0207
#
#
#
# Elastic Compliance Matrix: (Units=1/GPa)
#
#
# Indices 1 2 3 4 5 6 
#
# 1 0.021543 -0.006551 -0.001647 0.000000 0.002852 0.000000
# 2 -0.006551 0.016434 -0.006940 0.000000 0.004044 0.000000
# 3 -0.001647 -0.006940 0.015383 0.000000 -0.003541 0.000000
# 4 0.000000 0.000000 0.000000 0.062088 0.000000 0.004939
# 5 0.002852 0.004044 -0.003541 0.000000 0.030437 0.000000
# 6 0.000000 0.000000 0.000000 0.004939 0.000000 0.100187
#
#
# Mechanical properties :
#
#
# Convention : Reuss Voigt Hill
#
# Bulk Modulus (GPa) = 43.32043 48.78415 46.05229
# Shear Modulus (GPa) = 17.60302 21.93560 19.76931
#
# Velocity S-wave (km/s) = 3.08655 3.44552 3.27096
# Velocity P-wave (km/s) = 6.01227 6.49852 6.26012
#
# Compressibility (1/GPa) = 0.02308380
#
# Stress axis : x y z
#
# Youngs Moduli (GPa) = 46.41918 60.84963 65.00490
#
# Poissons Ratio (x) = 0.39865 0.10707
# Poissons Ratio (y) = 0.30411 0.45112
# Poissons Ratio (z) = 0.07646 0.42228
#
# Static dielectric constant tensor:
#      x y z
#    x 3.388340 0.000000 -0.043300 
#    y 0.000000 3.231240 0.000000 
#    z -0.043300 0.000000 3.636160 
# 
# 
# High freq. dielectric constant tensor:
#      x y z
#    x 1.695400 0.000000 -0.002360 
#    y 0.000000 1.685480 0.000000 
#    z -0.002360 0.000000 1.736110 
# 
# From -- ./inp_files/97330.got.cif
#   From: 2010.06.25/outbox.cif.g09.slc.cpg/sg12_49_cif.got.tgz:97330.got - 2010.06.28 00:19:55.
