data_PCOD8085273
_publ_section_title
;
Structure prediction by ZEFSAII (Michael W. Deem and Ramdas Pophale) SiO2 
 PCOD8085273
Probable space group: C 2/M
;
_chemical_formula_sum "Si O2"
_cell_formula_units_Z 48
_cell_length_a 24.993441
_cell_length_b 9.116912
_cell_length_c 12.484415
_cell_angle_alpha 90.000000
_cell_angle_beta 85.671370
_cell_angle_gamma 90.000000
_cell_volume 2836.621795
_symmetry_space_group_name_H-M "C 2/M"
_symmetry_group_IT_number 12
_symmetry_cell_setting 'monoclinic'
loop_
_space_group_symop_operation_xyz
x,y,z
-x,y,-z
-x,-y,-z
x,-y,z
1/2+x,1/2+y,z
1/2-x,1/2+y,-z
1/2-x,1/2-y,-z
1/2+x,1/2-y,z
loop_
_atom_site_type_symbol
_atom_site_label
_atom_site_fract_x
_atom_site_fract_y
_atom_site_fract_z
Si Si1 0.072568 0.829910 0.684212
Si Si2 0.239540 0.333013 0.108421
Si Si3 0.948078 0.171068 0.731906
Si Si4 0.124425 0.672688 0.094674
Si Si5 0.936617 0.334754 0.523404
Si Si6 0.854142 0.828501 0.132038
O O1 0.089908 0.740330 0.576230
O O2 0.109782 0.774274 0.775098
O O3 0.011397 0.799536 0.725968
O O4 0.081924 0.000000 0.657049
O O5 0.238824 0.500000 0.073660
O O6 0.179078 0.293609 0.156866
O O7 0.291177 0.302436 0.176966
O O8 0.250000 0.250000 0.000000
O O9 0.924395 0.244702 0.841599
O O10 0.921083 0.244264 0.631595
O O11 0.934378 0.000000 0.732250
O O12 0.111736 0.500000 0.091502
O O13 0.130192 0.733915 0.973748
O O14 0.914562 0.500000 0.538247
O O15 0.000000 0.333113 0.500000
O O16 0.864820 0.000000 0.105346
#
# Coordination Sequence:
#
# PCOD8085273 Si02
#       6
#     8   8   8   8   8   8
#     4   9  18  31  48  69  92 119 151 185 222 268
#     4   8  15  28  46  65  86 115 151 188 222 260
#     4  10  19  31  47  67  92 122 153 184 221 267
#     4  10  19  30  45  68  95 121 151 187 226 265
#     4   9  17  30  48  68  90 117 150 187 225 265
#     4   9  17  31  49  68  91 120 152 185 224 269
#
# _framework density 16.921537000000001
#
# number of rings (size 3 to 8) (size 9 to 14) (size 15 to 20)
#    0.000    2.833    0.000    1.500    0.000    4.667 
#    0.000    3.333    0.000    1.000    0.000    0.000 
#    0.000    0.000    0.000    0.000    0.000    0.000 
#
# Total GULP energy -297373.896871 kJ/mol
# GULP energy per Si atom -12390.579036 kJ/mol
# Density = 1.688302 g / cm^3
# Si number density = 16.921537 Si / 1000 Ang^3
#
#
#
# Elastic Constant Matrix: (Units=GPa)
#
#
# Indices 1 2 3 4 5 6 
#
# 1 62.8997 31.5010 39.3452 0.0000 24.0376 0.0000
# 2 31.5010 77.4396 36.4526 0.0000 14.0367 0.0000
# 3 39.3452 36.4526 81.2980 0.0000 27.4568 0.0000
# 4 0.0000 0.0000 0.0000 27.0152 0.0000 -0.3392
# 5 24.0376 14.0367 27.4568 0.0000 16.6299 0.0000
# 6 0.0000 0.0000 0.0000 -0.3392 0.0000 18.8512
#
#
#
# Elastic Compliance Matrix: (Units=1/GPa)
#
#
# Indices 1 2 3 4 5 6 
#
# 1 0.038412 -0.007176 0.003014 0.000000 -0.054442 0.000000
# 2 -0.007176 0.017818 -0.006646 0.000000 0.006306 0.000000
# 3 0.003014 -0.006646 0.030286 0.000000 -0.048752 0.000000
# 4 0.000000 0.000000 0.000000 0.037025 0.000000 0.000666
# 5 -0.054442 0.006306 -0.048752 0.000000 0.213994 0.000000
# 6 0.000000 0.000000 0.000000 0.000666 0.000000 0.053059
#
#
# Mechanical properties :
#
#
# Convention : Reuss Voigt Hill
#
# Bulk Modulus (GPa) = 15.40810 48.47055 31.93933
# Shear Modulus (GPa) = 11.52490 20.12182 15.82336
#
# Velocity S-wave (km/s) = 2.61258 3.45211 3.06126
# Velocity P-wave (km/s) = 4.26921 6.67802 5.60455
#
# Compressibility (1/GPa) = 0.06490094
#
# Stress axis : x y z
#
# Youngs Moduli (GPa) = 26.03338 56.12369 33.01803
#
# Poissons Ratio (x) = 0.40275 -0.09953
# Poissons Ratio (y) = 0.18682 0.21944
# Poissons Ratio (z) = -0.07847 0.37300
#
# Static dielectric constant tensor:
#      x y z
#    x 3.569280 0.000000 0.186040 
#    y 0.000000 3.234220 0.000000 
#    z 0.186040 0.000000 3.000130 
# 
# 
# High freq. dielectric constant tensor:
#      x y z
#    x 1.641270 0.000000 0.008390 
#    y 0.000000 1.663300 0.000000 
#    z 0.008390 0.000000 1.629020 
# 
# From -- ./inp_files/108638.got.cif
#   From: 2010.06.25/outbox.cif.g09.slc.cpg/sg12_55_cif.got.tgz:108638.got - 2010.06.28 00:19:55.
