data_PCOD8085316
_publ_section_title
;
Structure prediction by ZEFSAII (Michael W. Deem and Ramdas Pophale) SiO2 
 PCOD8085316
Probable space group: C 2/M
;
_chemical_formula_sum "Si O2"
_cell_formula_units_Z 56
_cell_length_a 18.763681
_cell_length_b 9.555957
_cell_length_c 20.622156
_cell_angle_alpha 90.000000
_cell_angle_beta 60.732275
_cell_angle_gamma 90.000000
_cell_volume 3225.629446
_symmetry_space_group_name_H-M "C 2/M"
_symmetry_group_IT_number 12
_symmetry_cell_setting 'monoclinic'
loop_
_space_group_symop_operation_xyz
x,y,z
-x,y,-z
-x,-y,-z
x,-y,z
1/2+x,1/2+y,z
1/2-x,1/2+y,-z
1/2-x,1/2-y,-z
1/2+x,1/2-y,z
loop_
_atom_site_type_symbol
_atom_site_label
_atom_site_fract_x
_atom_site_fract_y
_atom_site_fract_z
Si Si1 0.876267 0.342646 0.591737
Si Si2 0.175433 0.160318 0.275619
Si Si3 0.496882 0.336802 0.705746
Si Si4 0.944160 0.342265 0.429469
Si Si5 0.915135 0.153911 0.000115
Si Si6 0.526045 0.664062 0.839728
Si Si7 0.846061 0.336158 0.135654
O O1 0.841948 0.500000 0.610786
O O2 0.816588 0.245160 0.660456
O O3 0.880775 0.294205 0.514201
O O4 0.965932 0.334663 0.581390
O O5 0.095925 0.205721 0.270117
O O6 0.252689 0.189550 0.196134
O O7 0.169885 0.000000 0.299044
O O8 0.511803 0.500000 0.689325
O O9 0.561492 0.258195 0.630345
O O10 0.513970 0.289800 0.771283
O O11 0.923761 0.500000 0.416464
O O12 0.857159 0.269993 0.058775
O O13 0.873016 0.000000 0.021973
O O14 0.939620 0.192758 0.915210
O O15 0.000000 0.148832 0.000000
O O16 0.549625 0.500000 0.836071
O O17 0.597760 0.758440 0.837078
O O18 0.868754 0.500000 0.123270
#
# Coordination Sequence:
#
# PCOD8085316 Si02
#       7
#     8   8   8   8   8   8   8
#     4   8  14  25  42  63  88 118 148 179 215 257
#     4   9  18  30  44  66  94 119 144 179 222 263
#     4   9  17  30  47  66  90 119 148 179 218 263
#     4   8  14  25  41  64  91 115 144 182 220 256
#     4   8  15  29  47  65  85 113 150 185 214 253
#     4   9  18  32  49  67  87 115 151 185 216 257
#     4  10  19  30  46  68  92 116 144 182 224 262
#
# _framework density 17.360952999999999
#
# number of rings (size 3 to 8) (size 9 to 14) (size 15 to 20)
#    0.000    3.286    0.000    2.143    0.000    4.857 
#    0.000    3.571    0.000    0.857    0.000    0.000 
#    0.000    0.000    0.000    0.000    0.000    0.000 
#
# Total GULP energy -347007.047763 kJ/mol
# GULP energy per Si atom -12393.108849 kJ/mol
# Density = 1.732144 g / cm^3
# Si number density = 17.360953 Si / 1000 Ang^3
#
#
#
# Elastic Constant Matrix: (Units=GPa)
#
#
# Indices 1 2 3 4 5 6 
#
# 1 18.3294 11.1552 2.3728 0.0000 7.8060 0.0000
# 2 11.1552 60.1725 27.1259 -0.0001 8.1751 -0.0001
# 3 2.3728 27.1259 69.0852 0.0000 25.0735 0.0000
# 4 0.0000 -0.0001 0.0000 38.1311 0.0000 -1.1380
# 5 7.8060 8.1751 25.0735 0.0000 23.0763 0.0000
# 6 0.0000 -0.0001 0.0000 -1.1380 0.0000 15.3438
#
#
#
# Elastic Compliance Matrix: (Units=1/GPa)
#
#
# Indices 1 2 3 4 5 6 
#
# 1 0.081170 -0.018190 0.019782 0.000000 -0.042507 0.000000
# 2 -0.018190 0.024351 -0.013273 0.000000 0.011948 0.000000
# 3 0.019782 -0.013273 0.032575 0.000000 -0.037384 0.000000
# 4 0.000000 0.000000 0.000000 0.026284 0.000000 0.001949
# 5 -0.042507 0.011948 -0.037384 0.000000 0.094099 0.000000
# 6 0.000000 0.000000 0.000000 0.001949 0.000000 0.065317
#
#
# Mechanical properties :
#
#
# Convention : Reuss Voigt Hill
#
# Bulk Modulus (GPa) = 8.71595 25.43275 17.07435
# Shear Modulus (GPa) = 12.97341 22.43912 17.70627
#
# Velocity S-wave (km/s) = 2.73660 3.59904 3.19704
# Velocity P-wave (km/s) = 3.87513 5.65261 4.84606
#
# Compressibility (1/GPa) = 0.11473225
#
# Stress axis : x y z
#
# Youngs Moduli (GPa) = 12.31990 41.06533 30.69844
#
# Poissons Ratio (x) = 0.74700 -0.60727
# Poissons Ratio (y) = 0.22410 0.40747
# Poissons Ratio (z) = -0.24371 0.54507
#
# Static dielectric constant tensor:
#      x y z
#    x 2.760920 0.000000 0.109770 
#    y 0.000000 3.323950 0.000000 
#    z 0.109770 0.000000 3.805550 
# 
# 
# High freq. dielectric constant tensor:
#      x y z
#    x 1.612910 0.000000 0.004460 
#    y 0.000000 1.670390 0.000000 
#    z 0.004460 0.000000 1.687970 
# 
# From -- ./inp_files/287384.got.cif
#   From: 2010.06.25/outbox.cif.g09.slc.cpg/sg12_144_cif.got.tgz:287384.got - 2010.06.28 00:19:55.
