data_PCOD8085230
_publ_section_title
;
Structure prediction by ZEFSAII (Michael W. Deem and Ramdas Pophale) SiO2 
 PCOD8085230
Probable space group: C 2/M
;
_chemical_formula_sum "Si O2"
_cell_formula_units_Z 56
_cell_length_a 27.208276
_cell_length_b 8.899122
_cell_length_c 16.203571
_cell_angle_alpha 90.000000
_cell_angle_beta 116.048123
_cell_angle_gamma 90.000000
_cell_volume 3524.853005
_symmetry_space_group_name_H-M "C 2/M"
_symmetry_group_IT_number 12
_symmetry_cell_setting 'monoclinic'
loop_
_space_group_symop_operation_xyz
x,y,z
-x,y,-z
-x,-y,-z
x,-y,z
1/2+x,1/2+y,z
1/2-x,1/2+y,-z
1/2-x,1/2-y,-z
1/2+x,1/2-y,z
loop_
_atom_site_type_symbol
_atom_site_label
_atom_site_fract_x
_atom_site_fract_y
_atom_site_fract_z
Si Si1 0.897909 0.323446 0.309947
Si Si2 0.439727 0.334299 0.492098
Si Si3 0.814907 0.673031 0.975608
Si Si4 0.578794 0.176044 0.042102
Si Si5 0.014618 0.822578 0.130532
Si Si6 0.497635 0.676448 0.691232
Si Si7 0.691278 0.325321 0.859805
O O1 0.899139 0.500000 0.304891
O O2 0.903162 0.276735 0.410115
O O3 0.840232 0.263529 0.234516
O O4 0.946374 0.260322 0.288960
O O5 0.500000 0.343225 0.500000
O O6 0.412502 0.500000 0.470385
O O7 0.447962 0.276461 0.592586
O O8 0.817726 0.500000 0.006422
O O9 0.858575 0.707529 0.936247
O O10 0.755353 0.711814 0.895488
O O11 0.828826 0.774089 0.064860
O O12 0.567128 0.257335 0.120679
O O13 0.566471 0.000000 0.041387
O O14 0.540018 0.244423 0.943150
O O15 0.021575 0.781076 0.231418
O O16 0.010279 0.000000 0.112846
O O17 0.509908 0.500000 0.690693
O O18 0.678185 0.500000 0.840649
#
# Coordination Sequence:
#
# PCOD8085230 Si02
#       7
#     8   8   8   8   8   8   8
#     4  11  20  28  42  66  93 118 146 179 215 257
#     4   8  15  29  45  61  85 116 146 176 215 261
#     4   9  19  33  47  65  88 114 147 184 218 256
#     4  10  19  31  45  63  89 117 144 178 218 254
#     4  10  19  30  45  66  88 114 149 179 209 254
#     4   9  18  31  46  64  88 118 149 180 215 258
#     4  10  19  31  47  65  87 117 149 179 216 259
#
# _framework density 15.887188
#
# number of rings (size 3 to 8) (size 9 to 14) (size 15 to 20)
#    0.000    2.429    0.000    5.143    0.000    7.714 
#    0.000    0.000    0.000    0.000    0.000    1.000 
#    0.000    0.000    0.000    0.000    0.000    0.000 
#
# Total GULP energy -347153.669691 kJ/mol
# GULP energy per Si atom -12398.345346 kJ/mol
# Density = 1.585103 g / cm^3
# Si number density = 15.887188 Si / 1000 Ang^3
#
#
#
# Elastic Constant Matrix: (Units=GPa)
#
#
# Indices 1 2 3 4 5 6 
#
# 1 82.0757 34.8577 51.1471 0.0000 -4.3909 0.0000
# 2 34.8577 83.8501 53.0040 0.0000 0.6374 0.0000
# 3 51.1471 53.0040 138.3138 0.0000 -6.8479 0.0000
# 4 0.0000 0.0000 0.0000 22.4951 0.0000 0.6926
# 5 -4.3909 0.6374 -6.8479 0.0000 22.0618 0.0000
# 6 0.0000 0.0000 0.0000 0.6926 0.0000 19.1255
#
#
#
# Elastic Compliance Matrix: (Units=1/GPa)
#
#
# Indices 1 2 3 4 5 6 
#
# 1 0.016899 -0.004164 -0.004551 0.000000 0.002071 0.000000
# 2 -0.004164 0.016887 -0.005075 0.000000 -0.002892 0.000000
# 3 -0.004551 -0.005075 0.010989 0.000000 0.002652 0.000000
# 4 0.000000 0.000000 0.000000 0.044504 0.000000 -0.001612
# 5 0.002071 -0.002892 0.002652 0.000000 0.046646 0.000000
# 6 0.000000 0.000000 0.000000 -0.001612 0.000000 0.052344
#
#
# Mechanical properties :
#
#
# Convention : Reuss Voigt Hill
#
# Bulk Modulus (GPa) = 58.15474 64.69525 61.42500
# Shear Modulus (GPa) = 22.56516 23.75187 23.15852
#
# Velocity S-wave (km/s) = 3.77282 3.87076 3.82211
# Velocity P-wave (km/s) = 7.46078 7.79661 7.63054
#
# Compressibility (1/GPa) = 0.01719550
#
# Stress axis : x y z
#
# Youngs Moduli (GPa) = 59.17448 59.21713 91.00232
#
# Poissons Ratio (x) = 0.24660 0.41413
# Poissons Ratio (y) = 0.24642 0.46180
# Poissons Ratio (z) = 0.26929 0.30050
#
# Static dielectric constant tensor:
#      x y z
#    x 2.852080 0.000000 -0.051330 
#    y 0.000000 3.095580 0.000000 
#    z -0.051330 0.000000 3.318210 
# 
# 
# High freq. dielectric constant tensor:
#      x y z
#    x 1.577570 0.000000 -0.000780 
#    y 0.000000 1.620430 0.000000 
#    z -0.000780 0.000000 1.609050 
# 
# From -- ./inp_files/243233.got.cif
#   From: 2010.06.25/outbox.cif.g09.slc.cpg/sg12_122_cif.got.tgz:243233.got - 2010.06.28 00:19:55.
