data_PCOD8085115
_publ_section_title
;
Structure prediction by ZEFSAII (Michael W. Deem and Ramdas Pophale) SiO2 
 PCOD8085115
Probable space group: C 2/M
;
_chemical_formula_sum "Si O2"
_cell_formula_units_Z 64
_cell_length_a 24.592286
_cell_length_b 9.024522
_cell_length_c 20.401532
_cell_angle_alpha 90.000000
_cell_angle_beta 64.939280
_cell_angle_gamma 90.000000
_cell_volume 4101.537497
_symmetry_space_group_name_H-M "C 2/M"
_symmetry_group_IT_number 12
_symmetry_cell_setting 'monoclinic'
loop_
_space_group_symop_operation_xyz
x,y,z
-x,y,-z
-x,-y,-z
x,-y,z
1/2+x,1/2+y,z
1/2-x,1/2+y,-z
1/2-x,1/2-y,-z
1/2+x,1/2-y,z
loop_
_atom_site_type_symbol
_atom_site_label
_atom_site_fract_x
_atom_site_fract_y
_atom_site_fract_z
Si Si1 0.313793 0.323134 0.457553
Si Si2 0.430351 0.333679 0.017292
Si Si3 0.086089 0.175268 0.495168
Si Si4 0.024628 0.667663 0.265526
Si Si5 0.037218 0.329477 0.116097
Si Si6 0.387165 0.825299 0.306993
Si Si7 0.087331 0.173796 0.832210
Si Si8 0.538839 0.325253 0.385156
O O1 0.308469 0.500000 0.456432
O O2 0.250000 0.250000 0.500000
O O3 0.354189 0.269839 0.498752
O O4 0.342256 0.262160 0.376614
O O5 0.414822 0.500000 0.002776
O O6 0.392314 0.293267 0.102634
O O7 0.500000 0.318750 0.000000
O O8 0.415069 0.223521 0.963987
O O9 0.084717 0.226834 0.419489
O O10 0.027412 0.236327 0.562868
O O11 0.081955 0.000000 0.499539
O O12 0.026224 0.500000 0.288761
O O13 0.955395 0.716509 0.290822
O O14 0.061510 0.687087 0.178350
O O15 0.057602 0.761372 0.305060
O O16 0.018113 0.500000 0.113365
O O17 0.981411 0.220747 0.138989
O O18 0.373669 0.767991 0.239779
O O19 0.374802 0.000000 0.317073
O O20 0.092851 0.000000 0.813451
O O21 0.539143 0.500000 0.378857
#
# Coordination Sequence:
#
# PCOD8085115 Si02
#       8
#     8   8   8   8   8   8   8   8
#     4  11  21  34  49  64  84 111 139 175 216 254
#     4   8  14  23  33  48  70  98 135 171 202 240
#     4   8  16  29  45  64  82 102 136 174 210 251
#     4   9  17  26  36  57  85 108 134 172 211 245
#     4   9  16  23  32  49  76 106 136 168 202 243
#     4  10  19  30  42  59  81 105 139 175 208 253
#     4   9  16  25  37  52  72 100 134 173 210 242
#     4   9  15  27  46  63  79 105 139 173 208 251
#
# _framework density 15.603904
#
# number of rings (size 3 to 8) (size 9 to 14) (size 15 to 20)
#    0.000    2.875    1.250    3.750    0.000    5.250 
#    0.000    2.500    0.000    0.000    0.000    0.000 
#    0.000    0.000    0.000    1.125    0.000   14.375 
#
# Total GULP energy -396432.796137 kJ/mol
# GULP energy per Si atom -12388.524879 kJ/mol
# Density = 1.556839 g / cm^3
# Si number density = 15.603904 Si / 1000 Ang^3
#
#
#
# Elastic Constant Matrix: (Units=GPa)
#
#
# Indices 1 2 3 4 5 6 
#
# 1 56.1280 26.5478 46.9050 0.0000 10.9723 0.0000
# 2 26.5478 61.3109 50.5173 -0.0002 11.6261 -0.0001
# 3 46.9050 50.5173 128.0246 0.0000 30.8781 0.0000
# 4 0.0000 -0.0002 0.0000 26.6253 0.0000 0.7477
# 5 10.9723 11.6261 30.8781 0.0000 17.9468 -0.0001
# 6 0.0000 -0.0001 0.0000 0.7477 -0.0001 11.0644
#
#
#
# Elastic Compliance Matrix: (Units=1/GPa)
#
#
# Indices 1 2 3 4 5 6 
#
# 1 0.026755 -0.005191 -0.007897 0.000000 0.000592 0.000000
# 2 -0.005191 0.025192 -0.008321 0.000000 0.001171 0.000000
# 3 -0.007897 -0.008321 0.019697 0.000000 -0.023670 0.000000
# 4 0.000000 0.000000 0.000000 0.037630 0.000000 -0.002543
# 5 0.000592 0.001171 -0.023670 0.000000 0.095325 0.000001
# 6 0.000000 0.000000 0.000000 -0.002543 0.000001 0.090551
#
#
# Mechanical properties :
#
#
# Convention : Reuss Voigt Hill
#
# Bulk Modulus (GPa) = 34.69046 54.82262 44.75654
# Shear Modulus (GPa) = 14.38531 19.22688 16.80609
#
# Velocity S-wave (km/s) = 3.03958 3.51406 3.28540
# Velocity P-wave (km/s) = 5.88208 7.18853 6.56787
#
# Compressibility (1/GPa) = 0.02882637
#
# Stress axis : x y z
#
# Youngs Moduli (GPa) = 37.37598 39.69492 50.76977
#
# Poissons Ratio (x) = 0.20604 0.40093
# Poissons Ratio (y) = 0.19400 0.42247
# Poissons Ratio (z) = 0.29516 0.33031
#
# Static dielectric constant tensor:
#      x y z
#    x 2.636940 0.000000 0.402000 
#    y 0.000000 2.939660 0.000000 
#    z 0.402000 0.000000 3.500410 
# 
# 
# High freq. dielectric constant tensor:
#      x y z
#    x 1.524760 0.000000 0.038440 
#    y 0.000000 1.600220 0.000000 
#    z 0.038440 0.000000 1.609280 
# 
# From -- ./inp_files/326589.got.cif
#   From: 2010.06.25/outbox.cif.g09.slc.cpg/sg12_164_cif.got.tgz:326589.got - 2010.06.28 00:19:55.
