data_PCOD8085475
_publ_section_title
;
Structure prediction by ZEFSAII (Michael W. Deem and Ramdas Pophale) SiO2 
 PCOD8085475
Probable space group: C 2/M
;
_chemical_formula_sum "Si O2"
_cell_formula_units_Z 56
_cell_length_a 27.648764
_cell_length_b 9.292192
_cell_length_c 13.777839
_cell_angle_alpha 90.000000
_cell_angle_beta 60.278356
_cell_angle_gamma 90.000000
_cell_volume 3074.092739
_symmetry_space_group_name_H-M "C 2/M"
_symmetry_group_IT_number 12
_symmetry_cell_setting 'monoclinic'
loop_
_space_group_symop_operation_xyz
x,y,z
-x,y,-z
-x,-y,-z
x,-y,z
1/2+x,1/2+y,z
1/2-x,1/2+y,-z
1/2-x,1/2-y,-z
1/2+x,1/2-y,z
loop_
_atom_site_type_symbol
_atom_site_label
_atom_site_fract_x
_atom_site_fract_y
_atom_site_fract_z
Si Si1 0.573130 0.666154 0.019881
Si Si2 0.273170 0.836651 0.842672
Si Si3 0.554988 0.666117 0.821053
Si Si4 0.936755 0.669081 0.369669
Si Si5 0.122529 0.334966 0.375650
Si Si6 0.827252 0.666985 0.993592
Si Si7 0.531953 0.339666 0.368172
O O1 0.585227 0.500000 0.030053
O O2 0.510068 0.705886 0.108749
O O3 0.613277 0.761332 0.046198
O O4 0.583863 0.698619 0.895414
O O5 0.311694 0.812470 0.709107
O O6 0.310773 0.801925 0.899200
O O7 0.251163 0.000000 0.869496
O O8 0.219892 0.733743 0.888884
O O9 0.562888 0.500000 0.784557
O O10 0.585207 0.764773 0.709788
O O11 0.946252 0.500000 0.350157
O O12 0.892211 0.705929 0.498665
O O13 0.996101 0.744450 0.330134
O O14 0.104904 0.500000 0.373070
O O15 0.090541 0.236827 0.329620
O O16 0.831884 0.500000 0.012992
O O17 0.500000 0.351398 0.500000
O O18 0.541663 0.500000 0.314773
#
# Coordination Sequence:
#
# PCOD8085475 Si02
#       7
#     8   8   8   8   8   8   8
#     4   9  19  36  55  73  99 133 166 205 252 298
#     4   9  19  35  52  72 101 135 168 200 245 301
#     4   9  19  35  53  75 100 131 170 204 244 301
#     4  10  19  30  47  71 101 133 164 204 249 291
#     4   9  18  32  48  69  99 134 168 202 244 297
#     4  10  20  33  52  78 102 126 165 211 251 293
#     4   9  17  28  42  64  95 131 168 201 236 284
#
# _framework density 18.216756
#
# number of rings (size 3 to 8) (size 9 to 14) (size 15 to 20)
#    0.000    2.714    0.000    2.143    2.000    4.571 
#    0.000    1.429    0.000    0.857    0.000    0.000 
#    0.000    0.000    0.000    0.000    0.000    0.000 
#
# Total GULP energy -347159.582115 kJ/mol
# GULP energy per Si atom -12398.556504 kJ/mol
# Density = 1.817529 g / cm^3
# Si number density = 18.216756 Si / 1000 Ang^3
#
#
#
# Elastic Constant Matrix: (Units=GPa)
#
#
# Indices 1 2 3 4 5 6 
#
# 1 43.0356 23.6957 6.2195 0.0000 -1.8014 0.0000
# 2 23.6957 83.5075 29.0298 0.0000 1.0298 0.0000
# 3 6.2195 29.0298 75.0518 0.0000 4.1878 0.0000
# 4 0.0000 0.0000 0.0000 26.0984 0.0000 0.4965
# 5 -1.8014 1.0298 4.1878 0.0000 22.2268 0.0000
# 6 0.0000 0.0000 0.0000 0.4965 0.0000 29.1567
#
#
#
# Elastic Compliance Matrix: (Units=1/GPa)
#
#
# Indices 1 2 3 4 5 6 
#
# 1 0.027722 -0.008145 0.000714 0.000000 0.002490 0.000000
# 2 -0.008145 0.016232 -0.005583 0.000000 -0.000360 0.000000
# 3 0.000714 -0.005583 0.015571 0.000000 -0.002617 0.000000
# 4 0.000000 0.000000 0.000000 0.038329 0.000000 -0.000653
# 5 0.002490 -0.000360 -0.002617 0.000000 0.045702 0.000000
# 6 0.000000 0.000000 0.000000 -0.000653 0.000000 0.034309
#
#
# Mechanical properties :
#
#
# Convention : Reuss Voigt Hill
#
# Bulk Modulus (GPa) = 29.85426 35.49831 32.67628
# Shear Modulus (GPa) = 23.24950 25.00638 24.12794
#
# Velocity S-wave (km/s) = 3.57637 3.70903 3.64330
# Velocity P-wave (km/s) = 5.78600 6.15398 5.97283
#
# Compressibility (1/GPa) = 0.03349606
#
# Stress axis : x y z
#
# Youngs Moduli (GPa) = 36.07179 61.60812 64.22384
#
# Poissons Ratio (x) = 0.50183 -0.04588
# Poissons Ratio (y) = 0.29382 0.35858
# Poissons Ratio (z) = -0.02577 0.34397
#
# Static dielectric constant tensor:
#      x y z
#    x 3.068340 0.000000 0.066300 
#    y 0.000000 3.427300 0.000000 
#    z 0.066300 0.000000 3.414750 
# 
# 
# High freq. dielectric constant tensor:
#      x y z
#    x 1.668870 0.000000 0.003520 
#    y 0.000000 1.710370 0.000000 
#    z 0.003520 0.000000 1.706190 
# 
# From -- ./inp_files/242992.got.cif
#   From: 2010.06.25/outbox.cif.g09.slc.cpg/sg12_122_cif.got.tgz:242992.got - 2010.06.28 00:19:55.
