data_PCOD8085107
_publ_section_title
;
Structure prediction by ZEFSAII (Michael W. Deem and Ramdas Pophale) SiO2 
 PCOD8085107
Probable space group: C 2/M
;
_chemical_formula_sum "Si O2"
_cell_formula_units_Z 48
_cell_length_a 14.795449
_cell_length_b 14.281594
_cell_length_c 21.747896
_cell_angle_alpha 90.000000
_cell_angle_beta 146.480401
_cell_angle_gamma 90.000000
_cell_volume 2537.674640
_symmetry_space_group_name_H-M "C 2/M"
_symmetry_group_IT_number 12
_symmetry_cell_setting 'monoclinic'
loop_
_space_group_symop_operation_xyz
x,y,z
-x,y,-z
-x,-y,-z
x,-y,z
1/2+x,1/2+y,z
1/2-x,1/2+y,-z
1/2-x,1/2-y,-z
1/2+x,1/2-y,z
loop_
_atom_site_type_symbol
_atom_site_label
_atom_site_fract_x
_atom_site_fract_y
_atom_site_fract_z
Si Si1 0.079467 0.757556 0.654108
Si Si2 0.330506 0.895200 0.491557
Si Si3 0.325310 0.604737 0.465169
Si Si4 0.047292 0.500000 0.126851
Si Si5 0.881189 0.684864 0.760776
Si Si6 0.993161 0.178825 0.255907
Si Si7 0.233329 0.000000 0.863618
O O1 0.272638 0.759112 0.749335
O O2 0.056687 0.757700 0.714378
O O3 0.992339 0.667418 0.574237
O O4 0.001452 0.850870 0.579844
O O5 0.285325 0.892096 0.537307
O O6 0.179949 0.856448 0.366499
O O7 0.372862 0.000000 0.494059
O O8 0.358320 0.500000 0.461162
O O9 0.233916 0.662126 0.361737
O O10 0.040687 0.591987 0.165720
O O11 0.208744 0.500000 0.174972
O O12 0.887543 0.500000 0.995067
O O13 0.020099 0.755609 0.812789
O O14 0.872665 0.091267 0.182234
#
# Coordination Sequence:
#
# PCOD8085107 Si02
#       7
#     8   8   8   4   8   8   4
#     4  11  21  34  52  90 126 161 189 239 290 367
#     4  10  19  34  54  82 122 170 197 221 294 366
#     4  10  19  29  52  82 121 151 189 237 290 349
#     4  11  26  42  68  92 105 154 216 262 311 348
#     4  12  22  35  60  92 118 153 203 243 299 355
#     4  11  21  39  61  86 123 160 194 250 305 351
#     4  11  24  48  65  82 120 153 203 269 313 347
#
# _framework density 18.914956
#
# number of rings (size 3 to 8) (size 9 to 14) (size 15 to 20)
#    0.000    1.167    6.667    1.500    2.333    1.333 
#    1.500    0.833    0.000    0.000    0.000    1.167 
#    0.000    0.000    0.000    0.000    0.000    0.000 
#
# Total GULP energy -297612.212098 kJ/mol
# GULP energy per Si atom -12400.508837 kJ/mol
# Density = 1.887190 g / cm^3
# Si number density = 18.914956 Si / 1000 Ang^3
#
#
#
# Elastic Constant Matrix: (Units=GPa)
#
#
# Indices 1 2 3 4 5 6 
#
# 1 51.7101 59.6945 29.8378 0.0000 2.1766 -0.0001
# 2 59.6945 141.5518 31.6653 0.0007 11.1283 0.0001
# 3 29.8378 31.6653 53.4754 0.0025 1.5309 0.0005
# 4 0.0000 0.0007 0.0025 11.7538 0.0004 2.0811
# 5 2.1766 11.1283 1.5309 0.0004 14.6620 0.0000
# 6 -0.0001 0.0001 0.0005 2.0811 0.0000 29.4760
#
#
#
# Elastic Compliance Matrix: (Units=1/GPa)
#
#
# Indices 1 2 3 4 5 6 
#
# 1 0.049176 -0.017476 -0.017313 0.000004 0.007772 0.000000
# 2 -0.017476 0.014857 0.001206 -0.000001 -0.008808 0.000000
# 3 -0.017313 0.001206 0.027682 -0.000006 -0.001235 0.000000
# 4 0.000004 -0.000001 -0.000006 0.086156 -0.000002 -0.006083
# 5 0.007772 -0.008808 -0.001235 -0.000002 0.073864 0.000000
# 6 0.000000 0.000000 0.000000 -0.006083 0.000000 0.034355
#
#
# Mechanical properties :
#
#
# Convention : Reuss Voigt Hill
#
# Bulk Modulus (GPa) = 40.73617 54.34805 47.54211
# Shear Modulus (GPa) = 13.83352 19.54766 16.69059
#
# Velocity S-wave (km/s) = 2.70729 3.21822 2.97375
# Velocity P-wave (km/s) = 5.59962 6.52721 6.08113
#
# Compressibility (1/GPa) = 0.02454821
#
# Stress axis : x y z
#
# Youngs Moduli (GPa) = 20.33500 67.30673 36.12496
#
# Poissons Ratio (x) = 1.17628 0.62543
# Poissons Ratio (y) = 0.35538 -0.04356
# Poissons Ratio (z) = 0.35206 -0.08116
#
# Static dielectric constant tensor:
#      x y z
#    x 3.723150 0.000000 0.001910 
#    y 0.000000 3.751210 0.000000 
#    z 0.001910 0.000000 3.095490 
# 
# 
# High freq. dielectric constant tensor:
#      x y z
#    x 1.739830 0.000000 -0.000110 
#    y 0.000000 1.744820 0.000000 
#    z -0.000110 0.000000 1.692220 
# 
# From -- ./inp_files/142782.got.cif
#   From: 2010.06.25/outbox.cif.g09.slc.cpg/sg12_72_cif.got.tgz:142782.got - 2010.06.28 00:19:55.
