data_PCOD8085806
_publ_section_title
;
Structure prediction by ZEFSAII (Michael W. Deem and Ramdas Pophale) SiO2 
 PCOD8085806
Probable space group: C 2/M
;
_chemical_formula_sum "Si O2"
_cell_formula_units_Z 56
_cell_length_a 30.051129
_cell_length_b 8.868086
_cell_length_c 16.786838
_cell_angle_alpha 90.000000
_cell_angle_beta 46.010886
_cell_angle_gamma 90.000000
_cell_volume 3218.646983
_symmetry_space_group_name_H-M "C 2/M"
_symmetry_group_IT_number 12
_symmetry_cell_setting 'monoclinic'
loop_
_space_group_symop_operation_xyz
x,y,z
-x,y,-z
-x,-y,-z
x,-y,z
1/2+x,1/2+y,z
1/2-x,1/2+y,-z
1/2-x,1/2-y,-z
1/2+x,1/2-y,z
loop_
_atom_site_type_symbol
_atom_site_label
_atom_site_fract_x
_atom_site_fract_y
_atom_site_fract_z
Si Si1 0.053549 0.676704 0.611731
Si Si2 0.345173 0.325882 0.417271
Si Si3 0.381916 0.178043 0.633430
Si Si4 0.257319 0.677359 0.201584
Si Si5 0.806187 0.178418 0.976774
Si Si6 0.427130 0.678472 0.734631
Si Si7 0.270284 0.674822 0.360666
O O1 0.041647 0.500000 0.631503
O O2 0.095164 0.727930 0.634679
O O3 0.087948 0.723217 0.487835
O O4 0.988783 0.761535 0.699240
O O5 0.359265 0.500000 0.417286
O O6 0.329748 0.298539 0.342943
O O7 0.286460 0.277204 0.542018
O O8 0.312095 0.243505 0.721355
O O9 0.421531 0.255754 0.653120
O O10 0.384473 0.000000 0.644102
O O11 0.249869 0.500000 0.206408
O O12 0.287444 0.723160 0.248966
O O13 0.301354 0.733281 0.075040
O O14 0.870430 0.235599 0.860008
O O15 0.800445 0.000000 0.976877
O O16 0.750000 0.250000 0.000000
O O17 0.429312 0.500000 0.726717
O O18 0.248685 0.500000 0.391450
#
# Coordination Sequence:
#
# PCOD8085806 Si02
#       7
#     8   8   8   8   8   8   8
#     4  11  22  36  53  72 100 140 177 203 243 308
#     4  10  19  30  50  78 107 131 161 210 258 297
#     4  10  19  33  53  74  99 137 175 201 239 302
#     4   9  16  31  54  75 100 133 169 205 240 294
#     4  10  20  34  53  74  99 132 169 210 249 290
#     4  11  23  35  49  75 106 133 168 213 256 294
#     4   9  17  32  52  76 103 135 169 201 248 306
#
# _framework density 17.398613999999998
#
# number of rings (size 3 to 8) (size 9 to 14) (size 15 to 20)
#    0.000    2.000    2.857    1.714    0.000    4.000 
#    0.000    0.714    0.000    0.857    0.000    6.000 
#    0.000    0.000    0.000    0.000    0.000    0.000 
#
# Total GULP energy -347195.849095 kJ/mol
# GULP energy per Si atom -12399.851753 kJ/mol
# Density = 1.735901 g / cm^3
# Si number density = 17.398614 Si / 1000 Ang^3
#
#
#
# Elastic Constant Matrix: (Units=GPa)
#
#
# Indices 1 2 3 4 5 6 
#
# 1 126.7310 25.7034 53.6188 0.0000 4.8193 -0.0001
# 2 25.7034 35.4590 29.1242 0.0010 -1.1477 -0.0004
# 3 53.6188 29.1242 88.6069 0.0000 -1.5586 0.0000
# 4 0.0000 0.0010 0.0000 19.3032 0.0000 -3.7949
# 5 4.8193 -1.1477 -1.5586 0.0000 30.5979 0.0000
# 6 -0.0001 -0.0004 0.0000 -3.7949 0.0000 29.4338
#
#
#
# Elastic Compliance Matrix: (Units=1/GPa)
#
#
# Indices 1 2 3 4 5 6 
#
# 1 0.011038 -0.003498 -0.005567 0.000000 -0.002153 0.000000
# 2 -0.003498 0.039759 -0.010926 -0.000002 0.001486 0.000000
# 3 -0.005567 -0.010926 0.018270 0.000000 0.001398 0.000000
# 4 0.000000 -0.000002 0.000000 0.053152 0.000000 0.006853
# 5 -0.002153 0.001486 0.001398 0.000000 0.033148 0.000000
# 6 0.000000 0.000000 0.000000 0.006853 0.000000 0.034858
#
#
# Mechanical properties :
#
#
# Convention : Reuss Voigt Hill
#
# Bulk Modulus (GPa) = 34.38150 51.96555 43.17353
# Shear Modulus (GPa) = 20.84188 25.35701 23.09944
#
# Velocity S-wave (km/s) = 3.46483 3.82175 3.64766
# Velocity P-wave (km/s) = 5.98420 7.02900 6.52754
#
# Compressibility (1/GPa) = 0.02908541
#
# Stress axis : x y z
#
# Youngs Moduli (GPa) = 90.59992 25.15164 54.73312
#
# Poissons Ratio (x) = 0.08798 0.30472
# Poissons Ratio (y) = 0.31690 0.59799
# Poissons Ratio (z) = 0.50440 0.27480
#
# Static dielectric constant tensor:
#      x y z
#    x 3.470640 0.000000 0.245440 
#    y 0.000000 3.132710 0.000000 
#    z 0.245440 0.000000 3.509590 
# 
# 
# High freq. dielectric constant tensor:
#      x y z
#    x 1.676720 0.000000 0.007100 
#    y 0.000000 1.663680 0.000000 
#    z 0.007100 0.000000 1.653360 
# 
# From -- ./inp_files/287345.got.cif
#   From: 2010.06.25/outbox.cif.g09.slc.cpg/sg12_144_cif.got.tgz:287345.got - 2010.06.28 00:19:55.
