data_PCOD8085433
_publ_section_title
;
Structure prediction by ZEFSAII (Michael W. Deem and Ramdas Pophale) SiO2 
 PCOD8085433
Probable space group: C 2/M
;
_chemical_formula_sum "Si O2"
_cell_formula_units_Z 48
_cell_length_a 11.921981
_cell_length_b 16.087873
_cell_length_c 13.555226
_cell_angle_alpha 90.000000
_cell_angle_beta 103.718407
_cell_angle_gamma 90.000000
_cell_volume 2525.716168
_symmetry_space_group_name_H-M "C 2/M"
_symmetry_group_IT_number 12
_symmetry_cell_setting 'monoclinic'
loop_
_space_group_symop_operation_xyz
x,y,z
-x,y,-z
-x,-y,-z
x,-y,z
1/2+x,1/2+y,z
1/2-x,1/2+y,-z
1/2-x,1/2-y,-z
1/2+x,1/2-y,z
loop_
_atom_site_type_symbol
_atom_site_label
_atom_site_fract_x
_atom_site_fract_y
_atom_site_fract_z
Si Si1 0.413052 0.901298 0.782078
Si Si2 0.144053 0.653042 0.906479
Si Si3 0.994347 0.096751 0.888371
Si Si4 0.776031 0.167255 0.132074
Si Si5 0.957942 0.401255 0.387232
Si Si6 0.235146 0.091522 0.241848
O O1 0.506881 0.861042 0.876061
O O2 0.290126 0.857752 0.780970
O O3 0.448492 0.878525 0.677232
O O4 0.403881 0.000000 0.796620
O O5 0.181217 0.738591 0.860116
O O6 0.204028 0.581953 0.852957
O O7 0.186649 0.647980 0.026283
O O8 0.888359 0.138011 0.802445
O O9 0.112242 0.109025 0.854709
O O10 0.965392 0.000000 0.894380
O O11 0.000000 0.137638 0.000000
O O12 0.945741 0.500000 0.391166
O O13 0.829640 0.364237 0.333914
O O14 0.000000 0.363169 0.500000
O O15 0.209805 0.000000 0.279008
#
# Coordination Sequence:
#
# PCOD8085433 Si02
#       6
#     8   8   8   8   8   8
#     4  10  21  35  53  78 103 132 176 225 265 302
#     4  10  21  32  47  70 104 140 172 205 248 303
#     4  10  19  30  47  68 100 138 170 201 240 303
#     4  11  22  31  48  72 107 140 173 204 252 304
#     4   8  15  31  56  80  99 125 170 225 269 305
#     4   9  17  31  51  74  96 128 174 208 243 301
#
# _framework density 19.004511000000001
#
# number of rings (size 3 to 8) (size 9 to 14) (size 15 to 20)
#    0.000    2.333    1.667    2.500    2.333    2.667 
#    0.000    0.000    0.000    5.000    0.000    5.833 
#    0.000    0.000    0.000    0.000    0.000    0.000 
#
# Total GULP energy -297358.494169 kJ/mol
# GULP energy per Si atom -12389.937257 kJ/mol
# Density = 1.896126 g / cm^3
# Si number density = 19.004511 Si / 1000 Ang^3
#
#
#
# Elastic Constant Matrix: (Units=GPa)
#
#
# Indices 1 2 3 4 5 6 
#
# 1 160.1761 21.7276 63.2094 0.0000 3.5723 0.0000
# 2 21.7276 29.7254 19.5621 0.0000 4.7883 0.0000
# 3 63.2094 19.5621 110.7469 0.0000 11.2713 0.0000
# 4 0.0000 0.0000 0.0000 13.0814 0.0000 -2.9609
# 5 3.5723 4.7883 11.2713 0.0000 21.2247 0.0000
# 6 0.0000 0.0000 0.0000 -2.9609 0.0000 20.8087
#
#
#
# Elastic Compliance Matrix: (Units=1/GPa)
#
#
# Indices 1 2 3 4 5 6 
#
# 1 0.008400 -0.003558 -0.004338 0.000000 0.001693 0.000000
# 2 -0.003558 0.040146 -0.004440 0.000000 -0.006100 0.000000
# 3 -0.004338 -0.004440 0.012806 0.000000 -0.005069 0.000000
# 4 0.000000 0.000000 0.000000 0.078989 0.000000 0.011239
# 5 0.001693 -0.006100 -0.005069 0.000000 0.050898 0.000000
# 6 0.000000 0.000000 0.000000 0.011239 0.000000 0.049656
#
#
# Mechanical properties :
#
#
# Convention : Reuss Voigt Hill
#
# Bulk Modulus (GPa) = 27.26241 56.62741 41.94491
# Shear Modulus (GPa) = 17.99901 24.09956 21.04928
#
# Velocity S-wave (km/s) = 3.08082 3.56490 3.33166
# Velocity P-wave (km/s) = 5.19920 6.84150 6.07609
#
# Compressibility (1/GPa) = 0.03668054
#
# Stress axis : x y z
#
# Youngs Moduli (GPa) = 119.04899 24.90890 78.08999
#
# Poissons Ratio (x) = 0.08862 0.33877
# Poissons Ratio (y) = 0.42353 0.34671
# Poissons Ratio (z) = 0.51645 0.11059
#
# Static dielectric constant tensor:
#      x y z
#    x 3.604490 0.000000 0.247150 
#    y 0.000000 3.200590 0.000000 
#    z 0.247150 0.000000 3.472100 
# 
# 
# High freq. dielectric constant tensor:
#      x y z
#    x 1.750610 0.000000 0.011920 
#    y 0.000000 1.711160 0.000000 
#    z 0.011920 0.000000 1.699350 
# 
# From -- ./inp_files/131174.got.cif
#   From: 2010.06.25/outbox.cif.g09.slc.cpg/sg12_66_cif.got.tgz:131174.got - 2010.06.28 00:19:55.
