data_PCOD8085047
_publ_section_title
;
Structure prediction by ZEFSAII (Michael W. Deem and Ramdas Pophale) SiO2 
 PCOD8085047
Probable space group: C 2/M
;
_chemical_formula_sum "Si O2"
_cell_formula_units_Z 52
_cell_length_a 5.310556
_cell_length_b 26.157090
_cell_length_c 18.542146
_cell_angle_alpha 90.000000
_cell_angle_beta 69.049866
_cell_angle_gamma 90.000000
_cell_volume 2405.393079
_symmetry_space_group_name_H-M "C 2/M"
_symmetry_group_IT_number 12
_symmetry_cell_setting 'monoclinic'
loop_
_space_group_symop_operation_xyz
x,y,z
-x,y,-z
-x,-y,-z
x,-y,z
1/2+x,1/2+y,z
1/2-x,1/2+y,-z
1/2-x,1/2-y,-z
1/2+x,1/2-y,z
loop_
_atom_site_type_symbol
_atom_site_label
_atom_site_fract_x
_atom_site_fract_y
_atom_site_fract_z
Si Si1 0.202129 0.283719 0.332057
Si Si2 0.196505 0.441260 0.734752
Si Si3 0.628432 0.271700 0.085485
Si Si4 0.452087 0.058185 0.917871
Si Si5 0.694365 0.609705 0.736930
Si Si6 0.543202 0.390722 0.085333
Si Si7 0.000000 0.282647 0.500000
O O1 0.457381 0.247141 0.320325
O O2 0.294569 0.328834 0.269622
O O3 0.102166 0.311810 0.417308
O O4 0.231379 0.500000 0.709510
O O5 0.488250 0.413665 0.699024
O O6 0.082480 0.434347 0.826519
O O7 0.992704 0.414689 0.698512
O O8 0.329722 0.247222 0.129042
O O9 0.623595 0.332010 0.078315
O O10 0.750000 0.250000 0.000000
O O11 0.687773 0.073785 0.951542
O O12 0.190314 0.096514 0.950360
O O13 0.360097 0.000000 0.939344
O O14 0.585964 0.593472 0.825836
O O15 0.250000 0.250000 0.500000
#
# Coordination Sequence:
#
# PCOD8085047 Si02
#       7
#     8   8   8   8   8   8   4
#     4  10  19  31  46  67  96 127 158 197 237 283
#     4   9  17  30  46  67  98 129 158 191 231 287
#     4  10  21  36  52  71  92 127 167 193 222 268
#     4   9  17  30  49  74 101 126 151 189 243 289
#     4  10  19  29  46  73  98 125 156 191 242 282
#     4  10  19  31  49  74 101 124 156 196 231 283
#     4   8  16  30  46  62  85 122 165 198 232 276
#
# _framework density 21.618088
#
# number of rings (size 3 to 8) (size 9 to 14) (size 15 to 20)
#    0.000    2.462    0.000    2.769    0.000    4.923 
#    0.000    0.000    0.000    0.000    0.000   46.308 
#    0.000    0.000    0.000    0.000    0.000    0.000 
#
# Total GULP energy -322317.552730 kJ/mol
# GULP energy per Si atom -12396.828951 kJ/mol
# Density = 2.156888 g / cm^3
# Si number density = 21.618088 Si / 1000 Ang^3
#
#
#
# Elastic Constant Matrix: (Units=GPa)
#
#
# Indices 1 2 3 4 5 6 
#
# 1 222.4682 90.9068 19.3758 0.0000 -20.6098 0.0000
# 2 90.9068 142.0392 -5.3984 0.0000 -16.6635 0.0000
# 3 19.3758 -5.3984 30.6481 0.0000 -7.4577 0.0000
# 4 0.0000 0.0000 0.0000 8.9419 0.0000 -5.3952
# 5 -20.6098 -16.6635 -7.4577 0.0000 16.6011 0.0000
# 6 0.0000 0.0000 0.0000 -5.3952 0.0000 45.0952
#
#
#
# Elastic Compliance Matrix: (Units=1/GPa)
#
#
# Indices 1 2 3 4 5 6 
#
# 1 0.006851 -0.004309 -0.004573 0.000000 0.002126 0.000000
# 2 -0.004309 0.011097 0.006835 0.000000 0.008860 0.000000
# 3 -0.004573 0.006835 0.041554 0.000000 0.019850 0.000000
# 4 0.000000 0.000000 0.000000 0.120534 0.000000 0.014421
# 5 0.002126 0.008860 0.019850 0.000000 0.080686 0.000000
# 6 0.000000 0.000000 0.000000 0.014421 0.000000 0.023901
#
#
# Mechanical properties :
#
#
# Convention : Reuss Voigt Hill
#
# Bulk Modulus (GPa) = 18.04816 67.21377 42.63096
# Shear Modulus (GPa) = 16.27676 33.47908 24.87792
#
# Velocity S-wave (km/s) = 2.74692 3.93957 3.39601
# Velocity P-wave (km/s) = 4.29273 7.20087 5.92790
#
# Compressibility (1/GPa) = 0.05540731
#
# Stress axis : x y z
#
# Youngs Moduli (GPa) = 145.96171 90.11097 24.06530
#
# Poissons Ratio (x) = 0.38831 0.11005
# Poissons Ratio (y) = 0.62898 -0.16448
# Poissons Ratio (z) = 0.66749 -0.61590
#
# Static dielectric constant tensor:
#      x y z
#    x 28.450740 0.000000 -1.655280 
#    y 0.000000 3.697300 0.000000 
#    z -1.655280 0.000000 3.986710 
# 
# 
# High freq. dielectric constant tensor:
#      x y z
#    x 1.892790 0.000000 -0.010380 
#    y 0.000000 1.830430 0.000000 
#    z -0.010380 0.000000 1.813600 
# 
# From -- ./inp_files/297851.got.cif
#   From: 2010.06.25/outbox.cif.g09.slc.cpg/sg12_149_cif.got.tgz:297851.got - 2010.06.28 00:19:55.
