data_PCOD8085691
_publ_section_title
;
Structure prediction by ZEFSAII (Michael W. Deem and Ramdas Pophale) SiO2 
 PCOD8085691
Probable space group: C 2/M
;
_chemical_formula_sum "Si O2"
_cell_formula_units_Z 48
_cell_length_a 32.768770
_cell_length_b 8.898981
_cell_length_c 15.662023
_cell_angle_alpha 90.000000
_cell_angle_beta 34.784479
_cell_angle_gamma 90.000000
_cell_volume 2605.536451
_symmetry_space_group_name_H-M "C 2/M"
_symmetry_group_IT_number 12
_symmetry_cell_setting 'monoclinic'
loop_
_space_group_symop_operation_xyz
x,y,z
-x,y,-z
-x,-y,-z
x,-y,z
1/2+x,1/2+y,z
1/2-x,1/2+y,-z
1/2-x,1/2-y,-z
1/2+x,1/2-y,z
loop_
_atom_site_type_symbol
_atom_site_label
_atom_site_fract_x
_atom_site_fract_y
_atom_site_fract_z
Si Si1 0.702014 0.674361 0.824151
Si Si2 0.055175 0.176148 0.165598
Si Si3 0.070226 0.822589 0.331991
Si Si4 0.590758 0.823727 0.605174
Si Si5 0.775972 0.177998 0.542256
Si Si6 0.162412 0.327696 0.305509
O O1 0.711342 0.500000 0.781819
O O2 0.720382 0.776039 0.711638
O O3 0.755949 0.710267 0.809540
O O4 0.622339 0.712358 0.990400
O O5 0.071720 0.235964 0.232391
O O6 0.988699 0.264879 0.239762
O O7 0.037242 0.000000 0.198087
O O8 0.140931 0.767743 0.259702
O O9 0.000000 0.757414 0.500000
O O10 0.070325 0.000000 0.333864
O O11 0.644739 0.738601 0.575104
O O12 0.610975 0.785401 0.472947
O O13 0.596265 0.000000 0.614434
O O14 0.750000 0.250000 0.500000
O O15 0.778215 0.000000 0.530052
O O16 0.153524 0.500000 0.295473
#
# Coordination Sequence:
#
# PCOD8085691 Si02
#       6
#     8   8   8   8   8   8
#     4   9  20  38  56  79 113 147 182 226 279 329
#     4  10  20  35  54  78 113 153 186 227 279 322
#     4  10  19  30  48  76 109 144 191 236 269 315
#     4  10  20  35  56  82 112 144 184 227 271 324
#     4  11  22  39  64  88 110 138 176 219 270 331
#     4   9  18  32  50  73 104 146 189 231 273 317
#
# _framework density 18.422308999999998
#
# number of rings (size 3 to 8) (size 9 to 14) (size 15 to 20)
#    0.000    2.167    1.667    3.000    0.000    5.000 
#    0.000    0.833    0.000    5.000    0.000    0.000 
#    0.000    0.000    0.000    0.000    0.000    0.000 
#
# Total GULP energy -297660.687588 kJ/mol
# GULP energy per Si atom -12402.528649 kJ/mol
# Density = 1.838038 g / cm^3
# Si number density = 18.422309 Si / 1000 Ang^3
#
#
#
# Elastic Constant Matrix: (Units=GPa)
#
#
# Indices 1 2 3 4 5 6 
#
# 1 142.5412 64.7355 61.7531 0.0001 -4.0757 0.0000
# 2 64.7355 85.6628 48.9291 0.0001 -7.2271 0.0000
# 3 61.7531 48.9291 100.1666 0.0002 -21.3913 0.0000
# 4 0.0001 0.0001 0.0002 26.0882 0.0000 -2.7193
# 5 -4.0757 -7.2271 -21.3913 0.0000 23.5325 0.0000
# 6 0.0000 0.0000 0.0000 -2.7193 0.0000 36.6902
#
#
#
# Elastic Compliance Matrix: (Units=1/GPa)
#
#
# Indices 1 2 3 4 5 6 
#
# 1 0.012154 -0.006556 -0.005299 0.000000 -0.004726 0.000000
# 2 -0.006556 0.019873 -0.005714 0.000000 -0.000226 0.000000
# 3 -0.005299 -0.005714 0.019197 0.000000 0.014778 0.000000
# 4 0.000000 0.000000 0.000000 0.038630 0.000000 0.002863
# 5 -0.004726 -0.000226 0.014778 0.000000 0.055040 0.000000
# 6 0.000000 0.000000 0.000000 0.002863 0.000000 0.027467
#
#
# Mechanical properties :
#
#
# Convention : Reuss Voigt Hill
#
# Bulk Modulus (GPa) = 62.16952 75.46733 68.81843
# Shear Modulus (GPa) = 23.48935 27.45904 25.47420
#
# Velocity S-wave (km/s) = 3.57466 3.86493 3.72262
# Velocity P-wave (km/s) = 7.13146 7.80839 7.47759
#
# Compressibility (1/GPa) = 0.01608505
#
# Stress axis : x y z
#
# Youngs Moduli (GPa) = 82.27792 50.31984 52.09020
#
# Poissons Ratio (x) = 0.32992 0.27605
# Poissons Ratio (y) = 0.53945 0.29762
# Poissons Ratio (z) = 0.43603 0.28751
#
# Static dielectric constant tensor:
#      x y z
#    x 3.435380 0.000000 -0.158960 
#    y 0.000000 3.294420 0.000000 
#    z -0.158960 0.000000 3.410090 
# 
# 
# High freq. dielectric constant tensor:
#      x y z
#    x 1.714450 0.000000 -0.011970 
#    y 0.000000 1.711100 0.000000 
#    z -0.011970 0.000000 1.702800 
# 
# From -- ./inp_files/248811.got.cif
#   From: 2010.06.25/outbox.cif.g09.slc.cpg/sg12_125_cif.got.tgz:248811.got - 2010.06.28 00:19:55.
