data_PCOD8085311
_publ_section_title
;
Structure prediction by ZEFSAII (Michael W. Deem and Ramdas Pophale) SiO2 
 PCOD8085311
Probable space group: C 2/M
;
_chemical_formula_sum "Si O2"
_cell_formula_units_Z 56
_cell_length_a 14.086745
_cell_length_b 24.004077
_cell_length_c 15.481557
_cell_angle_alpha 90.000000
_cell_angle_beta 38.500032
_cell_angle_gamma 90.000000
_cell_volume 3258.818494
_symmetry_space_group_name_H-M "C 2/M"
_symmetry_group_IT_number 12
_symmetry_cell_setting 'monoclinic'
loop_
_space_group_symop_operation_xyz
x,y,z
-x,y,-z
-x,-y,-z
x,-y,z
1/2+x,1/2+y,z
1/2-x,1/2+y,-z
1/2-x,1/2-y,-z
1/2+x,1/2-y,z
loop_
_atom_site_type_symbol
_atom_site_label
_atom_site_fract_x
_atom_site_fract_y
_atom_site_fract_z
Si Si1 0.641618 0.190109 0.076778
Si Si2 0.136527 0.230900 0.762633
Si Si3 0.072883 0.717089 0.540587
Si Si4 0.465462 0.000000 0.389305
Si Si5 0.704355 0.264681 0.179962
Si Si6 0.546889 0.884329 0.277627
Si Si7 0.642171 0.387812 0.836479
Si Si8 0.244742 0.000000 0.693189
O O1 0.516803 0.238803 0.154409
O O2 0.737908 0.212147 0.091743
O O3 0.573870 0.131308 0.156874
O O4 0.744395 0.182277 0.916497
O O5 0.256640 0.239761 0.597862
O O6 0.187839 0.260598 0.814470
O O7 0.118448 0.164743 0.789977
O O8 0.000000 0.702748 0.500000
O O9 0.972206 0.764344 0.662514
O O10 0.071187 0.659732 0.596120
O O11 0.472090 0.055067 0.326061
O O12 0.304745 0.000000 0.552722
O O13 0.608852 0.000000 0.350031
O O14 0.701351 0.881826 0.222725
O O15 0.644701 0.444606 0.778886
O O16 0.500000 0.392680 0.000000
#
# Coordination Sequence:
#
# PCOD8085311 Si02
#       8
#     8   8   8   4   8   8   8   4
#     4  10  19  30  46  67  96 126 161 196 234 291
#     4  11  19  29  49  68  94 132 161 194 242 279
#     4   9  16  29  44  64  97 123 155 196 225 284
#     4   9  18  30  52  64  89 127 160 199 246 276
#     4   9  18  30  43  64  94 122 155 190 234 280
#     4  10  19  32  46  69  93 125 165 196 237 287
#     4  11  19  29  45  68  97 128 164 194 235 282
#     4   9  19  30  46  70  91 126 165 196 231 290
#
# _framework density 17.184141
#
# number of rings (size 3 to 8) (size 9 to 14) (size 15 to 20)
#    0.000    2.143    4.286    2.357    4.000    2.286 
#    0.000    0.000    0.000    0.000    0.000    2.000 
#    0.000    0.000    0.000    8.857    0.000    0.000 
#
# Total GULP energy -346880.089786 kJ/mol
# GULP energy per Si atom -12388.574635 kJ/mol
# Density = 1.714503 g / cm^3
# Si number density = 17.184141 Si / 1000 Ang^3
#
#
#
# Elastic Constant Matrix: (Units=GPa)
#
#
# Indices 1 2 3 4 5 6 
#
# 1 18.2885 18.4876 13.8037 0.0027 4.5603 0.0007
# 2 18.4876 95.2077 62.3839 0.0035 9.3132 0.0002
# 3 13.8037 62.3839 147.3294 0.0136 15.5405 0.0030
# 4 0.0027 0.0035 0.0136 23.8201 -0.0047 2.1859
# 5 4.5603 9.3132 15.5405 -0.0047 24.0987 -0.0020
# 6 0.0007 0.0002 0.0030 2.1859 -0.0020 11.3255
#
#
#
# Elastic Compliance Matrix: (Units=1/GPa)
#
#
# Indices 1 2 3 4 5 6 
#
# 1 0.069595 -0.012468 -0.000386 -0.000007 -0.008102 -0.000004
# 2 -0.012468 0.016841 -0.005928 0.000002 -0.000326 0.000001
# 3 -0.000386 -0.005928 0.009748 -0.000005 -0.003922 -0.000002
# 4 -0.000007 0.000002 -0.000005 0.042738 0.000011 -0.008249
# 5 -0.008102 -0.000326 -0.003922 0.000011 0.045684 0.000007
# 6 -0.000004 0.000001 -0.000002 -0.008249 0.000007 0.089889
#
#
# Mechanical properties :
#
#
# Convention : Reuss Voigt Hill
#
# Bulk Modulus (GPa) = 17.05981 50.01957 33.53969
# Shear Modulus (GPa) = 15.07838 22.92554 19.00196
#
# Velocity S-wave (km/s) = 2.96541 3.65651 3.32894
# Velocity P-wave (km/s) = 4.65554 6.85550 5.85969
#
# Compressibility (1/GPa) = 0.05861730
#
# Stress axis : x y z
#
# Youngs Moduli (GPa) = 14.36879 59.37924 102.58866
#
# Poissons Ratio (x) = 0.74036 0.03965
# Poissons Ratio (y) = 0.17916 0.60819
# Poissons Ratio (z) = 0.00555 0.35202
#
# Static dielectric constant tensor:
#      x y z
#    x 2.940810 0.000000 0.143630 
#    y 0.000000 3.217420 0.000010 
#    z 0.143630 0.000010 3.860510 
# 
# 
# High freq. dielectric constant tensor:
#      x y z
#    x 1.623880 0.000000 0.000270 
#    y 0.000000 1.625460 0.000000 
#    z 0.000270 0.000000 1.692070 
# 
# From -- ./inp_files/218267.got.cif
#   From: 2010.06.25/outbox.cif.g09.slc.cpg/sg12_110_cif.got.tgz:218267.got - 2010.06.28 00:19:55.
