data_PCOD8085801
_publ_section_title
;
Structure prediction by ZEFSAII (Michael W. Deem and Ramdas Pophale) SiO2 
 PCOD8085801
Probable space group: C 2/M
;
_chemical_formula_sum "Si O2"
_cell_formula_units_Z 64
_cell_length_a 29.713894
_cell_length_b 8.715330
_cell_length_c 15.117855
_cell_angle_alpha 90.000000
_cell_angle_beta 60.009104
_cell_angle_gamma 90.000000
_cell_volume 3390.814620
_symmetry_space_group_name_H-M "C 2/M"
_symmetry_group_IT_number 12
_symmetry_cell_setting 'monoclinic'
loop_
_space_group_symop_operation_xyz
x,y,z
-x,y,-z
-x,-y,-z
x,-y,z
1/2+x,1/2+y,z
1/2-x,1/2+y,-z
1/2-x,1/2-y,-z
1/2+x,1/2-y,z
loop_
_atom_site_type_symbol
_atom_site_label
_atom_site_fract_x
_atom_site_fract_y
_atom_site_fract_z
Si Si1 0.773261 0.680456 0.889664
Si Si2 0.355735 0.679350 0.573304
Si Si3 0.030562 0.817858 0.213078
Si Si4 0.859967 0.818461 0.220352
Si Si5 0.085211 0.817379 0.653422
Si Si6 0.255953 0.818208 0.260704
Si Si7 0.551381 0.317542 0.997658
Si Si8 0.618793 0.679858 0.258025
O O1 0.766459 0.500000 0.897092
O O2 0.740487 0.746981 0.840161
O O3 0.833414 0.724618 0.826325
O O4 0.750000 0.750000 0.000000
O O5 0.352404 0.500000 0.559222
O O6 0.385040 0.754684 0.460768
O O7 0.296878 0.742824 0.640258
O O8 0.388351 0.714347 0.630610
O O9 0.067686 0.764106 0.256355
O O10 0.973228 0.750153 0.286947
O O11 0.027538 0.000000 0.212091
O O12 0.052657 0.756890 0.097382
O O13 0.885245 0.765691 0.287473
O O14 0.804765 0.735364 0.269752
O O15 0.897141 0.760936 0.104137
O O16 0.851537 0.000000 0.224931
O O17 0.082718 0.000000 0.649993
O O18 0.254647 0.000000 0.252735
O O19 0.549300 0.500000 0.996419
O O20 0.500000 0.251777 0.000000
O O21 0.630143 0.500000 0.231201
#
# Coordination Sequence:
#
# PCOD8085801 Si02
#       8
#     8   8   8   8   8   8   8   8
#     4  11  22  37  56  78 105 138 176 216 258 309
#     4   8  16  31  48  68 102 139 172 223 272 308
#     4   9  16  26  45  74 105 136 173 217 264 314
#     4  10  19  30  50  78 103 134 178 220 263 317
#     4   9  16  28  48  76 105 135 178 224 266 312
#     4  10  21  37  53  74 106 139 174 216 267 315
#     4   9  15  26  43  69 104 134 165 215 266 309
#     4   9  18  32  50  76 107 138 172 214 266 315
#
# _framework density 18.874521000000001
#
# number of rings (size 3 to 8) (size 9 to 14) (size 15 to 20)
#    0.000    2.625    1.250    2.250    1.750    1.000 
#    0.000    2.500    0.000    4.125    0.000    3.500 
#    0.000    0.000    0.000    0.000    0.000    0.000 
#
# Total GULP energy -396731.318037 kJ/mol
# GULP energy per Si atom -12397.853689 kJ/mol
# Density = 1.883156 g / cm^3
# Si number density = 18.874521 Si / 1000 Ang^3
#
#
#
# Elastic Constant Matrix: (Units=GPa)
#
#
# Indices 1 2 3 4 5 6 
#
# 1 160.8258 24.4444 72.2179 0.0000 6.4046 0.0000
# 2 24.4444 43.6442 21.9070 0.0000 1.8889 0.0000
# 3 72.2179 21.9070 166.2377 0.0000 7.5178 0.0000
# 4 0.0000 0.0000 0.0000 12.0638 0.0000 -2.1548
# 5 6.4046 1.8889 7.5178 0.0000 18.4682 0.0000
# 6 0.0000 0.0000 0.0000 -2.1548 0.0000 21.6374
#
#
#
# Elastic Compliance Matrix: (Units=1/GPa)
#
#
# Indices 1 2 3 4 5 6 
#
# 1 0.008094 -0.002937 -0.003072 0.000000 -0.001256 0.000000
# 2 -0.002937 0.025628 -0.002067 0.000000 -0.000761 0.000000
# 3 -0.003072 -0.002067 0.007707 0.000000 -0.001860 0.000000
# 4 0.000000 0.000000 0.000000 0.084394 0.000000 0.008404
# 5 -0.001256 -0.000761 -0.001860 0.000000 0.055418 0.000000
# 6 0.000000 0.000000 0.000000 0.008404 0.000000 0.047053
#
#
# Mechanical properties :
#
#
# Convention : Reuss Voigt Hill
#
# Bulk Modulus (GPa) = 39.56297 67.53846 53.55071
# Shear Modulus (GPa) = 19.77294 27.24312 23.50803
#
# Velocity S-wave (km/s) = 3.24018 3.80331 3.53298
# Velocity P-wave (km/s) = 5.91649 7.42613 6.71388
#
# Compressibility (1/GPa) = 0.02527616
#
# Stress axis : x y z
#
# Youngs Moduli (GPa) = 123.54931 39.02002 129.75654
#
# Poissons Ratio (x) = 0.11459 0.39867
# Poissons Ratio (y) = 0.36283 0.26821
# Poissons Ratio (z) = 0.37959 0.08066
#
# Static dielectric constant tensor:
#      x y z
#    x 3.699900 0.000000 -0.082120 
#    y 0.000000 2.923470 0.000000 
#    z -0.082120 0.000000 3.815180 
# 
# 
# High freq. dielectric constant tensor:
#      x y z
#    x 1.741630 0.000000 0.001940 
#    y 0.000000 1.677450 0.000000 
#    z 0.001940 0.000000 1.742400 
# 
# From -- ./inp_files/249024.got.cif
#   From: 2010.06.25/outbox.cif.g09.slc.cpg/sg12_125_cif.got.tgz:249024.got - 2010.06.28 00:19:55.
