data_PCOD8085717
_publ_section_title
;
Structure prediction by ZEFSAII (Michael W. Deem and Ramdas Pophale) SiO2 
 PCOD8085717
Probable space group: C 2/M
;
_chemical_formula_sum "Si O2"
_cell_formula_units_Z 48
_cell_length_a 12.873560
_cell_length_b 29.528894
_cell_length_c 15.482518
_cell_angle_alpha 90.000000
_cell_angle_beta 27.219863
_cell_angle_gamma 90.000000
_cell_volume 2692.089653
_symmetry_space_group_name_H-M "C 2/M"
_symmetry_group_IT_number 12
_symmetry_cell_setting 'monoclinic'
loop_
_space_group_symop_operation_xyz
x,y,z
-x,y,-z
-x,-y,-z
x,-y,z
1/2+x,1/2+y,z
1/2-x,1/2+y,-z
1/2-x,1/2-y,-z
1/2+x,1/2-y,z
loop_
_atom_site_type_symbol
_atom_site_label
_atom_site_fract_x
_atom_site_fract_y
_atom_site_fract_z
Si Si1 0.194815 0.552218 0.926126
Si Si2 0.985188 0.623273 0.818432
Si Si3 0.208604 0.722235 0.294138
Si Si4 0.213478 0.681598 0.788684
Si Si5 0.789345 0.209229 0.039286
Si Si6 0.461990 0.607196 0.427094
O O1 0.209280 0.500000 0.941294
O O2 0.433155 0.567576 0.708765
O O3 0.000000 0.561789 0.000000
O O4 0.151908 0.579456 0.047089
O O5 0.120066 0.642138 0.799519
O O6 0.192744 0.609617 0.600680
O O7 0.816967 0.661336 0.907671
O O8 0.202590 0.775120 0.326925
O O9 0.175603 0.722120 0.214901
O O10 0.000000 0.698483 0.500000
O O11 0.442889 0.699088 0.149678
O O12 0.419402 0.655961 0.686450
O O13 0.000000 0.700942 0.000000
O O14 0.750000 0.250000 0.000000
O O15 0.500000 0.595308 0.500000
#
# Coordination Sequence:
#
# PCOD8085717 Si02
#       6
#     8   8   8   8   8   8
#     4  11  21  33  52  78 109 145 181 224 272 326
#     4  11  20  35  52  76 106 147 182 223 268 320
#     4  11  23  38  54  79 112 148 194 233 270 320
#     4  11  16  33  50  71 112 149 180 225 264 310
#     4  11  23  37  55  82 112 149 190 231 272 326
#     4  10  19  30  49  74 104 147 185 215 263 320
#
# _framework density 17.830015
#
# number of rings (size 3 to 8) (size 9 to 14) (size 15 to 20)
#    0.000    1.167    8.333    1.500    0.000    3.000 
#    0.000    0.000    0.000    0.000    0.000    2.333 
#    0.000    6.667    0.000    0.000    0.000    0.000 
#
# Total GULP energy -297360.581329 kJ/mol
# GULP energy per Si atom -12390.024222 kJ/mol
# Density = 1.778943 g / cm^3
# Si number density = 17.830015 Si / 1000 Ang^3
#
#
#
# Elastic Constant Matrix: (Units=GPa)
#
#
# Indices 1 2 3 4 5 6 
#
# 1 55.8469 32.4703 44.9219 -0.0011 -4.7836 -0.0029
# 2 32.4703 114.5679 53.5889 0.0005 -8.3962 0.0007
# 3 44.9219 53.5889 162.4121 -0.0044 1.7262 -0.0055
# 4 -0.0011 0.0005 -0.0044 23.5289 0.0018 0.8913
# 5 -4.7836 -8.3962 1.7262 0.0018 9.4016 0.0043
# 6 -0.0029 0.0007 -0.0055 0.8913 0.0043 16.7755
#
#
#
# Elastic Compliance Matrix: (Units=1/GPa)
#
#
# Indices 1 2 3 4 5 6 
#
# 1 0.025861 -0.003696 -0.006050 -0.000001 0.010969 0.000000
# 2 -0.003696 0.011851 -0.002986 -0.000002 0.009251 -0.000004
# 3 -0.006050 -0.002986 0.008894 0.000002 -0.007378 0.000004
# 4 -0.000001 -0.000002 0.000002 0.042587 -0.000009 -0.002263
# 5 0.010969 0.009251 -0.007378 -0.000009 0.121562 -0.000031
# 6 0.000000 -0.000004 0.000004 -0.002263 -0.000031 0.059731
#
#
# Mechanical properties :
#
#
# Convention : Reuss Voigt Hill
#
# Bulk Modulus (GPa) = 47.29962 66.08768 56.69365
# Shear Modulus (GPa) = 16.50179 23.39759 19.94969
#
# Velocity S-wave (km/s) = 3.04551 3.62644 3.34860
# Velocity P-wave (km/s) = 6.24120 7.39464 6.84227
#
# Compressibility (1/GPa) = 0.02114182
#
# Stress axis : x y z
#
# Youngs Moduli (GPa) = 38.66843 84.38328 112.43039
#
# Poissons Ratio (x) = 0.31184 0.68022
# Poissons Ratio (y) = 0.14290 0.33576
# Poissons Ratio (z) = 0.23395 0.25200
#
# Static dielectric constant tensor:
#      x y z
#    x 2.899480 0.000000 -0.684140 
#    y 0.000000 3.117500 0.000050 
#    z -0.684140 0.000050 -7.190660 
# 
# 
# High freq. dielectric constant tensor:
#      x y z
#    x 1.628650 0.000000 0.001590 
#    y 0.000000 1.669440 0.000000 
#    z 0.001590 0.000000 1.719320 
# 
# From -- ./inp_files/209790.got.cif
#   From: 2010.06.25/outbox.cif.g09.slc.cpg/sg12_105_cif.got.tgz:209790.got - 2010.06.28 00:19:55.
