data_PCOD8085365
_publ_section_title
;
Structure prediction by ZEFSAII (Michael W. Deem and Ramdas Pophale) SiO2 
 PCOD8085365
Probable space group: C 2/M
;
_chemical_formula_sum "Si O2"
_cell_formula_units_Z 56
_cell_length_a 28.857746
_cell_length_b 9.194886
_cell_length_c 18.557428
_cell_angle_alpha 90.000000
_cell_angle_beta 39.434979
_cell_angle_gamma 90.000000
_cell_volume 3127.796561
_symmetry_space_group_name_H-M "C 2/M"
_symmetry_group_IT_number 12
_symmetry_cell_setting 'monoclinic'
loop_
_space_group_symop_operation_xyz
x,y,z
-x,y,-z
-x,-y,-z
x,-y,z
1/2+x,1/2+y,z
1/2-x,1/2+y,-z
1/2-x,1/2-y,-z
1/2+x,1/2-y,z
loop_
_atom_site_type_symbol
_atom_site_label
_atom_site_fract_x
_atom_site_fract_y
_atom_site_fract_z
Si Si1 0.138534 0.660132 0.601970
Si Si2 0.521781 0.840179 0.270515
Si Si3 0.435068 0.827958 0.933326
Si Si4 0.034301 0.168720 0.535903
Si Si5 0.335440 0.331945 0.156961
Si Si6 0.820730 0.671263 0.598937
Si Si7 0.081958 0.831137 0.794889
O O1 0.162535 0.500000 0.600897
O O2 0.188953 0.712487 0.474468
O O3 0.140459 0.773046 0.665668
O O4 0.057954 0.651429 0.667149
O O5 0.573400 0.790683 0.141899
O O6 0.522684 0.728684 0.335897
O O7 0.545192 0.000000 0.270804
O O8 0.505914 0.753025 0.882753
O O9 0.442482 0.000000 0.936287
O O10 0.363163 0.767012 0.058235
O O11 0.112465 0.245660 0.444634
O O12 0.000000 0.199986 0.500000
O O13 0.046109 0.000000 0.537017
O O14 0.339050 0.500000 0.129664
O O15 0.252769 0.283858 0.272075
O O16 0.385322 0.303983 0.166217
O O17 0.836804 0.500000 0.585399
O O18 0.067766 0.000000 0.796490
#
# Coordination Sequence:
#
# PCOD8085365 Si02
#       7
#     8   8   8   8   8   8   8
#     4   8  15  29  47  67  94 126 161 202 241 280
#     4   8  16  31  50  72  97 126 159 194 235 283
#     4  10  20  33  49  70  96 128 169 209 239 275
#     4  10  20  33  53  82 106 120 145 191 240 287
#     4  10  21  34  47  67  97 132 168 205 242 281
#     4   9  19  35  51  69  97 131 163 194 237 294
#     4  10  19  30  46  69  96 128 168 210 246 279
#
# _framework density 17.903977999999999
#
# number of rings (size 3 to 8) (size 9 to 14) (size 15 to 20)
#    0.000    2.714    0.000    3.429    0.000   10.857 
#    0.000    0.000    0.000    0.857    0.000    0.000 
#    0.000    0.000    0.000    0.000    0.000    0.000 
#
# Total GULP energy -347095.992380 kJ/mol
# GULP energy per Si atom -12396.285442 kJ/mol
# Density = 1.786323 g / cm^3
# Si number density = 17.903978 Si / 1000 Ang^3
#
#
#
# Elastic Constant Matrix: (Units=GPa)
#
#
# Indices 1 2 3 4 5 6 
#
# 1 24.8380 33.3164 52.6681 0.0149 9.1860 -0.0048
# 2 33.3164 93.2636 77.8489 0.0301 11.1448 -0.0094
# 3 52.6681 77.8489 160.2966 0.0054 15.3330 -0.0046
# 4 0.0149 0.0301 0.0054 31.6274 -0.0046 8.1394
# 5 9.1860 11.1448 15.3330 -0.0046 20.1647 0.0035
# 6 -0.0048 -0.0094 -0.0046 8.1394 0.0035 20.9000
#
#
#
# Elastic Compliance Matrix: (Units=1/GPa)
#
#
# Indices 1 2 3 4 5 6 
#
# 1 0.174264 -0.022028 -0.043278 -0.000073 -0.034303 0.000054
# 2 -0.022028 0.021058 -0.003058 -0.000011 0.000722 0.000008
# 3 -0.043278 -0.003058 0.021456 0.000025 0.005090 -0.000017
# 4 -0.000073 -0.000011 0.000025 0.035140 0.000031 -0.013685
# 5 -0.034303 0.000722 0.005090 0.000031 0.060949 -0.000029
# 6 0.000054 0.000008 -0.000017 -0.013685 -0.000029 0.053177
#
#
# Mechanical properties :
#
#
# Convention : Reuss Voigt Hill
#
# Bulk Modulus (GPa) = 12.49223 67.34057 39.91640
# Shear Modulus (GPa) = 9.44367 22.17606 15.80986
#
# Velocity S-wave (km/s) = 2.29915 3.52321 2.97482
# Velocity P-wave (km/s) = 3.74708 7.36508 5.84316
#
# Compressibility (1/GPa) = 0.08004975
#
# Stress axis : x y z
#
# Youngs Moduli (GPa) = 5.73843 47.48828 46.60593
#
# Poissons Ratio (x) = 1.04607 2.01701
# Poissons Ratio (y) = 0.12641 0.14253
# Poissons Ratio (z) = 0.24835 0.14523
#
# Static dielectric constant tensor:
#      x y z
#    x 2.917110 -0.000010 0.285550 
#    y -0.000010 3.374870 0.000030 
#    z 0.285550 0.000030 3.906260 
# 
# 
# High freq. dielectric constant tensor:
#      x y z
#    x 1.649450 0.000000 0.017370 
#    y 0.000000 1.697170 0.000000 
#    z 0.017370 0.000000 1.703140 
# 
# From -- ./inp_files/295049.got.cif
#   From: 2010.06.25/outbox.cif.g09.slc.cpg/sg12_148_cif.got.tgz:295049.got - 2010.06.28 00:19:55.
