data_PCOD8085727
_publ_section_title
;
Structure prediction by ZEFSAII (Michael W. Deem and Ramdas Pophale) SiO2 
 PCOD8085727
Probable space group: C 2/M
;
_chemical_formula_sum "Si O2"
_cell_formula_units_Z 56
_cell_length_a 24.994768
_cell_length_b 9.338727
_cell_length_c 14.203876
_cell_angle_alpha 90.000000
_cell_angle_beta 104.232941
_cell_angle_gamma 90.000000
_cell_volume 3213.688189
_symmetry_space_group_name_H-M "C 2/M"
_symmetry_group_IT_number 12
_symmetry_cell_setting 'monoclinic'
loop_
_space_group_symop_operation_xyz
x,y,z
-x,y,-z
-x,-y,-z
x,-y,z
1/2+x,1/2+y,z
1/2-x,1/2+y,-z
1/2-x,1/2-y,-z
1/2+x,1/2-y,z
loop_
_atom_site_type_symbol
_atom_site_label
_atom_site_fract_x
_atom_site_fract_y
_atom_site_fract_z
Si Si1 0.720211 0.336232 0.194615
Si Si2 0.936672 0.337042 0.947206
Si Si3 0.391375 0.667808 0.757343
Si Si4 0.173470 0.168431 0.782119
Si Si5 0.850069 0.166237 0.016008
Si Si6 0.569511 0.329734 0.621407
Si Si7 0.552673 0.330244 0.406604
O O1 0.739150 0.500000 0.208680
O O2 0.673265 0.302280 0.252018
O O3 0.772646 0.238924 0.240588
O O4 0.697288 0.300437 0.080652
O O5 0.915756 0.500000 0.927641
O O6 0.928526 0.254509 0.846186
O O7 0.903509 0.260747 0.016798
O O8 0.000000 0.331013 0.000000
O O9 0.404421 0.500000 0.777005
O O10 0.407744 0.722998 0.660371
O O11 0.119177 0.231227 0.706681
O O12 0.178420 0.000000 0.769240
O O13 0.171456 0.210136 0.890849
O O14 0.867577 0.000000 0.019450
O O15 0.571010 0.500000 0.625231
O O16 0.576511 0.274408 0.516741
O O17 0.510355 0.275130 0.635622
O O18 0.551527 0.500000 0.408769
#
# Coordination Sequence:
#
# PCOD8085727 Si02
#       7
#     8   8   8   8   8   8   8
#     4   9  18  32  45  66  98 130 165 200 239 289
#     4  10  21  33  45  69 103 131 157 193 240 293
#     4   9  18  32  53  73  91 127 169 199 236 284
#     4  10  19  30  49  75  98 124 164 206 240 281
#     4   9  19  33  49  70  95 127 168 204 235 278
#     4   8  15  27  46  76 102 118 152 204 250 287
#     4   8  14  28  50  73  98 124 152 199 253 287
#
# _framework density 17.425462
#
# number of rings (size 3 to 8) (size 9 to 14) (size 15 to 20)
#    0.000    3.000    0.000    2.571    2.000    4.000 
#    0.000    0.714    0.000    0.857    0.000    2.000 
#    0.000    0.000    0.000    0.000    0.000    0.000 
#
# Total GULP energy -347114.217402 kJ/mol
# GULP energy per Si atom -12396.936336 kJ/mol
# Density = 1.738580 g / cm^3
# Si number density = 17.425462 Si / 1000 Ang^3
#
#
#
# Elastic Constant Matrix: (Units=GPa)
#
#
# Indices 1 2 3 4 5 6 
#
# 1 128.2173 37.4269 75.9549 0.0000 -5.8864 0.0000
# 2 37.4269 42.1453 23.0086 0.0000 -0.5526 0.0000
# 3 75.9549 23.0086 95.9589 0.0000 -8.4786 0.0000
# 4 0.0000 0.0000 0.0000 8.6044 0.0000 6.8676
# 5 -5.8864 -0.5526 -8.4786 0.0000 29.5788 0.0000
# 6 0.0000 0.0000 0.0000 6.8676 0.0000 26.5789
#
#
#
# Elastic Compliance Matrix: (Units=1/GPa)
#
#
# Indices 1 2 3 4 5 6 
#
# 1 0.017237 -0.009041 -0.011478 0.000000 -0.000029 0.000000
# 2 -0.009041 0.032100 -0.000663 0.000000 -0.001390 0.000000
# 3 -0.011478 -0.000663 0.019968 0.000000 0.003427 0.000000
# 4 0.000000 0.000000 0.000000 0.146414 0.000000 -0.037831
# 5 -0.000029 -0.001390 0.003427 0.000000 0.034759 0.000000
# 6 0.000000 0.000000 0.000000 -0.037831 0.000000 0.047399
#
#
# Mechanical properties :
#
#
# Convention : Reuss Voigt Hill
#
# Bulk Modulus (GPa) = 37.11930 59.90027 48.50979
# Shear Modulus (GPa) = 14.31757 21.61450 17.96604
#
# Velocity S-wave (km/s) = 2.86955 3.52575 3.21444
# Velocity P-wave (km/s) = 5.68569 7.14313 6.45567
#
# Compressibility (1/GPa) = 0.02694016
#
# Stress axis : x y z
#
# Youngs Moduli (GPa) = 58.01636 31.15259 50.07925
#
# Poissons Ratio (x) = 0.28165 0.57481
# Poissons Ratio (y) = 0.52452 0.03322
# Poissons Ratio (z) = 0.66592 0.02067
#
# Static dielectric constant tensor:
#      x y z
#    x 3.354910 0.000000 -0.161100 
#    y 0.000000 2.981920 0.000000 
#    z -0.161100 0.000000 3.412050 
# 
# 
# High freq. dielectric constant tensor:
#      x y z
#    x 1.677710 0.000000 -0.005240 
#    y 0.000000 1.640550 0.000000 
#    z -0.005240 0.000000 1.664830 
# 
# From -- ./inp_files/237822.got.cif
#   From: 2010.06.25/outbox.cif.g09.slc.cpg/sg12_119_cif.got.tgz:237822.got - 2010.06.28 00:19:55.
