data_PCOD8085632
_publ_section_title
;
Structure prediction by ZEFSAII (Michael W. Deem and Ramdas Pophale) SiO2 
 PCOD8085632
Probable space group: C 2/M
;
_chemical_formula_sum "Si O2"
_cell_formula_units_Z 64
_cell_length_a 24.065459
_cell_length_b 9.366196
_cell_length_c 16.592516
_cell_angle_alpha 90.000000
_cell_angle_beta 85.428275
_cell_angle_gamma 90.000000
_cell_volume 3728.083695
_symmetry_space_group_name_H-M "C 2/M"
_symmetry_group_IT_number 12
_symmetry_cell_setting 'monoclinic'
loop_
_space_group_symop_operation_xyz
x,y,z
-x,y,-z
-x,-y,-z
x,-y,z
1/2+x,1/2+y,z
1/2-x,1/2+y,-z
1/2-x,1/2-y,-z
1/2+x,1/2-y,z
loop_
_atom_site_type_symbol
_atom_site_label
_atom_site_fract_x
_atom_site_fract_y
_atom_site_fract_z
Si Si1 0.903457 0.836186 0.050110
Si Si2 0.803135 0.833952 0.175071
Si Si3 0.123426 0.336750 0.714212
Si Si4 0.523027 0.165926 0.837865
Si Si5 0.173469 0.337631 0.546999
Si Si6 0.794416 0.164987 0.599811
Si Si7 0.196894 0.167476 0.218288
Si Si8 0.585843 0.334460 0.136669
O O1 0.841981 0.808825 0.092704
O O2 0.949236 0.737031 0.086955
O O3 0.921837 0.000000 0.061968
O O4 0.901035 0.796078 0.957078
O O5 0.832963 0.768922 0.249677
O O6 0.745064 0.753767 0.166222
O O7 0.791883 0.000000 0.192270
O O8 0.142838 0.500000 0.729491
O O9 0.061533 0.310133 0.754834
O O10 0.124294 0.308354 0.617752
O O11 0.464724 0.239871 0.824618
O O12 0.513921 0.000000 0.857769
O O13 0.173712 0.500000 0.517624
O O14 0.164751 0.243731 0.468143
O O15 0.230793 0.298814 0.585941
O O16 0.806566 0.218588 0.688650
O O17 0.808431 0.000000 0.590354
O O18 0.139084 0.206785 0.183145
O O19 0.210671 0.000000 0.210306
O O20 0.570137 0.500000 0.148525
#
# Coordination Sequence:
#
# PCOD8085632 Si02
#       8
#     8   8   8   8   8   8   8   8
#     4   9  19  35  52  73  99 127 162 205 249 291
#     4  10  19  30  48  74 101 127 160 203 245 284
#     4   9  17  32  51  72 100 131 159 195 245 296
#     4  10  20  33  53  77  99 124 162 210 250 283
#     4   9  16  28  48  72  98 125 156 193 238 288
#     4   9  17  29  46  70  99 126 157 196 234 284
#     4  10  20  35  51  68  98 138 168 193 238 298
#     4  10  21  36  53  69  94 135 172 200 240 293
#
# _framework density 17.166996000000001
#
# number of rings (size 3 to 8) (size 9 to 14) (size 15 to 20)
#    0.000    2.500    1.250    1.125    0.000    5.000 
#    0.000    0.000    0.000    0.750    0.000    5.250 
#    0.000    0.000    0.000    0.000    0.000    0.000 
#
# Total GULP energy -396834.000100 kJ/mol
# GULP energy per Si atom -12401.062503 kJ/mol
# Density = 1.712792 g / cm^3
# Si number density = 17.166996 Si / 1000 Ang^3
#
#
#
# Elastic Constant Matrix: (Units=GPa)
#
#
# Indices 1 2 3 4 5 6 
#
# 1 108.5611 59.4132 48.6156 0.0000 -5.2106 0.0000
# 2 59.4132 76.2817 37.9006 0.0000 -8.6783 0.0000
# 3 48.6156 37.9006 81.8707 0.0000 -15.8937 0.0000
# 4 0.0000 0.0000 0.0000 25.3040 0.0000 -5.2066
# 5 -5.2106 -8.6783 -15.8937 0.0000 16.6625 0.0000
# 6 0.0000 0.0000 0.0000 -5.2066 0.0000 29.1287
#
#
#
# Elastic Compliance Matrix: (Units=1/GPa)
#
#
# Indices 1 2 3 4 5 6 
#
# 1 0.018310 -0.011659 -0.006802 0.000000 -0.006835 0.000000
# 2 -0.011659 0.024487 -0.003245 0.000000 0.006012 0.000000
# 3 -0.006802 -0.003245 0.020882 0.000000 0.016101 0.000000
# 4 0.000000 0.000000 0.000000 0.041028 0.000000 0.007334
# 5 -0.006835 0.006012 0.016101 0.000000 0.076366 0.000000
# 6 0.000000 0.000000 0.000000 0.007334 0.000000 0.035641
#
#
# Mechanical properties :
#
#
# Convention : Reuss Voigt Hill
#
# Bulk Modulus (GPa) = 49.34583 62.06356 55.70469
# Shear Modulus (GPa) = 18.73479 22.27132 20.50305
#
# Velocity S-wave (km/s) = 3.30711 3.60576 3.45966
# Velocity P-wave (km/s) = 6.58708 7.31892 6.96262
#
# Compressibility (1/GPa) = 0.02026514
#
# Stress axis : x y z
#
# Youngs Moduli (GPa) = 54.61389 40.83874 47.88892
#
# Poissons Ratio (x) = 0.47615 0.32576
# Poissons Ratio (y) = 0.63675 0.15541
# Poissons Ratio (z) = 0.37150 0.13253
#
# Static dielectric constant tensor:
#      x y z
#    x 3.042690 0.000000 -0.206090 
#    y 0.000000 3.235990 0.000000 
#    z -0.206090 0.000000 3.305200 
# 
# 
# High freq. dielectric constant tensor:
#      x y z
#    x 1.636790 0.000000 -0.018990 
#    y 0.000000 1.665180 0.000000 
#    z -0.018990 0.000000 1.663100 
# 
# From -- ./inp_files/287557.got.cif
#   From: 2010.06.25/outbox.cif.g09.slc.cpg/sg12_144_cif.got.tgz:287557.got - 2010.06.28 00:19:55.
