data_PCOD8085617
_publ_section_title
;
Structure prediction by ZEFSAII (Michael W. Deem and Ramdas Pophale) SiO2 
 PCOD8085617
Probable space group: C 2/M
;
_chemical_formula_sum "Si O2"
_cell_formula_units_Z 48
_cell_length_a 36.180364
_cell_length_b 9.579894
_cell_length_c 8.923964
_cell_angle_alpha 90.000000
_cell_angle_beta 62.515787
_cell_angle_gamma 90.000000
_cell_volume 2743.990737
_symmetry_space_group_name_H-M "C 2/M"
_symmetry_group_IT_number 12
_symmetry_cell_setting 'monoclinic'
loop_
_space_group_symop_operation_xyz
x,y,z
-x,y,-z
-x,-y,-z
x,-y,z
1/2+x,1/2+y,z
1/2-x,1/2+y,-z
1/2-x,1/2-y,-z
1/2+x,1/2-y,z
loop_
_atom_site_type_symbol
_atom_site_label
_atom_site_fract_x
_atom_site_fract_y
_atom_site_fract_z
Si Si1 0.663409 0.155056 0.825416
Si Si2 0.959658 0.840351 0.990455
Si Si3 0.871880 0.337023 0.638489
Si Si4 0.921127 0.346187 0.831488
Si Si5 0.710552 0.162373 0.026349
Si Si6 0.623972 0.661336 0.665993
O O1 0.699352 0.200254 0.874906
O O2 0.660436 0.266502 0.696465
O O3 0.672714 0.000000 0.742470
O O4 0.620683 0.149662 0.994919
O O5 0.920195 0.821925 0.171166
O O6 0.967138 0.000000 0.931929
O O7 0.953942 0.759338 0.844350
O O8 0.000000 0.779453 0.000000
O O9 0.873527 0.500000 0.589574
O O10 0.908997 0.301316 0.685719
O O11 0.879507 0.238383 0.484349
O O12 0.827481 0.299334 0.793482
O O13 0.941557 0.500000 0.792234
O O14 0.721427 0.000000 0.019068
O O15 0.750000 0.250000 0.000000
O O16 0.635990 0.500000 0.620057
#
# Coordination Sequence:
#
# PCOD8085617 Si02
#       6
#     8   8   8   8   8   8
#     4   8  15  30  49  67  91 123 154 187 231 276
#     4   9  18  32  48  68  96 125 152 189 237 280
#     4   9  18  33  50  69  96 126 153 188 236 279
#     4   8  15  29  49  69  88 118 160 193 221 271
#     4   9  18  32  51  73  95 122 155 190 232 279
#     4  10  19  30  48  73  94 119 159 196 227 272
#
# _framework density 17.492768999999999
#
# number of rings (size 3 to 8) (size 9 to 14) (size 15 to 20)
#    0.000    3.167    0.000    2.500    0.000    3.000 
#    0.000    5.000    0.000    5.000    0.000    0.000 
#    0.000    0.000    0.000    0.000    0.000    0.000 
#
# Total GULP energy -297500.978953 kJ/mol
# GULP energy per Si atom -12395.874123 kJ/mol
# Density = 1.745295 g / cm^3
# Si number density = 17.492769 Si / 1000 Ang^3
#
#
#
# Elastic Constant Matrix: (Units=GPa)
#
#
# Indices 1 2 3 4 5 6 
#
# 1 130.3348 73.1236 32.7366 0.0000 31.1349 0.0000
# 2 73.1236 108.2188 50.9705 0.0000 30.8340 0.0000
# 3 32.7366 50.9705 58.0234 0.0000 30.9597 0.0000
# 4 0.0000 0.0000 0.0000 24.8410 0.0000 7.1729
# 5 31.1349 30.8340 30.9597 0.0000 29.7764 0.0000
# 6 0.0000 0.0000 0.0000 7.1729 0.0000 34.2048
#
#
#
# Elastic Compliance Matrix: (Units=1/GPa)
#
#
# Indices 1 2 3 4 5 6 
#
# 1 0.014014 -0.009115 0.006475 0.000000 -0.011947 0.000000
# 2 -0.009115 0.021942 -0.015934 0.000000 0.003376 0.000000
# 3 0.006475 -0.015934 0.050283 0.000000 -0.042551 0.000000
# 4 0.000000 0.000000 0.000000 0.042851 0.000000 -0.008986
# 5 -0.011947 0.003376 -0.042551 0.000000 0.086821 0.000000
# 6 0.000000 0.000000 0.000000 -0.008986 0.000000 0.031120
#
#
# Mechanical properties :
#
#
# Convention : Reuss Voigt Hill
#
# Bulk Modulus (GPa) = 20.37055 67.80425 44.08740
# Shear Modulus (GPa) = 16.63655 27.08088 21.85871
#
# Velocity S-wave (km/s) = 3.08726 3.93888 3.53878
# Velocity P-wave (km/s) = 4.93747 7.71569 6.47729
#
# Compressibility (1/GPa) = 0.04909048
#
# Stress axis : x y z
#
# Youngs Moduli (GPa) = 71.35691 45.57370 19.88757
#
# Poissons Ratio (x) = 0.41541 -0.12877
# Poissons Ratio (y) = 0.65042 0.31689
# Poissons Ratio (z) = -0.46203 0.72618
#
# Static dielectric constant tensor:
#      x y z
#    x 3.367570 0.000000 0.294850 
#    y 0.000000 3.417810 0.000000 
#    z 0.294850 0.000000 3.023570 
# 
# 
# High freq. dielectric constant tensor:
#      x y z
#    x 1.674170 0.000000 0.025210 
#    y 0.000000 1.677270 0.000000 
#    z 0.025210 0.000000 1.649990 
# 
# From -- ./inp_files/109357.got.cif
#   From: 2010.06.25/outbox.cif.g09.slc.cpg/sg12_55_cif.got.tgz:109357.got - 2010.06.28 00:19:55.
