data_PCOD8085396
_publ_section_title
;
Structure prediction by ZEFSAII (Michael W. Deem and Ramdas Pophale) SiO2 
 PCOD8085396
Probable space group: C 2/M
;
_chemical_formula_sum "Si O2"
_cell_formula_units_Z 56
_cell_length_a 29.505456
_cell_length_b 9.407886
_cell_length_c 20.525505
_cell_angle_alpha 90.000000
_cell_angle_beta 147.580470
_cell_angle_gamma 90.000000
_cell_volume 3054.540118
_symmetry_space_group_name_H-M "C 2/M"
_symmetry_group_IT_number 12
_symmetry_cell_setting 'monoclinic'
loop_
_space_group_symop_operation_xyz
x,y,z
-x,y,-z
-x,-y,-z
x,-y,z
1/2+x,1/2+y,z
1/2-x,1/2+y,-z
1/2-x,1/2-y,-z
1/2+x,1/2-y,z
loop_
_atom_site_type_symbol
_atom_site_label
_atom_site_fract_x
_atom_site_fract_y
_atom_site_fract_z
Si Si1 0.895389 0.334676 0.055556
Si Si2 0.079988 0.669007 0.636643
Si Si3 0.196985 0.831970 0.285054
Si Si4 0.139485 0.331519 0.441866
Si Si5 0.462306 0.831040 0.273332
Si Si6 0.237894 0.832488 0.188000
Si Si7 0.919367 0.335240 0.769132
O O1 0.871331 0.500000 0.022301
O O2 0.905565 0.283985 0.142892
O O3 0.981784 0.305243 0.121289
O O4 0.820911 0.242846 0.935550
O O5 0.074834 0.500000 0.630902
O O6 0.077133 0.727640 0.707398
O O7 0.166133 0.719781 0.707015
O O8 0.000000 0.731292 0.500000
O O9 0.275882 0.770914 0.422507
O O10 0.210218 0.787706 0.226553
O O11 0.112151 0.757236 0.208051
O O12 0.187043 0.000000 0.280790
O O13 0.139096 0.500000 0.447406
O O14 0.133270 0.286864 0.358691
O O15 0.057764 0.271165 0.381181
O O16 0.467334 0.000000 0.279587
O O17 0.230192 0.000000 0.167929
O O18 0.903469 0.500000 0.765132
#
# Coordination Sequence:
#
# PCOD8085396 Si02
#       7
#     8   8   8   8   8   8   8
#     4   9  19  35  51  68  93 127 164 197 231 274
#     4   9  16  28  49  76 101 123 151 190 236 284
#     4  10  19  30  46  70  99 127 153 191 245 286
#     4   8  14  27  47  71  97 121 151 195 241 283
#     4   8  14  27  49  72  94 124 159 193 231 278
#     4  10  21  33  47  72 101 125 155 196 235 276
#     4   9  18  32  50  70  91 121 163 201 231 276
#
# _framework density 18.333366000000002
#
# number of rings (size 3 to 8) (size 9 to 14) (size 15 to 20)
#    0.000    3.000    0.000    3.000    0.000    5.714 
#    0.000    2.857    0.000    1.286    0.000    0.000 
#    0.000    0.000    0.000    0.000    0.000    0.000 
#
# Total GULP energy -347116.294807 kJ/mol
# GULP energy per Si atom -12397.010529 kJ/mol
# Density = 1.829164 g / cm^3
# Si number density = 18.333366 Si / 1000 Ang^3
#
#
#
# Elastic Constant Matrix: (Units=GPa)
#
#
# Indices 1 2 3 4 5 6 
#
# 1 149.9269 34.0605 60.6375 0.0000 -7.0136 0.0000
# 2 34.0605 22.0846 28.5286 0.0000 -0.5365 0.0000
# 3 60.6375 28.5286 122.7847 0.0000 -4.6033 0.0000
# 4 0.0000 0.0000 0.0000 25.7318 0.0000 0.1773
# 5 -7.0136 -0.5365 -4.6033 0.0000 18.4897 0.0000
# 6 0.0000 0.0000 0.0000 0.1773 0.0000 18.9318
#
#
#
# Elastic Compliance Matrix: (Units=1/GPa)
#
#
# Indices 1 2 3 4 5 6 
#
# 1 0.010803 -0.014070 -0.001946 0.000000 0.003205 0.000000
# 2 -0.014070 0.083089 -0.012584 0.000000 -0.006059 0.000000
# 3 -0.001946 -0.012584 0.012101 0.000000 0.001909 0.000000
# 4 0.000000 0.000000 0.000000 0.038865 0.000000 -0.000364
# 5 0.003205 -0.006059 0.001909 0.000000 0.055600 0.000000
# 6 0.000000 0.000000 0.000000 -0.000364 0.000000 0.052825
#
#
# Mechanical properties :
#
#
# Convention : Reuss Voigt Hill
#
# Bulk Modulus (GPa) = 20.49476 60.13882 40.31679
# Shear Modulus (GPa) = 15.30235 24.06861 19.68548
#
# Velocity S-wave (km/s) = 2.89220 3.62723 3.28037
# Velocity P-wave (km/s) = 4.72825 7.10046 6.03212
#
# Compressibility (1/GPa) = 0.04879296
#
# Stress axis : x y z
#
# Youngs Moduli (GPa) = 92.56394 12.03528 82.63911
#
# Poissons Ratio (x) = 0.16934 0.16081
# Poissons Ratio (y) = 1.30238 1.03994
# Poissons Ratio (z) = 0.18013 0.15145
#
# Static dielectric constant tensor:
#      x y z
#    x 3.578400 0.000000 -0.031830 
#    y 0.000000 2.821350 0.000000 
#    z -0.031830 0.000000 3.441410 
# 
# 
# High freq. dielectric constant tensor:
#      x y z
#    x 1.722310 0.000000 -0.001760 
#    y 0.000000 1.654000 0.000000 
#    z -0.001760 0.000000 1.713920 
# 
# From -- ./inp_files/245700.got.cif
#   From: 2010.06.25/outbox.cif.g09.slc.cpg/sg12_123_cif.got.tgz:245700.got - 2010.06.28 00:19:55.
