data_PCOD8085307
_publ_section_title
;
Structure prediction by ZEFSAII (Michael W. Deem and Ramdas Pophale) SiO2 
 PCOD8085307
Probable space group: C 2/M
;
_chemical_formula_sum "Si O2"
_cell_formula_units_Z 64
_cell_length_a 25.645026
_cell_length_b 13.909915
_cell_length_c 11.471928
_cell_angle_alpha 90.000000
_cell_angle_beta 73.556070
_cell_angle_gamma 90.000000
_cell_volume 3924.882523
_symmetry_space_group_name_H-M "C 2/M"
_symmetry_group_IT_number 12
_symmetry_cell_setting 'monoclinic'
loop_
_space_group_symop_operation_xyz
x,y,z
-x,y,-z
-x,-y,-z
x,-y,z
1/2+x,1/2+y,z
1/2-x,1/2+y,-z
1/2-x,1/2-y,-z
1/2+x,1/2-y,z
loop_
_atom_site_type_symbol
_atom_site_label
_atom_site_fract_x
_atom_site_fract_y
_atom_site_fract_z
Si Si1 0.889059 0.111354 0.553247
Si Si2 0.649645 0.696686 0.755842
Si Si3 0.285802 0.657801 0.495547
Si Si4 0.424506 0.613191 0.787723
Si Si5 0.048359 0.110920 0.714633
Si Si6 0.226580 0.391466 0.949683
Si Si7 0.330621 0.700049 0.988992
Si Si8 0.302658 0.101935 0.291366
O O1 0.835996 0.173833 0.553300
O O2 0.910608 0.143175 0.664822
O O3 0.936944 0.129857 0.429757
O O4 0.871379 0.000000 0.562368
O O5 0.687335 0.629620 0.646787
O O6 0.586452 0.672048 0.777285
O O7 0.667547 0.676582 0.875415
O O8 0.656886 0.808859 0.714055
O O9 0.250000 0.750000 0.500000
O O10 0.242599 0.584946 0.579044
O O11 0.414463 0.500000 0.814305
O O12 0.486455 0.642063 0.774671
O O13 0.388727 0.676920 0.897118
O O14 0.056649 0.000000 0.741798
O O15 0.209179 0.500000 0.998117
O O16 0.286295 0.369798 0.960423
O O17 0.183690 0.312493 0.025617
O O18 0.229908 0.381586 0.808390
O O19 0.335471 0.000000 0.265285
#
# Coordination Sequence:
#
# PCOD8085307 Si02
#       8
#     8   8   8   8   8   8   8   8
#     4   9  16  28  46  66  88 113 145 185 222 253
#     4   9  19  31  42  63  95 122 145 176 221 275
#     4   9  16  26  42  65  91 114 139 174 216 261
#     4  10  19  30  47  69  89 114 152 188 216 256
#     4   9  18  31  46  65  90 118 145 181 227 264
#     4   9  18  32  48  66  89 116 149 186 219 255
#     4  10  19  30  46  67  91 121 148 175 218 266
#     4   9  16  29  49  67  84 112 152 193 223 249
#
# _framework density 16.30622
#
# number of rings (size 3 to 8) (size 9 to 14) (size 15 to 20)
#    0.000    2.750    0.000    1.875    0.000    6.500 
#    0.000    1.250    0.000    0.750    0.000    3.500 
#    0.000   10.000    0.000    0.000    0.000    0.000 
#
# Total GULP energy -396515.489989 kJ/mol
# GULP energy per Si atom -12391.109062 kJ/mol
# Density = 1.626911 g / cm^3
# Si number density = 16.306220 Si / 1000 Ang^3
#
#
#
# Elastic Constant Matrix: (Units=GPa)
#
#
# Indices 1 2 3 4 5 6 
#
# 1 112.2781 50.5617 42.2989 0.0000 -7.7551 0.0000
# 2 50.5617 80.2711 37.4761 0.0000 -4.0310 0.0000
# 3 42.2989 37.4761 69.5464 0.0000 -5.5521 0.0000
# 4 0.0000 0.0000 0.0000 17.7281 0.0000 0.4077
# 5 -7.7551 -4.0310 -5.5521 0.0000 26.5567 0.0000
# 6 0.0000 0.0000 0.0000 0.4077 0.0000 24.7008
#
#
#
# Elastic Compliance Matrix: (Units=1/GPa)
#
#
# Indices 1 2 3 4 5 6 
#
# 1 0.013673 -0.006285 -0.004767 0.000000 0.002042 0.000000
# 2 -0.006285 0.019546 -0.006732 0.000000 -0.000276 0.000000
# 3 -0.004767 -0.006732 0.021065 0.000000 0.001990 0.000000
# 4 0.000000 0.000000 0.000000 0.056429 0.000000 -0.000931
# 5 0.002042 -0.000276 0.001990 0.000000 0.038626 0.000000
# 6 0.000000 0.000000 0.000000 -0.000931 0.000000 0.040500
#
#
# Mechanical properties :
#
#
# Convention : Reuss Voigt Hill
#
# Bulk Modulus (GPa) = 53.42807 58.08544 55.75675
# Shear Modulus (GPa) = 21.58484 22.58105 22.08295
#
# Velocity S-wave (km/s) = 3.64224 3.72534 3.68403
# Velocity P-wave (km/s) = 7.10806 7.36228 7.23629
#
# Compressibility (1/GPa) = 0.01871675
#
# Stress axis : x y z
#
# Youngs Moduli (GPa) = 73.13429 51.16251 47.47321
#
# Poissons Ratio (x) = 0.32154 0.22629
# Poissons Ratio (y) = 0.45963 0.31959
# Poissons Ratio (z) = 0.34861 0.34442
#
# Static dielectric constant tensor:
#      x y z
#    x 3.046810 0.000000 -0.034050 
#    y 0.000000 3.068730 0.000000 
#    z -0.034050 0.000000 3.279630 
# 
# 
# High freq. dielectric constant tensor:
#      x y z
#    x 1.618310 0.000000 0.005620 
#    y 0.000000 1.607120 0.000000 
#    z 0.005620 0.000000 1.630040 
# 
# From -- ./inp_files/176100.got.cif
#   From: 2010.06.25/outbox.cif.g09.slc.cpg/sg12_89_cif.got.tgz:176100.got - 2010.06.28 00:19:55.
