data_PCOD8085090
_publ_section_title
;
Structure prediction by ZEFSAII (Michael W. Deem and Ramdas Pophale) SiO2 
 PCOD8085090
Probable space group: C 2/M
;
_chemical_formula_sum "Si O2"
_cell_formula_units_Z 64
_cell_length_a 13.551917
_cell_length_b 31.527067
_cell_length_c 20.189663
_cell_angle_alpha 90.000000
_cell_angle_beta 154.340075
_cell_angle_gamma 90.000000
_cell_volume 3735.339519
_symmetry_space_group_name_H-M "C 2/M"
_symmetry_group_IT_number 12
_symmetry_cell_setting 'monoclinic'
loop_
_space_group_symop_operation_xyz
x,y,z
-x,y,-z
-x,-y,-z
x,-y,z
1/2+x,1/2+y,z
1/2-x,1/2+y,-z
1/2-x,1/2-y,-z
1/2+x,1/2-y,z
loop_
_atom_site_type_symbol
_atom_site_label
_atom_site_fract_x
_atom_site_fract_y
_atom_site_fract_z
Si Si1 0.783084 0.101440 0.915820
Si Si2 0.721873 0.737068 0.671017
Si Si3 0.777324 0.598077 0.408896
Si Si4 0.247612 0.762883 0.840427
Si Si5 0.534887 0.685610 0.235514
Si Si6 0.978317 0.452437 0.339636
Si Si7 0.459049 0.546207 0.833155
Si Si8 0.833678 0.310692 0.105015
O O1 0.607248 0.067291 0.780563
O O2 0.640529 0.143643 0.845269
O O3 0.000000 0.111542 0.000000
O O4 0.867621 0.081235 0.035306
O O5 0.500000 0.717697 0.500000
O O6 0.677797 0.744857 0.722136
O O7 0.763538 0.782768 0.663064
O O8 0.932628 0.704858 0.787359
O O9 0.633387 0.640851 0.317761
O O10 0.842708 0.581575 0.521659
O O11 0.620564 0.560042 0.287377
O O12 0.000000 0.605618 0.500000
O O13 0.080242 0.798203 0.767210
O O14 0.238111 0.720570 0.879362
O O15 0.500000 0.781459 0.000000
O O16 0.360283 0.685752 0.068245
O O17 0.081489 0.500000 0.391034
O O18 0.762179 0.456663 0.255537
O O19 0.576765 0.500000 0.900688
#
# Coordination Sequence:
#
# PCOD8085090 Si02
#       8
#     8   8   8   8   8   8   8   8
#     4  10  19  29  49  74 103 137 174 214 247 302
#     4  11  24  38  54  78 107 136 174 222 260 306
#     4  10  19  30  47  72 105 136 170 214 251 298
#     4  11  20  37  58  72 102 146 172 209 269 305
#     4  11  21  35  55  79 102 139 184 215 251 314
#     4   9  18  30  44  69 105 141 169 200 256 313
#     4   9  16  28  45  66  97 138 170 201 251 308
#     4  11  21  35  56  78 103 138 184 214 254 310
#
# _framework density 17.133649999999999
#
# number of rings (size 3 to 8) (size 9 to 14) (size 15 to 20)
#    0.000    1.750    3.750    2.250    0.000    7.000 
#    0.000    0.000    0.000    0.000    0.000    0.000 
#    0.000   20.000    0.000    0.000    0.000    0.000 
#
# Total GULP energy -396623.334568 kJ/mol
# GULP energy per Si atom -12394.479205 kJ/mol
# Density = 1.709465 g / cm^3
# Si number density = 17.133650 Si / 1000 Ang^3
#
#
#
# Elastic Constant Matrix: (Units=GPa)
#
#
# Indices 1 2 3 4 5 6 
#
# 1 72.5775 31.6114 31.2239 0.0053 -7.0272 -0.0017
# 2 31.6114 127.9022 41.0670 -0.0020 3.1231 0.0017
# 3 31.2239 41.0670 101.3021 0.0092 -12.9525 -0.0050
# 4 0.0053 -0.0020 0.0092 25.3946 0.0102 10.7794
# 5 -7.0272 3.1231 -12.9525 0.0102 17.2965 -0.0049
# 6 -0.0017 0.0017 -0.0050 10.7794 -0.0049 -12.2302
#
#
#
# Elastic Compliance Matrix: (Units=1/GPa)
#
#
# Indices 1 2 3 4 5 6 
#
# 1 0.017124 -0.003300 -0.003289 -0.000002 0.005090 -0.000006
# 2 -0.003300 0.010002 -0.003804 0.000002 -0.005995 0.000008
# 3 -0.003289 -0.003804 0.013651 -0.000003 0.009573 -0.000012
# 4 -0.000002 0.000002 -0.000003 0.028657 -0.000013 0.025258
# 5 0.005090 -0.005995 0.009573 -0.000013 0.068135 -0.000045
# 6 -0.000006 0.000008 -0.000012 0.025258 -0.000045 -0.059503
#
#
# Mechanical properties :
#
#
# Convention : Reuss Voigt Hill
#
# Bulk Modulus (GPa) = 50.02529 56.62071 53.32300
# Shear Modulus (GPa) = 47.38601 19.28414 33.33507
#
# Velocity S-wave (km/s) = 5.26467 3.35851 4.41567
# Velocity P-wave (km/s) = 8.13733 6.93957 7.56220
#
# Compressibility (1/GPa) = 0.01998989
#
# Stress axis : x y z
#
# Youngs Moduli (GPa) = 58.39842 99.98035 73.25203
#
# Poissons Ratio (x) = 0.32997 0.24095
# Poissons Ratio (y) = 0.19273 0.27865
# Poissons Ratio (z) = 0.19209 0.38033
#
# Static dielectric constant tensor:
#      x y z
#    x 3.019460 -0.000010 -0.205940 
#    y -0.000010 3.298890 0.000000 
#    z -0.205940 0.000000 3.293520 
# 
# 
# High freq. dielectric constant tensor:
#      x y z
#    x 1.621510 0.000000 -0.027460 
#    y 0.000000 1.666070 0.000000 
#    z -0.027460 0.000000 1.665390 
# 
# From -- ./inp_files/266290.got.cif
#   From: 2010.06.25/outbox.cif.g09.slc.cpg/sg12_134_cif.got.tgz:266290.got - 2010.06.28 00:19:55.
