data_PCOD8085196
_publ_section_title
;
Structure prediction by ZEFSAII (Michael W. Deem and Ramdas Pophale) SiO2 
 PCOD8085196
Probable space group: C 2/M
;
_chemical_formula_sum "Si O2"
_cell_formula_units_Z 64
_cell_length_a 9.064842
_cell_length_b 28.625491
_cell_length_c 15.384378
_cell_angle_alpha 90.000000
_cell_angle_beta 91.163205
_cell_angle_gamma 90.000000
_cell_volume 3991.201184
_symmetry_space_group_name_H-M "C 2/M"
_symmetry_group_IT_number 12
_symmetry_cell_setting 'monoclinic'
loop_
_space_group_symop_operation_xyz
x,y,z
-x,y,-z
-x,-y,-z
x,-y,z
1/2+x,1/2+y,z
1/2-x,1/2+y,-z
1/2-x,1/2-y,-z
1/2+x,1/2-y,z
loop_
_atom_site_type_symbol
_atom_site_label
_atom_site_fract_x
_atom_site_fract_y
_atom_site_fract_z
Si Si1 0.181423 0.409874 0.840866
Si Si2 0.600352 0.766464 0.072140
Si Si3 0.353541 0.055529 0.840442
Si Si4 0.333984 0.555389 0.672829
Si Si5 0.661882 0.553287 0.997032
Si Si6 0.666121 0.944562 0.497115
Si Si7 0.169236 0.944794 0.669926
Si Si8 0.682242 0.192590 0.904033
O O1 0.245179 0.418735 0.746907
O O2 0.226090 0.357937 0.870963
O O3 0.007143 0.417420 0.838863
O O4 0.257223 0.444822 0.909659
O O5 0.484395 0.794827 0.132019
O O6 0.701699 0.731720 0.130105
O O7 0.500000 0.737346 0.000000
O O8 0.690661 0.803455 0.010796
O O9 0.265356 0.074988 0.923216
O O10 0.259243 0.070306 0.755724
O O11 0.383643 0.000000 0.844034
O O12 0.324193 0.500000 0.687773
O O13 0.258045 0.570654 0.582323
O O14 0.501933 0.573869 0.674067
O O15 0.636778 0.500000 0.968918
O O16 0.500000 0.577725 0.000000
O O17 0.500000 0.924153 0.500000
O O18 0.748926 0.923677 0.413619
O O19 0.658640 0.000000 0.489637
O O20 0.162225 0.000000 0.660904
#
# Coordination Sequence:
#
# PCOD8085196 Si02
#       8
#     8   8   8   8   8   8   8   8
#     4  12  21  29  45  70  91 120 160 192 230 276
#     4   7  14  32  47  64  81 108 138 182 235 279
#     4  10  20  31  44  61  89 127 163 203 232 254
#     4  10  19  30  44  65  98 131 161 200 231 262
#     4  10  21  34  42  56  88 130 169 198 225 257
#     4   9  16  27  46  67  85 119 168 205 237 274
#     4   9  17  31  46  60  85 127 172 202 235 270
#     4   8  17  29  49  65  84 110 143 182 233 282
#
# _framework density 16.035273
#
# number of rings (size 3 to 8) (size 9 to 14) (size 15 to 20)
#    0.750    1.750    0.000    3.375    3.500    7.000 
#    0.000    1.250    0.000    0.000    0.000    0.000 
#    0.000    0.000    0.000   21.375    1.250    0.000 
#
# Total GULP energy -396458.564043 kJ/mol
# GULP energy per Si atom -12389.330126 kJ/mol
# Density = 1.599878 g / cm^3
# Si number density = 16.035273 Si / 1000 Ang^3
#
#
#
# Elastic Constant Matrix: (Units=GPa)
#
#
# Indices 1 2 3 4 5 6 
#
# 1 117.4192 10.1811 40.6523 0.0000 -6.4564 0.0000
# 2 10.1811 36.8666 9.9109 0.0000 -2.4698 0.0000
# 3 40.6523 9.9109 83.7670 0.0000 -4.7335 0.0000
# 4 0.0000 0.0000 0.0000 10.2945 0.0000 1.8097
# 5 -6.4564 -2.4698 -4.7335 0.0000 30.3194 0.0000
# 6 0.0000 0.0000 0.0000 1.8097 0.0000 10.0439
#
#
#
# Elastic Compliance Matrix: (Units=1/GPa)
#
#
# Indices 1 2 3 4 5 6 
#
# 1 0.010375 -0.001490 -0.004783 0.000000 0.001341 0.000000
# 2 -0.001490 0.028325 -0.002538 0.000000 0.001594 0.000000
# 3 -0.004783 -0.002538 0.014619 0.000000 0.001057 0.000000
# 4 0.000000 0.000000 0.000000 0.100316 0.000000 -0.018075
# 5 0.001341 0.001594 0.001057 0.000000 0.033563 0.000000
# 6 0.000000 0.000000 0.000000 -0.018075 0.000000 0.102819
#
#
# Mechanical properties :
#
#
# Convention : Reuss Voigt Hill
#
# Bulk Modulus (GPa) = 28.01295 39.94903 33.98099
# Shear Modulus (GPa) = 15.64751 21.95214 18.79983
#
# Velocity S-wave (km/s) = 3.12720 3.70400 3.42775
# Velocity P-wave (km/s) = 5.52690 6.57724 6.07482
#
# Compressibility (1/GPa) = 0.03569778
#
# Stress axis : x y z
#
# Youngs Moduli (GPa) = 96.38172 35.30410 68.40316
#
# Poissons Ratio (x) = 0.05259 0.32718
# Poissons Ratio (y) = 0.14356 0.17363
# Poissons Ratio (z) = 0.46101 0.08961
#
# Static dielectric constant tensor:
#      x y z
#    x 3.338570 0.000000 -0.109350 
#    y 0.000000 2.451920 0.000000 
#    z -0.109350 0.000000 2.939060 
# 
# 
# High freq. dielectric constant tensor:
#      x y z
#    x 1.642970 0.000000 -0.006310 
#    y 0.000000 1.548280 0.000000 
#    z -0.006310 0.000000 1.595880 
# 
# From -- ./inp_files/200608.got.cif
#   From: 2010.06.25/outbox.cif.g09.slc.cpg/sg12_101_cif.got.tgz:200608.got - 2010.06.28 00:19:55.
