data_PCOD8085324
_publ_section_title
;
Structure prediction by ZEFSAII (Michael W. Deem and Ramdas Pophale) SiO2 
 PCOD8085324
Probable space group: C 2/M
;
_chemical_formula_sum "Si O2"
_cell_formula_units_Z 64
_cell_length_a 21.904411
_cell_length_b 9.033248
_cell_length_c 18.767961
_cell_angle_alpha 90.000000
_cell_angle_beta 95.224310
_cell_angle_gamma 90.000000
_cell_volume 3698.151728
_symmetry_space_group_name_H-M "C 2/M"
_symmetry_group_IT_number 12
_symmetry_cell_setting 'monoclinic'
loop_
_space_group_symop_operation_xyz
x,y,z
-x,y,-z
-x,-y,-z
x,-y,z
1/2+x,1/2+y,z
1/2-x,1/2+y,-z
1/2-x,1/2-y,-z
1/2+x,1/2-y,z
loop_
_atom_site_type_symbol
_atom_site_label
_atom_site_fract_x
_atom_site_fract_y
_atom_site_fract_z
Si Si1 0.603322 0.826571 0.630102
Si Si2 0.992929 0.165829 0.195031
Si Si3 0.294261 0.171972 0.102687
Si Si4 0.520865 0.330848 0.351164
Si Si5 0.338620 0.328080 0.971960
Si Si6 0.355569 0.328896 0.234474
Si Si7 0.455524 0.827283 0.931011
Si Si8 0.568353 0.833930 0.476674
O O1 0.534883 0.779050 0.641793
O O2 0.649988 0.737270 0.686020
O O3 0.614519 0.791798 0.546906
O O4 0.610263 0.000000 0.646247
O O5 0.037581 0.180362 0.269032
O O6 0.011820 0.285967 0.139167
O O7 0.923409 0.196843 0.211148
O O8 0.998631 0.000000 0.163653
O O9 0.223432 0.200588 0.077915
O O10 0.306900 0.244669 0.180169
O O11 0.310967 0.000000 0.106495
O O12 0.337292 0.246693 0.047801
O O13 0.502657 0.500000 0.367962
O O14 0.575952 0.276262 0.409423
O O15 0.349743 0.500000 0.988215
O O16 0.392936 0.263636 0.930173
O O17 0.337728 0.500000 0.235588
O O18 0.440103 0.000000 0.929801
O O19 0.500000 0.782640 0.000000
O O20 0.500000 0.821275 0.500000
O O21 0.582166 0.000000 0.451822
#
# Coordination Sequence:
#
# PCOD8085324 Si02
#       8
#     8   8   8   8   8   8   8   8
#     4   9  16  25  37  56  85 118 151 187 224 267
#     4   9  19  32  44  63  91 122 155 188 227 274
#     4  10  20  34  52  72  93 118 150 187 227 271
#     4   9  16  25  38  57  82 114 152 190 226 268
#     4  10  21  36  53  71  92 120 151 186 228 271
#     4  10  19  30  46  68  93 123 156 189 229 272
#     4  11  23  35  49  70  93 119 153 191 229 269
#     4   8  14  23  35  53  79 114 151 184 223 267
#
# _framework density 17.305941000000001
#
# number of rings (size 3 to 8) (size 9 to 14) (size 15 to 20)
#    0.000    2.500    0.000    4.500    0.000   10.250 
#    0.000    0.000    0.000    0.000    0.000    0.000 
#    0.000    1.000    0.000    3.250    0.000    5.375 
#
# Total GULP energy -396667.747928 kJ/mol
# GULP energy per Si atom -12395.867123 kJ/mol
# Density = 1.726655 g / cm^3
# Si number density = 17.305941 Si / 1000 Ang^3
#
#
#
# Elastic Constant Matrix: (Units=GPa)
#
#
# Indices 1 2 3 4 5 6 
#
# 1 29.7082 26.7566 18.9660 0.0000 3.5286 0.0000
# 2 26.7566 100.3533 60.6732 0.0000 12.4738 0.0000
# 3 18.9660 60.6732 128.1572 0.0000 23.4156 0.0000
# 4 0.0000 0.0000 0.0000 36.8478 0.0000 2.4476
# 5 3.5286 12.4738 23.4156 0.0000 16.7191 0.0000
# 6 0.0000 0.0000 0.0000 2.4476 0.0000 17.8434
#
#
#
# Elastic Compliance Matrix: (Units=1/GPa)
#
#
# Indices 1 2 3 4 5 6 
#
# 1 0.044478 -0.011059 -0.001531 0.000000 0.001008 0.000000
# 2 -0.011059 0.016741 -0.005958 0.000000 -0.001812 0.000000
# 3 -0.001531 -0.005958 0.013411 0.000000 -0.014014 0.000000
# 4 0.000000 0.000000 0.000000 0.027388 0.000000 -0.003757
# 5 0.001008 -0.001812 -0.014014 0.000000 0.080578 0.000000
# 6 0.000000 0.000000 0.000000 -0.003757 0.000000 0.056558
#
#
# Mechanical properties :
#
#
# Convention : Reuss Voigt Hill
#
# Bulk Modulus (GPa) = 26.64214 52.33447 39.48830
# Shear Modulus (GPa) = 17.31540 24.40359 20.85950
#
# Velocity S-wave (km/s) = 3.16657 3.75924 3.47556
# Velocity P-wave (km/s) = 5.36636 7.01063 6.24286
#
# Compressibility (1/GPa) = 0.03753452
#
# Stress axis : x y z
#
# Youngs Moduli (GPa) = 22.48282 59.73502 74.56799
#
# Poissons Ratio (x) = 0.66059 0.11416
# Poissons Ratio (y) = 0.24863 0.44427
# Poissons Ratio (z) = 0.03442 0.35589
#
# Static dielectric constant tensor:
#      x y z
#    x 2.693610 0.000000 0.281860 
#    y 0.000000 3.340940 0.000000 
#    z 0.281860 0.000000 3.778550 
# 
# 
# High freq. dielectric constant tensor:
#      x y z
#    x 1.597760 0.000000 0.023410 
#    y 0.000000 1.684120 0.000000 
#    z 0.023410 0.000000 1.684480 
# 
# From -- ./inp_files/287704.got.cif
#   From: 2010.06.25/outbox.cif.g09.slc.cpg/sg12_144_cif.got.tgz:287704.got - 2010.06.28 00:19:55.
