data_PCOD8085451
_publ_section_title
;
Structure prediction by ZEFSAII (Michael W. Deem and Ramdas Pophale) SiO2 
 PCOD8085451
Probable space group: C 2/M
;
_chemical_formula_sum "Si O2"
_cell_formula_units_Z 56
_cell_length_a 18.704947
_cell_length_b 9.349434
_cell_length_c 17.852223
_cell_angle_alpha 90.000000
_cell_angle_beta 90.354136
_cell_angle_gamma 90.000000
_cell_volume 3121.949039
_symmetry_space_group_name_H-M "C 2/M"
_symmetry_group_IT_number 12
_symmetry_cell_setting 'monoclinic'
loop_
_space_group_symop_operation_xyz
x,y,z
-x,y,-z
-x,-y,-z
x,-y,z
1/2+x,1/2+y,z
1/2-x,1/2+y,-z
1/2-x,1/2-y,-z
1/2+x,1/2-y,z
loop_
_atom_site_type_symbol
_atom_site_label
_atom_site_fract_x
_atom_site_fract_y
_atom_site_fract_z
Si Si1 0.793766 0.669908 0.740741
Si Si2 0.656115 0.657158 0.552224
Si Si3 0.323912 0.841874 0.580810
Si Si4 0.109786 0.665045 0.123104
Si Si5 0.133218 0.830484 0.717924
Si Si6 0.916837 0.161997 0.017766
Si Si7 0.554941 0.165763 0.840424
O O1 0.796913 0.500000 0.734100
O O2 0.829580 0.729510 0.663840
O O3 0.837746 0.725333 0.812404
O O4 0.711520 0.717745 0.747596
O O5 0.625562 0.500000 0.535579
O O6 0.632676 0.753699 0.481616
O O7 0.741060 0.650293 0.559339
O O8 0.623930 0.713041 0.630685
O O9 0.357624 0.000000 0.580831
O O10 0.126204 0.500000 0.103631
O O11 0.124902 0.759846 0.049815
O O12 0.029491 0.682291 0.151261
O O13 0.074951 0.739654 0.762442
O O14 0.121530 0.000000 0.729494
O O15 0.887844 0.000000 0.027402
O O16 0.903248 0.251372 0.093198
O O17 0.000000 0.160556 0.000000
O O18 0.577963 0.000000 0.841777
#
# Coordination Sequence:
#
# PCOD8085451 Si02
#       7
#     8   8   8   8   8   8   8
#     4   8  15  29  48  68  90 118 149 182 223 265
#     4   8  14  24  39  61  87 114 144 179 218 256
#     4   8  13  23  41  63  85 111 145 181 216 257
#     4   9  17  31  50  69  90 115 146 185 224 262
#     4   9  17  30  47  66  91 121 150 181 220 266
#     4   9  17  30  48  68  89 115 149 184 217 260
#     4  10  19  30  47  70  92 115 146 184 224 263
#
# _framework density 17.937512000000002
#
# number of rings (size 3 to 8) (size 9 to 14) (size 15 to 20)
#    0.000    3.286    0.000    2.571    0.000    2.857 
#    0.000    4.286    0.000    0.857    0.000    6.000 
#    0.000    0.000    0.000    0.000    0.000    0.000 
#
# Total GULP energy -347037.171904 kJ/mol
# GULP energy per Si atom -12394.184711 kJ/mol
# Density = 1.789669 g / cm^3
# Si number density = 17.937512 Si / 1000 Ang^3
#
#
#
# Elastic Constant Matrix: (Units=GPa)
#
#
# Indices 1 2 3 4 5 6 
#
# 1 12.1568 6.2192 -2.1253 0.0000 -1.5964 0.0000
# 2 6.2192 71.2015 20.4525 0.0000 -12.2009 0.0000
# 3 -2.1253 20.4525 43.8068 0.0000 -15.1378 0.0000
# 4 0.0000 0.0000 0.0000 35.3174 0.0000 -5.0160
# 5 -1.5964 -12.2009 -15.1378 0.0000 25.2190 0.0000
# 6 0.0000 0.0000 0.0000 -5.0160 0.0000 13.9154
#
#
#
# Elastic Compliance Matrix: (Units=1/GPa)
#
#
# Indices 1 2 3 4 5 6 
#
# 1 0.090439 -0.009913 0.011780 0.000000 0.008000 0.000000
# 2 -0.009913 0.017661 -0.007558 0.000000 0.003380 0.000000
# 3 0.011780 -0.007558 0.032706 0.000000 0.016721 0.000000
# 4 0.000000 0.000000 0.000000 0.029842 0.000000 0.010757
# 5 0.008000 0.003380 0.016721 0.000000 0.051831 0.000000
# 6 0.000000 0.000000 0.000000 0.010757 0.000000 0.075741
#
#
# Mechanical properties :
#
#
# Convention : Reuss Voigt Hill
#
# Bulk Modulus (GPa) = 7.72652 19.58422 13.65537
# Shear Modulus (GPa) = 14.17463 21.73160 17.95312
#
# Velocity S-wave (km/s) = 2.81414 3.48446 3.16709
# Velocity P-wave (km/s) = 3.85694 5.20868 4.58292
#
# Compressibility (1/GPa) = 0.12942432
#
# Stress axis : x y z
#
# Youngs Moduli (GPa) = 11.05715 56.62266 30.57551
#
# Poissons Ratio (x) = 0.56127 -0.36019
# Poissons Ratio (y) = 0.10960 0.23110
# Poissons Ratio (z) = -0.13026 0.42798
#
# Static dielectric constant tensor:
#      x y z
#    x 2.857940 0.000000 0.053010 
#    y 0.000000 3.379330 0.000000 
#    z 0.053010 0.000000 3.612680 
# 
# 
# High freq. dielectric constant tensor:
#      x y z
#    x 1.640480 0.000000 -0.003950 
#    y 0.000000 1.680630 0.000000 
#    z -0.003950 0.000000 1.709600 
# 
# From -- ./inp_files/280298.got.cif
#   From: 2010.06.25/outbox.cif.g09.slc.cpg/sg12_141_cif.got.tgz:280298.got - 2010.06.28 00:19:55.
