data_PCOD8085321
_publ_section_title
;
Structure prediction by ZEFSAII (Michael W. Deem and Ramdas Pophale) SiO2 
 PCOD8085321
Probable space group: C 2/M
;
_chemical_formula_sum "Si O2"
_cell_formula_units_Z 56
_cell_length_a 8.860179
_cell_length_b 18.326447
_cell_length_c 25.403421
_cell_angle_alpha 90.000000
_cell_angle_beta 134.230999
_cell_angle_gamma 90.000000
_cell_volume 2955.625214
_symmetry_space_group_name_H-M "C 2/M"
_symmetry_group_IT_number 12
_symmetry_cell_setting 'monoclinic'
loop_
_space_group_symop_operation_xyz
x,y,z
-x,y,-z
-x,-y,-z
x,-y,z
1/2+x,1/2+y,z
1/2-x,1/2+y,-z
1/2-x,1/2-y,-z
1/2+x,1/2-y,z
loop_
_atom_site_type_symbol
_atom_site_label
_atom_site_fract_x
_atom_site_fract_y
_atom_site_fract_z
Si Si1 0.383692 0.171591 0.281522
Si Si2 0.983279 0.081706 0.581286
Si Si3 0.961027 0.418110 0.140896
Si Si4 0.158135 0.581706 0.418715
Si Si5 0.820549 0.170675 0.000000
Si Si6 0.602558 0.581890 0.140897
Si Si7 0.257608 0.828408 0.718479
O O1 0.472086 0.136742 0.357277
O O2 0.194919 0.120642 0.215098
O O3 0.564699 0.178726 0.282350
O O4 0.290660 0.249999 0.270331
O O5 0.768376 0.107962 0.500001
O O6 0.171184 0.079875 0.585591
O O7 0.042984 0.136742 0.642725
O O8 0.952184 0.000000 0.596486
O O9 0.022534 0.500000 0.138182
O O10 0.165466 0.379356 0.215096
O O11 0.881133 0.372777 0.071192
O O12 0.778268 0.421743 0.139134
O O13 0.066245 0.500000 0.403517
O O14 0.750000 0.250000 0.000000
O O15 0.000000 0.177918 0.000000
O O16 0.903636 0.127224 0.071193
O O17 0.530190 0.500000 0.138181
#
# Coordination Sequence:
#
# PCOD8085321 Si02
#       7
#     8   8   8   8   8   8   8
#     4  10  19  30  46  68  93 119 147 183 226 268
#     4   8  14  26  45  67  88 113 150 191 223 255
#     4   9  17  30  49  70  89 115 155 193 219 252
#     4   8  14  26  45  67  88 113 150 191 223 255
#     4  10  19  31  49  71  95 120 146 182 226 268
#     4   9  17  30  49  70  89 115 155 193 219 252
#     4  10  19  30  46  68  93 119 147 183 226 268
#
# _framework density 18.946923000000002
#
# number of rings (size 3 to 8) (size 9 to 14) (size 15 to 20)
#    0.000    2.857    0.000    3.000    0.000    5.714 
#    0.000    0.000    0.000    6.857    0.000    2.000 
#    0.000    0.000    0.000    0.000    0.000    0.000 
#
# Total GULP energy -347118.730453 kJ/mol
# GULP energy per Si atom -12397.097516 kJ/mol
# Density = 1.890380 g / cm^3
# Si number density = 18.946923 Si / 1000 Ang^3
#
#
#
# Elastic Constant Matrix: (Units=GPa)
#
#
# Indices 1 2 3 4 5 6 
#
# 1 10.2872 19.4484 18.9298 0.0000 -1.6345 0.0001
# 2 19.4484 186.2862 108.5105 0.0000 -6.7022 0.0000
# 3 18.9298 108.5105 188.6352 0.0003 -11.7884 0.0001
# 4 0.0000 0.0000 0.0003 34.0110 0.0001 -0.6542
# 5 -1.6345 -6.7022 -11.7884 0.0001 7.3025 0.0001
# 6 0.0001 0.0000 0.0001 -0.6542 0.0001 25.3040
#
#
#
# Elastic Compliance Matrix: (Units=1/GPa)
#
#
# Indices 1 2 3 4 5 6 
#
# 1 0.128794 -0.008905 -0.007242 0.000000 0.008964 0.000000
# 2 -0.008905 0.008689 -0.004149 0.000000 -0.000717 0.000000
# 3 -0.007242 -0.004149 0.008982 0.000000 0.009070 0.000000
# 4 0.000000 0.000000 0.000000 0.029417 -0.000001 0.000761
# 5 0.008964 -0.000717 0.009070 -0.000001 0.152930 -0.000001
# 6 0.000000 0.000000 0.000000 0.000761 -0.000001 0.039539
#
#
# Mechanical properties :
#
#
# Convention : Reuss Voigt Hill
#
# Bulk Modulus (GPa) = 9.44543 75.44289 42.44416
# Shear Modulus (GPa) = 11.25533 29.21148 20.23341
#
# Velocity S-wave (km/s) = 2.43995 3.93078 3.27142
# Velocity P-wave (km/s) = 3.59636 7.77855 6.05969
#
# Compressibility (1/GPa) = 0.10587127
#
# Stress axis : x y z
#
# Youngs Moduli (GPa) = 7.76436 115.08775 111.33788
#
# Poissons Ratio (x) = 1.02490 0.80628
# Poissons Ratio (y) = 0.06914 0.46199
# Poissons Ratio (z) = 0.05623 0.47755
#
# Static dielectric constant tensor:
#      x y z
#    x 2.796770 0.000000 -0.085820 
#    y 0.000000 3.588530 0.000000 
#    z -0.085820 0.000000 3.936890 
# 
# 
# High freq. dielectric constant tensor:
#      x y z
#    x 1.664400 0.000000 -0.007090 
#    y 0.000000 1.746460 0.000000 
#    z -0.007090 0.000000 1.758660 
# 
# From -- ./inp_files/263831.got.cif
#   From: 2010.06.25/outbox.cif.g09.slc.cpg/sg12_132_cif.got.tgz:263831.got - 2010.06.28 00:19:55.
