data_PCOD8085207
_publ_section_title
;
Structure prediction by ZEFSAII (Michael W. Deem and Ramdas Pophale) SiO2 
 PCOD8085207
Probable space group: C 2/M
;
_chemical_formula_sum "Si O2"
_cell_formula_units_Z 44
_cell_length_a 26.940080
_cell_length_b 12.004704
_cell_length_c 11.251340
_cell_angle_alpha 90.000000
_cell_angle_beta 140.079404
_cell_angle_gamma 90.000000
_cell_volume 2335.090888
_symmetry_space_group_name_H-M "C 2/M"
_symmetry_group_IT_number 12
_symmetry_cell_setting 'monoclinic'
loop_
_space_group_symop_operation_xyz
x,y,z
-x,y,-z
-x,-y,-z
x,-y,z
1/2+x,1/2+y,z
1/2-x,1/2+y,-z
1/2-x,1/2-y,-z
1/2+x,1/2-y,z
loop_
_atom_site_type_symbol
_atom_site_label
_atom_site_fract_x
_atom_site_fract_y
_atom_site_fract_z
Si Si1 0.152941 0.000000 0.514363
Si Si2 0.405430 0.314069 0.048740
Si Si3 0.013975 0.000000 0.664037
Si Si4 0.589728 0.500000 0.135582
Si Si5 0.492194 0.876260 0.849514
Si Si6 0.729845 0.190671 0.278852
Si Si7 0.679784 0.879752 0.427762
O O1 0.141248 0.000000 0.350123
O O2 0.203931 0.107187 0.648553
O O3 0.068655 0.000000 0.420262
O O4 0.433744 0.392601 0.207817
O O5 0.470162 0.219272 0.159899
O O6 0.393673 0.387609 0.907912
O O7 0.324352 0.246771 0.923313
O O8 0.000000 0.000000 0.500000
O O9 0.500000 0.500000 0.000000
O O10 0.401655 0.874356 0.655513
O O11 0.526434 0.000000 0.884936
O O12 0.500000 0.843958 0.000000
O O13 0.672811 0.131859 0.270505
O O14 0.767393 0.289305 0.418767
O O15 0.718272 0.000000 0.523680
#
# Coordination Sequence:
#
# PCOD8085207 Si02
#       7
#     4   8   4   4   8   8   8
#     4  12  23  39  58  90 124 154 190 244 295 368
#     4  11  22  36  60  88 120 154 201 241 288 356
#     4  11  27  48  68  82 103 150 212 269 303 342
#     4  11  20  32  56  90 123 167 200 233 279 345
#     4  10  19  30  50  81 127 166 187 214 271 355
#     4  11  22  30  52  84 119 155 189 228 292 337
#     4  10  19  30  44  76 130 163 185 212 264 354
#
# _framework density 18.842949999999998
#
# number of rings (size 3 to 8) (size 9 to 14) (size 15 to 20)
#    0.000    1.273    4.545    3.818    3.818    0.000 
#    0.000    0.909    0.000    0.545    0.000    0.000 
#    0.000    0.000    0.000    0.000    0.000    0.000 
#
# Total GULP energy -272599.981004 kJ/mol
# GULP energy per Si atom -12390.908227 kJ/mol
# Density = 1.880006 g / cm^3
# Si number density = 18.842950 Si / 1000 Ang^3
#
#
#
# Elastic Constant Matrix: (Units=GPa)
#
#
# Indices 1 2 3 4 5 6 
#
# 1 34.9771 22.6607 36.7639 0.0000 -2.4810 0.0000
# 2 22.6607 121.3937 49.9785 0.0000 1.3762 0.0000
# 3 36.7639 49.9785 97.9096 0.0000 2.2541 0.0000
# 4 0.0000 0.0000 0.0000 9.7180 0.0000 7.8010
# 5 -2.4810 1.3762 2.2541 0.0000 25.3316 0.0000
# 6 0.0000 0.0000 0.0000 7.8010 0.0000 14.9173
#
#
#
# Elastic Compliance Matrix: (Units=1/GPa)
#
#
# Indices 1 2 3 4 5 6 
#
# 1 0.048605 -0.001989 -0.017383 0.000000 0.006415 0.000000
# 2 -0.001989 0.010511 -0.004610 0.000000 -0.000356 0.000000
# 3 -0.017383 -0.004610 0.019167 0.000000 -0.003158 0.000000
# 4 0.000000 0.000000 0.000000 0.177354 0.000000 -0.092747
# 5 0.006415 -0.000356 -0.003158 0.000000 0.040405 0.000000
# 6 0.000000 0.000000 0.000000 -0.092747 0.000000 0.115538
#
#
# Mechanical properties :
#
#
# Convention : Reuss Voigt Hill
#
# Bulk Modulus (GPa) = 32.98401 52.56519 42.77460
# Shear Modulus (GPa) = 10.64623 19.65186 15.14905
#
# Velocity S-wave (km/s) = 2.37955 3.23294 2.83850
# Velocity P-wave (km/s) = 5.00923 6.47248 5.78728
#
# Compressibility (1/GPa) = 0.03031772
#
# Stress axis : x y z
#
# Youngs Moduli (GPa) = 20.57416 95.13721 52.17406
#
# Poissons Ratio (x) = 0.18925 0.90693
# Poissons Ratio (y) = 0.04093 0.24054
# Poissons Ratio (z) = 0.35764 0.43862
#
# Static dielectric constant tensor:
#      x y z
#    x 3.053750 0.000000 0.458590 
#    y 0.000000 3.905530 0.000000 
#    z 0.458590 0.000000 3.491650 
# 
# 
# High freq. dielectric constant tensor:
#      x y z
#    x 1.661640 0.000000 0.054390 
#    y 0.000000 1.762920 0.000000 
#    z 0.054390 0.000000 1.726980 
# 
# From -- ./inp_files/182420.got.cif
#   From: 2010.06.25/outbox.cif.g09.slc.cpg/sg12_92_cif.got.tgz:182420.got - 2010.06.28 00:19:55.
