data_PCOD8085750
_publ_section_title
;
Structure prediction by ZEFSAII (Michael W. Deem and Ramdas Pophale) SiO2 
 PCOD8085750
Probable space group: C 2/M
;
_chemical_formula_sum "Si O2"
_cell_formula_units_Z 64
_cell_length_a 20.311821
_cell_length_b 13.673708
_cell_length_c 25.529621
_cell_angle_alpha 90.000000
_cell_angle_beta 29.378449
_cell_angle_gamma 90.000000
_cell_volume 3478.450669
_symmetry_space_group_name_H-M "C 2/M"
_symmetry_group_IT_number 12
_symmetry_cell_setting 'monoclinic'
loop_
_space_group_symop_operation_xyz
x,y,z
-x,y,-z
-x,-y,-z
x,-y,z
1/2+x,1/2+y,z
1/2-x,1/2+y,-z
1/2-x,1/2-y,-z
1/2+x,1/2-y,z
loop_
_atom_site_type_symbol
_atom_site_label
_atom_site_fract_x
_atom_site_fract_y
_atom_site_fract_z
Si Si1 0.488068 0.276630 0.628568
Si Si2 0.635179 0.648448 0.383542
Si Si3 0.989781 0.389121 0.310798
Si Si4 0.616384 0.104817 0.851441
Si Si5 0.616572 0.795458 0.039816
Si Si6 0.262798 0.383345 0.580916
Si Si7 0.715786 0.887214 0.072923
Si Si8 0.228399 0.887664 0.157565
O O1 0.421963 0.266122 0.615820
O O2 0.521118 0.169175 0.627150
O O3 0.617665 0.346586 0.538988
O O4 0.393335 0.324045 0.737537
O O5 0.500000 0.593141 0.500000
O O6 0.735279 0.588145 0.276893
O O7 0.723479 0.676584 0.373366
O O8 0.959288 0.500000 0.347760
O O9 0.877601 0.353081 0.347370
O O10 0.135630 0.379023 0.183050
O O11 0.640723 0.127509 0.895800
O O12 0.540403 0.000000 0.897876
O O13 0.530648 0.189962 0.883463
O O14 0.649502 0.679337 0.018518
O O15 0.732016 0.849583 0.926875
O O16 0.617924 0.845085 0.095782
O O17 0.272245 0.500000 0.584887
O O18 0.755902 0.000000 0.034142
O O19 0.183983 0.000000 0.185576
#
# Coordination Sequence:
#
# PCOD8085750 Si02
#       8
#     8   8   8   8   8   8   8   8
#     4  10  19  33  50  79 109 141 175 211 262 317
#     4   9  19  32  52  78 110 139 167 210 261 317
#     4  10  20  36  55  76 104 140 183 222 259 309
#     4  10  19  30  49  77 107 135 165 206 255 316
#     4  11  20  33  52  74 103 134 170 212 259 310
#     4  10  19  31  53  82 111 139 170 216 268 319
#     4  10  21  35  53  74  98 135 178 216 256 305
#     4  10  19  31  49  75 107 136 164 205 262 316
#
# _framework density 18.398997000000001
#
# number of rings (size 3 to 8) (size 9 to 14) (size 15 to 20)
#    0.000    2.000    1.250    3.375    0.000    8.000 
#    0.000    0.000    0.000    7.875    0.000    0.000 
#    0.000    0.000    0.000    0.000    0.000    0.000 
#
# Total GULP energy -396464.424014 kJ/mol
# GULP energy per Si atom -12389.513250 kJ/mol
# Density = 1.835712 g / cm^3
# Si number density = 18.398997 Si / 1000 Ang^3
#
#
#
# Elastic Constant Matrix: (Units=GPa)
#
#
# Indices 1 2 3 4 5 6 
#
# 1 91.1911 54.5108 13.5391 0.0015 1.0016 -0.0002
# 2 54.5108 93.3370 19.4861 0.0011 -5.4881 -0.0005
# 3 13.5391 19.4861 45.5081 0.0019 0.6489 -0.0012
# 4 0.0015 0.0011 0.0019 19.6598 -0.0017 -1.8911
# 5 1.0016 -5.4881 0.6489 -0.0017 27.1468 0.0003
# 6 -0.0002 -0.0005 -0.0012 -1.8911 0.0003 22.8152
#
#
#
# Elastic Compliance Matrix: (Units=1/GPa)
#
#
# Indices 1 2 3 4 5 6 
#
# 1 0.017062 -0.009957 -0.000775 -0.000001 -0.002624 0.000000
# 2 -0.009957 0.017748 -0.004695 0.000001 0.004068 0.000000
# 3 -0.000775 -0.004695 0.024237 -0.000002 -0.001500 0.000001
# 4 -0.000001 0.000001 -0.000002 0.051274 0.000003 0.004250
# 5 -0.002624 0.004068 -0.001500 0.000003 0.037792 0.000000
# 6 0.000000 0.000000 0.000001 0.004250 0.000000 0.044183
#
#
# Mechanical properties :
#
#
# Convention : Reuss Voigt Hill
#
# Bulk Modulus (GPa) = 35.47126 45.01201 40.24164
# Shear Modulus (GPa) = 21.50099 23.42438 22.46269
#
# Velocity S-wave (km/s) = 3.42218 3.57197 3.49788
# Velocity P-wave (km/s) = 5.91066 6.44434 6.18326
#
# Compressibility (1/GPa) = 0.02819184
#
# Stress axis : x y z
#
# Youngs Moduli (GPa) = 58.61058 56.34333 41.25981
#
# Poissons Ratio (x) = 0.56100 0.03199
# Poissons Ratio (y) = 0.58358 0.19373
# Poissons Ratio (z) = 0.04544 0.26455
#
# Static dielectric constant tensor:
#      x y z
#    x 3.436540 0.000000 0.097770 
#    y 0.000000 3.169210 0.000000 
#    z 0.097770 0.000000 3.489930 
# 
# 
# High freq. dielectric constant tensor:
#      x y z
#    x 1.711540 0.000000 0.009460 
#    y 0.000000 1.676770 0.000000 
#    z 0.009460 0.000000 1.723290 
# 
# From -- ./inp_files/366037.got.cif
#   From: 2010.06.25/outbox.cif.g09.slc.cpg/sg12_184_cif.got.tgz:366037.got - 2010.06.28 00:19:55.
