data_PCOD8085065
_publ_section_title
;
Structure prediction by ZEFSAII (Michael W. Deem and Ramdas Pophale) SiO2 
 PCOD8085065
Probable space group: C 2/M
;
_chemical_formula_sum "Si O2"
_cell_formula_units_Z 40
_cell_length_a 24.316281
_cell_length_b 9.446344
_cell_length_c 12.425270
_cell_angle_alpha 90.000000
_cell_angle_beta 58.431819
_cell_angle_gamma 90.000000
_cell_volume 2431.730328
_symmetry_space_group_name_H-M "C 2/M"
_symmetry_group_IT_number 12
_symmetry_cell_setting 'monoclinic'
loop_
_space_group_symop_operation_xyz
x,y,z
-x,y,-z
-x,-y,-z
x,-y,z
1/2+x,1/2+y,z
1/2-x,1/2+y,-z
1/2-x,1/2-y,-z
1/2+x,1/2-y,z
loop_
_atom_site_type_symbol
_atom_site_label
_atom_site_fract_x
_atom_site_fract_y
_atom_site_fract_z
Si Si1 0.212177 0.838332 0.396887
Si Si2 0.663765 0.664310 0.675433
Si Si3 0.338706 0.836755 0.978075
Si Si4 0.692291 0.660944 0.182536
Si Si5 0.574853 0.165236 0.912491
O O1 0.271644 0.731396 0.341929
O O2 0.163579 0.816332 0.546271
O O3 0.172973 0.808940 0.326561
O O4 0.239377 0.000000 0.367726
O O5 0.661377 0.500000 0.710863
O O6 0.601557 0.744808 0.784987
O O7 0.350577 0.755226 0.853658
O O8 0.348576 0.000000 0.941621
O O9 0.267951 0.802056 0.095519
O O10 0.390041 0.785312 0.014007
O O11 0.678961 0.500000 0.163367
O O12 0.587830 0.000000 0.876658
O O13 0.500000 0.199808 0.000000
#
# Coordination Sequence:
#
# PCOD8085065 Si02
#       5
#     8   8   8   8   8
#     4   9  17  31  48  69  99 129 154 188 239 291
#     4  10  19  29  47  73  98 123 157 199 237 277
#     4   9  17  29  45  68  94 120 156 195 231 277
#     4   9  16  28  47  68  95 124 149 189 237 283
#     4  10  20  35  52  67  93 132 164 193 234 283
#
# _framework density 16.449193000000001
#
# number of rings (size 3 to 8) (size 9 to 14) (size 15 to 20)
#    0.000    2.600    2.000    0.600    0.000    2.800 
#    0.000    0.000    0.000    1.200    0.000    8.400 
#    0.000    0.000    0.000    0.000    0.000    0.000 
#
# Total GULP energy -247981.097858 kJ/mol
# GULP energy per Si atom -12399.054893 kJ/mol
# Density = 1.641175 g / cm^3
# Si number density = 16.449193 Si / 1000 Ang^3
#
#
#
# Elastic Constant Matrix: (Units=GPa)
#
#
# Indices 1 2 3 4 5 6 
#
# 1 79.0471 38.7377 53.7847 0.0000 11.5756 0.0000
# 2 38.7377 77.6778 63.7177 0.0000 5.1700 0.0000
# 3 53.7847 63.7177 116.3066 0.0000 16.5119 0.0000
# 4 0.0000 0.0000 0.0000 29.4643 0.0000 4.1297
# 5 11.5756 5.1700 16.5119 0.0000 27.9604 0.0000
# 6 0.0000 0.0000 0.0000 4.1297 0.0000 21.5132
#
#
#
# Elastic Compliance Matrix: (Units=1/GPa)
#
#
# Indices 1 2 3 4 5 6 
#
# 1 0.019508 -0.004564 -0.005997 0.000000 -0.003691 0.000000
# 2 -0.004564 0.024773 -0.012093 0.000000 0.004450 0.000000
# 3 -0.005997 -0.012093 0.018912 0.000000 -0.006450 0.000000
# 4 0.000000 0.000000 0.000000 0.034878 0.000000 -0.006695
# 5 -0.003691 0.004450 -0.006450 0.000000 0.040279 0.000000
# 6 0.000000 0.000000 0.000000 -0.006695 0.000000 0.047768
#
#
# Mechanical properties :
#
#
# Convention : Reuss Voigt Hill
#
# Bulk Modulus (GPa) = 55.91146 65.05686 60.48416
# Shear Modulus (GPa) = 21.06253 23.57367 22.31810
#
# Velocity S-wave (km/s) = 3.58223 3.78976 3.68746
# Velocity P-wave (km/s) = 7.15360 7.66719 7.41484
#
# Compressibility (1/GPa) = 0.01788542
#
# Stress axis : x y z
#
# Youngs Moduli (GPa) = 51.26051 40.36616 52.87617
#
# Poissons Ratio (x) = 0.18422 0.31711
# Poissons Ratio (y) = 0.23394 0.63944
# Poissons Ratio (z) = 0.30742 0.48816
#
# Static dielectric constant tensor:
#      x y z
#    x 2.866820 0.000000 0.279730 
#    y 0.000000 3.150190 0.000000 
#    z 0.279730 0.000000 3.224690 
# 
# 
# High freq. dielectric constant tensor:
#      x y z
#    x 1.598640 0.000000 0.028150 
#    y 0.000000 1.637370 0.000000 
#    z 0.028150 0.000000 1.629320 
# 
# From -- ./inp_files/93666.got.cif
#   From: 2010.06.25/outbox.cif.g09.slc.cpg/sg12_47_cif.got.tgz:93666.got - 2010.06.28 00:19:55.
