data_PCOD8085967
_publ_section_title
;
Structure prediction by ZEFSAII (Michael W. Deem and Ramdas Pophale) SiO2 
 PCOD8085967
Probable space group: C 2/M
;
_chemical_formula_sum "Si O2"
_cell_formula_units_Z 48
_cell_length_a 23.136869
_cell_length_b 8.619445
_cell_length_c 24.390592
_cell_angle_alpha 90.000000
_cell_angle_beta 34.462518
_cell_angle_gamma 90.000000
_cell_volume 2752.457288
_symmetry_space_group_name_H-M "C 2/M"
_symmetry_group_IT_number 12
_symmetry_cell_setting 'monoclinic'
loop_
_space_group_symop_operation_xyz
x,y,z
-x,y,-z
-x,-y,-z
x,-y,z
1/2+x,1/2+y,z
1/2-x,1/2+y,-z
1/2-x,1/2-y,-z
1/2+x,1/2-y,z
loop_
_atom_site_type_symbol
_atom_site_label
_atom_site_fract_x
_atom_site_fract_y
_atom_site_fract_z
Si Si1 0.165961 0.182745 0.025702
Si Si2 0.989253 0.682925 0.780081
Si Si3 0.789905 0.816519 0.412183
Si Si4 0.631290 0.815667 0.447779
Si Si5 0.326548 0.817342 0.817856
Si Si6 0.596229 0.184733 0.355825
O O1 0.058736 0.267173 0.123175
O O2 0.153010 0.000000 0.044513
O O3 0.250000 0.250000 0.000000
O O4 0.211198 0.220664 0.929420
O O5 0.005837 0.500000 0.765477
O O6 0.095676 0.766856 0.689099
O O7 0.913413 0.744717 0.791702
O O8 0.750000 0.750000 0.500000
O O9 0.719121 0.748833 0.418545
O O10 0.782076 0.000000 0.420941
O O11 0.521105 0.758368 0.555676
O O12 0.647666 0.755670 0.372309
O O13 0.633916 0.000000 0.446142
O O14 0.343226 0.745661 0.744106
O O15 0.342218 0.000000 0.803166
O O16 0.599308 0.000000 0.352553
#
# Coordination Sequence:
#
# PCOD8085967 Si02
#       6
#     8   8   8   8   8   8
#     4   9  16  27  43  67  95 123 152 188 229 272
#     4  10  19  31  46  67  93 123 153 187 227 270
#     4  11  21  32  46  68  94 121 150 182 220 273
#     4   8  15  25  41  65  92 117 146 181 223 268
#     4   8  14  24  43  68  92 114 146 188 229 266
#     4   8  12  23  42  65  90 115 142 184 230 264
#
# _framework density 17.438962
#
# number of rings (size 3 to 8) (size 9 to 14) (size 15 to 20)
#    0.000    3.000    0.000    4.500    0.000    2.667 
#    0.000    0.000    0.000    1.000    0.000   40.833 
#    0.000    0.000    0.000    0.000    0.000    0.000 
#
# Total GULP energy -297340.410171 kJ/mol
# GULP energy per Si atom -12389.183757 kJ/mol
# Density = 1.739927 g / cm^3
# Si number density = 17.438962 Si / 1000 Ang^3
#
#
#
# Elastic Constant Matrix: (Units=GPa)
#
#
# Indices 1 2 3 4 5 6 
#
# 1 106.2893 17.2479 75.3591 -0.0001 9.0582 0.0004
# 2 17.2479 30.5091 17.7402 0.0003 1.2762 0.0000
# 3 75.3591 17.7402 171.9419 0.0001 15.6494 0.0001
# 4 -0.0001 0.0003 0.0001 25.9767 -0.0001 -2.4758
# 5 9.0582 1.2762 15.6494 -0.0001 28.3886 -0.0002
# 6 0.0004 0.0000 0.0001 -2.4758 -0.0002 14.2027
#
#
#
# Elastic Compliance Matrix: (Units=1/GPa)
#
#
# Indices 1 2 3 4 5 6 
#
# 1 0.014299 -0.004738 -0.005667 0.000000 -0.001226 0.000000
# 2 -0.004738 0.036444 -0.001761 0.000000 0.000844 0.000000
# 3 -0.005667 -0.001761 0.008748 0.000000 -0.002935 0.000000
# 4 0.000000 0.000000 0.000000 0.039146 0.000000 0.006824
# 5 -0.001226 0.000844 -0.002935 0.000000 0.037197 0.000000
# 6 0.000000 0.000000 0.000000 0.006824 0.000000 0.071599
#
#
# Mechanical properties :
#
#
# Convention : Reuss Voigt Hill
#
# Bulk Modulus (GPa) = 28.43996 58.82607 43.63302
# Shear Modulus (GPa) = 20.53526 26.93980 23.73753
#
# Velocity S-wave (km/s) = 3.43527 3.93467 3.69342
# Velocity P-wave (km/s) = 5.66378 7.37888 6.57748
#
# Compressibility (1/GPa) = 0.03516179
#
# Stress axis : x y z
#
# Youngs Moduli (GPa) = 69.93376 27.43952 114.30714
#
# Poissons Ratio (x) = 0.13000 0.64775
# Poissons Ratio (y) = 0.33131 0.20124
# Poissons Ratio (z) = 0.39630 0.04831
#
# Static dielectric constant tensor:
#      x y z
#    x 3.364250 0.000000 0.305660 
#    y 0.000000 2.963380 0.000000 
#    z 0.305660 0.000000 4.087940 
# 
# 
# High freq. dielectric constant tensor:
#      x y z
#    x 1.642200 0.000000 0.011570 
#    y 0.000000 1.638990 0.000000 
#    z 0.011570 0.000000 1.691440 
# 
# From -- ./inp_files/348291.got.cif
#   From: 2010.06.25/outbox.cif.g09.slc.cpg/sg12_175_cif.got.tgz:348291.got - 2010.06.28 00:19:55.
