data_PCOD8085813
_publ_section_title
;
Structure prediction by ZEFSAII (Michael W. Deem and Ramdas Pophale) SiO2 
 PCOD8085813
Probable space group: C 2/M
;
_chemical_formula_sum "Si O2"
_cell_formula_units_Z 56
_cell_length_a 19.068531
_cell_length_b 19.941251
_cell_length_c 11.177608
_cell_angle_alpha 90.000000
_cell_angle_beta 47.232935
_cell_angle_gamma 90.000000
_cell_volume 3120.223812
_symmetry_space_group_name_H-M "C 2/M"
_symmetry_group_IT_number 12
_symmetry_cell_setting 'monoclinic'
loop_
_space_group_symop_operation_xyz
x,y,z
-x,y,-z
-x,-y,-z
x,-y,z
1/2+x,1/2+y,z
1/2-x,1/2+y,-z
1/2-x,1/2-y,-z
1/2+x,1/2-y,z
loop_
_atom_site_type_symbol
_atom_site_label
_atom_site_fract_x
_atom_site_fract_y
_atom_site_fract_z
Si Si1 0.543053 0.922830 0.187436
Si Si2 0.945032 0.788749 0.439194
Si Si3 0.870740 0.780456 0.889308
Si Si4 0.864128 0.639972 0.507973
Si Si5 0.690560 0.153937 0.166024
Si Si6 0.250634 0.679255 0.565965
Si Si7 0.592557 0.185895 0.946369
O O1 0.448226 0.911595 0.377544
O O2 0.635072 0.901699 0.156459
O O3 0.550404 0.000000 0.143550
O O4 0.546736 0.880164 0.061292
O O5 0.916077 0.711885 0.454677
O O6 0.851771 0.834546 0.516349
O O7 0.000000 0.805157 0.500000
O O8 0.022081 0.807612 0.247224
O O9 0.851028 0.730552 0.798001
O O10 0.798228 0.842698 0.987389
O O11 0.854306 0.734630 0.024258
O O12 0.813604 0.627962 0.693362
O O13 0.779436 0.630113 0.507920
O O14 0.250000 0.750000 0.500000
O O15 0.168733 0.668782 0.757814
O O16 0.500000 0.223962 0.000000
#
# Coordination Sequence:
#
# PCOD8085813 Si02
#       7
#     8   8   8   8   8   8   8
#     4  11  23  36  55  78 109 151 192 224 265 326
#     4  11  18  30  50  77 109 142 172 214 277 339
#     4  10  19  30  50  79 105 141 177 222 279 341
#     4  11  18  36  48  74 109 142 180 225 269 324
#     4  10  20  32  52  75 108 140 182 228 277 323
#     4  10  21  31  49  77 108 144 177 216 270 334
#     4  11  19  35  52  77 114 146 179 223 279 327
#
# _framework density 17.947430000000001
#
# number of rings (size 3 to 8) (size 9 to 14) (size 15 to 20)
#    0.000    1.429    5.714    3.000    4.000    1.429 
#    0.000    0.000    0.000    0.000    0.000    3.000 
#    0.000    2.857    0.000    0.000    0.000    0.000 
#
# Total GULP energy -346884.855864 kJ/mol
# GULP energy per Si atom -12388.744852 kJ/mol
# Density = 1.790658 g / cm^3
# Si number density = 17.947430 Si / 1000 Ang^3
#
#
#
# Elastic Constant Matrix: (Units=GPa)
#
#
# Indices 1 2 3 4 5 6 
#
# 1 126.1459 13.4882 34.2001 0.0000 -6.9480 0.0000
# 2 13.4882 39.3683 9.6642 0.0000 -2.7175 0.0000
# 3 34.2001 9.6642 100.6734 0.0000 -3.1130 0.0000
# 4 0.0000 0.0000 0.0000 13.5595 0.0000 -3.7482
# 5 -6.9480 -2.7175 -3.1130 0.0000 38.4136 0.0000
# 6 0.0000 0.0000 0.0000 -3.7482 0.0000 7.9787
#
#
#
# Elastic Compliance Matrix: (Units=1/GPa)
#
#
# Indices 1 2 3 4 5 6 
#
# 1 0.009001 -0.002312 -0.002798 0.000000 0.001238 0.000000
# 2 -0.002312 0.026712 -0.001738 0.000000 0.001331 0.000000
# 3 -0.002798 -0.001738 0.011059 0.000000 0.000267 0.000000
# 4 0.000000 0.000000 0.000000 0.084755 0.000000 0.039816
# 5 0.001238 0.001331 0.000267 0.000000 0.026372 0.000000
# 6 0.000000 0.000000 0.000000 0.039816 0.000000 0.144039
#
#
# Mechanical properties :
#
#
# Convention : Reuss Voigt Hill
#
# Bulk Modulus (GPa) = 30.23227 42.32138 36.27683
# Shear Modulus (GPa) = 15.30653 25.91269 20.60961
#
# Velocity S-wave (km/s) = 2.92353 3.80387 3.39238
# Velocity P-wave (km/s) = 5.31766 6.55168 5.96666
#
# Compressibility (1/GPa) = 0.03307723
#
# Stress axis : x y z
#
# Youngs Moduli (GPa) = 111.09666 37.43686 90.42752
#
# Poissons Ratio (x) = 0.08654 0.25298
# Poissons Ratio (y) = 0.25683 0.15714
# Poissons Ratio (z) = 0.31081 0.06505
#
# Static dielectric constant tensor:
#      x y z
#    x 3.939380 0.000000 -0.151130 
#    y 0.000000 2.695560 0.000000 
#    z -0.151130 0.000000 3.595500 
# 
# 
# High freq. dielectric constant tensor:
#      x y z
#    x 1.715540 0.000000 0.003800 
#    y 0.000000 1.608820 0.000000 
#    z 0.003800 0.000000 1.711770 
# 
# From -- ./inp_files/169413.got.cif
#   From: 2010.06.25/outbox.cif.g09.slc.cpg/sg12_85_cif.got.tgz:169413.got - 2010.06.28 00:19:55.
