data_PCOD8085763
_publ_section_title
;
Structure prediction by ZEFSAII (Michael W. Deem and Ramdas Pophale) SiO2 
 PCOD8085763
Probable space group: C 2/M
;
_chemical_formula_sum "Si O2"
_cell_formula_units_Z 64
_cell_length_a 14.240438
_cell_length_b 19.637039
_cell_length_c 11.410567
_cell_angle_alpha 90.000000
_cell_angle_beta 71.803012
_cell_angle_gamma 90.000000
_cell_volume 3031.272010
_symmetry_space_group_name_H-M "C 2/M"
_symmetry_group_IT_number 12
_symmetry_cell_setting 'monoclinic'
loop_
_space_group_symop_operation_xyz
x,y,z
-x,y,-z
-x,-y,-z
x,-y,z
1/2+x,1/2+y,z
1/2-x,1/2+y,-z
1/2-x,1/2-y,-z
1/2+x,1/2-y,z
loop_
_atom_site_type_symbol
_atom_site_label
_atom_site_fract_x
_atom_site_fract_y
_atom_site_fract_z
Si Si1 0.772712 0.151277 0.841095
Si Si2 0.119933 0.804572 0.618493
Si Si3 0.908847 0.292050 0.962621
Si Si4 0.108189 0.132185 0.998108
Si Si5 0.218589 0.666734 0.622088
Si Si6 0.583097 0.240594 0.295107
Si Si7 0.199938 0.923718 0.742340
Si Si8 0.391979 0.883960 0.552927
O O1 0.729951 0.119700 0.736177
O O2 0.814114 0.221612 0.769414
O O3 0.688057 0.164811 0.969280
O O4 0.858829 0.110950 0.880493
O O5 0.162614 0.738107 0.668709
O O6 0.173055 0.815657 0.472767
O O7 0.136599 0.871502 0.689922
O O8 0.003420 0.795126 0.645725
O O9 0.938763 0.301888 0.815222
O O10 0.888713 0.213727 0.005478
O O11 0.000000 0.321829 0.000000
O O12 0.188715 0.098995 0.881152
O O13 0.000000 0.105277 0.000000
O O14 0.154586 0.621685 0.557752
O O15 0.593557 0.191947 0.402444
O O16 0.316753 0.924548 0.665341
O O17 0.158768 0.000000 0.739656
O O18 0.500000 0.919781 0.500000
#
# Coordination Sequence:
#
# PCOD8085763 Si02
#       8
#     8   8   8   8   8   8   8   8
#     4  11  20  30  51  81 118 150 186 239 308 371
#     4  10  19  34  55  84 117 153 196 240 307 361
#     4  10  19  30  49  78 118 151 182 236 298 370
#     4  10  20  37  55  79 108 152 202 250 299 354
#     4  10  20  33  53  87 122 149 190 249 311 372
#     4  11  19  31  54  83 118 153 191 245 309 361
#     4  11  23  39  59  83 119 162 211 256 292 358
#     4  11  22  36  58  88 121 161 200 247 307 369
#
# _framework density 21.113247000000001
#
# number of rings (size 3 to 8) (size 9 to 14) (size 15 to 20)
#    0.000    1.500    1.250    9.000    0.000    0.500 
#    0.000    0.000    0.000    3.000    0.000   30.625 
#    0.000    0.000    0.000    0.000    0.000    0.000 
#
# Total GULP energy -396588.420680 kJ/mol
# GULP energy per Si atom -12393.388146 kJ/mol
# Density = 2.106519 g / cm^3
# Si number density = 21.113247 Si / 1000 Ang^3
#
#
#
# Elastic Constant Matrix: (Units=GPa)
#
#
# Indices 1 2 3 4 5 6 
#
# 1 118.9878 9.0181 50.6409 0.0000 5.4275 0.0000
# 2 9.0181 49.0587 16.6704 0.0000 3.7612 0.0000
# 3 50.6409 16.6704 116.5932 0.0000 12.5105 0.0000
# 4 0.0000 0.0000 0.0000 4.3349 0.0000 -0.0513
# 5 5.4275 3.7612 12.5105 0.0000 36.2342 0.0000
# 6 0.0000 0.0000 0.0000 -0.0513 0.0000 10.2310
#
#
#
# Elastic Compliance Matrix: (Units=1/GPa)
#
#
# Indices 1 2 3 4 5 6 
#
# 1 0.010317 -0.000394 -0.004427 0.000000 0.000024 0.000000
# 2 -0.000394 0.021491 -0.002771 0.000000 -0.001215 0.000000
# 3 -0.004427 -0.002771 0.011209 0.000000 -0.002919 0.000000
# 4 0.000000 0.000000 0.000000 0.230701 0.000000 0.001157
# 5 0.000024 -0.001215 -0.002919 0.000000 0.028729 0.000000
# 6 0.000000 0.000000 0.000000 0.001157 0.000000 0.097748
#
#
# Mechanical properties :
#
#
# Convention : Reuss Voigt Hill
#
# Bulk Modulus (GPa) = 35.92954 48.58873 42.25913
# Shear Modulus (GPa) = 11.77416 24.04737 17.91076
#
# Velocity S-wave (km/s) = 2.36406 3.37852 2.91575
# Velocity P-wave (km/s) = 4.95037 6.18729 5.60307
#
# Compressibility (1/GPa) = 0.02783225
#
# Stress axis : x y z
#
# Youngs Moduli (GPa) = 96.92462 46.53113 89.21130
#
# Poissons Ratio (x) = 0.01833 0.39498
# Poissons Ratio (y) = 0.03818 0.24723
# Poissons Ratio (z) = 0.42913 0.12895
#
# Static dielectric constant tensor:
#      x y z
#    x 4.216540 0.000000 0.068240 
#    y 0.000000 3.041520 0.000000 
#    z 0.068240 0.000000 4.237620 
# 
# 
# High freq. dielectric constant tensor:
#      x y z
#    x 1.846020 0.000000 -0.000430 
#    y 0.000000 1.737110 0.000000 
#    z -0.000430 0.000000 1.848570 
# 
# From -- ./inp_files/147617.got.cif
#   From: 2010.06.25/outbox.cif.g09.slc.cpg/sg12_74_cif.got.tgz:147617.got - 2010.06.28 00:19:55.
