data_PCOD8085642
_publ_section_title
;
Structure prediction by ZEFSAII (Michael W. Deem and Ramdas Pophale) SiO2 
 PCOD8085642
Probable space group: C 2/M
;
_chemical_formula_sum "Si O2"
_cell_formula_units_Z 64
_cell_length_a 27.904292
_cell_length_b 9.307302
_cell_length_c 12.121754
_cell_angle_alpha 90.000000
_cell_angle_beta 93.195082
_cell_angle_gamma 90.000000
_cell_volume 3143.291561
_symmetry_space_group_name_H-M "C 2/M"
_symmetry_group_IT_number 12
_symmetry_cell_setting 'monoclinic'
loop_
_space_group_symop_operation_xyz
x,y,z
-x,y,-z
-x,-y,-z
x,-y,z
1/2+x,1/2+y,z
1/2-x,1/2+y,-z
1/2-x,1/2-y,-z
1/2+x,1/2-y,z
loop_
_atom_site_type_symbol
_atom_site_label
_atom_site_fract_x
_atom_site_fract_y
_atom_site_fract_z
Si Si1 0.902236 0.834195 0.811300
Si Si2 0.280290 0.166632 0.159203
Si Si3 0.120791 0.163892 0.434511
Si Si4 0.930633 0.165635 0.252923
Si Si5 0.501624 0.837166 0.130052
Si Si6 0.449449 0.153061 0.452455
Si Si7 0.327456 0.663148 0.341204
Si Si8 0.819680 0.833571 0.964922
O O1 0.869721 0.817673 0.694986
O O2 0.950558 0.740443 0.817245
O O3 0.867736 0.786270 0.907020
O O4 0.917696 0.000000 0.826657
O O5 0.287485 0.233558 0.282423
O O6 0.225362 0.194901 0.120383
O O7 0.293281 0.000000 0.164228
O O8 0.315614 0.241098 0.075261
O O9 0.078709 0.274791 0.451211
O O10 0.163884 0.201057 0.527504
O O11 0.105102 0.000000 0.459932
O O12 0.958630 0.229696 0.360025
O O13 0.874702 0.189758 0.272170
O O14 0.952122 0.254049 0.153167
O O15 0.943183 0.000000 0.236647
O O16 0.501093 0.000000 0.177547
O O17 0.500000 0.839715 0.000000
O O18 0.500000 0.105005 0.500000
O O19 0.424588 0.000000 0.411683
O O20 0.309652 0.500000 0.327824
O O21 0.822255 0.000000 0.000417
#
# Coordination Sequence:
#
# PCOD8085642 Si02
#       8
#     8   8   8   8   8   8   8   8
#     4  10  21  39  62  82 109 149 192 233 275 333
#     4  10  20  35  58  86 115 144 183 231 281 335
#     4   9  19  35  54  79 107 143 188 231 275 328
#     4  10  21  36  54  76 103 143 190 229 267 320
#     4  11  25  40  53  78 116 150 184 231 285 337
#     4  10  19  30  48  74 104 138 176 225 279 323
#     4   9  19  35  56  82 113 146 184 232 280 326
#     4   9  20  38  59  85 113 146 185 230 281 332
#
# _framework density 20.360821999999999
#
# number of rings (size 3 to 8) (size 9 to 14) (size 15 to 20)
#    0.000    2.250    0.000    3.000    1.750    8.000 
#    0.000    0.625    0.000    0.000    0.000    0.000 
#    0.000    0.000    0.000    0.000    0.000    0.000 
#
# Total GULP energy -396492.608568 kJ/mol
# GULP energy per Si atom -12390.394018 kJ/mol
# Density = 2.031448 g / cm^3
# Si number density = 20.360822 Si / 1000 Ang^3
#
#
#
# Elastic Constant Matrix: (Units=GPa)
#
#
# Indices 1 2 3 4 5 6 
#
# 1 26.1186 16.2654 9.5550 0.0000 7.6421 0.0000
# 2 16.2654 93.9616 26.9589 0.0000 9.5541 0.0000
# 3 9.5550 26.9589 67.5144 0.0000 15.8474 0.0000
# 4 0.0000 0.0000 0.0000 30.4983 0.0000 2.3523
# 5 7.6421 9.5541 15.8474 0.0000 32.0304 0.0000
# 6 0.0000 0.0000 0.0000 2.3523 0.0000 34.2139
#
#
#
# Elastic Compliance Matrix: (Units=1/GPa)
#
#
# Indices 1 2 3 4 5 6 
#
# 1 0.045361 -0.006481 -0.001974 0.000000 -0.007912 0.000000
# 2 -0.006481 0.012999 -0.004216 0.000000 -0.000245 0.000000
# 3 -0.001974 -0.004216 0.018519 0.000000 -0.007434 0.000000
# 4 0.000000 0.000000 0.000000 0.032964 0.000000 -0.002266
# 5 -0.007912 -0.000245 -0.007434 0.000000 0.036859 0.000000
# 6 0.000000 0.000000 0.000000 -0.002266 0.000000 0.029384
#
#
# Mechanical properties :
#
#
# Convention : Reuss Voigt Hill
#
# Bulk Modulus (GPa) = 19.40381 32.57257 25.98819
# Shear Modulus (GPa) = 22.87206 28.33620 25.60413
#
# Velocity S-wave (km/s) = 3.35526 3.73460 3.55000
# Velocity P-wave (km/s) = 4.95591 5.88462 5.44012
#
# Compressibility (1/GPa) = 0.05153628
#
# Stress axis : x y z
#
# Youngs Moduli (GPa) = 22.04558 76.92835 53.99728
#
# Poissons Ratio (x) = 0.49859 0.10661
# Poissons Ratio (y) = 0.14288 0.22764
# Poissons Ratio (z) = 0.04353 0.32431
#
# Static dielectric constant tensor:
#      x y z
#    x 3.528570 0.000000 0.036800 
#    y 0.000000 3.882610 0.000000 
#    z 0.036800 0.000000 3.808320 
# 
# 
# High freq. dielectric constant tensor:
#      x y z
#    x 1.765970 0.000000 0.009020 
#    y 0.000000 1.805440 0.000000 
#    z 0.009020 0.000000 1.800140 
# 
# From -- ./inp_files/187415.got.cif
#   From: 2010.06.25/outbox.cif.g09.slc.cpg/sg12_94_cif.got.tgz:187415.got - 2010.06.28 00:19:55.
