data_PCOD8085962
_publ_section_title
;
Structure prediction by ZEFSAII (Michael W. Deem and Ramdas Pophale) SiO2 
 PCOD8085962
Probable space group: C 2/M
;
_chemical_formula_sum "Si O2"
_cell_formula_units_Z 64
_cell_length_a 20.484895
_cell_length_b 9.210311
_cell_length_c 23.731546
_cell_angle_alpha 90.000000
_cell_angle_beta 123.024132
_cell_angle_gamma 90.000000
_cell_volume 3754.106840
_symmetry_space_group_name_H-M "C 2/M"
_symmetry_group_IT_number 12
_symmetry_cell_setting 'monoclinic'
loop_
_space_group_symop_operation_xyz
x,y,z
-x,y,-z
-x,-y,-z
x,-y,z
1/2+x,1/2+y,z
1/2-x,1/2+y,-z
1/2-x,1/2-y,-z
1/2+x,1/2-y,z
loop_
_atom_site_type_symbol
_atom_site_label
_atom_site_fract_x
_atom_site_fract_y
_atom_site_fract_z
Si Si1 0.520080 0.828225 0.919651
Si Si2 0.970714 0.171588 0.671779
Si Si3 0.379265 0.172132 0.928695
Si Si4 0.087359 0.827415 0.541522
Si Si5 0.669101 0.327675 0.467370
Si Si6 0.291430 0.672551 0.174433
Si Si7 0.119339 0.172734 0.677756
Si Si8 0.443022 0.328538 0.178468
O O1 0.435564 0.779261 0.903796
O O2 0.537415 0.751064 0.869599
O O3 0.523058 0.000000 0.911807
O O4 0.585467 0.776698 0.995111
O O5 0.886132 0.224113 0.610542
O O6 0.036589 0.234024 0.660836
O O7 0.990319 0.218491 0.745054
O O8 0.974419 0.000000 0.669144
O O9 0.292767 0.240040 0.881013
O O10 0.375309 0.000000 0.926577
O O11 0.132810 0.770101 0.508667
O O12 0.131796 0.773457 0.619377
O O13 0.000000 0.764225 0.500000
O O14 0.083462 0.000000 0.537996
O O15 0.680679 0.500000 0.472896
O O16 0.750000 0.250000 0.500000
O O17 0.286857 0.500000 0.171681
O O18 0.313155 0.727650 0.247882
O O19 0.358085 0.721623 0.161509
O O20 0.117265 0.000000 0.678554
O O21 0.443998 0.500000 0.168590
#
# Coordination Sequence:
#
# PCOD8085962 Si02
#       8
#     8   8   8   8   8   8   8   8
#     4   9  17  30  47  65  90 123 150 173 215 272
#     4   8  14  27  45  63  88 121 146 174 224 274
#     4   8  15  29  45  61  87 123 152 175 215 270
#     4   9  14  23  43  67  86 109 148 192 222 249
#     4  10  19  31  46  66  94 121 146 181 225 268
#     4   8  14  25  43  65  88 113 146 188 223 255
#     4   8  12  21  40  66  87 106 144 194 229 248
#     4   9  17  29  47  69  88 112 151 188 219 260
#
# _framework density 17.047996000000001
#
# number of rings (size 3 to 8) (size 9 to 14) (size 15 to 20)
#    0.000    3.375    1.250    2.250    0.000    0.500 
#    2.250    1.875    0.000    1.125    0.000    0.875 
#    0.000    0.000    0.000    0.000    0.000    0.000 
#
# Total GULP energy -396455.215514 kJ/mol
# GULP energy per Si atom -12389.225485 kJ/mol
# Density = 1.700919 g / cm^3
# Si number density = 17.047996 Si / 1000 Ang^3
#
#
#
# Elastic Constant Matrix: (Units=GPa)
#
#
# Indices 1 2 3 4 5 6 
#
# 1 137.4190 25.2094 106.9091 0.0000 2.8211 0.0000
# 2 25.2094 15.5128 26.4257 0.0000 -2.2044 0.0000
# 3 106.9091 26.4257 169.7906 0.0000 -1.1759 0.0000
# 4 0.0000 0.0000 0.0000 16.7924 0.0000 -2.7320
# 5 2.8211 -2.2044 -1.1759 0.0000 35.2674 0.0000
# 6 0.0000 0.0000 0.0000 -2.7320 0.0000 17.7881
#
#
#
# Elastic Compliance Matrix: (Units=1/GPa)
#
#
# Indices 1 2 3 4 5 6 
#
# 1 0.015893 -0.012359 -0.008100 0.000000 -0.002314 0.000000
# 2 -0.012359 0.098230 -0.007459 0.000000 0.006880 0.000000
# 3 -0.008100 -0.007459 0.012155 0.000000 0.000587 0.000000
# 4 0.000000 0.000000 0.000000 0.061077 0.000000 0.009380
# 5 -0.002314 0.006880 0.000587 0.000000 0.028990 0.000000
# 6 0.000000 0.000000 0.000000 0.009380 0.000000 0.057658
#
#
# Mechanical properties :
#
#
# Convention : Reuss Voigt Hill
#
# Bulk Modulus (GPa) = 14.19577 71.09008 42.64293
# Shear Modulus (GPa) = 14.15154 24.91478 19.53316
#
# Velocity S-wave (km/s) = 2.88427 3.82704 3.38860
# Velocity P-wave (km/s) = 4.40875 7.83063 6.35436
#
# Compressibility (1/GPa) = 0.07044351
#
# Stress axis : x y z
#
# Youngs Moduli (GPa) = 62.92045 10.18014 82.27351
#
# Poissons Ratio (x) = 0.12581 0.66639
# Poissons Ratio (y) = 0.77761 0.61368
# Poissons Ratio (z) = 0.50964 0.07593
#
# Static dielectric constant tensor:
#      x y z
#    x 3.316440 0.000000 0.151210 
#    y 0.000000 2.532700 0.000000 
#    z 0.151210 0.000000 3.722220 
# 
# 
# High freq. dielectric constant tensor:
#      x y z
#    x 1.651360 0.000000 -0.000240 
#    y 0.000000 1.587310 0.000000 
#    z -0.000240 0.000000 1.675320 
# 
# From -- ./inp_files/345622.got.cif
#   From: 2010.06.25/outbox.cif.g09.slc.cpg/sg12_173_cif.got.tgz:345622.got - 2010.06.28 00:19:55.
