data_PCOD8085774
_publ_section_title
;
Structure prediction by ZEFSAII (Michael W. Deem and Ramdas Pophale) SiO2 
 PCOD8085774
Probable space group: C 2/M
;
_chemical_formula_sum "Si O2"
_cell_formula_units_Z 48
_cell_length_a 24.325383
_cell_length_b 22.191771
_cell_length_c 16.213054
_cell_angle_alpha 90.000000
_cell_angle_beta 163.306687
_cell_angle_gamma 90.000000
_cell_volume 2514.053966
_symmetry_space_group_name_H-M "C 2/M"
_symmetry_group_IT_number 12
_symmetry_cell_setting 'monoclinic'
loop_
_space_group_symop_operation_xyz
x,y,z
-x,y,-z
-x,-y,-z
x,-y,z
1/2+x,1/2+y,z
1/2-x,1/2+y,-z
1/2-x,1/2-y,-z
1/2+x,1/2-y,z
loop_
_atom_site_type_symbol
_atom_site_label
_atom_site_fract_x
_atom_site_fract_y
_atom_site_fract_z
Si Si1 0.284820 0.569555 0.720394
Si Si2 0.578973 0.267330 0.814705
Si Si3 0.540301 0.861459 0.814686
Si Si4 0.114002 0.148032 0.582725
Si Si5 0.312006 0.432369 0.087597
Si Si6 0.219684 0.368504 0.799761
O O1 0.228227 0.500000 0.656223
O O2 0.252994 0.610834 0.754450
O O3 0.149687 0.597198 0.453665
O O4 0.500000 0.574619 0.000000
O O5 0.484699 0.207784 0.717783
O O6 0.410704 0.301122 0.522647
O O7 0.750000 0.250000 0.000000
O O8 0.655952 0.309370 0.999642
O O9 0.663050 0.864171 0.075896
O O10 0.667144 0.885897 0.921383
O O11 0.000000 0.170670 0.500000
O O12 0.026199 0.084848 0.424071
O O13 0.265910 0.500000 0.048188
O O14 0.287173 0.424298 0.954055
O O15 0.000000 0.352241 0.500000
#
# Coordination Sequence:
#
# PCOD8085774 Si02
#       6
#     8   8   8   8   8   8
#     4  11  25  43  60  84 119 159 202 247 301 352
#     4  11  19  32  54  87 122 152 187 238 298 350
#     4  11  21  32  56  81 114 155 191 235 292 354
#     4   9  19  30  46  79 115 150 183 225 291 349
#     4  10  19  30  49  82 116 145 186 239 287 341
#     4  11  21  34  61  88 115 154 196 245 291 349
#
# _framework density 19.092669000000001
#
# number of rings (size 3 to 8) (size 9 to 14) (size 15 to 20)
#    0.000    1.500    6.667    1.000    4.667    4.333 
#    0.000    0.833    0.000    3.000    0.000   10.500 
#    0.000    0.000    0.000    0.000    0.000    0.000 
#
# Total GULP energy -297526.190320 kJ/mol
# GULP energy per Si atom -12396.924597 kJ/mol
# Density = 1.904921 g / cm^3
# Si number density = 19.092669 Si / 1000 Ang^3
#
#
#
# Elastic Constant Matrix: (Units=GPa)
#
#
# Indices 1 2 3 4 5 6 
#
# 1 41.6898 26.9957 37.6882 0.0000 -14.6634 0.0000
# 2 26.9957 140.2146 54.1102 0.0000 -14.2349 0.0000
# 3 37.6882 54.1102 132.0715 0.0000 -30.2138 -0.0001
# 4 0.0000 0.0000 0.0000 20.1054 0.0000 -5.6350
# 5 -14.6634 -14.2349 -30.2138 0.0000 28.5847 0.0000
# 6 0.0000 0.0000 -0.0001 -5.6350 0.0000 12.7131
#
#
#
# Elastic Compliance Matrix: (Units=1/GPa)
#
#
# Indices 1 2 3 4 5 6 
#
# 1 0.035439 -0.003318 -0.006559 0.000000 0.009595 0.000000
# 2 -0.003318 0.008793 -0.002695 0.000000 -0.000172 0.000000
# 3 -0.006559 -0.002695 0.012491 0.000000 0.008497 0.000000
# 4 0.000000 0.000000 0.000000 0.056793 0.000000 0.025173
# 5 0.009595 -0.000172 0.008497 0.000000 0.048801 0.000000
# 6 0.000000 0.000000 0.000000 0.025173 0.000000 0.089817
#
#
# Mechanical properties :
#
#
# Convention : Reuss Voigt Hill
#
# Bulk Modulus (GPa) = 31.66547 61.28491 46.47519
# Shear Modulus (GPa) = 17.37287 25.29275 21.33281
#
# Velocity S-wave (km/s) = 3.01977 3.64364 3.34628
# Velocity P-wave (km/s) = 5.36468 7.06186 6.27095
#
# Compressibility (1/GPa) = 0.03158014
#
# Stress axis : x y z
#
# Youngs Moduli (GPa) = 28.21746 113.72178 80.05651
#
# Poissons Ratio (x) = 0.37733 0.52506
# Poissons Ratio (y) = 0.09363 0.21577
# Poissons Ratio (z) = 0.18507 0.30650
#
# Static dielectric constant tensor:
#      x y z
#    x 3.197730 0.000000 -0.497690 
#    y 0.000000 3.721510 0.000000 
#    z -0.497690 0.000000 3.772710 
# 
# 
# High freq. dielectric constant tensor:
#      x y z
#    x 1.694310 0.000000 -0.049450 
#    y 0.000000 1.754520 0.000000 
#    z -0.049450 0.000000 1.737240 
# 
# From -- ./inp_files/235561.got.cif
#   From: 2010.06.25/outbox.cif.g09.slc.cpg/sg12_118_cif.got.tgz:235561.got - 2010.06.28 00:19:55.
