data_PCOD8085682
_publ_section_title
;
Structure prediction by ZEFSAII (Michael W. Deem and Ramdas Pophale) SiO2 
 PCOD8085682
Probable space group: C 2/M
;
_chemical_formula_sum "Si O2"
_cell_formula_units_Z 56
_cell_length_a 26.456858
_cell_length_b 9.283100
_cell_length_c 14.315297
_cell_angle_alpha 90.000000
_cell_angle_beta 122.821771
_cell_angle_gamma 90.000000
_cell_volume 2954.591171
_symmetry_space_group_name_H-M "C 2/M"
_symmetry_group_IT_number 12
_symmetry_cell_setting 'monoclinic'
loop_
_space_group_symop_operation_xyz
x,y,z
-x,y,-z
-x,-y,-z
x,-y,z
1/2+x,1/2+y,z
1/2-x,1/2+y,-z
1/2-x,1/2-y,-z
1/2+x,1/2-y,z
loop_
_atom_site_type_symbol
_atom_site_label
_atom_site_fract_x
_atom_site_fract_y
_atom_site_fract_z
Si Si1 0.881427 0.667487 0.091855
Si Si2 0.999947 0.329001 0.894900
Si Si3 0.211080 0.167377 0.118492
Si Si4 0.146095 0.168047 0.550397
Si Si5 0.284837 0.165192 0.695710
Si Si6 0.111214 0.667660 0.339233
Si Si7 0.149764 0.336140 0.735184
O O1 0.869485 0.500000 0.057667
O O2 0.941172 0.725274 0.100853
O O3 0.889231 0.691252 0.210803
O O4 0.824555 0.757862 0.000741
O O5 0.999128 0.500000 0.898749
O O6 0.941029 0.274439 0.781372
O O7 0.000000 0.264777 0.000000
O O8 0.190817 0.235886 0.196474
O O9 0.281112 0.197002 0.170795
O O10 0.195145 0.000000 0.104499
O O11 0.216176 0.202185 0.602308
O O12 0.107560 0.243727 0.431224
O O13 0.125920 0.231693 0.630076
O O14 0.131773 0.000000 0.535431
O O15 0.324577 0.196498 0.644581
O O16 0.291809 0.000000 0.735288
O O17 0.102154 0.500000 0.353842
O O18 0.143033 0.500000 0.692939
#
# Coordination Sequence:
#
# PCOD8085682 Si02
#       7
#     8   8   8   8   8   8   8
#     4  10  19  33  53  74  99 133 171 209 248 293
#     4   9  18  33  54  78 100 126 165 207 244 289
#     4  10  19  30  48  76 106 133 163 204 253 301
#     4  10  20  33  51  76 104 132 164 205 252 301
#     4   9  18  32  51  75 102 134 168 202 246 299
#     4  10  19  33  54  76 100 132 168 207 249 293
#     4   9  19  34  51  73 101 133 169 207 247 295
#
# _framework density 18.953554
#
# number of rings (size 3 to 8) (size 9 to 14) (size 15 to 20)
#    0.000    2.429    0.000    2.571    0.000    4.571 
#    0.000    1.429    0.000    6.000    0.000    0.000 
#    0.000    0.000    0.000    0.000    0.000    0.000 
#
# Total GULP energy -347277.504488 kJ/mol
# GULP energy per Si atom -12402.768017 kJ/mol
# Density = 1.891041 g / cm^3
# Si number density = 18.953554 Si / 1000 Ang^3
#
#
#
# Elastic Constant Matrix: (Units=GPa)
#
#
# Indices 1 2 3 4 5 6 
#
# 1 93.5831 32.0670 49.3022 0.0000 -20.1884 0.0000
# 2 32.0670 72.5967 55.6118 0.0000 -13.9242 0.0000
# 3 49.3022 55.6118 134.8735 0.0000 -18.7030 0.0000
# 4 0.0000 0.0000 0.0000 33.5169 0.0000 -5.5322
# 5 -20.1884 -13.9242 -18.7030 0.0000 24.1598 0.0000
# 6 0.0000 0.0000 0.0000 -5.5322 0.0000 16.5052
#
#
#
# Elastic Compliance Matrix: (Units=1/GPa)
#
#
# Indices 1 2 3 4 5 6 
#
# 1 0.015153 -0.002498 -0.003308 0.000000 0.008662 0.000000
# 2 -0.002498 0.021299 -0.007233 0.000000 0.004589 0.000000
# 3 -0.003308 -0.007233 0.011924 0.000000 0.002299 0.000000
# 4 0.000000 0.000000 0.000000 0.031583 0.000000 0.010586
# 5 0.008662 0.004589 0.002299 0.000000 0.053053 0.000000
# 6 0.000000 0.000000 0.000000 0.010586 0.000000 0.064135
#
#
# Mechanical properties :
#
#
# Convention : Reuss Voigt Hill
#
# Bulk Modulus (GPa) = 44.84470 63.89058 54.36764
# Shear Modulus (GPa) = 21.67721 25.77455 23.72588
#
# Velocity S-wave (km/s) = 3.38553 3.69165 3.54190
# Velocity P-wave (km/s) = 6.24453 7.20786 6.74342
#
# Compressibility (1/GPa) = 0.02229918
#
# Stress axis : x y z
#
# Youngs Moduli (GPa) = 65.99400 46.95137 83.86118
#
# Poissons Ratio (x) = 0.11728 0.27741
# Poissons Ratio (y) = 0.16485 0.60653
# Poissons Ratio (z) = 0.21831 0.33958
#
# Static dielectric constant tensor:
#      x y z
#    x 3.441180 0.000000 -0.096290 
#    y 0.000000 3.293750 0.000000 
#    z -0.096290 0.000000 3.390090 
# 
# 
# High freq. dielectric constant tensor:
#      x y z
#    x 1.726750 0.000000 -0.013720 
#    y 0.000000 1.717780 0.000000 
#    z -0.013720 0.000000 1.734970 
# 
# From -- ./inp_files/243674.got.cif
#   From: 2010.06.25/outbox.cif.g09.slc.cpg/sg12_122_cif.got.tgz:243674.got - 2010.06.28 00:19:55.
