data_PCOD8085469
_publ_section_title
;
Structure prediction by ZEFSAII (Michael W. Deem and Ramdas Pophale) SiO2 
 PCOD8085469
Probable space group: C 2/M
;
_chemical_formula_sum "Si O2"
_cell_formula_units_Z 56
_cell_length_a 31.655172
_cell_length_b 9.151721
_cell_length_c 18.612628
_cell_angle_alpha 90.000000
_cell_angle_beta 33.770203
_cell_angle_gamma 90.000000
_cell_volume 2997.251680
_symmetry_space_group_name_H-M "C 2/M"
_symmetry_group_IT_number 12
_symmetry_cell_setting 'monoclinic'
loop_
_space_group_symop_operation_xyz
x,y,z
-x,y,-z
-x,-y,-z
x,-y,z
1/2+x,1/2+y,z
1/2-x,1/2+y,-z
1/2-x,1/2-y,-z
1/2+x,1/2-y,z
loop_
_atom_site_type_symbol
_atom_site_label
_atom_site_fract_x
_atom_site_fract_y
_atom_site_fract_z
Si Si1 0.575148 0.329649 0.612283
Si Si2 0.719993 0.159001 0.940420
Si Si3 0.170899 0.676226 0.590816
Si Si4 0.508969 0.330628 0.405913
Si Si5 0.940875 0.332919 0.874931
Si Si6 0.155041 0.341550 0.187223
Si Si7 0.032497 0.335871 0.882769
O O1 0.589014 0.500000 0.610347
O O2 0.643477 0.235084 0.551102
O O3 0.565961 0.304822 0.538589
O O4 0.494794 0.278572 0.757397
O O5 0.793856 0.260296 0.824442
O O6 0.738802 0.000000 0.880325
O O7 0.645402 0.225497 0.007526
O O8 0.704872 0.140539 0.045980
O O9 0.176966 0.500000 0.578709
O O10 0.250000 0.750000 0.500000
O O11 0.108494 0.730600 0.738065
O O12 0.500000 0.272611 0.500000
O O13 0.530875 0.500000 0.375391
O O14 0.579655 0.245242 0.272159
O O15 0.946905 0.500000 0.834771
O O16 0.962583 0.333958 0.927262
O O17 0.133039 0.500000 0.249628
O O18 0.055187 0.500000 0.872941
O O19 0.000000 0.252793 0.000000
#
# Coordination Sequence:
#
# PCOD8085469 Si02
#       7
#     8   8   8   8   8   8   8
#     4  10  19  32  53  77 101 131 174 220 260 310
#     4   9  17  29  46  69  98 129 161 201 248 298
#     4  10  20  35  57  81 109 141 176 220 265 317
#     4  10  21  36  52  71  99 136 176 218 263 312
#     4   9  16  29  50  74 100 130 166 208 254 304
#     4  10  19  30  47  70  97 127 162 206 253 300
#     4   8  15  29  51  78 103 130 167 209 253 304
#
# _framework density 18.683782000000001
#
# number of rings (size 3 to 8) (size 9 to 14) (size 15 to 20)
#    0.000    2.571    1.429    2.143    0.000    2.000 
#    0.000    1.429    0.000   15.857    0.000    0.000 
#    0.000    0.000    0.000    0.000    0.000    0.000 
#
# Total GULP energy -346895.139155 kJ/mol
# GULP energy per Si atom -12389.112113 kJ/mol
# Density = 1.864126 g / cm^3
# Si number density = 18.683782 Si / 1000 Ang^3
#
#
#
# Elastic Constant Matrix: (Units=GPa)
#
#
# Indices 1 2 3 4 5 6 
#
# 1 137.8081 48.6277 47.5830 -0.0020 -21.6771 0.0031
# 2 48.6277 80.5580 25.0905 0.0171 -10.6344 -0.0037
# 3 47.5830 25.0905 45.7497 0.0138 -6.8417 -0.0036
# 4 -0.0020 0.0171 0.0138 14.1915 -0.0040 -7.9161
# 5 -21.6771 -10.6344 -6.8417 -0.0040 36.9573 -0.0002
# 6 0.0031 -0.0037 -0.0036 -7.9161 -0.0002 27.5012
#
#
#
# Elastic Compliance Matrix: (Units=1/GPa)
#
#
# Indices 1 2 3 4 5 6 
#
# 1 0.013078 -0.003943 -0.010760 0.000020 0.004544 0.000002
# 2 -0.003943 0.016461 -0.004694 -0.000017 0.001555 -0.000003
# 3 -0.010760 -0.004694 0.035459 -0.000033 -0.001097 -0.000004
# 4 0.000020 -0.000017 -0.000033 0.083943 0.000010 0.024163
# 5 0.004544 0.001555 -0.001097 0.000010 0.029968 0.000003
# 6 0.000002 -0.000003 -0.000004 0.024163 0.000003 0.043317
#
#
# Mechanical properties :
#
#
# Convention : Reuss Voigt Hill
#
# Bulk Modulus (GPa) = 38.16190 56.30202 47.23196
# Shear Modulus (GPa) = 18.53536 25.25097 21.89317
#
# Velocity S-wave (km/s) = 3.15311 3.68025 3.42683
# Velocity P-wave (km/s) = 5.80738 6.94684 6.40251
#
# Compressibility (1/GPa) = 0.02620415
#
# Stress axis : x y z
#
# Youngs Moduli (GPa) = 76.46508 60.75018 28.20146
#
# Poissons Ratio (x) = 0.23955 0.30344
# Poissons Ratio (y) = 0.30151 0.13237
# Poissons Ratio (z) = 0.82275 0.28516
#
# Static dielectric constant tensor:
#      x y z
#    x 3.648060 -0.000010 -0.036470 
#    y -0.000010 3.566360 0.000010 
#    z -0.036470 0.000010 3.159200 
# 
# 
# High freq. dielectric constant tensor:
#      x y z
#    x 1.733570 0.000000 -0.014550 
#    y 0.000000 1.715080 0.000000 
#    z -0.014550 0.000000 1.684790 
# 
# From -- ./inp_files/295080.got.cif
#   From: 2010.06.25/outbox.cif.g09.slc.cpg/sg12_148_cif.got.tgz:295080.got - 2010.06.28 00:19:55.
