data_PCOD8085760
_publ_section_title
;
Structure prediction by ZEFSAII (Michael W. Deem and Ramdas Pophale) SiO2 
 PCOD8085760
Probable space group: C 2/M
;
_chemical_formula_sum "Si O2"
_cell_formula_units_Z 64
_cell_length_a 18.782588
_cell_length_b 9.255852
_cell_length_c 20.771570
_cell_angle_alpha 90.000000
_cell_angle_beta 78.821055
_cell_angle_gamma 90.000000
_cell_volume 3542.598068
_symmetry_space_group_name_H-M "C 2/M"
_symmetry_group_IT_number 12
_symmetry_cell_setting 'monoclinic'
loop_
_space_group_symop_operation_xyz
x,y,z
-x,y,-z
-x,-y,-z
x,-y,z
1/2+x,1/2+y,z
1/2-x,1/2+y,-z
1/2-x,1/2-y,-z
1/2+x,1/2-y,z
loop_
_atom_site_type_symbol
_atom_site_label
_atom_site_fract_x
_atom_site_fract_y
_atom_site_fract_z
Si Si1 0.449017 0.171868 0.366553
Si Si2 0.602125 0.168293 0.394246
Si Si3 0.445654 0.166436 0.222463
Si Si4 0.826535 0.331299 0.483729
Si Si5 0.688242 0.833406 0.830971
Si Si6 0.104857 0.336678 0.174593
Si Si7 0.828437 0.164398 0.725879
Si Si8 0.739123 0.831409 0.068059
O O1 0.521302 0.227268 0.391330
O O2 0.448544 0.235239 0.293735
O O3 0.375161 0.223308 0.414903
O O4 0.452063 0.000000 0.366006
O O5 0.622245 0.200674 0.464172
O O6 0.662808 0.249418 0.341672
O O7 0.607519 0.000000 0.377142
O O8 0.384701 0.234340 0.186923
O O9 0.521025 0.184988 0.170532
O O10 0.424474 0.000000 0.235519
O O11 0.808275 0.500000 0.481346
O O12 0.750000 0.250000 0.500000
O O13 0.746436 0.820218 0.763956
O O14 0.707249 0.735105 0.888507
O O15 0.680627 0.000000 0.855511
O O16 0.118697 0.500000 0.197328
O O17 0.118417 0.227909 0.229930
O O18 0.155803 0.305106 0.104423
O O19 0.850689 0.000000 0.710086
O O20 0.756885 0.000000 0.056371
O O21 0.750000 0.750000 0.000000
#
# Coordination Sequence:
#
# PCOD8085760 Si02
#       8
#     8   8   8   8   8   8   8   8
#     4   9  17  32  56  77  97 133 182 223 257 305
#     4  10  19  34  54  74  98 134 181 223 259 309
#     4   9  16  30  55  81 102 131 174 223 260 297
#     4  10  22  36  53  76 103 136 175 222 272 320
#     4   9  19  33  52  79 108 136 172 213 259 308
#     4   9  17  33  56  80 104 134 176 217 250 294
#     4  10  19  30  49  78 106 135 168 210 263 316
#     4  10  20  35  57  81 108 142 175 210 252 302
#
# _framework density 18.065837999999999
#
# number of rings (size 3 to 8) (size 9 to 14) (size 15 to 20)
#    0.000    2.500    1.250    1.125    1.750    3.000 
#    0.000    1.875    0.000    5.250    0.000    0.000 
#    0.000    0.000    0.000    0.000    0.000    0.000 
#
# Total GULP energy -396702.846209 kJ/mol
# GULP energy per Si atom -12396.963944 kJ/mol
# Density = 1.802472 g / cm^3
# Si number density = 18.065838 Si / 1000 Ang^3
#
#
#
# Elastic Constant Matrix: (Units=GPa)
#
#
# Indices 1 2 3 4 5 6 
#
# 1 139.9107 40.3439 69.4285 0.0000 9.4553 0.0000
# 2 40.3439 61.5311 47.3207 0.0000 0.1299 0.0000
# 3 69.4285 47.3207 121.4589 0.0000 -5.4111 0.0000
# 4 0.0000 0.0000 0.0000 27.6079 0.0000 -2.3126
# 5 9.4553 0.1299 -5.4111 0.0000 22.4861 0.0000
# 6 0.0000 0.0000 0.0000 -2.3126 0.0000 23.1344
#
#
#
# Elastic Compliance Matrix: (Units=1/GPa)
#
#
# Indices 1 2 3 4 5 6 
#
# 1 0.011140 -0.003127 -0.005416 0.000000 -0.005969 0.000000
# 2 -0.003127 0.024204 -0.007673 0.000000 -0.000672 0.000000
# 3 -0.005416 -0.007673 0.014578 0.000000 0.005830 0.000000
# 4 0.000000 0.000000 0.000000 0.036527 0.000000 0.003651
# 5 -0.005969 -0.000672 0.005830 0.000000 0.048389 0.000000
# 6 0.000000 0.000000 0.000000 0.003651 0.000000 0.043591
#
#
# Mechanical properties :
#
#
# Convention : Reuss Voigt Hill
#
# Bulk Modulus (GPa) = 57.16850 70.78742 63.97796
# Shear Modulus (GPa) = 23.07457 25.69952 24.38705
#
# Velocity S-wave (km/s) = 3.57774 3.77576 3.67808
# Velocity P-wave (km/s) = 6.98428 7.63391 7.31631
#
# Compressibility (1/GPa) = 0.01749215
#
# Stress axis : x y z
#
# Youngs Moduli (GPa) = 89.76840 41.31553 68.59699
#
# Poissons Ratio (x) = 0.12917 0.37149
# Poissons Ratio (y) = 0.28066 0.52632
# Poissons Ratio (z) = 0.48615 0.31700
#
# Static dielectric constant tensor:
#      x y z
#    x 3.485090 0.000000 -0.073400 
#    y 0.000000 3.222160 0.000000 
#    z -0.073400 0.000000 3.349530 
# 
# 
# High freq. dielectric constant tensor:
#      x y z
#    x 1.705350 0.000000 -0.005970 
#    y 0.000000 1.672150 0.000000 
#    z -0.005970 0.000000 1.693870 
# 
# From -- ./inp_files/314013.got.cif
#   From: 2010.06.25/outbox.cif.g09.slc.cpg/sg12_158_cif.got.tgz:314013.got - 2010.06.28 00:19:55.
