data_PCOD8085640
_publ_section_title
;
Structure prediction by ZEFSAII (Michael W. Deem and Ramdas Pophale) SiO2 
 PCOD8085640
Probable space group: C 2/M
;
_chemical_formula_sum "Si O2"
_cell_formula_units_Z 48
_cell_length_a 28.188004
_cell_length_b 8.545160
_cell_length_c 11.305273
_cell_angle_alpha 90.000000
_cell_angle_beta 101.956352
_cell_angle_gamma 90.000000
_cell_volume 2664.036454
_symmetry_space_group_name_H-M "C 2/M"
_symmetry_group_IT_number 12
_symmetry_cell_setting 'monoclinic'
loop_
_space_group_symop_operation_xyz
x,y,z
-x,y,-z
-x,-y,-z
x,-y,z
1/2+x,1/2+y,z
1/2-x,1/2+y,-z
1/2-x,1/2-y,-z
1/2+x,1/2-y,z
loop_
_atom_site_type_symbol
_atom_site_label
_atom_site_fract_x
_atom_site_fract_y
_atom_site_fract_z
Si Si1 0.863481 0.316799 0.462201
Si Si2 0.930685 0.817656 0.914227
Si Si3 0.156002 0.816238 0.293004
Si Si4 0.478449 0.181208 0.157167
Si Si5 0.956412 0.818224 0.393332
Si Si6 0.259882 0.181531 0.379227
O O1 0.875450 0.500000 0.451018
O O2 0.857755 0.282497 0.598452
O O3 0.906055 0.212247 0.432461
O O4 0.813757 0.263936 0.365491
O O5 0.879388 0.767411 0.831638
O O6 0.973168 0.780814 0.842447
O O7 0.932034 0.000000 0.945757
O O8 0.937644 0.721421 0.038524
O O9 0.211654 0.778776 0.276783
O O10 0.150157 0.000000 0.320426
O O11 0.457596 0.219082 0.274487
O O12 0.491865 0.000000 0.155201
O O13 0.000000 0.762306 0.500000
O O14 0.961468 0.000000 0.364624
O O15 0.250000 0.250000 0.500000
O O16 0.265022 0.000000 0.400660
#
# Coordination Sequence:
#
# PCOD8085640 Si02
#       6
#     8   8   8   8   8   8
#     4  10  19  30  48  74 103 131 159 199 244 285
#     4  10  19  33  53  74  98 129 164 199 236 283
#     4   9  17  30  50  74 100 131 164 197 235 284
#     4  11  22  35  51  72  99 128 160 201 245 285
#     4  11  23  37  52  70  96 130 164 197 237 290
#     4   8  15  28  45  69  99 128 159 195 238 282
#
# _framework density 18.017771
#
# number of rings (size 3 to 8) (size 9 to 14) (size 15 to 20)
#    0.000    2.167    0.000    5.000    0.000    7.333 
#    0.000    0.000    0.000    1.000    0.000    0.000 
#    0.000    0.000    0.000    0.000    0.000    0.000 
#
# Total GULP energy -297414.245468 kJ/mol
# GULP energy per Si atom -12392.260228 kJ/mol
# Density = 1.797676 g / cm^3
# Si number density = 18.017771 Si / 1000 Ang^3
#
#
#
# Elastic Constant Matrix: (Units=GPa)
#
#
# Indices 1 2 3 4 5 6 
#
# 1 135.7696 17.2674 58.5994 0.0000 28.3515 0.0000
# 2 17.2674 38.6613 20.8862 0.0000 5.0773 0.0000
# 3 58.5994 20.8862 81.7460 0.0000 15.6633 0.0000
# 4 0.0000 0.0000 0.0000 23.0496 0.0000 -2.2540
# 5 28.3515 5.0773 15.6633 0.0000 33.1394 0.0000
# 6 0.0000 0.0000 0.0000 -2.2540 0.0000 13.1556
#
#
#
# Elastic Compliance Matrix: (Units=1/GPa)
#
#
# Indices 1 2 3 4 5 6 
#
# 1 0.011912 -0.000603 -0.007092 0.000000 -0.006746 0.000000
# 2 -0.000603 0.030073 -0.007112 0.000000 -0.000731 0.000000
# 3 -0.007092 -0.007112 0.019532 0.000000 -0.002074 0.000000
# 4 0.000000 0.000000 0.000000 0.044124 0.000000 0.007560
# 5 -0.006746 -0.000731 -0.002074 0.000000 0.037040 0.000000
# 6 0.000000 0.000000 0.000000 0.007560 0.000000 0.077308
#
#
# Mechanical properties :
#
#
# Convention : Reuss Voigt Hill
#
# Bulk Modulus (GPa) = 31.34507 49.96476 40.65491
# Shear Modulus (GPa) = 19.21331 24.49719 21.85525
#
# Velocity S-wave (km/s) = 3.26905 3.69129 3.48657
# Velocity P-wave (km/s) = 5.62880 6.77927 6.23065
#
# Compressibility (1/GPa) = 0.03190295
#
# Stress axis : x y z
#
# Youngs Moduli (GPa) = 83.94879 33.25277 51.19891
#
# Poissons Ratio (x) = 0.02004 0.36312
# Poissons Ratio (y) = 0.05060 0.36410
# Poissons Ratio (z) = 0.59540 0.23648
#
# Static dielectric constant tensor:
#      x y z
#    x 3.815780 0.000000 0.439780 
#    y 0.000000 3.449630 0.000000 
#    z 0.439780 0.000000 3.179500 
# 
# 
# High freq. dielectric constant tensor:
#      x y z
#    x 1.705120 0.000000 0.026430 
#    y 0.000000 1.704770 0.000000 
#    z 0.026430 0.000000 1.667180 
# 
# From -- ./inp_files/179316.got.cif
#   From: 2010.06.25/outbox.cif.g09.slc.cpg/sg12_90_cif.got.tgz:179316.got - 2010.06.28 00:19:55.
