data_PCOD8085019
_publ_section_title
;
Structure prediction by ZEFSAII (Michael W. Deem and Ramdas Pophale) SiO2 
 PCOD8085019
Probable space group: C 2/M
;
_chemical_formula_sum "Si O2"
_cell_formula_units_Z 48
_cell_length_a 5.337467
_cell_length_b 26.907324
_cell_length_c 19.589787
_cell_angle_alpha 90.000000
_cell_angle_beta 82.170189
_cell_angle_gamma 90.000000
_cell_volume 2787.196234
_symmetry_space_group_name_H-M "C 2/M"
_symmetry_group_IT_number 12
_symmetry_cell_setting 'monoclinic'
loop_
_space_group_symop_operation_xyz
x,y,z
-x,y,-z
-x,-y,-z
x,-y,z
1/2+x,1/2+y,z
1/2-x,1/2+y,-z
1/2-x,1/2-y,-z
1/2+x,1/2-y,z
loop_
_atom_site_type_symbol
_atom_site_label
_atom_site_fract_x
_atom_site_fract_y
_atom_site_fract_z
Si Si1 0.368420 0.360682 0.763184
Si Si2 0.094201 0.236972 0.311579
Si Si3 0.921990 0.058851 0.656008
Si Si4 0.843694 0.317637 0.812638
Si Si5 0.961431 0.441123 0.577126
Si Si6 0.735513 0.804830 0.028974
O O1 0.399423 0.321238 0.701166
O O2 0.384528 0.415687 0.730944
O O3 0.600973 0.352289 0.806098
O O4 0.092966 0.352286 0.806104
O O5 0.322645 0.250001 0.354690
O O6 0.129661 0.270843 0.240650
O O7 0.693612 0.076926 0.615622
O O8 0.190750 0.076926 0.615619
O O9 0.916195 0.000000 0.667600
O O10 0.805317 0.297280 0.889361
O O11 0.963432 0.500000 0.573131
O O12 0.000000 0.418722 0.500000
O O13 0.500000 0.832798 0.000000
O O14 0.750000 0.750000 0.000000
O O15 0.000000 0.832798 0.000000
#
# Coordination Sequence:
#
# PCOD8085019 Si02
#       6
#     8   8   8   8   8   8
#     4  10  19  29  46  63  93 129 155 185 230 273
#     4   8  16  25  42  56  84 116 148 175 226 259
#     4  10  19  31  47  72 101 124 157 193 222 273
#     4  10  19  31  44  64  95 124 152 190 234 279
#     4   9  17  30  49  70  97 128 151 183 237 285
#     4  10  21  27  43  64  92 125 150 179 230 295
#
# _framework density 17.221609000000001
#
# number of rings (size 3 to 8) (size 9 to 14) (size 15 to 20)
#    0.000    2.500    0.000    2.500   14.000    2.000 
#    0.000    0.000    0.000    0.000    0.000    0.000 
#    0.000  133.333    0.000    0.000    0.000    0.000 
#
# Total GULP energy -297324.939923 kJ/mol
# GULP energy per Si atom -12388.539163 kJ/mol
# Density = 1.718241 g / cm^3
# Si number density = 17.221609 Si / 1000 Ang^3
#
#
#
# Elastic Constant Matrix: (Units=GPa)
#
#
# Indices 1 2 3 4 5 6 
#
# 1 187.7021 24.2804 28.9501 0.0000 -8.7963 0.0000
# 2 24.2804 41.3190 28.6604 0.0000 0.3597 0.0000
# 3 28.9501 28.6604 65.2901 0.0000 -1.2461 0.0000
# 4 0.0000 0.0000 0.0000 17.5979 0.0000 0.4588
# 5 -8.7963 0.3597 -1.2461 0.0000 26.3854 0.0000
# 6 0.0000 0.0000 0.0000 0.4588 0.0000 12.0247
#
#
#
# Elastic Compliance Matrix: (Units=1/GPa)
#
#
# Indices 1 2 3 4 5 6 
#
# 1 0.005974 -0.002467 -0.001529 0.000000 0.001953 0.000000
# 2 -0.002467 0.035854 -0.014683 0.000000 -0.002005 0.000000
# 3 -0.001529 -0.014683 0.022454 0.000000 0.000751 0.000000
# 4 0.000000 0.000000 0.000000 0.056882 0.000000 -0.002170
# 5 0.001953 -0.002005 0.000751 0.000000 0.038614 0.000000
# 6 0.000000 0.000000 0.000000 -0.002170 0.000000 0.083245
#
#
# Mechanical properties :
#
#
# Convention : Reuss Voigt Hill
#
# Bulk Modulus (GPa) = 37.14162 50.89920 44.02041
# Shear Modulus (GPa) = 17.27986 25.36296 21.32141
#
# Velocity S-wave (km/s) = 3.17106 3.84179 3.52243
# Velocity P-wave (km/s) = 5.91787 7.02131 6.49307
#
# Compressibility (1/GPa) = 0.02692397
#
# Stress axis : x y z
#
# Youngs Moduli (GPa) = 167.39111 27.89091 44.53589
#
# Poissons Ratio (x) = 0.06881 0.06808
# Poissons Ratio (y) = 0.41299 0.65392
# Poissons Ratio (z) = 0.25587 0.40952
#
# Static dielectric constant tensor:
#      x y z
#    x 3.167310 0.000000 -0.022120 
#    y 0.000000 2.707060 0.000000 
#    z -0.022120 0.000000 2.897710 
# 
# 
# High freq. dielectric constant tensor:
#      x y z
#    x 1.710820 0.000000 -0.007160 
#    y 0.000000 1.610890 0.000000 
#    z -0.007160 0.000000 1.623540 
# 
# From -- ./inp_files/192060.got.cif
#   From: 2010.06.25/outbox.cif.g09.slc.cpg/sg12_97_cif.got.tgz:192060.got - 2010.06.28 00:19:55.
