data_PCOD8085191
_publ_section_title
;
Structure prediction by ZEFSAII (Michael W. Deem and Ramdas Pophale) SiO2 
 PCOD8085191
Probable space group: C 2/M
;
_chemical_formula_sum "Si O2"
_cell_formula_units_Z 56
_cell_length_a 27.584847
_cell_length_b 9.175605
_cell_length_c 14.082943
_cell_angle_alpha 90.000000
_cell_angle_beta 76.315032
_cell_angle_gamma 90.000000
_cell_volume 3463.308932
_symmetry_space_group_name_H-M "C 2/M"
_symmetry_group_IT_number 12
_symmetry_cell_setting 'monoclinic'
loop_
_space_group_symop_operation_xyz
x,y,z
-x,y,-z
-x,-y,-z
x,-y,z
1/2+x,1/2+y,z
1/2-x,1/2+y,-z
1/2-x,1/2-y,-z
1/2+x,1/2-y,z
loop_
_atom_site_type_symbol
_atom_site_label
_atom_site_fract_x
_atom_site_fract_y
_atom_site_fract_z
Si Si1 0.133168 0.331918 0.563970
Si Si2 0.629533 0.663272 0.279410
Si Si3 0.317775 0.169777 0.900283
Si Si4 0.792328 0.836645 0.595037
Si Si5 0.812286 0.667820 0.277491
Si Si6 0.794858 0.829930 0.097909
Si Si7 0.056956 0.172070 0.476142
O O1 0.126776 0.500000 0.539522
O O2 0.182793 0.274090 0.489597
O O3 0.140379 0.312029 0.674142
O O4 0.083984 0.246539 0.553143
O O5 0.619113 0.500000 0.246009
O O6 0.637913 0.770760 0.187138
O O7 0.679148 0.664883 0.318676
O O8 0.583041 0.718648 0.365055
O O9 0.264279 0.201800 0.876841
O O10 0.326251 0.000000 0.913833
O O11 0.321966 0.251053 0.998307
O O12 0.736430 0.783464 0.640907
O O13 0.793528 0.000000 0.551136
O O14 0.806624 0.500000 0.247300
O O15 0.819121 0.768465 0.182763
O O16 0.806400 0.000000 0.085489
O O17 0.000000 0.224139 0.500000
O O18 0.062284 0.000000 0.488549
#
# Coordination Sequence:
#
# PCOD8085191 Si02
#       7
#     8   8   8   8   8   8   8
#     4  10  20  30  45  69  95 122 155 195 237 279
#     4   9  16  28  48  69  91 121 157 195 231 273
#     4  10  19  30  44  65  93 125 159 196 235 274
#     4   9  17  29  44  62  91 130 163 190 223 269
#     4  10  19  31  44  63  94 130 161 192 231 273
#     4  10  20  30  44  65  91 127 166 199 227 266
#     4   9  19  36  54  71  93 123 157 194 238 285
#
# _framework density 16.169506999999999
#
# number of rings (size 3 to 8) (size 9 to 14) (size 15 to 20)
#    0.000    2.429    1.429    2.571    0.000    5.429 
#    0.000    0.000    0.000    0.000    0.000    1.000 
#    0.000    8.000    0.000    0.000    0.000    0.000 
#
# Total GULP energy -347191.073634 kJ/mol
# GULP energy per Si atom -12399.681201 kJ/mol
# Density = 1.613270 g / cm^3
# Si number density = 16.169507 Si / 1000 Ang^3
#
#
#
# Elastic Constant Matrix: (Units=GPa)
#
#
# Indices 1 2 3 4 5 6 
#
# 1 80.4345 36.0972 50.8271 0.0000 -3.4152 0.0000
# 2 36.0972 83.5479 60.3044 0.0000 3.8808 0.0000
# 3 50.8271 60.3044 100.7352 0.0000 5.8757 0.0000
# 4 0.0000 0.0000 0.0000 32.0213 0.0000 2.1082
# 5 -3.4152 3.8808 5.8757 0.0000 16.6287 0.0000
# 6 0.0000 0.0000 0.0000 2.1082 0.0000 18.8011
#
#
#
# Elastic Compliance Matrix: (Units=1/GPa)
#
#
# Indices 1 2 3 4 5 6 
#
# 1 0.019388 -0.002375 -0.008807 0.000000 0.007648 0.000000
# 2 -0.002375 0.021371 -0.011513 0.000000 -0.001407 0.000000
# 3 -0.008807 -0.011513 0.021658 0.000000 -0.006775 0.000000
# 4 0.000000 0.000000 0.000000 0.031462 0.000000 -0.003528
# 5 0.007648 -0.001407 -0.006775 0.000000 0.064430 0.000000
# 6 0.000000 0.000000 0.000000 -0.003528 0.000000 0.053584
#
#
# Mechanical properties :
#
#
# Convention : Reuss Voigt Hill
#
# Bulk Modulus (GPa) = 58.73042 62.13057 60.43049
# Shear Modulus (GPa) = 19.01448 21.32280 20.16864
#
# Velocity S-wave (km/s) = 3.43293 3.63534 3.53558
# Velocity P-wave (km/s) = 7.21900 7.49192 7.35672
#
# Compressibility (1/GPa) = 0.01702695
#
# Stress axis : x y z
#
# Youngs Moduli (GPa) = 51.57771 46.79296 46.17299
#
# Poissons Ratio (x) = 0.11115 0.40663
# Poissons Ratio (y) = 0.12252 0.53158
# Poissons Ratio (z) = 0.45422 0.53872
#
# Static dielectric constant tensor:
#      x y z
#    x 2.810550 0.000000 0.027940 
#    y 0.000000 3.070960 0.000000 
#    z 0.027940 0.000000 2.969220 
# 
# 
# High freq. dielectric constant tensor:
#      x y z
#    x 1.579450 0.000000 0.006690 
#    y 0.000000 1.629580 0.000000 
#    z 0.006690 0.000000 1.614200 
# 
# From -- ./inp_files/247768.got.cif
#   From: 2010.06.25/outbox.cif.g09.slc.cpg/sg12_124_cif.got.tgz:247768.got - 2010.06.28 00:19:55.
