data_PCOD8085746
_publ_section_title
;
Structure prediction by ZEFSAII (Michael W. Deem and Ramdas Pophale) SiO2 
 PCOD8085746
Probable space group: C 2/M
;
_chemical_formula_sum "Si O2"
_cell_formula_units_Z 48
_cell_length_a 9.030371
_cell_length_b 20.037398
_cell_length_c 28.597993
_cell_angle_alpha 90.000000
_cell_angle_beta 148.440338
_cell_angle_gamma 90.000000
_cell_volume 2708.349367
_symmetry_space_group_name_H-M "C 2/M"
_symmetry_group_IT_number 12
_symmetry_cell_setting 'monoclinic'
loop_
_space_group_symop_operation_xyz
x,y,z
-x,y,-z
-x,-y,-z
x,-y,z
1/2+x,1/2+y,z
1/2-x,1/2+y,-z
1/2-x,1/2-y,-z
1/2+x,1/2-y,z
loop_
_atom_site_type_symbol
_atom_site_label
_atom_site_fract_x
_atom_site_fract_y
_atom_site_fract_z
Si Si1 0.193184 0.837861 0.225465
Si Si2 0.255137 0.683780 0.970369
Si Si3 0.650293 0.705575 0.779681
Si Si4 0.791143 0.334209 0.580607
Si Si5 0.633894 0.804953 0.582132
Si Si6 0.695083 0.423473 0.940050
O O1 0.300694 0.784075 0.216711
O O2 0.459555 0.871266 0.324299
O O3 0.993674 0.798616 0.208208
O O4 0.034638 0.898995 0.159062
O O5 0.330779 0.618306 0.019826
O O6 0.500000 0.696658 0.000000
O O7 0.250000 0.750000 0.000000
O O8 0.956174 0.670134 0.863802
O O9 0.442565 0.670082 0.684944
O O10 0.500000 0.378609 0.500000
O O11 0.690007 0.271240 0.584132
O O12 0.899506 0.310885 0.559244
O O13 0.500000 0.842522 0.500000
O O14 0.634299 0.500000 0.935941
O O15 0.000000 0.412473 0.000000
#
# Coordination Sequence:
#
# PCOD8085746 Si02
#       6
#     8   8   8   8   8   8
#     4  10  19  32  51  77 105 134 176 213 259 314
#     4  12  22  35  56  82 110 137 173 221 261 312
#     4  10  19  30  49  77 105 134 173 211 259 308
#     4   9  16  26  42  68 101 131 165 206 253 308
#     4   9  16  26  40  64 103 137 159 200 253 313
#     4  11  23  39  56  74 105 143 178 218 267 320
#
# _framework density 17.722971000000001
#
# number of rings (size 3 to 8) (size 9 to 14) (size 15 to 20)
#    0.000    1.833    3.333    3.500    0.000    1.667 
#    0.000    0.000    0.000    0.500    0.000    0.000 
#    0.000    4.000    0.000    0.000    0.000    0.000 
#
# Total GULP energy -297327.475883 kJ/mol
# GULP energy per Si atom -12388.644828 kJ/mol
# Density = 1.768263 g / cm^3
# Si number density = 17.722971 Si / 1000 Ang^3
#
#
#
# Elastic Constant Matrix: (Units=GPa)
#
#
# Indices 1 2 3 4 5 6 
#
# 1 101.7041 42.2354 64.2071 -0.0006 8.1720 -0.0010
# 2 42.2354 69.5051 40.7116 -0.0020 -6.3484 0.0011
# 3 64.2071 40.7116 190.1975 0.0004 3.7514 -0.0009
# 4 -0.0006 -0.0020 0.0004 10.3428 0.0003 -0.7726
# 5 8.1720 -6.3484 3.7514 0.0003 30.7125 0.0001
# 6 -0.0010 0.0011 -0.0009 -0.7726 0.0001 11.7857
#
#
#
# Elastic Compliance Matrix: (Units=1/GPa)
#
#
# Indices 1 2 3 4 5 6 
#
# 1 0.015837 -0.008064 -0.003513 0.000000 -0.005452 0.000002
# 2 -0.008064 0.021020 -0.001910 0.000003 0.006724 -0.000003
# 3 -0.003513 -0.001910 0.006858 -0.000001 -0.000298 0.000000
# 4 0.000000 0.000003 -0.000001 0.097162 0.000000 0.006370
# 5 -0.005452 0.006724 -0.000298 0.000000 0.035437 -0.000001
# 6 0.000002 -0.000003 0.000000 0.006370 -0.000001 0.085266
#
#
# Mechanical properties :
#
#
# Convention : Reuss Voigt Hill
#
# Bulk Modulus (GPa) = 59.72748 72.85721 66.29235
# Shear Modulus (GPa) = 16.99909 24.85169 20.92539
#
# Velocity S-wave (km/s) = 3.10038 3.74870 3.43985
# Velocity P-wave (km/s) = 6.82571 7.74178 7.29813
#
# Compressibility (1/GPa) = 0.01674271
#
# Stress axis : x y z
#
# Youngs Moduli (GPa) = 63.14426 47.57322 145.81192
#
# Poissons Ratio (x) = 0.38362 0.51218
# Poissons Ratio (y) = 0.50918 0.27847
# Poissons Ratio (z) = 0.22180 0.09085
#
# Static dielectric constant tensor:
#      x y z
#    x 3.308930 0.000000 -0.008030 
#    y 0.000000 2.670960 -0.000020 
#    z -0.008030 -0.000020 4.514410 
# 
# 
# High freq. dielectric constant tensor:
#      x y z
#    x 1.693960 0.000000 0.001140 
#    y 0.000000 1.602510 0.000000 
#    z 0.001140 0.000000 1.727250 
# 
# From -- ./inp_files/196507.got.cif
#   From: 2010.06.25/outbox.cif.g09.slc.cpg/sg12_99_cif.got.tgz:196507.got - 2010.06.28 00:19:55.
