data_PCOD8085897
_publ_section_title
;
Structure prediction by ZEFSAII (Michael W. Deem and Ramdas Pophale) SiO2 
 PCOD8085897
Probable space group: C 2/M
;
_chemical_formula_sum "Si O2"
_cell_formula_units_Z 64
_cell_length_a 8.684095
_cell_length_b 19.949991
_cell_length_c 20.201471
_cell_angle_alpha 90.000000
_cell_angle_beta 107.669862
_cell_angle_gamma 90.000000
_cell_volume 3334.737928
_symmetry_space_group_name_H-M "C 2/M"
_symmetry_group_IT_number 12
_symmetry_cell_setting 'monoclinic'
loop_
_space_group_symop_operation_xyz
x,y,z
-x,y,-z
-x,-y,-z
x,-y,z
1/2+x,1/2+y,z
1/2-x,1/2+y,-z
1/2-x,1/2-y,-z
1/2+x,1/2-y,z
loop_
_atom_site_type_symbol
_atom_site_label
_atom_site_fract_x
_atom_site_fract_y
_atom_site_fract_z
Si Si1 0.501280 0.421922 0.396902
Si Si2 0.992657 0.690634 0.572590
Si Si3 0.139302 0.200013 0.072661
Si Si4 0.260644 0.921629 0.533535
Si Si5 0.195690 0.248751 0.336446
Si Si6 0.146052 0.167891 0.882061
Si Si7 0.096088 0.165650 0.728706
Si Si8 0.814608 0.924879 0.993815
O O1 0.482845 0.500000 0.391333
O O2 0.672442 0.402623 0.452730
O O3 0.353948 0.394445 0.422443
O O4 0.491286 0.394642 0.321325
O O5 0.162912 0.694264 0.633154
O O6 0.000000 0.723030 0.500000
O O7 0.934737 0.613606 0.559301
O O8 0.858703 0.730090 0.597238
O O9 0.250987 0.264693 0.092660
O O10 0.042898 0.184616 0.127961
O O11 0.246964 0.133795 0.065249
O O12 0.000000 0.212965 0.000000
O O13 0.292464 0.000000 0.543849
O O14 0.258696 0.308626 0.298470
O O15 0.042479 0.220527 0.276644
O O16 0.164203 0.143388 0.808778
O O17 0.208501 0.105864 0.935356
O O18 0.731832 0.000000 0.977802
O O19 0.000000 0.935296 0.000000
#
# Coordination Sequence:
#
# PCOD8085897 Si02
#       8
#     8   8   8   8   8   8   8   8
#     4   9  18  33  53  74  99 132 171 218 262 309
#     4  11  20  34  51  74  97 128 169 223 272 322
#     4   9  17  32  52  80 108 137 171 216 255 297
#     4   9  18  34  54  74  96 129 174 218 266 314
#     4  10  23  34  48  71 104 135 167 211 272 316
#     4  10  19  30  54  78 105 140 179 207 256 315
#     4  11  20  36  50  74 106 138 174 213 259 318
#     4   8  15  29  50  78 107 132 168 215 252 289
#
# _framework density 19.191913
#
# number of rings (size 3 to 8) (size 9 to 14) (size 15 to 20)
#    0.000    2.625    1.250    4.125    0.000    1.750 
#    0.000    0.625    0.000    3.375    0.000    4.375 
#    0.000    0.000    0.000    0.000    0.000    0.000 
#
# Total GULP energy -396438.415010 kJ/mol
# GULP energy per Si atom -12388.700469 kJ/mol
# Density = 1.914823 g / cm^3
# Si number density = 19.191913 Si / 1000 Ang^3
#
#
#
# Elastic Constant Matrix: (Units=GPa)
#
#
# Indices 1 2 3 4 5 6 
#
# 1 58.8140 22.5870 21.5896 0.0000 -12.9491 0.0000
# 2 22.5870 82.1935 37.2028 0.0000 -2.9075 0.0000
# 3 21.5896 37.2028 108.1150 0.0000 -21.6942 0.0000
# 4 0.0000 0.0000 0.0000 20.0863 0.0000 1.4673
# 5 -12.9491 -2.9075 -21.6942 0.0000 22.0459 0.0000
# 6 0.0000 0.0000 0.0000 1.4673 0.0000 22.9206
#
#
#
# Elastic Compliance Matrix: (Units=1/GPa)
#
#
# Indices 1 2 3 4 5 6 
#
# 1 0.021796 -0.005552 -0.000025 0.000000 0.012046 0.000000
# 2 -0.005552 0.016073 -0.005796 0.000000 -0.006845 0.000000
# 3 -0.000025 -0.005796 0.013821 0.000000 0.012822 0.000000
# 4 0.000000 0.000000 0.000000 0.050019 0.000000 -0.003202
# 5 0.012046 -0.006845 0.012822 0.000000 0.064150 0.000000
# 6 0.000000 0.000000 0.000000 -0.003202 0.000000 0.043834
#
#
# Mechanical properties :
#
#
# Convention : Reuss Voigt Hill
#
# Bulk Modulus (GPa) = 34.54755 45.76458 40.15607
# Shear Modulus (GPa) = 20.65366 24.19344 22.42355
#
# Velocity S-wave (km/s) = 3.28405 3.55435 3.42187
# Velocity P-wave (km/s) = 5.69387 6.38295 6.04823
#
# Compressibility (1/GPa) = 0.02894561
#
# Stress axis : x y z
#
# Youngs Moduli (GPa) = 45.87930 62.21505 72.35114
#
# Poissons Ratio (x) = 0.34544 0.00180
# Poissons Ratio (y) = 0.25474 0.41931
# Poissons Ratio (z) = 0.00114 0.36057
#
# Static dielectric constant tensor:
#      x y z
#    x 3.535850 0.000000 -0.324920 
#    y 0.000000 3.664150 0.000000 
#    z -0.324920 0.000000 3.487960 
# 
# 
# High freq. dielectric constant tensor:
#      x y z
#    x 1.735580 0.000000 -0.022610 
#    y 0.000000 1.739090 0.000000 
#    z -0.022610 0.000000 1.728090 
# 
# From -- ./inp_files/301443.got.cif
#   From: 2010.06.25/outbox.cif.g09.slc.cpg/sg12_151_cif.got.tgz:301443.got - 2010.06.28 00:19:55.
