data_PCOD8085792
_publ_section_title
;
Structure prediction by ZEFSAII (Michael W. Deem and Ramdas Pophale) SiO2 
 PCOD8085792
Probable space group: C 2/M
;
_chemical_formula_sum "Si O2"
_cell_formula_units_Z 56
_cell_length_a 25.294284
_cell_length_b 9.013917
_cell_length_c 25.539826
_cell_angle_alpha 90.000000
_cell_angle_beta 145.556275
_cell_angle_gamma 90.000000
_cell_volume 3293.522299
_symmetry_space_group_name_H-M "C 2/M"
_symmetry_group_IT_number 12
_symmetry_cell_setting 'monoclinic'
loop_
_space_group_symop_operation_xyz
x,y,z
-x,y,-z
-x,-y,-z
x,-y,z
1/2+x,1/2+y,z
1/2-x,1/2+y,-z
1/2-x,1/2-y,-z
1/2+x,1/2-y,z
loop_
_atom_site_type_symbol
_atom_site_label
_atom_site_fract_x
_atom_site_fract_y
_atom_site_fract_z
Si Si1 0.074387 0.824192 0.893613
Si Si2 0.779547 0.672265 0.605815
Si Si3 0.604479 0.174099 0.100304
Si Si4 0.287178 0.824925 0.914278
Si Si5 0.125587 0.175153 0.225469
Si Si6 0.886557 0.828149 0.601702
Si Si7 0.089328 0.825707 0.788073
O O1 0.084225 0.761486 0.842789
O O2 0.974614 0.772725 0.834580
O O3 0.084119 0.000000 0.904483
O O4 0.155810 0.752262 0.993494
O O5 0.799194 0.500000 0.631410
O O6 0.793585 0.759268 0.671348
O O7 0.850464 0.729568 0.619846
O O8 0.673119 0.700737 0.499512
O O9 0.673509 0.221099 0.110020
O O10 0.640450 0.261962 0.179843
O O11 0.607709 0.000000 0.115076
O O12 0.500000 0.224462 0.000000
O O13 0.180100 0.766764 0.831079
O O14 0.296291 0.000000 0.929854
O O15 0.135723 0.000000 0.232481
O O16 0.994577 0.783823 0.679168
O O17 0.878473 0.000000 0.612872
O O18 0.098464 0.000000 0.800703
#
# Coordination Sequence:
#
# PCOD8085792 Si02
#       7
#     8   8   8   8   8   8   8
#     4  10  19  31  48  71 101 132 162 200 242 293
#     4  10  19  30  50  77 102 129 161 203 250 293
#     4  10  20  34  50  72 100 128 165 213 250 282
#     4  10  20  33  51  71  97 134 168 202 244 289
#     4  11  21  33  52  73  99 134 166 201 247 297
#     4   9  17  32  51  73 103 132 161 199 245 298
#     4   9  17  32  51  72 100 133 165 197 240 294
#
# _framework density 17.003073000000001
#
# number of rings (size 3 to 8) (size 9 to 14) (size 15 to 20)
#    0.000    2.143    2.857    1.286    0.000    2.000 
#    0.000    0.714    0.000    0.857    0.000    6.000 
#    0.000    0.000    0.000    0.000    0.000    0.000 
#
# Total GULP energy -347196.862651 kJ/mol
# GULP energy per Si atom -12399.887952 kJ/mol
# Density = 1.696437 g / cm^3
# Si number density = 17.003073 Si / 1000 Ang^3
#
#
#
# Elastic Constant Matrix: (Units=GPa)
#
#
# Indices 1 2 3 4 5 6 
#
# 1 118.9536 25.8393 72.9639 0.0000 7.9481 0.0000
# 2 25.8393 36.7238 39.3783 0.0000 -0.4627 0.0000
# 3 72.9639 39.3783 147.9674 0.0000 3.7918 0.0000
# 4 0.0000 0.0000 0.0000 27.8397 0.0000 -6.1134
# 5 7.9481 -0.4627 3.7918 0.0000 25.5638 0.0000
# 6 0.0000 0.0000 0.0000 -6.1134 0.0000 17.8838
#
#
#
# Elastic Compliance Matrix: (Units=1/GPa)
#
#
# Indices 1 2 3 4 5 6 
#
# 1 0.012536 -0.003246 -0.005236 0.000000 -0.003180 0.000000
# 2 -0.003246 0.039068 -0.008874 0.000000 0.003033 0.000000
# 3 -0.005236 -0.008874 0.011709 0.000000 -0.000269 0.000000
# 4 0.000000 0.000000 0.000000 0.038835 0.000000 0.013275
# 5 -0.003180 0.003033 -0.000269 0.000000 0.040201 0.000000
# 6 0.000000 0.000000 0.000000 0.013275 0.000000 0.060455
#
#
# Mechanical properties :
#
#
# Convention : Reuss Voigt Hill
#
# Bulk Modulus (GPa) = 34.96481 64.44530 49.70506
# Shear Modulus (GPa) = 20.23882 25.28835 22.76359
#
# Velocity S-wave (km/s) = 3.45382 3.86071 3.66292
# Velocity P-wave (km/s) = 6.04265 7.60644 6.86919
#
# Compressibility (1/GPa) = 0.02860018
#
# Stress axis : x y z
#
# Youngs Moduli (GPa) = 79.77028 25.59642 85.40488
#
# Poissons Ratio (x) = 0.08308 0.44721
# Poissons Ratio (y) = 0.25891 0.75791
# Poissons Ratio (z) = 0.41770 0.22715
#
# Static dielectric constant tensor:
#      x y z
#    x 3.251820 0.000000 0.130610 
#    y 0.000000 3.052770 0.000000 
#    z 0.130610 0.000000 3.356670 
# 
# 
# High freq. dielectric constant tensor:
#      x y z
#    x 1.637260 0.000000 0.000550 
#    y 0.000000 1.645030 0.000000 
#    z 0.000550 0.000000 1.661860 
# 
# From -- ./inp_files/237380.got.cif
#   From: 2010.06.25/outbox.cif.g09.slc.cpg/sg12_119_cif.got.tgz:237380.got - 2010.06.28 00:19:55.
