data_PCOD8085974
_publ_section_title
;
Structure prediction by ZEFSAII (Michael W. Deem and Ramdas Pophale) SiO2 
 PCOD8085974
Probable space group: C 2/M
;
_chemical_formula_sum "Si O2"
_cell_formula_units_Z 64
_cell_length_a 31.619075
_cell_length_b 8.984080
_cell_length_c 15.799529
_cell_angle_alpha 90.000000
_cell_angle_beta 54.201439
_cell_angle_gamma 90.000000
_cell_volume 3640.238230
_symmetry_space_group_name_H-M "C 2/M"
_symmetry_group_IT_number 12
_symmetry_cell_setting 'monoclinic'
loop_
_space_group_symop_operation_xyz
x,y,z
-x,y,-z
-x,-y,-z
x,-y,z
1/2+x,1/2+y,z
1/2-x,1/2+y,-z
1/2-x,1/2-y,-z
1/2+x,1/2-y,z
loop_
_atom_site_type_symbol
_atom_site_label
_atom_site_fract_x
_atom_site_fract_y
_atom_site_fract_z
Si Si1 0.041155 0.174450 0.766907
Si Si2 0.939550 0.665353 0.088358
Si Si3 0.288927 0.173684 0.645878
Si Si4 0.791845 0.174374 0.392123
Si Si5 0.673931 0.674357 0.056498
Si Si6 0.779774 0.676178 0.844052
Si Si7 0.076251 0.174413 0.060629
Si Si8 0.369077 0.823254 0.411436
O O1 0.067588 0.228066 0.823165
O O2 0.071817 0.258705 0.654433
O O3 0.980087 0.216999 0.834439
O O4 0.049718 0.000000 0.747471
O O5 0.916151 0.500000 0.132641
O O6 0.911524 0.738972 0.040315
O O7 0.000000 0.650456 0.000000
O O8 0.230508 0.200712 0.676644
O O9 0.290759 0.243790 0.737628
O O10 0.335020 0.237642 0.531055
O O11 0.299606 0.000000 0.640164
O O12 0.750000 0.250000 0.500000
O O13 0.845674 0.258300 0.350019
O O14 0.797425 0.000000 0.405666
O O15 0.675747 0.500000 0.071928
O O16 0.677584 0.756563 0.142228
O O17 0.619765 0.722487 0.077150
O O18 0.721687 0.724042 0.940398
O O19 0.785507 0.500000 0.837265
O O20 0.078781 0.000000 0.036434
O O21 0.369645 0.000000 0.407286
#
# Coordination Sequence:
#
# PCOD8085974 Si02
#       8
#     8   8   8   8   8   8   8   8
#     4  10  19  31  47  67  94 130 167 196 229 277
#     4   9  17  29  45  67  95 124 156 194 232 270
#     4   8  16  30  48  69  94 125 157 192 235 282
#     4   9  16  28  45  66  93 125 160 195 233 277
#     4   9  18  32  50  73  97 119 147 189 239 286
#     4   9  17  32  52  71  92 119 151 187 234 290
#     4   9  18  32  49  69  96 128 159 192 233 284
#     4  10  19  31  46  67  97 129 163 202 239 276
#
# _framework density 17.581268000000001
#
# number of rings (size 3 to 8) (size 9 to 14) (size 15 to 20)
#    0.000    2.875    0.000    2.250    0.000    3.500 
#    0.000    6.250    0.000    0.750    0.000    5.250 
#    0.000    0.000    0.000    0.000    0.000    0.000 
#
# Total GULP energy -396556.216800 kJ/mol
# GULP energy per Si atom -12392.381775 kJ/mol
# Density = 1.754125 g / cm^3
# Si number density = 17.581268 Si / 1000 Ang^3
#
#
#
# Elastic Constant Matrix: (Units=GPa)
#
#
# Indices 1 2 3 4 5 6 
#
# 1 116.7065 35.1033 59.0714 0.0000 9.5613 0.0000
# 2 35.1033 57.8874 27.6334 0.0000 1.9421 0.0000
# 3 59.0714 27.6334 96.3421 0.0000 8.8750 0.0000
# 4 0.0000 0.0000 0.0000 24.8164 0.0000 -0.3739
# 5 9.5613 1.9421 8.8750 0.0000 25.6507 0.0000
# 6 0.0000 0.0000 0.0000 -0.3739 0.0000 26.5040
#
#
#
# Elastic Compliance Matrix: (Units=1/GPa)
#
#
# Indices 1 2 3 4 5 6 
#
# 1 0.013675 -0.004999 -0.006730 0.000000 -0.002390 0.000000
# 2 -0.004999 0.021849 -0.003327 0.000000 0.001360 0.000000
# 3 -0.006730 -0.003327 0.015707 0.000000 -0.002674 0.000000
# 4 0.000000 0.000000 0.000000 0.040305 0.000000 0.000569
# 5 -0.002390 0.001360 -0.002674 0.000000 0.040698 0.000000
# 6 0.000000 0.000000 0.000000 0.000569 0.000000 0.037738
#
#
# Mechanical properties :
#
#
# Convention : Reuss Voigt Hill
#
# Bulk Modulus (GPa) = 47.35435 57.17246 52.26341
# Shear Modulus (GPa) = 24.14014 25.33608 24.73811
#
# Velocity S-wave (km/s) = 3.70950 3.80028 3.75517
# Velocity P-wave (km/s) = 6.73352 7.20040 6.97087
#
# Compressibility (1/GPa) = 0.02111739
#
# Stress axis : x y z
#
# Youngs Moduli (GPa) = 73.12803 45.76854 63.66629
#
# Poissons Ratio (x) = 0.22881 0.42850
# Poissons Ratio (y) = 0.36559 0.21181
# Poissons Ratio (z) = 0.49218 0.15227
#
# Static dielectric constant tensor:
#      x y z
#    x 3.417790 0.000000 -0.027260 
#    y 0.000000 3.287380 0.000000 
#    z -0.027260 0.000000 3.393590 
# 
# 
# High freq. dielectric constant tensor:
#      x y z
#    x 1.662350 0.000000 -0.008320 
#    y 0.000000 1.674120 0.000000 
#    z -0.008320 0.000000 1.669640 
# 
# From -- ./inp_files/249047.got.cif
#   From: 2010.06.25/outbox.cif.g09.slc.cpg/sg12_125_cif.got.tgz:249047.got - 2010.06.28 00:19:55.
