data_PCOD8085427
_publ_section_title
;
Structure prediction by ZEFSAII (Michael W. Deem and Ramdas Pophale) SiO2 
 PCOD8085427
Probable space group: C 2/M
;
_chemical_formula_sum "Si O2"
_cell_formula_units_Z 64
_cell_length_a 17.555803
_cell_length_b 21.112950
_cell_length_c 16.354088
_cell_angle_alpha 90.000000
_cell_angle_beta 31.946343
_cell_angle_gamma 90.000000
_cell_volume 3207.407205
_symmetry_space_group_name_H-M "C 2/M"
_symmetry_group_IT_number 12
_symmetry_cell_setting 'monoclinic'
loop_
_space_group_symop_operation_xyz
x,y,z
-x,y,-z
-x,-y,-z
x,-y,z
1/2+x,1/2+y,z
1/2-x,1/2+y,-z
1/2-x,1/2-y,-z
1/2+x,1/2-y,z
loop_
_atom_site_type_symbol
_atom_site_label
_atom_site_fract_x
_atom_site_fract_y
_atom_site_fract_z
Si Si1 0.915421 0.800356 0.416890
Si Si2 0.149693 0.167592 0.778064
Si Si3 0.669804 0.161064 0.536205
Si Si4 0.044274 0.431305 0.866398
Si Si5 0.242002 0.207802 0.118559
Si Si6 0.215548 0.689828 0.737319
Si Si7 0.387707 0.881751 0.868959
Si Si8 0.828755 0.850409 0.057643
O O1 0.809917 0.848771 0.465737
O O2 0.889063 0.731785 0.402610
O O3 0.873817 0.802687 0.551757
O O4 0.080349 0.817300 0.250636
O O5 0.280071 0.145262 0.601781
O O6 0.131622 0.244027 0.799277
O O7 0.183554 0.135348 0.834451
O O8 0.996284 0.145704 0.880882
O O9 0.538284 0.116863 0.682613
O O10 0.122263 0.500000 0.782855
O O11 0.140005 0.369183 0.759476
O O12 0.908483 0.430235 0.926251
O O13 0.000000 0.426234 0.000000
O O14 0.284558 0.176216 0.166360
O O15 0.251572 0.283076 0.113650
O O16 0.344120 0.184696 0.952314
O O17 0.261844 0.899233 0.917509
#
# Coordination Sequence:
#
# PCOD8085427 Si02
#       8
#     8   8   8   8   8   8   8   8
#     4  10  19  30  46  74 109 143 175 212 262 327
#     4   9  20  34  50  79 120 149 166 207 263 340
#     4  10  20  30  47  73 113 145 175 210 265 326
#     4  11  23  40  58  76 102 143 194 242 272 300
#     4  11  20  29  48  77 110 142 179 213 262 332
#     4  10  19  34  53  72 106 147 185 215 265 322
#     4  12  21  33  54  79 103 140 183 227 270 315
#     4  10  20  31  50  77 113 146 176 206 260 333
#
# _framework density 19.953811999999999
#
# number of rings (size 3 to 8) (size 9 to 14) (size 15 to 20)
#    0.000    1.625    3.750    2.250    5.250    0.500 
#    0.000    0.000    0.000    2.250    0.000    3.500 
#    0.000    0.000    0.000    0.000    0.000    0.000 
#
# Total GULP energy -396433.120987 kJ/mol
# GULP energy per Si atom -12388.535031 kJ/mol
# Density = 1.990840 g / cm^3
# Si number density = 19.953812 Si / 1000 Ang^3
#
#
#
# Elastic Constant Matrix: (Units=GPa)
#
#
# Indices 1 2 3 4 5 6 
#
# 1 137.0802 22.4760 49.1879 0.0011 -4.6447 -0.0031
# 2 22.4760 30.8861 6.9278 -0.0019 -2.3484 -0.0066
# 3 49.1879 6.9278 115.8734 -0.0078 1.9110 -0.0051
# 4 0.0011 -0.0019 -0.0078 6.3341 -0.0025 -3.9999
# 5 -4.6447 -2.3484 1.9110 -0.0025 31.6970 0.0055
# 6 -0.0031 -0.0066 -0.0051 -3.9999 0.0055 1.2778
#
#
#
# Elastic Compliance Matrix: (Units=1/GPa)
#
#
# Indices 1 2 3 4 5 6 
#
# 1 0.009690 -0.006116 -0.003767 0.000026 0.001194 0.000054
# 2 -0.006116 0.036884 0.000361 -0.000124 0.001815 -0.000217
# 3 -0.003767 0.000361 0.010227 -0.000038 -0.001142 -0.000081
# 4 0.000026 -0.000124 -0.000038 -0.161624 0.000072 -0.505941
# 5 0.001194 0.001815 -0.001142 0.000072 0.031927 0.000096
# 6 0.000054 -0.000217 -0.000081 -0.505941 0.000096 -0.801178
#
#
# Mechanical properties :
#
#
# Convention : Reuss Voigt Hill
#
# Bulk Modulus (GPa) = 26.48541 49.00257 37.74399
# Shear Modulus (GPa) = -5.93512 21.54496 7.80492
#
# Velocity S-wave (km/s) = -1.72652 3.28951 1.97990
# Velocity P-wave (km/s) = 3.05412 6.24813 4.91766
#
# Compressibility (1/GPa) = 0.03775664
#
# Stress axis : x y z
#
# Youngs Moduli (GPa) = 103.19856 27.11174 97.78396
#
# Poissons Ratio (x) = 0.16581 0.36840
# Poissons Ratio (y) = 0.63113 -0.03529
# Poissons Ratio (z) = 0.38879 -0.00978
#
# Static dielectric constant tensor:
#      x y z
#    x 4.054010 -0.000010 0.099950 
#    y -0.000010 3.078270 0.000010 
#    z 0.099950 0.000010 3.658930 
# 
# 
# High freq. dielectric constant tensor:
#      x y z
#    x 1.803010 0.000000 0.013720 
#    y 0.000000 1.688830 0.000000 
#    z 0.013720 0.000000 1.781800 
# 
# From -- ./inp_files/279379.got.cif
#   From: 2010.06.25/outbox.cif.g09.slc.cpg/sg12_140_cif.got.tgz:279379.got - 2010.06.28 00:19:55.
