data_PCOD8085922
_publ_section_title
;
Structure prediction by ZEFSAII (Michael W. Deem and Ramdas Pophale) SiO2 
 PCOD8085922
Probable space group: C 2/M
;
_chemical_formula_sum "Si O2"
_cell_formula_units_Z 56
_cell_length_a 27.705620
_cell_length_b 7.906561
_cell_length_c 19.673558
_cell_angle_alpha 90.000000
_cell_angle_beta 51.632732
_cell_angle_gamma 90.000000
_cell_volume 3378.945290
_symmetry_space_group_name_H-M "C 2/M"
_symmetry_group_IT_number 12
_symmetry_cell_setting 'monoclinic'
loop_
_space_group_symop_operation_xyz
x,y,z
-x,y,-z
-x,-y,-z
x,-y,z
1/2+x,1/2+y,z
1/2-x,1/2+y,-z
1/2-x,1/2-y,-z
1/2+x,1/2-y,z
loop_
_atom_site_type_symbol
_atom_site_label
_atom_site_fract_x
_atom_site_fract_y
_atom_site_fract_z
Si Si1 0.365693 0.803789 0.234962
Si Si2 0.062193 0.804925 0.409022
Si Si3 0.491915 0.198103 0.350054
Si Si4 0.003868 0.305919 0.809082
Si Si5 0.534701 0.500000 0.073256
Si Si6 0.404070 0.500000 0.115903
Si Si7 0.870556 0.692756 0.529349
Si Si8 0.254184 0.190180 0.419865
O O1 0.425976 0.792375 0.228699
O O2 0.370332 0.674706 0.167265
O O3 0.309390 0.726060 0.328477
O O4 0.356176 0.000000 0.218327
O O5 0.052934 0.760399 0.337576
O O6 0.117442 0.707513 0.399558
O O7 0.000000 0.745288 0.500000
O O8 0.076395 0.000000 0.405919
O O9 0.498928 0.253858 0.266457
O O10 0.428648 0.273521 0.437481
O O11 0.487007 0.000000 0.361516
O O12 0.979930 0.500000 0.839668
O O13 0.960716 0.173137 0.886855
O O14 0.470906 0.500000 0.090002
O O15 0.590787 0.500000 0.970510
O O16 0.858814 0.500000 0.518734
O O17 0.810033 0.794765 0.562869
O O18 0.250000 0.250000 0.500000
O O19 0.275593 0.000000 0.405266
#
# Coordination Sequence:
#
# PCOD8085922 Si02
#       8
#     8   8   8   8   4   4   8   8
#     4   9  19  33  47  66  93 128 161 193 231 273
#     4   9  17  28  42  62  86 118 158 193 232 272
#     4   9  17  29  44  63  90 126 157 188 234 282
#     4   9  17  30  46  67  97 124 152 191 233 284
#     4   9  18  30  46  74  91 118 156 188 237 284
#     4   9  18  32  50  66  94 122 155 194 232 285
#     4  10  19  31  45  62  89 125 163 198 228 269
#     4  11  22  33  46  66  92 124 163 201 229 264
#
# _framework density 16.573219000000002
#
# number of rings (size 3 to 8) (size 9 to 14) (size 15 to 20)
#    0.000    2.571    0.000    2.143    3.000    5.143 
#    2.571    2.857    0.000    0.000    0.000    0.000 
#    0.000    1.143    0.571    0.000    0.000    0.000 
#
# Total GULP energy -347002.275749 kJ/mol
# GULP energy per Si atom -12392.938420 kJ/mol
# Density = 1.653550 g / cm^3
# Si number density = 16.573219 Si / 1000 Ang^3
#
#
#
# Elastic Constant Matrix: (Units=GPa)
#
#
# Indices 1 2 3 4 5 6 
#
# 1 79.1836 24.9927 41.4533 0.0020 13.0639 0.0015
# 2 24.9927 69.7037 48.5363 0.0206 11.0469 -0.0005
# 3 41.4533 48.5363 109.7679 0.0048 17.8375 -0.0031
# 4 0.0020 0.0206 0.0048 23.3225 -0.0027 4.6201
# 5 13.0639 11.0469 17.8375 -0.0027 17.9785 0.0017
# 6 0.0015 -0.0005 -0.0031 4.6201 0.0017 21.8760
#
#
#
# Elastic Compliance Matrix: (Units=1/GPa)
#
#
# Indices 1 2 3 4 5 6 
#
# 1 0.016591 -0.001861 -0.004375 0.000001 -0.006572 -0.000001
# 2 -0.001861 0.021226 -0.008087 -0.000018 -0.003666 0.000004
# 3 -0.004375 -0.008087 0.015515 0.000003 -0.007246 0.000002
# 4 0.000001 -0.000018 0.000003 0.044749 0.000015 -0.009451
# 5 -0.006572 -0.003666 -0.007246 0.000015 0.069839 -0.000009
# 6 -0.000001 0.000004 0.000002 -0.009451 -0.000009 0.047708
#
#
# Mechanical properties :
#
#
# Convention : Reuss Voigt Hill
#
# Bulk Modulus (GPa) = 40.50720 54.29111 47.39916
# Shear Modulus (GPa) = 19.80175 22.21357 21.00766
#
# Velocity S-wave (km/s) = 3.46034 3.66502 3.56415
# Velocity P-wave (km/s) = 6.36080 7.12315 6.75274
#
# Compressibility (1/GPa) = 0.02468697
#
# Stress axis : x y z
#
# Youngs Moduli (GPa) = 60.27516 47.11225 64.45189
#
# Poissons Ratio (x) = 0.08768 0.28195
# Poissons Ratio (y) = 0.11218 0.52121
# Poissons Ratio (z) = 0.26368 0.38099
#
# Static dielectric constant tensor:
#      x y z
#    x 3.038590 0.000000 0.297920 
#    y 0.000000 3.229210 -0.000020 
#    z 0.297920 -0.000020 2.812750 
# 
# 
# High freq. dielectric constant tensor:
#      x y z
#    x 1.620180 0.000000 0.018960 
#    y 0.000000 1.650920 0.000000 
#    z 0.018960 0.000000 1.599320 
# 
# From -- ./inp_files/292467.got.cif
#   From: 2010.06.25/outbox.cif.g09.slc.cpg/sg12_147_cif.got.tgz:292467.got - 2010.06.28 00:19:55.
