data_PCOD8085702
_publ_section_title
;
Structure prediction by ZEFSAII (Michael W. Deem and Ramdas Pophale) SiO2 
 PCOD8085702
Probable space group: C 2/M
;
_chemical_formula_sum "Si O2"
_cell_formula_units_Z 48
_cell_length_a 8.006254
_cell_length_b 18.172399
_cell_length_c 20.316954
_cell_angle_alpha 90.000000
_cell_angle_beta 56.042548
_cell_angle_gamma 90.000000
_cell_volume 2451.838154
_symmetry_space_group_name_H-M "C 2/M"
_symmetry_group_IT_number 12
_symmetry_cell_setting 'monoclinic'
loop_
_space_group_symop_operation_xyz
x,y,z
-x,y,-z
-x,-y,-z
x,-y,z
1/2+x,1/2+y,z
1/2-x,1/2+y,-z
1/2-x,1/2-y,-z
1/2+x,1/2-y,z
loop_
_atom_site_type_symbol
_atom_site_label
_atom_site_fract_x
_atom_site_fract_y
_atom_site_fract_z
Si Si1 0.441744 0.412644 0.410511
Si Si2 0.292613 0.417687 0.010414
Si Si3 0.812037 0.587332 0.410998
Si Si4 0.977709 0.296542 0.083002
Si Si5 0.269019 0.412139 0.310273
Si Si6 0.074447 0.152696 0.142962
O O1 0.432585 0.500000 0.411364
O O2 0.284443 0.383044 0.499741
O O3 0.669226 0.387353 0.381020
O O4 0.373377 0.382503 0.354402
O O5 0.213484 0.500000 0.042906
O O6 0.331322 0.410966 0.923734
O O7 0.500000 0.400736 0.000000
O O8 0.131296 0.359454 0.073454
O O9 0.818766 0.500000 0.411926
O O10 0.039547 0.617392 0.355128
O O11 0.017052 0.220562 0.109693
O O12 0.753364 0.322565 0.152428
O O13 0.000000 0.283887 0.000000
O O14 0.279150 0.500000 0.303904
O O15 0.383736 0.377080 0.223795
#
# Coordination Sequence:
#
# PCOD8085702 Si02
#       6
#     8   8   8   8   8   8
#     4   8  14  27  47  74 108 146 184 216 267 328
#     4  10  20  36  59  84 106 135 177 223 271 320
#     4   8  14  27  48  73 108 148 180 220 266 325
#     4  10  21  38  59  75 101 143 187 223 258 324
#     4  10  19  30  48  81 117 142 175 228 280 321
#     4  11  21  36  54  77 108 144 181 222 271 326
#
# _framework density 19.577148999999999
#
# number of rings (size 3 to 8) (size 9 to 14) (size 15 to 20)
#    0.000    2.500    0.000    5.500    0.000    5.667 
#    6.000    0.000    0.000    0.000    0.000    4.667 
#    0.000    0.000    0.000    0.000    0.000    1.333 
#
# Total GULP energy -297465.245251 kJ/mol
# GULP energy per Si atom -12394.385219 kJ/mol
# Density = 1.953259 g / cm^3
# Si number density = 19.577149 Si / 1000 Ang^3
#
#
#
# Elastic Constant Matrix: (Units=GPa)
#
#
# Indices 1 2 3 4 5 6 
#
# 1 136.2123 36.6204 45.9869 -0.0004 -16.2239 -0.0002
# 2 36.6204 58.6969 24.1102 0.0003 -1.4714 0.0001
# 3 45.9869 24.1102 85.8668 -0.0008 -16.9124 -0.0003
# 4 -0.0004 0.0003 -0.0008 3207.1759 0.0008 1083.5734
# 5 -16.2239 -1.4714 -16.9124 0.0008 27.6215 0.0003
# 6 -0.0002 0.0001 -0.0003 1083.5734 0.0003 385.4459
#
#
#
# Elastic Compliance Matrix: (Units=1/GPa)
#
#
# Indices 1 2 3 4 5 6 
#
# 1 0.010241 -0.004908 -0.003381 0.000000 0.003684 0.000000
# 2 -0.004908 0.021776 -0.004349 0.000000 -0.004386 0.000000
# 3 -0.003381 -0.004349 0.016194 0.000000 0.007698 0.000000
# 4 0.000000 0.000000 0.000000 0.006211 0.000000 -0.017460
# 5 0.003684 -0.004386 0.007698 0.000000 0.042847 0.000000
# 6 0.000000 0.000000 0.000000 -0.017460 0.000000 0.051678
#
#
# Mechanical properties :
#
#
# Convention : Reuss Voigt Hill
#
# Bulk Modulus (GPa) = 43.60477 54.91232 49.25854
# Shear Modulus (GPa) = 27.49240 735.65257 381.57248
#
# Velocity S-wave (km/s) = 3.75148 19.40584 13.97606
# Velocity P-wave (km/s) = 6.40987 23.02663 16.90136
#
# Compressibility (1/GPa) = 0.02293327
#
# Stress axis : x y z
#
# Youngs Moduli (GPa) = 97.64354 45.92315 61.75057
#
# Poissons Ratio (x) = 0.22540 0.20879
# Poissons Ratio (y) = 0.47926 0.26858
# Poissons Ratio (z) = 0.33015 0.19974
#
# Static dielectric constant tensor:
#      x y z
#    x 4.114310 0.000000 -0.180810 
#    y 0.000000 3.176150 0.000000 
#    z -0.180810 0.000000 3.507120 
# 
# 
# High freq. dielectric constant tensor:
#      x y z
#    x 1.785610 0.000000 -0.010010 
#    y 0.000000 1.723790 0.000000 
#    z -0.010010 0.000000 1.739240 
# 
# From -- ./inp_files/300631.got.cif
#   From: 2010.06.25/outbox.cif.g09.slc.cpg/sg12_151_cif.got.tgz:300631.got - 2010.06.28 00:19:55.
