data_PCOD8085857
_publ_section_title
;
Structure prediction by ZEFSAII (Michael W. Deem and Ramdas Pophale) SiO2 
 PCOD8085857
Probable space group: C 2/M
;
_chemical_formula_sum "Si O2"
_cell_formula_units_Z 64
_cell_length_a 20.596680
_cell_length_b 9.568751
_cell_length_c 19.264124
_cell_angle_alpha 90.000000
_cell_angle_beta 117.696640
_cell_angle_gamma 90.000000
_cell_volume 3361.642312
_symmetry_space_group_name_H-M "C 2/M"
_symmetry_group_IT_number 12
_symmetry_cell_setting 'monoclinic'
loop_
_space_group_symop_operation_xyz
x,y,z
-x,y,-z
-x,-y,-z
x,-y,z
1/2+x,1/2+y,z
1/2-x,1/2+y,-z
1/2-x,1/2-y,-z
1/2+x,1/2-y,z
loop_
_atom_site_type_symbol
_atom_site_label
_atom_site_fract_x
_atom_site_fract_y
_atom_site_fract_z
Si Si1 0.367034 0.836218 0.559582
Si Si2 0.278658 0.345623 0.825438
Si Si3 0.311064 0.347314 0.002434
Si Si4 0.669400 0.340537 0.703083
Si Si5 0.904954 0.654107 0.878138
Si Si6 0.735326 0.341031 0.587830
Si Si7 0.496513 0.336282 0.417143
Si Si8 0.934077 0.345622 0.055836
O O1 0.316178 0.771411 0.474766
O O2 0.321173 0.817596 0.609204
O O3 0.444868 0.754453 0.598205
O O4 0.381626 0.000000 0.551704
O O5 0.270248 0.500000 0.788468
O O6 0.301274 0.358076 0.915937
O O7 0.202849 0.260350 0.778833
O O8 0.345444 0.264330 0.821192
O O9 0.307037 0.500000 0.034828
O O10 0.250000 0.250000 0.000000
O O11 0.386751 0.277776 0.065588
O O12 0.673094 0.500000 0.730767
O O13 0.721786 0.318912 0.662427
O O14 0.585253 0.297616 0.648426
O O15 0.876488 0.500000 0.842933
O O16 0.982608 0.686241 0.880676
O O17 0.919858 0.658504 0.967093
O O18 0.711734 0.500000 0.555247
O O19 0.500000 0.297149 0.500000
O O20 0.514010 0.500000 0.414988
O O21 0.911389 0.500000 0.072336
#
# Coordination Sequence:
#
# PCOD8085857 Si02
#       8
#     8   8   8   8   8   8   8   8
#     4  10  19  30  51  80 107 133 169 222 270 308
#     4  10  21  34  50  76 107 133 165 215 265 304
#     4  10  20  33  51  75 103 136 171 211 257 307
#     4  10  20  35  56  75  99 142 186 218 261 325
#     4   8  14  27  48  72  97 125 157 191 236 298
#     4   9  18  34  52  74 104 138 175 212 260 320
#     4  10  19  34  54  76 105 141 180 223 266 317
#     4   8  14  26  47  74  98 121 155 198 239 286
#
# _framework density 19.038314
#
# number of rings (size 3 to 8) (size 9 to 14) (size 15 to 20)
#    0.000    2.625    1.250    1.875    0.000    3.750 
#    0.000    2.500    2.750    0.000    0.000    0.000 
#    0.000    0.000    0.000    0.000    0.000    0.000 
#
# Total GULP energy -396522.875334 kJ/mol
# GULP energy per Si atom -12391.339854 kJ/mol
# Density = 1.899498 g / cm^3
# Si number density = 19.038314 Si / 1000 Ang^3
#
#
#
# Elastic Constant Matrix: (Units=GPa)
#
#
# Indices 1 2 3 4 5 6 
#
# 1 114.7917 74.3072 17.1552 0.0000 26.0343 0.0000
# 2 74.3072 151.4146 27.7658 0.0000 29.8952 0.0000
# 3 17.1552 27.7658 28.1321 0.0000 25.4327 0.0000
# 4 0.0000 0.0000 0.0000 21.9641 0.0000 6.5067
# 5 26.0343 29.8952 25.4327 0.0000 29.5716 0.0000
# 6 0.0000 0.0000 0.0000 6.5067 0.0000 36.0353
#
#
#
# Elastic Compliance Matrix: (Units=1/GPa)
#
#
# Indices 1 2 3 4 5 6 
#
# 1 0.014927 -0.006157 0.014507 0.000000 -0.019395 0.000000
# 2 -0.006157 0.010837 -0.008707 0.000000 0.001954 0.000000
# 3 0.014507 -0.008707 0.174764 0.000000 -0.154273 0.000000
# 4 0.000000 0.000000 0.000000 0.048102 0.000000 -0.008685
# 5 -0.019395 0.001954 -0.154273 0.000000 0.181597 0.000000
# 6 0.000000 0.000000 0.000000 -0.008685 0.000000 0.029319
#
#
# Mechanical properties :
#
#
# Convention : Reuss Voigt Hill
#
# Bulk Modulus (GPa) = 5.00463 59.19942 32.10203
# Shear Modulus (GPa) = 9.49010 29.18823 19.33917
#
# Velocity S-wave (km/s) = 2.23507 3.91977 3.19062
# Velocity P-wave (km/s) = 3.04880 7.18669 5.52013
#
# Compressibility (1/GPa) = 0.19981498
#
# Stress axis : x y z
#
# Youngs Moduli (GPa) = 66.99112 92.27802 5.72199
#
# Poissons Ratio (x) = 0.56813 -0.08301
# Poissons Ratio (y) = 0.41244 0.04982
# Poissons Ratio (z) = -0.97187 0.80351
#
# Static dielectric constant tensor:
#      x y z
#    x 5.919880 0.000000 -0.212650 
#    y 0.000000 3.807760 0.000000 
#    z -0.212650 0.000000 3.113550 
# 
# 
# High freq. dielectric constant tensor:
#      x y z
#    x 1.741250 0.000000 0.022650 
#    y 0.000000 1.748980 0.000000 
#    z 0.022650 0.000000 1.695150 
# 
# From -- ./inp_files/320118.got.cif
#   From: 2010.06.25/outbox.cif.g09.slc.cpg/sg12_161_cif.got.tgz:320118.got - 2010.06.28 00:19:55.
