data_PCOD8085953
_publ_section_title
;
Structure prediction by ZEFSAII (Michael W. Deem and Ramdas Pophale) SiO2 
 PCOD8085953
Probable space group: C 2/M
;
_chemical_formula_sum "Si O2"
_cell_formula_units_Z 56
_cell_length_a 24.644034
_cell_length_b 8.873368
_cell_length_c 27.139660
_cell_angle_alpha 90.000000
_cell_angle_beta 31.648510
_cell_angle_gamma 90.000000
_cell_volume 3114.020169
_symmetry_space_group_name_H-M "C 2/M"
_symmetry_group_IT_number 12
_symmetry_cell_setting 'monoclinic'
loop_
_space_group_symop_operation_xyz
x,y,z
-x,y,-z
-x,-y,-z
x,-y,z
1/2+x,1/2+y,z
1/2-x,1/2+y,-z
1/2-x,1/2-y,-z
1/2+x,1/2-y,z
loop_
_atom_site_type_symbol
_atom_site_label
_atom_site_fract_x
_atom_site_fract_y
_atom_site_fract_z
Si Si1 0.530298 0.177813 0.843429
Si Si2 0.756555 0.176941 0.695652
Si Si3 0.085207 0.321321 0.971989
Si Si4 0.696199 0.319854 0.234757
Si Si5 0.490030 0.678550 0.344445
Si Si6 0.200423 0.178394 0.444487
Si Si7 0.919277 0.822083 0.292772
O O1 0.639269 0.235532 0.781138
O O2 0.511621 0.259763 0.805745
O O3 0.532197 0.000000 0.832136
O O4 0.442173 0.224520 0.950654
O O5 0.808376 0.242432 0.705290
O O6 0.820173 0.220344 0.597178
O O7 0.751566 0.000000 0.706381
O O8 0.084351 0.500000 0.966975
O O9 0.198919 0.257930 0.871644
O O10 0.000000 0.254143 0.000000
O O11 0.694346 0.500000 0.234571
O O12 0.597503 0.253703 0.281975
O O13 0.490345 0.500000 0.349699
O O14 0.394992 0.742667 0.450324
O O15 0.477366 0.727760 0.297725
O O16 0.304859 0.254091 0.382777
O O17 0.214507 0.000000 0.439766
O O18 0.909684 0.000000 0.296020
#
# Coordination Sequence:
#
# PCOD8085953 Si02
#       7
#     8   8   8   8   8   8   8
#     4   9  16  28  47  73  95 114 147 193 231 263
#     4   8  13  22  40  67  94 113 137 181 231 270
#     4   9  14  23  44  72  98 117 142 184 232 275
#     4   9  15  24  40  67  99 123 142 179 235 281
#     4   9  18  29  41  62  95 126 152 184 227 273
#     4   9  17  30  48  70  91 115 152 196 231 266
#     4  10  19  31  46  65  90 124 160 190 220 265
#
# _framework density 17.983184000000001
#
# number of rings (size 3 to 8) (size 9 to 14) (size 15 to 20)
#    0.000    3.000    1.429    1.714    0.000    0.571 
#    0.000    4.286    0.000    0.429    0.000   18.000 
#    0.000    0.000    0.000    0.000    0.000    0.000 
#
# Total GULP energy -347019.361361 kJ/mol
# GULP energy per Si atom -12393.548620 kJ/mol
# Density = 1.794225 g / cm^3
# Si number density = 17.983184 Si / 1000 Ang^3
#
#
#
# Elastic Constant Matrix: (Units=GPa)
#
#
# Indices 1 2 3 4 5 6 
#
# 1 168.6548 26.3231 83.8361 0.0142 15.7670 -0.0064
# 2 26.3231 21.6746 22.2636 0.0200 3.0098 -0.0155
# 3 83.8361 22.2636 110.3737 0.0268 17.9648 -0.0143
# 4 0.0142 0.0200 0.0268 12.8306 -0.0161 4.3705
# 5 15.7670 3.0098 17.9648 -0.0161 27.1368 0.0102
# 6 -0.0064 -0.0155 -0.0143 4.3705 0.0102 18.1076
#
#
#
# Elastic Compliance Matrix: (Units=1/GPa)
#
#
# Indices 1 2 3 4 5 6 
#
# 1 0.010043 -0.005538 -0.006345 0.000012 -0.001020 -0.000009
# 2 -0.005538 0.061301 -0.008491 -0.000091 0.002039 0.000065
# 3 -0.006345 -0.008491 0.016631 -0.000027 -0.006382 0.000014
# 4 0.000012 -0.000091 -0.000027 0.084921 0.000079 -0.020497
# 5 -0.001020 0.002039 -0.006382 0.000079 0.041442 -0.000046
# 6 -0.000009 0.000065 0.000014 -0.020497 -0.000046 0.060173
#
#
# Mechanical properties :
#
#
# Convention : Reuss Voigt Hill
#
# Bulk Modulus (GPa) = 21.17406 62.83873 42.00639
# Shear Modulus (GPa) = 15.10573 22.83367 18.96970
#
# Velocity S-wave (km/s) = 2.90141 3.56718 3.25138
# Velocity P-wave (km/s) = 4.79835 7.21008 6.12411
#
# Compressibility (1/GPa) = 0.04722761
#
# Stress axis : x y z
#
# Youngs Moduli (GPa) = 99.57024 16.31304 60.12784
#
# Poissons Ratio (x) = 0.09034 0.38153
# Poissons Ratio (y) = 0.55138 0.51053
# Poissons Ratio (z) = 0.63181 0.13851
#
# Static dielectric constant tensor:
#      x y z
#    x 3.559840 0.000000 0.145020 
#    y 0.000000 2.747220 0.000000 
#    z 0.145020 0.000000 3.532080 
# 
# 
# High freq. dielectric constant tensor:
#      x y z
#    x 1.698210 0.000000 0.019060 
#    y 0.000000 1.632050 0.000000 
#    z 0.019060 0.000000 1.697340 
# 
# From -- ./inp_files/367671.got.cif
#   From: 2010.06.25/outbox.cif.g09.slc.cpg/sg12_184_cif.got.tgz:367671.got - 2010.06.28 00:19:55.
