data_PCOD8085652
_publ_section_title
;
Structure prediction by ZEFSAII (Michael W. Deem and Ramdas Pophale) SiO2 
 PCOD8085652
Probable space group: C 2/M
;
_chemical_formula_sum "Si O2"
_cell_formula_units_Z 48
_cell_length_a 19.911021
_cell_length_b 9.004748
_cell_length_c 16.670833
_cell_angle_alpha 90.000000
_cell_angle_beta 90.378821
_cell_angle_gamma 90.000000
_cell_volume 2988.910443
_symmetry_space_group_name_H-M "C 2/M"
_symmetry_group_IT_number 12
_symmetry_cell_setting 'monoclinic'
loop_
_space_group_symop_operation_xyz
x,y,z
-x,y,-z
-x,-y,-z
x,-y,z
1/2+x,1/2+y,z
1/2-x,1/2+y,-z
1/2-x,1/2-y,-z
1/2+x,1/2-y,z
loop_
_atom_site_type_symbol
_atom_site_label
_atom_site_fract_x
_atom_site_fract_y
_atom_site_fract_z
Si Si1 0.483855 0.168499 0.087125
Si Si2 0.679240 0.828187 0.495350
Si Si3 0.320575 0.169143 0.327134
Si Si4 0.556572 0.168294 0.240812
Si Si5 0.926226 0.824952 0.225339
Si Si6 0.836117 0.173648 0.659236
O O1 0.551416 0.170037 0.143139
O O2 0.427201 0.266983 0.132498
O O3 0.456735 0.000000 0.077361
O O4 0.500000 0.237300 0.000000
O O5 0.750000 0.750000 0.500000
O O6 0.646815 0.810679 0.583611
O O7 0.637557 0.748294 0.423916
O O8 0.688976 0.000000 0.473468
O O9 0.356679 0.278889 0.265933
O O10 0.241900 0.210073 0.326889
O O11 0.330596 0.000000 0.298258
O O12 0.488686 0.248435 0.273719
O O13 0.622408 0.257608 0.267075
O O14 0.559387 0.000000 0.273854
O O15 0.934415 0.000000 0.227531
O O16 0.849780 0.000000 0.653719
#
# Coordination Sequence:
#
# PCOD8085652 Si02
#       6
#     8   8   8   8   8   8
#     4   8  16  32  53  73  94 124 157 189 233 290
#     4   9  17  29  46  67  93 127 166 201 236 280
#     4   9  18  32  48  68  96 130 162 195 237 281
#     4   9  18  32  50  71  97 126 158 194 238 289
#     4  10  19  30  48  74  99 123 157 199 237 278
#     4  10  19  31  49  72  98 127 162 202 241 280
#
# _framework density 16.059363999999999
#
# number of rings (size 3 to 8) (size 9 to 14) (size 15 to 20)
#    1.000    1.833    0.000    3.500    0.000    4.333 
#    0.000    0.833    0.000    6.000    0.000    0.000 
#    0.000    0.000    0.000    0.000    0.000    0.000 
#
# Total GULP energy -297327.425051 kJ/mol
# GULP energy per Si atom -12388.642710 kJ/mol
# Density = 1.602281 g / cm^3
# Si number density = 16.059364 Si / 1000 Ang^3
#
#
#
# Elastic Constant Matrix: (Units=GPa)
#
#
# Indices 1 2 3 4 5 6 
#
# 1 53.6751 38.4488 33.1401 0.0000 -3.8759 0.0000
# 2 38.4488 117.4383 44.4214 0.0000 -9.9337 0.0000
# 3 33.1401 44.4214 85.5200 0.0000 -9.1995 0.0000
# 4 0.0000 0.0000 0.0000 24.1363 0.0000 2.5190
# 5 -3.8759 -9.9337 -9.1995 0.0000 21.0939 0.0000
# 6 0.0000 0.0000 0.0000 2.5190 0.0000 26.7266
#
#
#
# Elastic Compliance Matrix: (Units=1/GPa)
#
#
# Indices 1 2 3 4 5 6 
#
# 1 0.027764 -0.006313 -0.007608 0.000000 -0.001189 0.000000
# 2 -0.006313 0.012183 -0.003556 0.000000 0.003026 0.000000
# 3 -0.007608 -0.003556 0.016953 0.000000 0.004321 0.000000
# 4 0.000000 0.000000 0.000000 0.041843 0.000000 -0.003944
# 5 -0.001189 0.003026 0.004321 0.000000 0.050498 0.000000
# 6 0.000000 0.000000 0.000000 -0.003944 0.000000 0.037788
#
#
# Mechanical properties :
#
#
# Convention : Reuss Voigt Hill
#
# Bulk Modulus (GPa) = 45.56531 54.29490 49.93011
# Shear Modulus (GPa) = 21.80561 23.76622 22.78592
#
# Velocity S-wave (km/s) = 3.68885 3.85112 3.77086
# Velocity P-wave (km/s) = 6.82482 7.32510 7.07938
#
# Compressibility (1/GPa) = 0.02194652
#
# Stress axis : x y z
#
# Youngs Moduli (GPa) = 36.01796 82.08107 58.98510
#
# Poissons Ratio (x) = 0.51815 0.44875
# Poissons Ratio (y) = 0.22737 0.20977
# Poissons Ratio (z) = 0.27402 0.29191
#
# Static dielectric constant tensor:
#      x y z
#    x 2.685720 0.000000 0.047960 
#    y 0.000000 3.109900 0.000000 
#    z 0.047960 0.000000 3.112690 
# 
# 
# High freq. dielectric constant tensor:
#      x y z
#    x 1.578050 0.000000 0.002220 
#    y 0.000000 1.630930 0.000000 
#    z 0.002220 0.000000 1.606170 
# 
# From -- ./inp_files/279853.got.cif
#   From: 2010.06.25/outbox.cif.g09.slc.cpg/sg12_140_cif.got.tgz:279853.got - 2010.06.28 00:19:55.
