data_PCOD8085937
_publ_section_title
;
Structure prediction by ZEFSAII (Michael W. Deem and Ramdas Pophale) SiO2 
 PCOD8085937
Probable space group: C 2/M
;
_chemical_formula_sum "Si O2"
_cell_formula_units_Z 56
_cell_length_a 5.227561
_cell_length_b 34.635613
_cell_length_c 17.630655
_cell_angle_alpha 90.000000
_cell_angle_beta 90.203579
_cell_angle_gamma 90.000000
_cell_volume 3192.182361
_symmetry_space_group_name_H-M "C 2/M"
_symmetry_group_IT_number 12
_symmetry_cell_setting 'monoclinic'
loop_
_space_group_symop_operation_xyz
x,y,z
-x,y,-z
-x,-y,-z
x,-y,z
1/2+x,1/2+y,z
1/2-x,1/2+y,-z
1/2-x,1/2-y,-z
1/2+x,1/2-y,z
loop_
_atom_site_type_symbol
_atom_site_label
_atom_site_fract_x
_atom_site_fract_y
_atom_site_fract_z
Si Si1 0.036333 0.167691 0.367664
Si Si2 0.961730 0.077970 0.660057
Si Si3 0.015499 0.045812 0.174434
Si Si4 0.542193 0.793482 0.417362
Si Si5 0.988749 0.454294 0.915281
Si Si6 0.539345 0.954751 0.413378
Si Si7 0.970425 0.763284 0.726819
O O1 0.802187 0.181427 0.420188
O O2 0.006022 0.123251 0.349625
O O3 0.312071 0.176403 0.403481
O O4 0.013984 0.191197 0.287852
O O5 0.010579 0.067341 0.746578
O O6 0.675619 0.065867 0.637179
O O7 0.174242 0.056988 0.609257
O O8 0.270544 0.060739 0.132887
O O9 0.774263 0.058660 0.123833
O O10 0.019872 0.000000 0.188495
O O11 0.500000 0.774074 0.500000
O O12 0.554461 0.759512 0.354870
O O13 0.005286 0.500000 0.920545
O O14 0.000000 0.436592 0.000000
O O15 0.500000 0.942566 0.500000
O O16 0.505459 0.000000 0.400874
O O17 0.715764 0.752143 0.773422
#
# Coordination Sequence:
#
# PCOD8085937 Si02
#       7
#     8   8   8   8   8   8   8
#     4  10  21  31  43  64  88 111 141 185 232 270
#     4  12  23  36  52  71  93 119 159 205 249 291
#     4  10  19  31  49  70  93 124 155 185 227 279
#     4  10  19  31  46  63  85 114 148 185 234 295
#     4   9  17  30  49  74  99 119 145 181 219 269
#     4  11  24  40  53  63  81 116 163 215 262 292
#     4   8  16  29  43  60  82 110 141 170 219 278
#
# _framework density 17.542857999999999
#
# number of rings (size 3 to 8) (size 9 to 14) (size 15 to 20)
#    0.000    2.000    0.000    4.286    0.000   12.571 
#    0.000    0.000    0.000    0.000    0.000    0.000 
#    0.000    0.000    0.000    0.000    0.000  128.571 
#
# Total GULP energy -347088.159317 kJ/mol
# GULP energy per Si atom -12396.005690 kJ/mol
# Density = 1.750293 g / cm^3
# Si number density = 17.542858 Si / 1000 Ang^3
#
#
#
# Elastic Constant Matrix: (Units=GPa)
#
#
# Indices 1 2 3 4 5 6 
#
# 1 107.5936 6.1656 1.7539 0.0000 -4.5719 0.0000
# 2 6.1656 57.6524 17.0802 0.0000 -0.0695 0.0000
# 3 1.7539 17.0802 55.6685 0.0000 -2.4731 0.0000
# 4 0.0000 0.0000 0.0000 7.2819 0.0000 1.1849
# 5 -4.5719 -0.0695 -2.4731 0.0000 22.0914 0.0000
# 6 0.0000 0.0000 0.0000 1.1849 0.0000 23.7550
#
#
#
# Elastic Compliance Matrix: (Units=1/GPa)
#
#
# Indices 1 2 3 4 5 6 
#
# 1 0.009435 -0.001039 0.000109 0.000000 0.001962 0.000000
# 2 -0.001039 0.019202 -0.005895 0.000000 -0.000815 0.000000
# 3 0.000109 -0.005895 0.019868 0.000000 0.002228 0.000000
# 4 0.000000 0.000000 0.000000 0.138450 0.000000 -0.006906
# 5 0.001962 -0.000815 0.002228 0.000000 0.045919 0.000000
# 6 0.000000 0.000000 0.000000 -0.006906 0.000000 0.042441
#
#
# Mechanical properties :
#
#
# Convention : Reuss Voigt Hill
#
# Bulk Modulus (GPa) = 28.69068 30.10154 29.39611
# Shear Modulus (GPa) = 16.63428 23.68665 20.16047
#
# Velocity S-wave (km/s) = 3.08264 3.67852 3.39368
# Velocity P-wave (km/s) = 5.39077 5.93617 5.67003
#
# Compressibility (1/GPa) = 0.03485453
#
# Stress axis : x y z
#
# Youngs Moduli (GPa) = 105.98449 52.07811 50.33282
#
# Poissons Ratio (x) = 0.05410 -0.00547
# Poissons Ratio (y) = 0.11010 0.29671
# Poissons Ratio (z) = -0.01151 0.30700
#
# Static dielectric constant tensor:
#      x y z
#    x 4.262110 0.000000 -0.065750 
#    y 0.000000 3.035680 0.000000 
#    z -0.065750 0.000000 2.942830 
# 
# 
# High freq. dielectric constant tensor:
#      x y z
#    x 1.717420 0.000000 -0.002000 
#    y 0.000000 1.652090 0.000000 
#    z -0.002000 0.000000 1.627310 
# 
# From -- ./inp_files/192600.got.cif
#   From: 2010.06.25/outbox.cif.g09.slc.cpg/sg12_97_cif.got.tgz:192600.got - 2010.06.28 00:19:55.
