data_PCOD8085059
_publ_section_title
;
Structure prediction by ZEFSAII (Michael W. Deem and Ramdas Pophale) SiO2 
 PCOD8085059
Probable space group: C 2/M
;
_chemical_formula_sum "Si O2"
_cell_formula_units_Z 48
_cell_length_a 24.104667
_cell_length_b 8.987262
_cell_length_c 21.647387
_cell_angle_alpha 90.000000
_cell_angle_beta 37.774033
_cell_angle_gamma 90.000000
_cell_volume 2872.597470
_symmetry_space_group_name_H-M "C 2/M"
_symmetry_group_IT_number 12
_symmetry_cell_setting 'monoclinic'
loop_
_space_group_symop_operation_xyz
x,y,z
-x,y,-z
-x,-y,-z
x,-y,z
1/2+x,1/2+y,z
1/2-x,1/2+y,-z
1/2-x,1/2-y,-z
1/2+x,1/2-y,z
loop_
_atom_site_type_symbol
_atom_site_label
_atom_site_fract_x
_atom_site_fract_y
_atom_site_fract_z
Si Si1 0.721217 0.173311 0.962752
Si Si2 0.622033 0.173509 0.229815
Si Si3 0.465421 0.169422 0.825868
Si Si4 0.664935 0.171957 0.496233
Si Si5 0.864389 0.828737 0.350198
Si Si6 0.014070 0.827476 0.559401
O O1 0.777931 0.250028 0.857587
O O2 0.745789 0.000000 0.944209
O O3 0.750000 0.250000 0.000000
O O4 0.612241 0.195726 0.053594
O O5 0.573036 0.207274 0.208206
O O6 0.564098 0.241206 0.335886
O O7 0.635339 0.000000 0.229755
O O8 0.550251 0.276784 0.766229
O O9 0.499323 0.000000 0.798341
O O10 0.772488 0.195042 0.392028
O O11 0.635375 0.227334 0.589465
O O12 0.612914 0.264315 0.489818
O O13 0.636689 0.000000 0.516041
O O14 0.874650 0.000000 0.360977
O O15 0.000000 0.799672 0.500000
O O16 0.009373 0.000000 0.581253
#
# Coordination Sequence:
#
# PCOD8085059 Si02
#       6
#     8   8   8   8   8   8
#     4   9  17  28  43  65  95 128 160 195 236 285
#     4  10  19  31  47  68  95 127 161 198 241 287
#     4   9  17  28  44  69  98 128 159 191 235 289
#     4  10  20  33  47  68  96 127 163 198 239 288
#     4  10  19  29  47  71  97 129 160 195 238 285
#     4  11  23  36  51  71  94 126 167 205 242 286
#
# _framework density 16.709617000000001
#
# number of rings (size 3 to 8) (size 9 to 14) (size 15 to 20)
#    0.000    2.167    1.667    3.500    0.000    6.667 
#    0.000    0.000    0.000    0.000    0.000    1.167 
#    0.000    9.333    0.000    0.000    0.000    0.000 
#
# Total GULP energy -297536.708754 kJ/mol
# GULP energy per Si atom -12397.362865 kJ/mol
# Density = 1.667159 g / cm^3
# Si number density = 16.709617 Si / 1000 Ang^3
#
#
#
# Elastic Constant Matrix: (Units=GPa)
#
#
# Indices 1 2 3 4 5 6 
#
# 1 61.1104 43.3136 40.0635 -0.0007 -11.5061 0.0004
# 2 43.3136 115.4138 68.3606 -0.0010 -13.7049 0.0002
# 3 40.0635 68.3606 118.7414 -0.0006 -26.3289 0.0002
# 4 -0.0007 -0.0010 -0.0006 32.9117 0.0011 -6.4492
# 5 -11.5061 -13.7049 -26.3289 0.0011 21.8359 -0.0002
# 6 0.0004 0.0002 0.0002 -6.4492 -0.0002 22.2920
#
#
#
# Elastic Compliance Matrix: (Units=1/GPa)
#
#
# Indices 1 2 3 4 5 6 
#
# 1 0.024018 -0.006481 -0.003369 0.000000 0.004526 0.000000
# 2 -0.006481 0.014919 -0.006939 0.000000 -0.002417 0.000000
# 3 -0.003369 -0.006939 0.016644 0.000000 0.013938 0.000000
# 4 0.000000 0.000000 0.000000 0.032210 -0.000002 0.009319
# 5 0.004526 -0.002417 0.013938 -0.000002 0.063470 0.000000
# 6 0.000000 0.000000 0.000000 0.009319 0.000000 0.047555
#
#
# Mechanical properties :
#
#
# Convention : Reuss Voigt Hill
#
# Bulk Modulus (GPa) = 45.44612 66.52678 55.98645
# Shear Modulus (GPa) = 20.85693 24.97642 22.91668
#
# Velocity S-wave (km/s) = 3.53682 3.87037 3.70735
# Velocity P-wave (km/s) = 6.62838 7.73776 7.20446
#
# Compressibility (1/GPa) = 0.02200408
#
# Stress axis : x y z
#
# Youngs Moduli (GPa) = 41.63506 67.02686 60.08313
#
# Poissons Ratio (x) = 0.43438 0.20243
# Poissons Ratio (y) = 0.26983 0.41690
# Poissons Ratio (z) = 0.14028 0.46508
#
# Static dielectric constant tensor:
#      x y z
#    x 2.813890 0.000000 -0.391770 
#    y 0.000000 3.336090 0.000000 
#    z -0.391770 0.000000 3.444120 
# 
# 
# High freq. dielectric constant tensor:
#      x y z
#    x 1.588970 0.000000 -0.035940 
#    y 0.000000 1.664170 0.000000 
#    z -0.035940 0.000000 1.646530 
# 
# From -- ./inp_files/230392.got.cif
#   From: 2010.06.25/outbox.cif.g09.slc.cpg/sg12_116_cif.got.tgz:230392.got - 2010.06.28 00:19:55.
