data_PCOD8085037
_publ_section_title
;
Structure prediction by ZEFSAII (Michael W. Deem and Ramdas Pophale) SiO2 
 PCOD8085037
Probable space group: C 2/M
;
_chemical_formula_sum "Si O2"
_cell_formula_units_Z 48
_cell_length_a 20.461867
_cell_length_b 9.140716
_cell_length_c 16.392464
_cell_angle_alpha 90.000000
_cell_angle_beta 65.216080
_cell_angle_gamma 90.000000
_cell_volume 2783.590934
_symmetry_space_group_name_H-M "C 2/M"
_symmetry_group_IT_number 12
_symmetry_cell_setting 'monoclinic'
loop_
_space_group_symop_operation_xyz
x,y,z
-x,y,-z
-x,-y,-z
x,-y,z
1/2+x,1/2+y,z
1/2-x,1/2+y,-z
1/2-x,1/2-y,-z
1/2+x,1/2-y,z
loop_
_atom_site_type_symbol
_atom_site_label
_atom_site_fract_x
_atom_site_fract_y
_atom_site_fract_z
Si Si1 0.963589 0.171080 0.435814
Si Si2 0.272637 0.666521 0.094997
Si Si3 0.797405 0.828943 0.541886
Si Si4 0.288666 0.834718 0.709416
Si Si5 0.640856 0.332962 0.095674
Si Si6 0.066489 0.330433 0.266296
O O1 0.879989 0.210492 0.482077
O O2 0.000000 0.228133 0.500000
O O3 0.997310 0.254361 0.341631
O O4 0.977998 0.000000 0.416967
O O5 0.243526 0.500000 0.092637
O O6 0.276945 0.684892 0.191068
O O7 0.218133 0.788393 0.091087
O O8 0.349909 0.686874 0.008163
O O9 0.750000 0.750000 0.500000
O O10 0.774779 0.775499 0.643268
O O11 0.782841 0.000000 0.544551
O O12 0.363644 0.797438 0.715239
O O13 0.290631 0.000000 0.673987
O O14 0.623961 0.500000 0.127559
O O15 0.578589 0.234135 0.168657
O O16 0.049868 0.500000 0.266423
#
# Coordination Sequence:
#
# PCOD8085037 Si02
#       6
#     8   8   8   8   8   8
#     4  10  20  35  53  74  99 128 168 210 249 296
#     4   8  15  26  40  63  94 129 164 200 244 294
#     4  11  23  37  53  73 100 132 167 208 250 297
#     4   9  17  30  47  69  98 130 166 204 245 292
#     4   9  15  24  40  63  96 131 162 199 244 292
#     4  10  19  29  46  72 101 131 165 204 248 296
#
# _framework density 17.243912999999999
#
# number of rings (size 3 to 8) (size 9 to 14) (size 15 to 20)
#    0.000    2.500    1.667    2.500    0.000    5.000 
#    0.000    0.000    0.000    0.000    0.000    1.167 
#    0.000    9.333    0.000    0.000    0.000    0.000 
#
# Total GULP energy -297444.834697 kJ/mol
# GULP energy per Si atom -12393.534779 kJ/mol
# Density = 1.720467 g / cm^3
# Si number density = 17.243913 Si / 1000 Ang^3
#
#
#
# Elastic Constant Matrix: (Units=GPa)
#
#
# Indices 1 2 3 4 5 6 
#
# 1 57.5848 39.9746 45.3964 0.0000 -0.7568 0.0000
# 2 39.9746 80.0583 68.3981 0.0000 -5.5330 0.0000
# 3 45.3964 68.3981 165.5675 0.0000 -18.4600 0.0000
# 4 0.0000 0.0000 0.0000 33.3894 0.0000 -2.0239
# 5 -0.7568 -5.5330 -18.4600 0.0000 15.3726 0.0000
# 6 0.0000 0.0000 0.0000 -2.0239 0.0000 20.0127
#
#
#
# Elastic Compliance Matrix: (Units=1/GPa)
#
#
# Indices 1 2 3 4 5 6 
#
# 1 0.028132 -0.011228 -0.003892 0.000000 -0.007330 0.000000
# 2 -0.011228 0.023909 -0.006813 0.000000 -0.000128 0.000000
# 3 -0.003892 -0.006813 0.011115 0.000000 0.010704 0.000000
# 4 0.000000 0.000000 0.000000 0.030134 0.000000 0.003048
# 5 -0.007330 -0.000128 0.010704 0.000000 0.077497 0.000000
# 6 0.000000 0.000000 0.000000 0.003048 0.000000 0.050276
#
#
# Mechanical properties :
#
#
# Convention : Reuss Voigt Hill
#
# Bulk Modulus (GPa) = 51.84144 67.86098 59.85121
# Shear Modulus (GPa) = 18.42566 23.71770 21.07168
#
# Velocity S-wave (km/s) = 3.27239 3.71269 3.49947
# Velocity P-wave (km/s) = 6.66385 7.60380 7.14929
#
# Compressibility (1/GPa) = 0.01928959
#
# Stress axis : x y z
#
# Youngs Moduli (GPa) = 35.54634 41.82511 89.96921
#
# Poissons Ratio (x) = 0.46962 0.35019
# Poissons Ratio (y) = 0.39912 0.61295
# Poissons Ratio (z) = 0.13836 0.28495
#
# Static dielectric constant tensor:
#      x y z
#    x 2.707250 0.000000 -0.063780 
#    y 0.000000 3.279650 0.000000 
#    z -0.063780 0.000000 4.092190 
# 
# 
# High freq. dielectric constant tensor:
#      x y z
#    x 1.590570 0.000000 -0.019860 
#    y 0.000000 1.677030 0.000000 
#    z -0.019860 0.000000 1.690250 
# 
# From -- ./inp_files/229925.got.cif
#   From: 2010.06.25/outbox.cif.g09.slc.cpg/sg12_115_cif.got.tgz:229925.got - 2010.06.28 00:19:55.
