data_PCOD8085982
_publ_section_title
;
Structure prediction by ZEFSAII (Michael W. Deem and Ramdas Pophale) SiO2 
 PCOD8085982
Probable space group: C 2/M
;
_chemical_formula_sum "Si O2"
_cell_formula_units_Z 56
_cell_length_a 27.162248
_cell_length_b 11.232349
_cell_length_c 14.970489
_cell_angle_alpha 90.000000
_cell_angle_beta 47.358663
_cell_angle_gamma 90.000000
_cell_volume 3359.843551
_symmetry_space_group_name_H-M "C 2/M"
_symmetry_group_IT_number 12
_symmetry_cell_setting 'monoclinic'
loop_
_space_group_symop_operation_xyz
x,y,z
-x,y,-z
-x,-y,-z
x,-y,z
1/2+x,1/2+y,z
1/2-x,1/2+y,-z
1/2-x,1/2-y,-z
1/2+x,1/2-y,z
loop_
_atom_site_type_symbol
_atom_site_label
_atom_site_fract_x
_atom_site_fract_y
_atom_site_fract_z
Si Si1 0.813039 0.133979 0.113580
Si Si2 0.985008 0.500000 0.369841
Si Si3 0.352787 0.634742 0.867528
Si Si4 0.942665 0.138049 0.503555
Si Si5 0.537343 0.360071 0.045064
Si Si6 0.819467 0.740392 0.737106
Si Si7 0.106887 0.500000 0.354199
Si Si8 0.490713 0.748205 0.738236
O O1 0.753447 0.221238 0.220128
O O2 0.800990 0.000000 0.164210
O O3 0.809351 0.136265 0.010433
O O4 0.885161 0.180160 0.059233
O O5 0.044077 0.500000 0.367321
O O6 0.989325 0.385464 0.300310
O O7 0.916570 0.500000 0.512576
O O8 0.378474 0.500000 0.816977
O O9 0.308674 0.680735 0.839300
O O10 0.415696 0.722543 0.798199
O O11 0.870456 0.195228 0.608237
O O12 0.000000 0.192385 0.500000
O O13 0.960339 0.165402 0.379923
O O14 0.936182 0.000000 0.530066
O O15 0.534763 0.500000 0.072471
O O16 0.500853 0.286870 0.168349
O O17 0.500000 0.329312 0.000000
O O18 0.847811 0.611650 0.726147
#
# Coordination Sequence:
#
# PCOD8085982 Si02
#       8
#     8   4   8   8   8   8   4   8
#     4   9  19  32  49  72 100 134 169 210 258 304
#     4  11  20  32  45  76 108 142 179 203 239 300
#     4  10  19  31  46  69 103 140 175 211 248 295
#     4  11  20  30  48  74 106 143 173 207 248 292
#     4   9  19  38  62  81  96 124 172 225 268 306
#     4  12  19  30  46  70 106 141 173 203 245 303
#     4  11  20  30  44  68 109 152 174 196 234 295
#     4  11  19  32  52  77 104 133 173 218 253 300
#
# _framework density 16.667442999999999
#
# number of rings (size 3 to 8) (size 9 to 14) (size 15 to 20)
#    0.000    1.571    5.000    3.000    0.000    0.000 
#    0.000    0.357    6.286    0.857    0.000    0.000 
#    0.000    0.000    0.000    0.000    0.000    0.000 
#
# Total GULP energy -347142.028216 kJ/mol
# GULP energy per Si atom -12397.929579 kJ/mol
# Density = 1.662951 g / cm^3
# Si number density = 16.667443 Si / 1000 Ang^3
#
#
#
# Elastic Constant Matrix: (Units=GPa)
#
#
# Indices 1 2 3 4 5 6 
#
# 1 88.2086 22.8545 52.3236 0.0000 1.0714 0.0000
# 2 22.8545 69.1476 34.0144 0.0000 2.8318 0.0000
# 3 52.3236 34.0144 88.3805 0.0000 -6.6156 0.0000
# 4 0.0000 0.0000 0.0000 59.8409 0.0000 14.1598
# 5 1.0714 2.8318 -6.6156 0.0000 21.7064 0.0000
# 6 0.0000 0.0000 0.0000 14.1598 0.0000 24.4692
#
#
#
# Elastic Compliance Matrix: (Units=1/GPa)
#
#
# Indices 1 2 3 4 5 6 
#
# 1 0.017851 -0.000474 -0.010691 0.000000 -0.004078 0.000000
# 2 -0.000474 0.018296 -0.007100 0.000000 -0.004527 0.000000
# 3 -0.010691 -0.007100 0.020964 0.000000 0.007843 0.000000
# 4 0.000000 0.000000 0.000000 0.019362 0.000000 -0.011204
# 5 -0.004078 -0.004527 0.007843 0.000000 0.049252 0.000000
# 6 0.000000 0.000000 0.000000 -0.011204 0.000000 0.047351
#
#
# Mechanical properties :
#
#
# Convention : Reuss Voigt Hill
#
# Bulk Modulus (GPa) = 48.58820 51.56907 50.07864
# Shear Modulus (GPa) = 23.09832 30.30626 26.70229
#
# Velocity S-wave (km/s) = 3.72672 4.26877 4.00692
# Velocity P-wave (km/s) = 6.90889 7.43664 7.17762
#
# Compressibility (1/GPa) = 0.02058113
#
# Stress axis : x y z
#
# Youngs Moduli (GPa) = 56.02015 54.65554 47.70178
#
# Poissons Ratio (x) = 0.02591 0.50997
# Poissons Ratio (y) = 0.02655 0.33868
# Poissons Ratio (z) = 0.59891 0.38805
#
# Static dielectric constant tensor:
#      x y z
#    x 2.817360 0.000000 -0.099980 
#    y 0.000000 3.191410 0.000000 
#    z -0.099980 0.000000 3.218560 
# 
# 
# High freq. dielectric constant tensor:
#      x y z
#    x 1.593390 0.000000 -0.013130 
#    y 0.000000 1.643610 0.000000 
#    z -0.013130 0.000000 1.646560 
# 
# From -- ./inp_files/250553.got.cif
#   From: 2010.06.25/outbox.cif.g09.slc.cpg/sg12_126_cif.got.tgz:250553.got - 2010.06.28 00:19:55.
