data_PCOD8085628
_publ_section_title
;
Structure prediction by ZEFSAII (Michael W. Deem and Ramdas Pophale) SiO2 
 PCOD8085628
Probable space group: C 2/M
;
_chemical_formula_sum "Si O2"
_cell_formula_units_Z 64
_cell_length_a 29.205792
_cell_length_b 9.291317
_cell_length_c 15.460001
_cell_angle_alpha 90.000000
_cell_angle_beta 118.587680
_cell_angle_gamma 90.000000
_cell_volume 3683.772313
_symmetry_space_group_name_H-M "C 2/M"
_symmetry_group_IT_number 12
_symmetry_cell_setting 'monoclinic'
loop_
_space_group_symop_operation_xyz
x,y,z
-x,y,-z
-x,-y,-z
x,-y,z
1/2+x,1/2+y,z
1/2-x,1/2+y,-z
1/2-x,1/2-y,-z
1/2+x,1/2-y,z
loop_
_atom_site_type_symbol
_atom_site_label
_atom_site_fract_x
_atom_site_fract_y
_atom_site_fract_z
Si Si1 0.974249 0.165673 0.110424
Si Si2 0.544263 0.831845 0.734724
Si Si3 0.209364 0.163994 0.659755
Si Si4 0.919666 0.833204 0.882601
Si Si5 0.568806 0.166607 0.431799
Si Si6 0.158694 0.830686 0.433833
Si Si7 0.120961 0.332244 0.658190
Si Si8 0.323895 0.831944 0.721303
O O1 0.952966 0.256055 0.170796
O O2 0.032839 0.211916 0.137381
O O3 0.973851 0.000000 0.136875
O O4 0.935711 0.193360 0.995780
O O5 0.491470 0.795826 0.635606
O O6 0.592068 0.777128 0.718497
O O7 0.548894 0.000000 0.756402
O O8 0.194247 0.207241 0.548248
O O9 0.177063 0.256585 0.699844
O O10 0.270877 0.189713 0.728351
O O11 0.193658 0.000000 0.662229
O O12 0.870865 0.732340 0.819232
O O13 0.905012 0.000000 0.853991
O O14 0.600878 0.266982 0.395127
O O15 0.583787 0.204535 0.543586
O O16 0.580917 0.000000 0.421522
O O17 0.184036 0.752053 0.375253
O O18 0.154697 0.000000 0.411847
O O19 0.132068 0.500000 0.673963
O O20 0.333898 0.000000 0.711394
#
# Coordination Sequence:
#
# PCOD8085628 Si02
#       8
#     8   8   8   8   8   8   8   8
#     4   9  19  35  53  73  99 128 155 190 237 288
#     4  10  19  30  48  74 100 127 161 199 238 283
#     4   9  20  35  48  67  97 130 164 202 239 276
#     4   9  19  36  54  73  98 126 157 192 235 288
#     4   9  17  30  47  69 100 133 162 195 236 280
#     4  10  19  31  47  69  99 132 164 196 232 280
#     4   9  18  32  49  69  96 131 167 200 235 277
#     4  11  21  32  49  73  98 125 160 200 242 285
#
# _framework density 17.373495999999999
#
# number of rings (size 3 to 8) (size 9 to 14) (size 15 to 20)
#    0.000    2.500    0.000    3.000    0.000    7.000 
#    0.000    1.250    0.000    4.500    0.000    0.000 
#    0.000    0.000    0.000    0.000    0.000    0.000 
#
# Total GULP energy -396829.608283 kJ/mol
# GULP energy per Si atom -12400.925259 kJ/mol
# Density = 1.733395 g / cm^3
# Si number density = 17.373496 Si / 1000 Ang^3
#
#
#
# Elastic Constant Matrix: (Units=GPa)
#
#
# Indices 1 2 3 4 5 6 
#
# 1 126.1602 58.9591 50.3331 0.0000 -3.6472 0.0000
# 2 58.9591 72.0853 34.4970 0.0000 -0.0866 0.0000
# 3 50.3331 34.4970 61.2907 0.0000 -1.7387 0.0000
# 4 0.0000 0.0000 0.0000 29.6469 0.0000 -1.9092
# 5 -3.6472 -0.0866 -1.7387 0.0000 28.0771 0.0000
# 6 0.0000 0.0000 0.0000 -1.9092 0.0000 32.2100
#
#
#
# Elastic Compliance Matrix: (Units=1/GPa)
#
#
# Indices 1 2 3 4 5 6 
#
# 1 0.014982 -0.008738 -0.007344 0.000000 0.001464 0.000000
# 2 -0.008738 0.024093 -0.006426 0.000000 -0.001459 0.000000
# 3 -0.007344 -0.006426 0.025982 0.000000 0.000635 0.000000
# 4 0.000000 0.000000 0.000000 0.033860 0.000000 0.002007
# 5 0.001464 -0.001459 0.000635 0.000000 0.035841 0.000000
# 6 0.000000 0.000000 0.000000 0.002007 0.000000 0.031165
#
#
# Mechanical properties :
#
#
# Convention : Reuss Voigt Hill
#
# Bulk Modulus (GPa) = 49.89885 60.79051 55.34468
# Shear Modulus (GPa) = 22.97591 25.70326 24.33959
#
# Velocity S-wave (km/s) = 3.64052 3.85054 3.74700
# Velocity P-wave (km/s) = 6.81578 7.40508 7.11653
#
# Compressibility (1/GPa) = 0.02004054
#
# Stress axis : x y z
#
# Youngs Moduli (GPa) = 66.74559 41.50645 38.48842
#
# Poissons Ratio (x) = 0.36267 0.28267
# Poissons Ratio (y) = 0.58320 0.24733
# Poissons Ratio (z) = 0.49019 0.26673
#
# Static dielectric constant tensor:
#      x y z
#    x 3.298430 0.000000 -0.018690 
#    y 0.000000 3.212470 0.000000 
#    z -0.018690 0.000000 3.027480 
# 
# 
# High freq. dielectric constant tensor:
#      x y z
#    x 1.670190 0.000000 0.000770 
#    y 0.000000 1.671720 0.000000 
#    z 0.000770 0.000000 1.650350 
# 
# From -- ./inp_files/249173.got.cif
#   From: 2010.06.25/outbox.cif.g09.slc.cpg/sg12_125_cif.got.tgz:249173.got - 2010.06.28 00:19:55.
