data_PCOD8085340
_publ_section_title
;
Structure prediction by ZEFSAII (Michael W. Deem and Ramdas Pophale) SiO2 
 PCOD8085340
Probable space group: C 2/M
;
_chemical_formula_sum "Si O2"
_cell_formula_units_Z 64
_cell_length_a 18.998637
_cell_length_b 8.765599
_cell_length_c 23.054736
_cell_angle_alpha 90.000000
_cell_angle_beta 67.046590
_cell_angle_gamma 90.000000
_cell_volume 3535.411843
_symmetry_space_group_name_H-M "C 2/M"
_symmetry_group_IT_number 12
_symmetry_cell_setting 'monoclinic'
loop_
_space_group_symop_operation_xyz
x,y,z
-x,y,-z
-x,-y,-z
x,-y,z
1/2+x,1/2+y,z
1/2-x,1/2+y,-z
1/2-x,1/2-y,-z
1/2+x,1/2-y,z
loop_
_atom_site_type_symbol
_atom_site_label
_atom_site_fract_x
_atom_site_fract_y
_atom_site_fract_z
Si Si1 0.199932 0.176556 0.648399
Si Si2 0.163238 0.177092 0.457541
Si Si3 0.257719 0.680478 0.741285
Si Si4 0.684265 0.679406 0.059638
Si Si5 0.077538 0.821769 0.597078
Si Si6 0.582412 0.320455 0.991121
Si Si7 0.228780 0.180290 0.872484
Si Si8 0.588101 0.675932 0.362314
O O1 0.262253 0.224289 0.580652
O O2 0.202554 0.278380 0.705319
O O3 0.117682 0.206455 0.645697
O O4 0.211315 0.000000 0.661035
O O5 0.126737 0.245967 0.527914
O O6 0.101759 0.198307 0.426149
O O7 0.187468 0.000000 0.455524
O O8 0.256498 0.500000 0.751363
O O9 0.226963 0.764816 0.807417
O O10 0.342117 0.745412 0.697843
O O11 0.695657 0.500000 0.061233
O O12 0.694905 0.752665 0.120051
O O13 0.750000 0.750000 0.000000
O O14 0.603991 0.716450 0.051961
O O15 0.993069 0.745872 0.627332
O O16 0.068337 0.000000 0.585814
O O17 0.577232 0.500000 0.983510
O O18 0.650470 0.258736 0.927698
O O19 0.500000 0.246738 0.000000
O O20 0.233919 0.000000 0.874110
O O21 0.585550 0.500000 0.346099
#
# Coordination Sequence:
#
# PCOD8085340 Si02
#       8
#     8   8   8   8   8   8   8   8
#     4  10  19  30  46  68  96 125 153 192 239 288
#     4   9  16  28  48  70  92 120 154 193 236 286
#     4  10  20  35  53  68  88 123 165 202 234 278
#     4   9  16  28  49  75 102 130 160 194 228 266
#     4   9  16  27  46  71  93 116 153 199 242 283
#     4   8  15  29  50  77 104 128 157 192 227 264
#     4  10  19  32  53  75  97 127 161 198 236 279
#     4   8  15  28  47  69  89 115 157 203 237 270
#
# _framework density 18.102557999999998
#
# number of rings (size 3 to 8) (size 9 to 14) (size 15 to 20)
#    0.000    2.875    0.000    3.750    0.000    1.500 
#    0.000    1.875    0.000   35.250    0.000    0.000 
#    0.000    0.000    0.000    0.000    0.000    0.000 
#
# Total GULP energy -396554.040805 kJ/mol
# GULP energy per Si atom -12392.313775 kJ/mol
# Density = 1.806136 g / cm^3
# Si number density = 18.102558 Si / 1000 Ang^3
#
#
#
# Elastic Constant Matrix: (Units=GPa)
#
#
# Indices 1 2 3 4 5 6 
#
# 1 116.7248 26.7665 41.8895 0.0000 14.3745 0.0000
# 2 26.7665 45.8190 17.7885 0.0001 3.7785 -0.0002
# 3 41.8895 17.7885 97.5950 0.0001 8.7591 0.0001
# 4 0.0000 0.0001 0.0001 26.4157 0.0000 4.9482
# 5 14.3745 3.7785 8.7591 0.0000 15.1119 0.0000
# 6 0.0000 -0.0002 0.0001 4.9482 0.0000 19.0268
#
#
#
# Elastic Compliance Matrix: (Units=1/GPa)
#
#
# Indices 1 2 3 4 5 6 
#
# 1 0.011959 -0.004958 -0.003502 0.000000 -0.008106 0.000000
# 2 -0.004958 0.025727 -0.002539 0.000000 -0.000245 0.000000
# 3 -0.003502 -0.002539 0.012507 0.000000 -0.003283 0.000000
# 4 0.000000 0.000000 0.000000 0.039795 0.000000 -0.010349
# 5 -0.008106 -0.000245 -0.003283 0.000000 0.075848 0.000000
# 6 0.000000 0.000000 0.000000 -0.010349 0.000000 0.055249
#
#
# Mechanical properties :
#
#
# Convention : Reuss Voigt Hill
#
# Bulk Modulus (GPa) = 35.46722 48.11420 41.79071
# Shear Modulus (GPa) = 19.80337 23.69049 21.74693
#
# Velocity S-wave (km/s) = 3.31109 3.62150 3.46976
# Velocity P-wave (km/s) = 5.85258 6.64254 6.26003
#
# Compressibility (1/GPa) = 0.02819505
#
# Stress axis : x y z
#
# Youngs Moduli (GPa) = 83.61810 38.86893 79.95545
#
# Poissons Ratio (x) = 0.19272 0.27999
# Poissons Ratio (y) = 0.41460 0.20302
# Poissons Ratio (z) = 0.29282 0.09870
#
# Static dielectric constant tensor:
#      x y z
#    x 3.720970 0.000000 0.117960 
#    y 0.000000 3.116760 0.000000 
#    z 0.117960 0.000000 3.327620 
# 
# 
# High freq. dielectric constant tensor:
#      x y z
#    x 1.702090 0.000000 0.018180 
#    y 0.000000 1.672550 0.000000 
#    z 0.018180 0.000000 1.686370 
# 
# From -- ./inp_files/341967.got.cif
#   From: 2010.06.25/outbox.cif.g09.slc.cpg/sg12_171_cif.got.tgz:341967.got - 2010.06.28 00:19:55.
