data_PCOD8085095
_publ_section_title
;
Structure prediction by ZEFSAII (Michael W. Deem and Ramdas Pophale) SiO2 
 PCOD8085095
Probable space group: C 2/M
;
_chemical_formula_sum "Si O2"
_cell_formula_units_Z 56
_cell_length_a 22.801832
_cell_length_b 9.225419
_cell_length_c 14.598889
_cell_angle_alpha 90.000000
_cell_angle_beta 76.312596
_cell_angle_gamma 90.000000
_cell_volume 2983.758535
_symmetry_space_group_name_H-M "C 2/M"
_symmetry_group_IT_number 12
_symmetry_cell_setting 'monoclinic'
loop_
_space_group_symop_operation_xyz
x,y,z
-x,y,-z
-x,-y,-z
x,-y,z
1/2+x,1/2+y,z
1/2-x,1/2+y,-z
1/2-x,1/2-y,-z
1/2+x,1/2-y,z
loop_
_atom_site_type_symbol
_atom_site_label
_atom_site_fract_x
_atom_site_fract_y
_atom_site_fract_z
Si Si1 0.189281 0.165082 0.539865
Si Si2 0.719859 0.334893 0.727049
Si Si3 0.941864 0.836642 0.958110
Si Si4 0.020580 0.332979 0.396401
Si Si5 0.987678 0.329579 0.212404
Si Si6 0.651905 0.833920 0.395126
Si Si7 0.373721 0.830304 0.130357
O O1 0.250000 0.250000 0.500000
O O2 0.176818 0.174441 0.652878
O O3 0.139950 0.243752 0.493689
O O4 0.195741 0.000000 0.505071
O O5 0.720766 0.500000 0.763309
O O6 0.788370 0.280856 0.681458
O O7 0.690889 0.230300 0.813299
O O8 0.958342 0.754122 0.858688
O O9 0.919805 0.000000 0.944570
O O10 0.889482 0.748996 0.029619
O O11 0.000000 0.839983 0.000000
O O12 0.001927 0.500000 0.410638
O O13 0.987531 0.270846 0.317752
O O14 0.092638 0.314007 0.355092
O O15 0.000000 0.256960 0.500000
O O16 0.002776 0.500000 0.202542
O O17 0.923515 0.295917 0.189768
O O18 0.662161 0.000000 0.420743
O O19 0.368609 0.000000 0.112832
#
# Coordination Sequence:
#
# PCOD8085095 Si02
#       7
#     8   8   8   8   8   8   8
#     4   9  17  29  45  66  93 127 165 205 248 292
#     4   9  18  30  44  68  99 130 161 201 252 300
#     4   9  17  31  51  73 100 133 160 195 252 309
#     4   9  18  32  52  75 100 134 174 211 245 288
#     4   9  18  32  50  75 102 129 166 209 246 289
#     4   9  18  32  50  69  96 133 172 209 248 295
#     4  10  19  29  49  79 103 126 160 207 252 296
#
# _framework density 18.768274000000002
#
# number of rings (size 3 to 8) (size 9 to 14) (size 15 to 20)
#    0.000    2.857    0.000    2.143    2.000    5.143 
#    0.000    0.714    0.000    1.714    0.000    0.000 
#    0.000    0.000    0.000    0.000    0.000    0.000 
#
# Total GULP energy -347001.927253 kJ/mol
# GULP energy per Si atom -12392.925973 kJ/mol
# Density = 1.872556 g / cm^3
# Si number density = 18.768274 Si / 1000 Ang^3
#
#
#
# Elastic Constant Matrix: (Units=GPa)
#
#
# Indices 1 2 3 4 5 6 
#
# 1 44.2880 12.9014 28.8801 0.0000 -9.8852 0.0000
# 2 12.9014 76.1924 35.2199 0.0000 -12.8380 0.0000
# 3 28.8801 35.2199 113.1008 0.0000 -13.8722 0.0000
# 4 0.0000 0.0000 0.0000 30.5214 0.0000 -5.8099
# 5 -9.8852 -12.8380 -13.8722 0.0000 28.0083 0.0000
# 6 0.0000 0.0000 0.0000 -5.8099 0.0000 15.0101
#
#
#
# Elastic Compliance Matrix: (Units=1/GPa)
#
#
# Indices 1 2 3 4 5 6 
#
# 1 0.028305 -0.000840 -0.006162 0.000000 0.006553 0.000000
# 2 -0.000840 0.016033 -0.004166 0.000000 0.004989 0.000000
# 3 -0.006162 -0.004166 0.011937 0.000000 0.001828 0.000000
# 4 0.000000 0.000000 0.000000 0.035370 0.000000 0.013691
# 5 0.006553 0.004989 0.001828 0.000000 0.041208 0.000000
# 6 0.000000 0.000000 0.000000 0.013691 0.000000 0.071921
#
#
# Mechanical properties :
#
#
# Convention : Reuss Voigt Hill
#
# Bulk Modulus (GPa) = 29.46578 43.06490 36.26534
# Shear Modulus (GPa) = 20.97091 25.14662 23.05876
#
# Velocity S-wave (km/s) = 3.34632 3.66436 3.50895
# Velocity P-wave (km/s) = 5.53754 6.39522 5.98177
#
# Compressibility (1/GPa) = 0.03393768
#
# Stress axis : x y z
#
# Youngs Moduli (GPa) = 35.32905 62.36953 83.77456
#
# Poissons Ratio (x) = 0.05240 0.51625
# Poissons Ratio (y) = 0.02968 0.34904
# Poissons Ratio (z) = 0.21771 0.25986
#
# Static dielectric constant tensor:
#      x y z
#    x 3.472210 0.000000 0.223920 
#    y 0.000000 3.529420 0.000000 
#    z 0.223920 0.000000 3.701450 
# 
# 
# High freq. dielectric constant tensor:
#      x y z
#    x 1.697810 0.000000 -0.011780 
#    y 0.000000 1.716300 0.000000 
#    z -0.011780 0.000000 1.720290 
# 
# From -- ./inp_files/243036.got.cif
#   From: 2010.06.25/outbox.cif.g09.slc.cpg/sg12_122_cif.got.tgz:243036.got - 2010.06.28 00:19:55.
