data_PCOD8085919
_publ_section_title
;
Structure prediction by ZEFSAII (Michael W. Deem and Ramdas Pophale) SiO2 
 PCOD8085919
Probable space group: C 2/M
;
_chemical_formula_sum "Si O2"
_cell_formula_units_Z 56
_cell_length_a 27.716740
_cell_length_b 8.891059
_cell_length_c 20.833722
_cell_angle_alpha 90.000000
_cell_angle_beta 42.058320
_cell_angle_gamma 90.000000
_cell_volume 3439.250848
_symmetry_space_group_name_H-M "C 2/M"
_symmetry_group_IT_number 12
_symmetry_cell_setting 'monoclinic'
loop_
_space_group_symop_operation_xyz
x,y,z
-x,y,-z
-x,-y,-z
x,-y,z
1/2+x,1/2+y,z
1/2-x,1/2+y,-z
1/2-x,1/2-y,-z
1/2+x,1/2-y,z
loop_
_atom_site_type_symbol
_atom_site_label
_atom_site_fract_x
_atom_site_fract_y
_atom_site_fract_z
Si Si1 0.596765 0.320152 0.275390
Si Si2 0.040932 0.835318 0.526445
Si Si3 0.827861 0.178319 0.927556
Si Si4 0.464390 0.330818 0.104552
Si Si5 0.835416 0.674625 0.175402
Si Si6 0.174408 0.819719 0.325079
Si Si7 0.594705 0.825796 0.030861
O O1 0.592548 0.500000 0.281994
O O2 0.515208 0.254169 0.368887
O O3 0.625191 0.262737 0.179060
O O4 0.651238 0.262753 0.277109
O O5 0.117972 0.754927 0.434866
O O6 0.000000 0.852955 0.500000
O O7 0.058629 0.000000 0.537151
O O8 0.866957 0.228384 0.953169
O O9 0.819707 0.000000 0.934201
O O10 0.750000 0.250000 0.000000
O O11 0.459688 0.500000 0.136231
O O12 0.384369 0.262655 0.178365
O O13 0.512505 0.230529 0.104836
O O14 0.500000 0.327671 0.000000
O O15 0.840108 0.500000 0.188331
O O16 0.754385 0.738563 0.261835
O O17 0.861387 0.702340 0.077453
O O18 0.172526 0.000000 0.327501
O O19 0.594458 0.000000 0.050698
#
# Coordination Sequence:
#
# PCOD8085919 Si02
#       7
#     8   8   8   8   8   8   8
#     4   8  14  24  37  56  84 115 143 172 205 242
#     4   7  10  18  34  56  81 107 135 169 208 247
#     4  11  21  31  43  61  87 117 148 177 205 240
#     4   9  17  29  44  62  84 110 141 174 209 251
#     4   9  16  26  42  64  88 112 137 170 213 255
#     4   8  12  20  37  61  86 109 135 169 209 251
#     4  10  19  31  45  61  85 115 145 174 206 246
#
# _framework density 16.282616000000001
#
# number of rings (size 3 to 8) (size 9 to 14) (size 15 to 20)
#    0.000    3.143    0.000    3.857    0.000    4.571 
#    0.000    0.000    0.000    0.000    0.000    3.000 
#    0.000    9.714    0.000    0.000    0.000    0.000 
#
# Total GULP energy -346906.296193 kJ/mol
# GULP energy per Si atom -12389.510578 kJ/mol
# Density = 1.624556 g / cm^3
# Si number density = 16.282616 Si / 1000 Ang^3
#
#
#
# Elastic Constant Matrix: (Units=GPa)
#
#
# Indices 1 2 3 4 5 6 
#
# 1 90.2041 26.2077 50.3263 -0.0049 -25.6042 0.0102
# 2 26.2077 42.0226 31.1530 -0.0061 -4.9815 0.0208
# 3 50.3263 31.1530 109.9596 0.0070 -24.8629 0.0176
# 4 -0.0049 -0.0061 0.0070 9.5209 -0.0001 -2.2592
# 5 -25.6042 -4.9815 -24.8629 -0.0001 28.0963 -0.0147
# 6 0.0102 0.0208 0.0176 -2.2592 -0.0147 24.2022
#
#
#
# Elastic Compliance Matrix: (Units=1/GPa)
#
#
# Indices 1 2 3 4 5 6 
#
# 1 0.018923 -0.007599 -0.003642 0.000010 0.012675 0.000010
# 2 -0.007599 0.033348 -0.007749 0.000018 -0.007870 -0.000023
# 3 -0.003642 -0.007749 0.014871 -0.000017 0.008467 0.000001
# 4 0.000010 0.000018 -0.000017 0.107411 0.000003 0.010026
# 5 0.012675 -0.007870 0.008467 0.000003 0.053239 0.000028
# 6 0.000010 -0.000023 0.000001 0.010026 0.000028 0.042255
#
#
# Mechanical properties :
#
#
# Convention : Reuss Voigt Hill
#
# Bulk Modulus (GPa) = 34.29224 50.84002 42.56613
# Shear Modulus (GPa) = 15.73568 21.33051 18.53310
#
# Velocity S-wave (km/s) = 3.11209 3.62334 3.37740
# Velocity P-wave (km/s) = 5.83265 6.98542 6.43490
#
# Compressibility (1/GPa) = 0.02916112
#
# Stress axis : x y z
#
# Youngs Moduli (GPa) = 52.84435 29.98677 67.24484
#
# Poissons Ratio (x) = 0.22788 0.24491
# Poissons Ratio (y) = 0.40158 0.52111
# Poissons Ratio (z) = 0.19246 0.23238
#
# Static dielectric constant tensor:
#      x y z
#    x 3.081620 -0.000050 -0.273380 
#    y -0.000050 2.793560 0.000030 
#    z -0.273380 0.000030 3.412510 
# 
# 
# High freq. dielectric constant tensor:
#      x y z
#    x 1.606890 0.000000 -0.025310 
#    y 0.000000 1.592140 0.000000 
#    z -0.025310 0.000000 1.618640 
# 
# From -- ./inp_files/291664.got.cif
#   From: 2010.06.25/outbox.cif.g09.slc.cpg/sg12_146_cif.got.tgz:291664.got - 2010.06.28 00:19:55.
