data_PCOD8085824
_publ_section_title
;
Structure prediction by ZEFSAII (Michael W. Deem and Ramdas Pophale) SiO2 
 PCOD8085824
Probable space group: C 2/M
;
_chemical_formula_sum "Si O2"
_cell_formula_units_Z 40
_cell_length_a 28.437012
_cell_length_b 8.920422
_cell_length_c 12.539317
_cell_angle_alpha 90.000000
_cell_angle_beta 44.411852
_cell_angle_gamma 90.000000
_cell_volume 2225.994472
_symmetry_space_group_name_H-M "C 2/M"
_symmetry_group_IT_number 12
_symmetry_cell_setting 'monoclinic'
loop_
_space_group_symop_operation_xyz
x,y,z
-x,y,-z
-x,-y,-z
x,-y,z
1/2+x,1/2+y,z
1/2-x,1/2+y,-z
1/2-x,1/2-y,-z
1/2+x,1/2-y,z
loop_
_atom_site_type_symbol
_atom_site_label
_atom_site_fract_x
_atom_site_fract_y
_atom_site_fract_z
Si Si1 0.052249 0.824328 0.684289
Si Si2 0.319865 0.175990 0.915067
Si Si3 0.078696 0.669094 0.851051
Si Si4 0.069500 0.674818 0.439182
Si Si5 0.601427 0.676274 0.025589
O O1 0.092886 0.745845 0.714346
O O2 0.083606 0.766667 0.523540
O O3 0.973600 0.781542 0.815235
O O4 0.063151 0.000000 0.678101
O O5 0.371071 0.213489 0.737520
O O6 0.346064 0.244808 0.982267
O O7 0.310817 0.000000 0.945420
O O8 0.250000 0.250000 0.000000
O O9 0.106777 0.500000 0.804256
O O10 0.115596 0.762522 0.883875
O O11 0.000000 0.671599 0.000000
O O12 0.065568 0.500000 0.474361
O O13 0.000000 0.730097 0.500000
O O14 0.613846 0.500000 0.006640
#
# Coordination Sequence:
#
# PCOD8085824 Si02
#       5
#     8   8   8   8   8
#     4  10  19  30  50  80 111 139 174 223 271 315
#     4  11  23  38  56  78 108 145 183 222 267 321
#     4   9  17  29  48  74 106 142 178 217 265 318
#     4  10  20  35  55  78 107 142 180 222 268 319
#     4  10  19  32  51  77 109 141 178 222 268 316
#
# _framework density 17.969498000000002
#
# number of rings (size 3 to 8) (size 9 to 14) (size 15 to 20)
#    0.000    2.000    2.000    2.400    0.000    6.000 
#    0.000    0.000    0.000    1.200    0.000    0.000 
#    0.000    0.000    0.000    0.000    0.000    0.000 
#
# Total GULP energy -248074.706445 kJ/mol
# GULP energy per Si atom -12403.735322 kJ/mol
# Density = 1.792860 g / cm^3
# Si number density = 17.969498 Si / 1000 Ang^3
#
#
#
# Elastic Constant Matrix: (Units=GPa)
#
#
# Indices 1 2 3 4 5 6 
#
# 1 136.4609 71.1568 69.5137 0.0000 25.1792 0.0000
# 2 71.1568 100.0960 52.1767 0.0000 11.2171 0.0000
# 3 69.5137 52.1767 80.4998 0.0000 17.3559 0.0000
# 4 0.0000 0.0000 0.0000 27.0700 0.0000 7.6826
# 5 25.1792 11.2171 17.3559 0.0000 34.3665 0.0000
# 6 0.0000 0.0000 0.0000 7.6826 0.0000 36.2645
#
#
#
# Elastic Compliance Matrix: (Units=1/GPa)
#
#
# Indices 1 2 3 4 5 6 
#
# 1 0.015935 -0.006278 -0.008546 0.000000 -0.005310 0.000000
# 2 -0.006278 0.017562 -0.006416 0.000000 0.002108 0.000000
# 3 -0.008546 -0.006416 0.024867 0.000000 -0.004203 0.000000
# 4 0.000000 0.000000 0.000000 0.039304 0.000000 -0.008327
# 5 -0.005310 0.002108 -0.004203 0.000000 0.034423 0.000000
# 6 0.000000 0.000000 0.000000 -0.008327 0.000000 0.029339
#
#
# Mechanical properties :
#
#
# Convention : Reuss Voigt Hill
#
# Bulk Modulus (GPa) = 62.96024 78.08347 70.52186
# Shear Modulus (GPa) = 23.90001 27.82084 25.86043
#
# Velocity S-wave (km/s) = 3.65092 3.93902 3.79770
# Velocity P-wave (km/s) = 7.27225 8.01471 7.65249
#
# Compressibility (1/GPa) = 0.01588304
#
# Stress axis : x y z
#
# Youngs Moduli (GPa) = 62.75473 56.94263 40.21388
#
# Poissons Ratio (x) = 0.35749 0.34368
# Poissons Ratio (y) = 0.39397 0.25801
# Poissons Ratio (z) = 0.53633 0.36534
#
# Static dielectric constant tensor:
#      x y z
#    x 3.244850 0.000000 0.307930 
#    y 0.000000 3.404470 0.000000 
#    z 0.307930 0.000000 3.179620 
# 
# 
# High freq. dielectric constant tensor:
#      x y z
#    x 1.688450 0.000000 0.033650 
#    y 0.000000 1.710040 0.000000 
#    z 0.033650 0.000000 1.670390 
# 
# From -- ./inp_files/151654.got.cif
#   From: 2010.06.25/outbox.cif.g09.slc.cpg/sg12_76_cif.got.tgz:151654.got - 2010.06.28 00:19:55.
