data_PCOD8085479
_publ_section_title
;
Structure prediction by ZEFSAII (Michael W. Deem and Ramdas Pophale) SiO2 
 PCOD8085479
Probable space group: C 2/M
;
_chemical_formula_sum "Si O2"
_cell_formula_units_Z 56
_cell_length_a 25.046214
_cell_length_b 9.217086
_cell_length_c 14.096316
_cell_angle_alpha 90.000000
_cell_angle_beta 57.614862
_cell_angle_gamma 90.000000
_cell_volume 2748.045870
_symmetry_space_group_name_H-M "C 2/M"
_symmetry_group_IT_number 12
_symmetry_cell_setting 'monoclinic'
loop_
_space_group_symop_operation_xyz
x,y,z
-x,y,-z
-x,-y,-z
x,-y,z
1/2+x,1/2+y,z
1/2-x,1/2+y,-z
1/2-x,1/2-y,-z
1/2+x,1/2-y,z
loop_
_atom_site_type_symbol
_atom_site_label
_atom_site_fract_x
_atom_site_fract_y
_atom_site_fract_z
Si Si1 0.896838 0.337913 0.010840
Si Si2 0.991063 0.170667 0.791139
Si Si3 0.131005 0.830918 0.629109
Si Si4 0.176714 0.832462 0.386262
Si Si5 0.104061 0.162458 0.278340
Si Si6 0.304156 0.671511 0.238590
Si Si7 0.307444 0.844787 0.919879
O O1 0.915910 0.500000 0.030903
O O2 0.860591 0.244056 0.124451
O O3 0.957450 0.251995 0.911321
O O4 0.850763 0.361617 0.968496
O O5 0.960870 0.202897 0.714561
O O6 0.061904 0.234112 0.718833
O O7 0.988747 0.000000 0.816847
O O8 0.159488 0.764145 0.505065
O O9 0.179537 0.798965 0.667098
O O10 0.120563 0.000000 0.620872
O O11 0.110851 0.824340 0.386410
O O12 0.235723 0.743752 0.284668
O O13 0.198899 0.000000 0.372440
O O14 0.157733 0.272946 0.199660
O O15 0.122464 0.000000 0.228576
O O16 0.302019 0.500000 0.217537
O O17 0.282716 0.000000 0.908031
O O18 0.250000 0.750000 0.000000
#
# Coordination Sequence:
#
# PCOD8085479 Si02
#       7
#     8   8   8   8   8   8   8
#     4  10  21  36  53  77 108 141 175 219 270 318
#     4   9  18  36  58  81 108 140 177 217 263 319
#     4   9  20  37  57  79 107 142 181 223 264 309
#     4  10  20  36  56  81 111 141 175 220 268 315
#     4   9  18  31  52  79 105 134 171 213 261 314
#     4  11  22  36  55  80 107 142 184 222 263 314
#     4  10  19  30  47  71 103 138 172 212 262 315
#
# _framework density 20.378115000000001
#
# number of rings (size 3 to 8) (size 9 to 14) (size 15 to 20)
#    0.000    2.286    0.000    2.571    0.000    6.857 
#    0.000    8.571    0.000    0.000    0.000    5.000 
#    0.000    0.000    0.000    0.000    0.000    0.000 
#
# Total GULP energy -346878.252457 kJ/mol
# GULP energy per Si atom -12388.509016 kJ/mol
# Density = 2.033173 g / cm^3
# Si number density = 20.378115 Si / 1000 Ang^3
#
#
#
# Elastic Constant Matrix: (Units=GPa)
#
#
# Indices 1 2 3 4 5 6 
#
# 1 54.8046 9.5607 14.4913 0.0000 -5.9324 0.0000
# 2 9.5607 73.8583 36.7104 0.0000 -10.3655 0.0000
# 3 14.4913 36.7104 80.9624 0.0000 0.9949 0.0000
# 4 0.0000 0.0000 0.0000 70.7369 0.0000 -4.1994
# 5 -5.9324 -10.3655 0.9949 0.0000 35.3235 0.0000
# 6 0.0000 0.0000 0.0000 -4.1994 0.0000 20.4818
#
#
#
# Elastic Compliance Matrix: (Units=1/GPa)
#
#
# Indices 1 2 3 4 5 6 
#
# 1 0.019558 -0.000406 -0.003357 0.000000 0.003260 0.000000
# 2 -0.000406 0.018561 -0.008413 0.000000 0.005616 0.000000
# 3 -0.003357 -0.008413 0.016810 0.000000 -0.003506 0.000000
# 4 0.000000 0.000000 0.000000 0.014311 0.000000 0.002934
# 5 0.003260 0.005616 -0.003506 0.000000 0.030604 0.000000
# 6 0.000000 0.000000 0.000000 0.002934 0.000000 0.049425
#
#
# Mechanical properties :
#
#
# Convention : Reuss Voigt Hill
#
# Bulk Modulus (GPa) = 32.70219 36.79445 34.74832
# Shear Modulus (GPa) = 27.20160 35.23264 31.21712
#
# Velocity S-wave (km/s) = 3.65751 4.16257 3.91819
# Velocity P-wave (km/s) = 5.82401 6.41854 6.12849
#
# Compressibility (1/GPa) = 0.03057899
#
# Stress axis : x y z
#
# Youngs Moduli (GPa) = 51.13026 53.87507 59.48910
#
# Poissons Ratio (x) = 0.02186 0.19969
# Poissons Ratio (y) = 0.02075 0.50046
# Poissons Ratio (z) = 0.17163 0.45323
#
# Static dielectric constant tensor:
#      x y z
#    x 3.591410 0.000000 0.169100 
#    y 0.000000 3.909260 0.000000 
#    z 0.169100 0.000000 3.666610 
# 
# 
# High freq. dielectric constant tensor:
#      x y z
#    x 1.799770 0.000000 0.009950 
#    y 0.000000 1.785210 0.000000 
#    z 0.009950 0.000000 1.788140 
# 
# From -- ./inp_files/238398.got.cif
#   From: 2010.06.25/outbox.cif.g09.slc.cpg/sg12_120_cif.got.tgz:238398.got - 2010.06.28 00:19:55.
