data_PCOD8085210
_publ_section_title
;
Structure prediction by ZEFSAII (Michael W. Deem and Ramdas Pophale) SiO2 
 PCOD8085210
Probable space group: C 2/M
;
_chemical_formula_sum "Si O2"
_cell_formula_units_Z 64
_cell_length_a 32.022357
_cell_length_b 8.906279
_cell_length_c 16.065180
_cell_angle_alpha 90.000000
_cell_angle_beta 67.973731
_cell_angle_gamma 90.000000
_cell_volume 4247.374410
_symmetry_space_group_name_H-M "C 2/M"
_symmetry_group_IT_number 12
_symmetry_cell_setting 'monoclinic'
loop_
_space_group_symop_operation_xyz
x,y,z
-x,y,-z
-x,-y,-z
x,-y,z
1/2+x,1/2+y,z
1/2-x,1/2+y,-z
1/2-x,1/2-y,-z
1/2+x,1/2-y,z
loop_
_atom_site_type_symbol
_atom_site_label
_atom_site_fract_x
_atom_site_fract_y
_atom_site_fract_z
Si Si1 0.336415 0.329772 0.315806
Si Si2 0.238956 0.674910 0.310704
Si Si3 0.708602 0.326110 0.486320
Si Si4 0.402806 0.322158 0.986308
Si Si5 0.819720 0.324053 0.963425
Si Si6 0.409914 0.824931 0.158249
Si Si7 0.734459 0.676064 0.136643
Si Si8 0.998460 0.834963 0.099731
O O1 0.350880 0.500000 0.283429
O O2 0.288817 0.293765 0.308027
O O3 0.333401 0.309399 0.418556
O O4 0.373488 0.214552 0.255438
O O5 0.229576 0.500000 0.304385
O O6 0.201823 0.741175 0.403361
O O7 0.232690 0.761713 0.230161
O O8 0.719389 0.500000 0.461366
O O9 0.750000 0.250000 0.500000
O O10 0.396679 0.500000 0.996260
O O11 0.366422 0.252105 0.952491
O O12 0.451714 0.279285 0.910473
O O13 0.396828 0.259349 0.083590
O O14 0.827057 0.500000 0.947593
O O15 0.804296 0.256717 0.887204
O O16 0.783202 0.286265 0.061692
O O17 0.459242 0.778993 0.156441
O O18 0.409397 0.000000 0.140162
O O19 0.724820 0.500000 0.143477
O O20 0.987974 0.000000 0.145352
O O21 0.000000 0.847535 0.000000
#
# Coordination Sequence:
#
# PCOD8085210 Si02
#       8
#     8   8   8   8   8   8   8   8
#     4   9  18  30  43  60  85 116 145 173 209 255
#     4  10  19  30  45  63  84 113 146 179 214 251
#     4   9  17  29  44  61  82 110 142 176 213 252
#     4  10  19  31  46  61  82 114 146 175 212 257
#     4  10  20  32  46  64  85 110 143 183 218 246
#     4  11  20  27  41  64  87 112 143 179 213 247
#     4  10  20  32  45  62  86 115 145 177 213 253
#     4   8  16  30  44  58  80 111 142 172 209 253
#
# _framework density 15.068133
#
# number of rings (size 3 to 8) (size 9 to 14) (size 15 to 20)
#    0.000    2.375    0.000    5.250    0.000    9.250 
#    0.000    0.000    0.000    0.000    0.000    0.000 
#    0.000    1.000    0.000   10.500    0.000    5.000 
#
# Total GULP energy -396708.213733 kJ/mol
# GULP energy per Si atom -12397.131679 kJ/mol
# Density = 1.503384 g / cm^3
# Si number density = 15.068133 Si / 1000 Ang^3
#
#
#
# Elastic Constant Matrix: (Units=GPa)
#
#
# Indices 1 2 3 4 5 6 
#
# 1 88.9944 39.6810 30.1964 0.0000 -2.6969 0.0000
# 2 39.6810 77.8538 27.8839 0.0000 -5.2135 0.0000
# 3 30.1964 27.8839 73.2457 0.0000 2.8479 0.0000
# 4 0.0000 0.0000 0.0000 25.8535 0.0000 1.8900
# 5 -2.6969 -5.2135 2.8479 0.0000 15.1529 0.0000
# 6 0.0000 0.0000 0.0000 1.8900 0.0000 24.0096
#
#
#
# Elastic Compliance Matrix: (Units=1/GPa)
#
#
# Indices 1 2 3 4 5 6 
#
# 1 0.015474 -0.006363 -0.004008 0.000000 0.001318 0.000000
# 2 -0.006363 0.018096 -0.004497 0.000000 0.005939 0.000000
# 3 -0.004008 -0.004497 0.017231 0.000000 -0.005499 0.000000
# 4 0.000000 0.000000 0.000000 0.038903 0.000000 -0.003062
# 5 0.001318 0.005939 -0.005499 0.000000 0.069305 0.000000
# 6 0.000000 0.000000 0.000000 -0.003062 0.000000 0.041891
#
#
# Mechanical properties :
#
#
# Convention : Reuss Voigt Hill
#
# Bulk Modulus (GPa) = 47.47243 48.40184 47.93713
# Shear Modulus (GPa) = 21.03873 22.49205 21.76539
#
# Velocity S-wave (km/s) = 3.74068 3.86773 3.80473
# Velocity P-wave (km/s) = 7.08735 7.22063 7.15430
#
# Compressibility (1/GPa) = 0.02106486
#
# Stress axis : x y z
#
# Youngs Moduli (GPa) = 64.62564 55.26125 58.03581
#
# Poissons Ratio (x) = 0.35162 0.23262
# Poissons Ratio (y) = 0.41121 0.26097
# Poissons Ratio (z) = 0.25903 0.24849
#
# Static dielectric constant tensor:
#      x y z
#    x 2.921670 0.000000 -0.118480 
#    y 0.000000 3.058580 0.000000 
#    z -0.118480 0.000000 2.964920 
# 
# 
# High freq. dielectric constant tensor:
#      x y z
#    x 1.549900 0.000000 -0.006600 
#    y 0.000000 1.594160 0.000000 
#    z -0.006600 0.000000 1.558440 
# 
# From -- ./inp_files/243884.got.cif
#   From: 2010.06.25/outbox.cif.g09.slc.cpg/sg12_122_cif.got.tgz:243884.got - 2010.06.28 00:19:55.
