data_PCOD8085120
_publ_section_title
;
Structure prediction by ZEFSAII (Michael W. Deem and Ramdas Pophale) SiO2 
 PCOD8085120
Probable space group: C 2/M
;
_chemical_formula_sum "Si O2"
_cell_formula_units_Z 56
_cell_length_a 26.024914
_cell_length_b 23.015267
_cell_length_c 14.546072
_cell_angle_alpha 90.000000
_cell_angle_beta 22.983654
_cell_angle_gamma 90.000000
_cell_volume 3402.021532
_symmetry_space_group_name_H-M "C 2/M"
_symmetry_group_IT_number 12
_symmetry_cell_setting 'monoclinic'
loop_
_space_group_symop_operation_xyz
x,y,z
-x,y,-z
-x,-y,-z
x,-y,z
1/2+x,1/2+y,z
1/2-x,1/2+y,-z
1/2-x,1/2-y,-z
1/2+x,1/2-y,z
loop_
_atom_site_type_symbol
_atom_site_label
_atom_site_fract_x
_atom_site_fract_y
_atom_site_fract_z
Si Si1 0.189045 0.617130 0.713196
Si Si2 0.891350 0.145611 0.099477
Si Si3 0.535136 0.431211 0.729832
Si Si4 0.373964 0.934608 0.002203
Si Si5 0.936037 0.728491 0.009451
Si Si6 0.105069 0.360335 0.652808
Si Si7 0.411993 0.431631 0.563862
O O1 0.338853 0.603655 0.438465
O O2 0.142495 0.566801 0.859705
O O3 0.176090 0.679284 0.788784
O O4 0.101587 0.617241 0.764876
O O5 0.884333 0.208805 0.060629
O O6 0.748116 0.134846 0.376726
O O7 0.000000 0.139097 0.000000
O O8 0.912785 0.096405 0.986389
O O9 0.545011 0.500000 0.733689
O O10 0.520507 0.418230 0.645349
O O11 0.238502 0.907852 0.182723
O O12 0.396718 0.000000 0.931581
O O13 0.503146 0.898391 0.759991
O O14 0.000000 0.745217 0.000000
O O15 0.046467 0.705246 0.755143
O O16 0.500000 0.403224 0.500000
O O17 0.401979 0.500000 0.594592
#
# Coordination Sequence:
#
# PCOD8085120 Si02
#       7
#     8   8   8   8   8   8   8
#     4   9  16  30  45  66  93 126 164 201 227 263
#     4  11  21  31  44  65  99 140 162 189 229 278
#     4  10  20  31  45  71 102 127 159 191 230 295
#     4   9  17  28  45  70  95 119 154 197 237 281
#     4   8  18  29  47  63  87 123 174 214 227 246
#     4  10  19  30  42  67  96 131 163 190 231 275
#     4   8  15  31  54  73  89 115 157 208 245 268
#
# _framework density 16.460801
#
# number of rings (size 3 to 8) (size 9 to 14) (size 15 to 20)
#    0.000    2.714    1.429    2.571    2.000    4.286 
#    0.000    0.000    0.000    0.857    0.000   13.000 
#    0.000    0.000    0.000    0.000    0.000    0.000 
#
# Total GULP energy -346878.177441 kJ/mol
# GULP energy per Si atom -12388.506337 kJ/mol
# Density = 1.642334 g / cm^3
# Si number density = 16.460801 Si / 1000 Ang^3
#
#
#
# Elastic Constant Matrix: (Units=GPa)
#
#
# Indices 1 2 3 4 5 6 
#
# 1 66.8582 28.2197 35.0182 0.0001 -13.8582 0.0000
# 2 28.2197 76.4368 41.6712 -0.0012 -2.6466 0.0014
# 3 35.0182 41.6712 128.8249 0.0000 -8.4108 0.0005
# 4 0.0001 -0.0012 0.0000 20.9754 0.0002 1.2472
# 5 -13.8582 -2.6466 -8.4108 0.0002 18.8837 -0.0007
# 6 0.0000 0.0014 0.0005 1.2472 -0.0007 6.0432
#
#
#
# Elastic Compliance Matrix: (Units=1/GPa)
#
#
# Indices 1 2 3 4 5 6 
#
# 1 0.021989 -0.005916 -0.003156 -0.000001 0.013902 0.000003
# 2 -0.005916 0.017476 -0.004293 0.000001 -0.003805 -0.000004
# 3 -0.003156 -0.004293 0.010113 0.000000 0.001587 0.000000
# 4 -0.000001 0.000001 0.000000 0.048267 -0.000001 -0.009962
# 5 0.013902 -0.003805 0.001587 -0.000001 0.063331 0.000009
# 6 0.000003 -0.000004 0.000000 -0.009962 0.000009 0.167530
#
#
# Mechanical properties :
#
#
# Convention : Reuss Voigt Hill
#
# Bulk Modulus (GPa) = 43.76989 53.54867 48.65928
# Shear Modulus (GPa) = 13.77218 20.32787 17.05003
#
# Velocity S-wave (km/s) = 2.89565 3.51796 3.22187
# Velocity P-wave (km/s) = 6.15044 7.00736 6.59283
#
# Compressibility (1/GPa) = 0.02284676
#
# Stress axis : x y z
#
# Youngs Moduli (GPa) = 45.47812 57.22249 98.88675
#
# Poissons Ratio (x) = 0.33854 0.31206
# Poissons Ratio (y) = 0.26906 0.42453
# Poissons Ratio (z) = 0.14352 0.24566
#
# Static dielectric constant tensor:
#      x y z
#    x 2.973700 0.000000 -0.163780 
#    y 0.000000 3.111890 0.000000 
#    z -0.163780 0.000000 3.128460 
# 
# 
# High freq. dielectric constant tensor:
#      x y z
#    x 1.580760 0.000000 -0.007760 
#    y 0.000000 1.624780 0.000000 
#    z -0.007760 0.000000 1.635260 
# 
# From -- ./inp_files/247379.got.cif
#   From: 2010.06.25/outbox.cif.g09.slc.cpg/sg12_124_cif.got.tgz:247379.got - 2010.06.28 00:19:55.
