data_PCOD8085671
_publ_section_title
;
Structure prediction by ZEFSAII (Michael W. Deem and Ramdas Pophale) SiO2 
 PCOD8085671
Probable space group: C 2/M
;
_chemical_formula_sum "Si O2"
_cell_formula_units_Z 56
_cell_length_a 30.962216
_cell_length_b 7.878898
_cell_length_c 14.402629
_cell_angle_alpha 90.000000
_cell_angle_beta 62.546249
_cell_angle_gamma 90.000000
_cell_volume 3117.816297
_symmetry_space_group_name_H-M "C 2/M"
_symmetry_group_IT_number 12
_symmetry_cell_setting 'monoclinic'
loop_
_space_group_symop_operation_xyz
x,y,z
-x,y,-z
-x,-y,-z
x,-y,z
1/2+x,1/2+y,z
1/2-x,1/2+y,-z
1/2-x,1/2-y,-z
1/2+x,1/2-y,z
loop_
_atom_site_type_symbol
_atom_site_label
_atom_site_fract_x
_atom_site_fract_y
_atom_site_fract_z
Si Si1 0.387686 0.190291 0.778812
Si Si2 0.284372 0.189986 0.199027
Si Si3 0.624659 0.805561 0.547440
Si Si4 0.052531 0.000000 0.330363
Si Si5 0.061362 0.000000 0.539394
Si Si6 0.802411 0.191568 0.985088
Si Si7 0.183378 0.311222 0.310513
Si Si8 0.204645 0.302121 0.607988
O O1 0.429356 0.333325 0.744212
O O2 0.364091 0.226774 0.702451
O O3 0.410529 0.000000 0.760548
O O4 0.345968 0.199577 0.898148
O O5 0.307323 0.294766 0.091537
O O6 0.225954 0.181004 0.243364
O O7 0.294832 0.279748 0.288694
O O8 0.305391 0.000000 0.172792
O O9 0.583052 0.670054 0.564974
O O10 0.668658 0.792576 0.431421
O O11 0.651983 0.757179 0.616174
O O12 0.603577 0.000000 0.569882
O O13 0.070241 0.000000 0.420040
O O14 0.994953 0.000000 0.381024
O O15 0.810599 0.000000 0.945382
O O16 0.750000 0.250000 0.000000
O O17 0.203270 0.500000 0.268951
O O18 0.210117 0.500000 0.617869
O O19 0.250000 0.250000 0.500000
#
# Coordination Sequence:
#
# PCOD8085671 Si02
#       8
#     8   8   8   4   4   8   8   8
#     4  11  22  38  57  79 113 154 188 232 287 335
#     4  11  22  32  48  77 113 153 195 232 272 324
#     4  10  21  37  55  80 113 153 193 231 283 337
#     4  11  24  40  58  89 113 145 199 240 285 347
#     4  11  24  38  62  85 113 151 193 242 287 339
#     4  12  23  35  52  78 112 152 196 232 274 340
#     4  10  19  30  48  75 111 152 189 224 272 328
#     4  10  21  33  50  77 112 152 194 231 272 337
#
# _framework density 17.961288
#
# number of rings (size 3 to 8) (size 9 to 14) (size 15 to 20)
#    0.000    1.286    5.000    1.714    3.000    1.143 
#    0.000    1.429    0.000    0.000    0.000    2.000 
#    0.000    4.571    0.000    0.000    0.000    0.000 
#
# Total GULP energy -347068.438546 kJ/mol
# GULP energy per Si atom -12395.301377 kJ/mol
# Density = 1.792041 g / cm^3
# Si number density = 17.961288 Si / 1000 Ang^3
#
#
#
# Elastic Constant Matrix: (Units=GPa)
#
#
# Indices 1 2 3 4 5 6 
#
# 1 69.8648 45.4874 38.0043 0.0000 0.0054 0.0000
# 2 45.4874 101.3201 30.3526 0.0000 -6.2994 0.0000
# 3 38.0043 30.3526 91.8217 0.0000 6.4809 0.0000
# 4 0.0000 0.0000 0.0000 23.6484 0.0000 -0.8764
# 5 0.0054 -6.2994 6.4809 0.0000 28.7276 0.0000
# 6 0.0000 0.0000 0.0000 -0.8764 0.0000 22.5196
#
#
#
# Elastic Compliance Matrix: (Units=1/GPa)
#
#
# Indices 1 2 3 4 5 6 
#
# 1 0.023666 -0.008565 -0.006942 0.000000 -0.000317 0.000000
# 2 -0.008565 0.014365 -0.001449 0.000000 0.003479 0.000000
# 3 -0.006942 -0.001449 0.014496 0.000000 -0.003587 0.000000
# 4 0.000000 0.000000 0.000000 0.042347 0.000000 0.001648
# 5 -0.000317 0.003479 -0.003587 0.000000 0.036382 0.000000
# 6 0.000000 0.000000 0.000000 0.001648 0.000000 0.044470
#
#
# Mechanical properties :
#
#
# Convention : Reuss Voigt Hill
#
# Bulk Modulus (GPa) = 53.71779 54.52166 54.11973
# Shear Modulus (GPa) = 23.16506 24.92327 24.04416
#
# Velocity S-wave (km/s) = 3.59517 3.72911 3.66275
# Velocity P-wave (km/s) = 6.87067 6.99733 6.93429
#
# Compressibility (1/GPa) = 0.01861581
#
# Stress axis : x y z
#
# Youngs Moduli (GPa) = 42.25515 69.61227 68.98491
#
# Poissons Ratio (x) = 0.59622 0.47886
# Poissons Ratio (y) = 0.36191 0.09997
# Poissons Ratio (z) = 0.29332 0.10088
#
# Static dielectric constant tensor:
#      x y z
#    x 3.150680 0.000000 0.332870 
#    y 0.000000 -4.198080 0.000000 
#    z 0.332870 0.000000 3.382920 
# 
# 
# High freq. dielectric constant tensor:
#      x y z
#    x 1.658180 0.000000 0.019880 
#    y 0.000000 1.707600 0.000000 
#    z 0.019880 0.000000 1.683770 
# 
# From -- ./inp_files/248182.got.cif
#   From: 2010.06.25/outbox.cif.g09.slc.cpg/sg12_125_cif.got.tgz:248182.got - 2010.06.28 00:19:55.
