data_PCOD8085525
_publ_section_title
;
Structure prediction by ZEFSAII (Michael W. Deem and Ramdas Pophale) SiO2 
 PCOD8085525
Probable space group: C 2/M
;
_chemical_formula_sum "Si O2"
_cell_formula_units_Z 64
_cell_length_a 24.729935
_cell_length_b 9.493947
_cell_length_c 29.845369
_cell_angle_alpha 90.000000
_cell_angle_beta 30.901880
_cell_angle_gamma 90.000000
_cell_volume 3598.701920
_symmetry_space_group_name_H-M "C 2/M"
_symmetry_group_IT_number 12
_symmetry_cell_setting 'monoclinic'
loop_
_space_group_symop_operation_xyz
x,y,z
-x,y,-z
-x,-y,-z
x,-y,z
1/2+x,1/2+y,z
1/2-x,1/2+y,-z
1/2-x,1/2-y,-z
1/2+x,1/2-y,z
loop_
_atom_site_type_symbol
_atom_site_label
_atom_site_fract_x
_atom_site_fract_y
_atom_site_fract_z
Si Si1 0.894510 0.337531 0.878278
Si Si2 0.309966 0.168145 0.739557
Si Si3 0.175924 0.835520 0.989939
Si Si4 0.886186 0.167717 0.065077
Si Si5 0.614656 0.836066 0.408340
Si Si6 0.791025 0.337140 0.565041
Si Si7 0.409107 0.165637 0.321577
Si Si8 0.521627 0.166464 0.631928
O O1 0.890808 0.500000 0.895306
O O2 0.892522 0.245347 0.924491
O O3 0.001650 0.297435 0.777546
O O4 0.798939 0.304264 0.911972
O O5 0.201119 0.226315 0.837918
O O6 0.328483 0.228056 0.676102
O O7 0.406608 0.224878 0.701001
O O8 0.306572 0.000000 0.741885
O O9 0.150154 0.000000 0.012731
O O10 0.143474 0.779399 0.963816
O O11 0.886133 0.000000 0.065377
O O12 0.000000 0.225942 0.000000
O O13 0.500000 0.766771 0.500000
O O14 0.692631 0.810864 0.394055
O O15 0.594473 0.000000 0.413195
O O16 0.765573 0.500000 0.572886
O O17 0.696625 0.241571 0.616653
O O18 0.895490 0.287809 0.464835
O O19 0.444308 0.227877 0.344437
O O20 0.387189 0.000000 0.339720
O O21 0.514815 0.000000 0.639994
#
# Coordination Sequence:
#
# PCOD8085525 Si02
#       8
#     8   8   8   8   8   8   8   8
#     4   9  18  32  49  69  92 125 163 195 232 284
#     4   9  15  25  44  67  93 126 159 194 235 279
#     4   9  17  31  51  71  94 121 156 199 239 279
#     4   9  17  27  41  67 100 126 151 190 242 290
#     4   9  15  26  44  69  97 121 153 197 239 278
#     4  10  19  30  47  72  98 123 156 198 238 277
#     4  10  20  32  46  67  97 129 161 192 232 287
#     4   9  16  28  46  66  90 123 162 197 230 274
#
# _framework density 17.784189999999999
#
# number of rings (size 3 to 8) (size 9 to 14) (size 15 to 20)
#    0.000    2.750    1.250    1.125    0.000    4.500 
#    0.000    2.500    0.000    0.750    0.000    1.750 
#    0.000    0.000    0.000    0.000    0.000    0.000 
#
# Total GULP energy -396708.688751 kJ/mol
# GULP energy per Si atom -12397.146523 kJ/mol
# Density = 1.774371 g / cm^3
# Si number density = 17.784190 Si / 1000 Ang^3
#
#
#
# Elastic Constant Matrix: (Units=GPa)
#
#
# Indices 1 2 3 4 5 6 
#
# 1 125.3967 20.3319 87.5105 0.0007 7.3175 -0.0022
# 2 20.3319 17.0449 26.0575 -0.0007 1.3777 -0.0076
# 3 87.5105 26.0575 138.7771 0.0004 1.2492 -0.0014
# 4 0.0007 -0.0007 0.0004 17.5206 0.0006 -2.2304
# 5 7.3175 1.3777 1.2492 0.0006 33.8046 0.0000
# 6 -0.0022 -0.0076 -0.0014 -2.2304 0.0000 20.2872
#
#
#
# Elastic Compliance Matrix: (Units=1/GPa)
#
#
# Indices 1 2 3 4 5 6 
#
# 1 0.014742 -0.004478 -0.008431 -0.000001 -0.002697 -0.000001
# 2 -0.004478 0.083913 -0.012914 0.000008 -0.001973 0.000031
# 3 -0.008431 -0.012914 0.014931 -0.000001 0.001800 -0.000005
# 4 -0.000001 0.000008 -0.000001 0.057886 -0.000001 0.006364
# 5 -0.002697 -0.001973 0.001800 -0.000001 0.030180 -0.000001
# 6 -0.000001 0.000031 -0.000005 0.006364 -0.000001 0.049992
#
#
# Mechanical properties :
#
#
# Convention : Reuss Voigt Hill
#
# Bulk Modulus (GPa) = 16.14493 61.00207 38.57350
# Shear Modulus (GPa) = 15.43518 24.14372 19.78945
#
# Velocity S-wave (km/s) = 2.94924 3.68855 3.33942
# Velocity P-wave (km/s) = 4.54921 7.24681 6.05027
#
# Compressibility (1/GPa) = 0.06193895
#
# Stress axis : x y z
#
# Youngs Moduli (GPa) = 67.83469 11.91713 66.97567
#
# Poissons Ratio (x) = 0.05336 0.56466
# Poissons Ratio (y) = 0.30376 0.86495
# Poissons Ratio (z) = 0.57190 0.15390
#
# Static dielectric constant tensor:
#      x y z
#    x 3.837190 0.000020 0.936100 
#    y 0.000020 2.727540 0.000040 
#    z 0.936100 0.000040 5.305670 
# 
# 
# High freq. dielectric constant tensor:
#      x y z
#    x 1.699010 0.000000 0.005730 
#    y 0.000000 1.620630 0.000000 
#    z 0.005730 0.000000 1.700660 
# 
# From -- ./inp_files/367775.got.cif
#   From: 2010.06.25/outbox.cif.g09.slc.cpg/sg12_184_cif.got.tgz:367775.got - 2010.06.28 00:19:55.
