data_PCOD8085666
_publ_section_title
;
Structure prediction by ZEFSAII (Michael W. Deem and Ramdas Pophale) SiO2 
 PCOD8085666
Probable space group: C 2/M
;
_chemical_formula_sum "Si O2"
_cell_formula_units_Z 56
_cell_length_a 19.174472
_cell_length_b 8.891335
_cell_length_c 28.487475
_cell_angle_alpha 90.000000
_cell_angle_beta 141.007830
_cell_angle_gamma 90.000000
_cell_volume 3055.926091
_symmetry_space_group_name_H-M "C 2/M"
_symmetry_group_IT_number 12
_symmetry_cell_setting 'monoclinic'
loop_
_space_group_symop_operation_xyz
x,y,z
-x,y,-z
-x,-y,-z
x,-y,z
1/2+x,1/2+y,z
1/2-x,1/2+y,-z
1/2-x,1/2-y,-z
1/2+x,1/2-y,z
loop_
_atom_site_type_symbol
_atom_site_label
_atom_site_fract_x
_atom_site_fract_y
_atom_site_fract_z
Si Si1 0.966415 0.177094 0.759107
Si Si2 0.596414 0.325435 0.085597
Si Si3 0.878459 0.325008 0.803255
Si Si4 0.156711 0.673597 0.804338
Si Si5 0.636186 0.328746 0.697336
Si Si6 0.897742 0.171440 0.555696
Si Si7 0.317322 0.826025 0.605417
O O1 0.948565 0.232310 0.802580
O O2 0.866064 0.233795 0.674110
O O3 0.086418 0.234079 0.805337
O O4 0.966764 0.000000 0.758215
O O5 0.586947 0.500000 0.095147
O O6 0.585141 0.225013 0.125937
O O7 0.712850 0.294406 0.120220
O O8 0.500000 0.275985 0.000000
O O9 0.904621 0.500000 0.810466
O O10 0.747375 0.289452 0.726711
O O11 0.127122 0.500000 0.795622
O O12 0.121274 0.720352 0.733696
O O13 0.645123 0.500000 0.720836
O O14 0.526525 0.308537 0.607384
O O15 0.815054 0.207359 0.469074
O O16 0.875602 0.281339 0.587432
O O17 0.876077 0.000000 0.561356
O O18 0.341187 0.000000 0.628165
#
# Coordination Sequence:
#
# PCOD8085666 Si02
#       7
#     8   8   8   8   8   8   8
#     4  12  23  36  52  74 108 146 183 223 271 316
#     4   9  19  38  62  87 114 140 167 205 258 319
#     4  10  21  36  56  81 109 140 178 220 264 315
#     4  10  19  32  55  83 107 137 177 216 256 310
#     4   9  17  32  53  77 104 137 176 221 268 316
#     4   9  17  30  49  75 105 137 176 222 272 319
#     4  10  19  30  48  75 105 139 179 224 270 315
#
# _framework density 18.325050000000001
#
# number of rings (size 3 to 8) (size 9 to 14) (size 15 to 20)
#    0.000    2.143    1.429    2.571    0.000    2.000 
#    0.000    1.429    0.000    4.286    0.000    0.000 
#    0.000    0.000    0.000    0.000    0.000    0.000 
#
# Total GULP energy -347149.944456 kJ/mol
# GULP energy per Si atom -12398.212302 kJ/mol
# Density = 1.828334 g / cm^3
# Si number density = 18.325050 Si / 1000 Ang^3
#
#
#
# Elastic Constant Matrix: (Units=GPa)
#
#
# Indices 1 2 3 4 5 6 
#
# 1 97.5767 55.6364 45.8191 0.0000 6.0579 0.0000
# 2 55.6364 113.8631 43.2738 0.0001 1.2711 -0.0002
# 3 45.8191 43.2738 121.5620 0.0000 16.0423 0.0000
# 4 0.0000 0.0001 0.0000 23.3040 0.0000 -2.7893
# 5 6.0579 1.2711 16.0423 0.0000 20.4256 0.0000
# 6 0.0000 -0.0002 0.0000 -2.7893 0.0000 28.2068
#
#
#
# Elastic Compliance Matrix: (Units=1/GPa)
#
#
# Indices 1 2 3 4 5 6 
#
# 1 0.015522 -0.006269 -0.003417 0.000000 -0.001530 0.000000
# 2 -0.006269 0.012801 -0.002604 0.000000 0.003108 0.000000
# 3 -0.003417 -0.002604 0.011476 0.000000 -0.007837 0.000000
# 4 0.000000 0.000000 0.000000 0.043425 0.000000 0.004294
# 5 -0.001530 0.003108 -0.007837 0.000000 0.055374 0.000000
# 6 0.000000 0.000000 0.000000 0.004294 0.000000 0.035877
#
#
# Mechanical properties :
#
#
# Convention : Reuss Voigt Hill
#
# Bulk Modulus (GPa) = 65.71060 69.16226 67.43643
# Shear Modulus (GPa) = 24.49453 26.93880 25.71666
#
# Velocity S-wave (km/s) = 3.66001 3.83829 3.75021
# Velocity P-wave (km/s) = 7.33465 7.58071 7.45869
#
# Compressibility (1/GPa) = 0.01521824
#
# Stress axis : x y z
#
# Youngs Moduli (GPa) = 64.42352 78.12160 87.14179
#
# Poissons Ratio (x) = 0.48973 0.29778
# Poissons Ratio (y) = 0.40386 0.22692
# Poissons Ratio (z) = 0.22015 0.20343
#
# Static dielectric constant tensor:
#      x y z
#    x 3.188470 0.000000 0.294020 
#    y 0.000000 3.446510 0.000000 
#    z 0.294020 0.000000 3.509090 
# 
# 
# High freq. dielectric constant tensor:
#      x y z
#    x 1.685140 0.000000 0.021950 
#    y 0.000000 1.719590 0.000000 
#    z 0.021950 0.000000 1.707710 
# 
# From -- ./inp_files/377724.got.cif
#   From: 2010.06.25/outbox.cif.g09.slc.cpg/sg12_189_cif.got.tgz:377724.got - 2010.06.28 00:19:55.
