data_PCOD8085912
_publ_section_title
;
Structure prediction by ZEFSAII (Michael W. Deem and Ramdas Pophale) SiO2 
 PCOD8085912
Probable space group: C 2/M
;
_chemical_formula_sum "Si O2"
_cell_formula_units_Z 64
_cell_length_a 30.330185
_cell_length_b 8.937402
_cell_length_c 32.405373
_cell_angle_alpha 90.000000
_cell_angle_beta 27.905934
_cell_angle_gamma 90.000000
_cell_volume 4111.204063
_symmetry_space_group_name_H-M "C 2/M"
_symmetry_group_IT_number 12
_symmetry_cell_setting 'monoclinic'
loop_
_space_group_symop_operation_xyz
x,y,z
-x,y,-z
-x,-y,-z
x,-y,z
1/2+x,1/2+y,z
1/2-x,1/2+y,-z
1/2-x,1/2-y,-z
1/2+x,1/2-y,z
loop_
_atom_site_type_symbol
_atom_site_label
_atom_site_fract_x
_atom_site_fract_y
_atom_site_fract_z
Si Si1 0.807666 0.325055 0.582974
Si Si2 0.009073 0.326007 0.621194
Si Si3 0.249460 0.822870 0.287881
Si Si4 0.624518 0.333470 0.931127
Si Si5 0.432395 0.669257 0.116592
Si Si6 0.686555 0.820800 0.255877
Si Si7 0.794353 0.331458 0.402759
Si Si8 0.394096 0.332092 0.388160
O O1 0.792420 0.500000 0.603766
O O2 0.908369 0.290728 0.479338
O O3 0.807596 0.235295 0.625578
O O4 0.723831 0.266628 0.622930
O O5 0.005511 0.500000 0.634853
O O6 0.024139 0.240739 0.651798
O O7 0.912029 0.269027 0.681621
O O8 0.358846 0.771844 0.202181
O O9 0.197965 0.754440 0.290845
O O10 0.245244 0.000000 0.288913
O O11 0.629671 0.500000 0.944718
O O12 0.598820 0.336965 0.904584
O O13 0.730075 0.263070 0.844659
O O14 0.539344 0.258035 0.028366
O O15 0.431019 0.500000 0.135953
O O16 0.692524 0.000000 0.256692
O O17 0.821271 0.500000 0.367477
O O18 0.702341 0.330753 0.506952
O O19 0.880903 0.260476 0.356774
O O20 0.424072 0.500000 0.351815
#
# Coordination Sequence:
#
# PCOD8085912 Si02
#       8
#     8   8   8   8   8   8   8   8
#     4  10  19  31  44  59  81 111 145 177 209 245
#     4   9  18  30  45  62  81 109 145 179 207 239
#     4  11  21  30  40  58  83 112 144 177 211 245
#     4   7  11  22  43  63  77  98 131 168 207 250
#     4   8  13  25  43  60  77 101 132 167 208 251
#     4   9  17  31  46  60  81 111 144 175 207 245
#     4   9  16  27  43  62  82 104 134 172 211 249
#     4   9  16  26  42  62  84 108 133 166 210 253
#
# _framework density 15.567216
#
# number of rings (size 3 to 8) (size 9 to 14) (size 15 to 20)
#    0.000    3.000    0.000    3.750    0.000    4.500 
#    0.000    7.500    0.000    0.000    0.000    0.000 
#    0.000    1.000    0.000    2.750    0.000    4.250 
#
# Total GULP energy -396472.991437 kJ/mol
# GULP energy per Si atom -12389.780982 kJ/mol
# Density = 1.553178 g / cm^3
# Si number density = 15.567216 Si / 1000 Ang^3
#
#
#
# Elastic Constant Matrix: (Units=GPa)
#
#
# Indices 1 2 3 4 5 6 
#
# 1 96.8816 41.0677 45.6894 -0.0235 -19.3657 0.1028
# 2 41.0677 74.5396 27.3049 0.0085 -10.4521 0.1331
# 3 45.6894 27.3049 59.1074 0.0128 -20.4630 0.0509
# 4 -0.0235 0.0085 0.0128 11.4259 -0.0383 2.9749
# 5 -19.3657 -10.4521 -20.4630 -0.0383 8.7216 0.0400
# 6 0.1028 0.1331 0.0509 2.9749 0.0400 23.7623
#
#
#
# Elastic Compliance Matrix: (Units=1/GPa)
#
#
# Indices 1 2 3 4 5 6 
#
# 1 0.020530 -0.005958 0.001030 0.000223 0.040863 -0.000154
# 2 -0.005958 0.018038 -0.004386 -0.000011 -0.001902 -0.000061
# 3 0.001030 -0.004386 0.091211 0.000775 0.211041 -0.000627
# 4 0.000223 -0.000011 0.000775 0.090481 0.002748 -0.011335
# 5 0.040863 -0.001902 0.211041 0.002748 0.698285 -0.002137
# 6 -0.000154 -0.000061 -0.000627 -0.011335 -0.002137 0.043508
#
#
# Mechanical properties :
#
#
# Convention : Reuss Voigt Hill
#
# Bulk Modulus (GPa) = 8.99676 50.96139 29.97907
# Shear Modulus (GPa) = 4.91288 16.54640 10.72964
#
# Velocity S-wave (km/s) = 1.77842 3.26375 2.62820
# Velocity P-wave (km/s) = 3.16368 6.85640 5.33943
#
# Compressibility (1/GPa) = 0.11115118
#
# Stress axis : x y z
#
# Youngs Moduli (GPa) = 48.70845 55.43755 10.96355
#
# Poissons Ratio (x) = 0.33031 -0.01129
# Poissons Ratio (y) = 0.29022 0.04808
# Poissons Ratio (z) = -0.05015 0.24314
#
# Static dielectric constant tensor:
#      x y z
#    x 2.888180 -0.000120 -0.238810 
#    y -0.000120 2.940710 0.000060 
#    z -0.238810 0.000060 3.147520 
# 
# 
# High freq. dielectric constant tensor:
#      x y z
#    x 1.572140 -0.000010 -0.012200 
#    y -0.000010 1.591170 0.000010 
#    z -0.012200 0.000010 1.572110 
# 
# From -- ./inp_files/384529.got.cif
#   From: 2010.06.25/outbox.cif.g09.slc.cpg/sg12_193_cif.got.tgz:384529.got - 2010.06.28 00:19:55.
