data_PCOD8085909
_publ_section_title
;
Structure prediction by ZEFSAII (Michael W. Deem and Ramdas Pophale) SiO2 
 PCOD8085909
Probable space group: C 2/M
;
_chemical_formula_sum "Si O2"
_cell_formula_units_Z 56
_cell_length_a 16.535684
_cell_length_b 28.469206
_cell_length_c 9.009889
_cell_angle_alpha 90.000000
_cell_angle_beta 140.051848
_cell_angle_gamma 90.000000
_cell_volume 2723.426541
_symmetry_space_group_name_H-M "C 2/M"
_symmetry_group_IT_number 12
_symmetry_cell_setting 'monoclinic'
loop_
_space_group_symop_operation_xyz
x,y,z
-x,y,-z
-x,-y,-z
x,-y,z
1/2+x,1/2+y,z
1/2-x,1/2+y,-z
1/2-x,1/2-y,-z
1/2+x,1/2-y,z
loop_
_atom_site_type_symbol
_atom_site_label
_atom_site_fract_x
_atom_site_fract_y
_atom_site_fract_z
Si Si1 0.459069 0.054128 0.273459
Si Si2 0.808664 0.167848 0.417933
Si Si3 0.056510 0.848589 0.934419
Si Si4 0.626511 0.249411 0.095227
Si Si5 0.755416 0.877033 0.030417
Si Si6 0.551495 0.197260 0.722730
Si Si7 0.913842 0.370615 0.734550
O O1 0.500000 0.061845 0.500000
O O2 0.560081 0.079790 0.309097
O O3 0.457904 0.000000 0.226319
O O4 0.317395 0.073916 0.046109
O O5 0.745156 0.219959 0.326065
O O6 0.814148 0.143274 0.264608
O O7 0.730586 0.133192 0.416952
O O8 0.947447 0.174120 0.678462
O O9 0.137752 0.883499 0.946130
O O10 0.141158 0.805844 0.123256
O O11 0.000000 0.875679 0.000000
O O12 0.500000 0.232465 0.000000
O O13 0.615794 0.238520 0.905483
O O14 0.654001 0.841335 0.821039
O O15 0.500000 0.220542 0.500000
O O16 0.442688 0.171806 0.663204
O O17 0.000000 0.365009 0.000000
#
# Coordination Sequence:
#
# PCOD8085909 Si02
#       7
#     8   8   8   8   8   8   8
#     4  10  22  39  67 101 125 145 183 248 306 362
#     4  11  21  39  61  79 124 164 199 255 290 349
#     4  11  27  36  57  87 112 167 211 250 292 354
#     4  10  20  39  53  81 117 156 209 255 299 330
#     4  10  21  40  56  84 121 156 197 236 303 360
#     4  10  19  30  59  83 111 156 197 246 298 344
#     4  11  17  36  61  90 118 159 190 238 302 358
#
# _framework density 20.562332000000001
#
# number of rings (size 3 to 8) (size 9 to 14) (size 15 to 20)
#    0.000    1.571    5.714    2.143    4.000    7.143 
#    0.000    0.000    0.000    3.000    0.000    0.000 
#    0.000    0.000    0.000    0.000    0.000    0.000 
#
# Total GULP energy -347084.384084 kJ/mol
# GULP energy per Si atom -12395.870860 kJ/mol
# Density = 2.051553 g / cm^3
# Si number density = 20.562332 Si / 1000 Ang^3
#
#
#
# Elastic Constant Matrix: (Units=GPa)
#
#
# Indices 1 2 3 4 5 6 
#
# 1 129.9061 30.2426 10.7605 0.0000 -10.3632 0.0000
# 2 30.2426 69.1505 2.3306 0.0000 -0.9061 0.0000
# 3 10.7605 2.3306 57.6447 0.0000 -4.8555 0.0000
# 4 0.0000 0.0000 0.0000 13.5392 0.0000 -2.1893
# 5 -10.3632 -0.9061 -4.8555 0.0000 30.6763 0.0000
# 6 0.0000 0.0000 0.0000 -2.1893 0.0000 21.2806
#
#
#
# Elastic Compliance Matrix: (Units=1/GPa)
#
#
# Indices 1 2 3 4 5 6 
#
# 1 0.008908 -0.003817 -0.001282 0.000000 0.002694 0.000000
# 2 -0.003817 0.016120 -0.000008 0.000000 -0.000815 0.000000
# 3 -0.001282 -0.000008 0.017788 0.000000 0.002382 0.000000
# 4 0.000000 0.000000 0.000000 0.075109 0.000000 0.007727
# 5 0.002694 -0.000815 0.002382 0.000000 0.033861 0.000000
# 6 0.000000 0.000000 0.000000 0.007727 0.000000 0.047786
#
#
# Mechanical properties :
#
#
# Convention : Reuss Voigt Hill
#
# Bulk Modulus (GPa) = 30.67246 38.15209 34.41228
# Shear Modulus (GPa) = 22.65999 27.32371 24.99185
#
# Velocity S-wave (km/s) = 3.32326 3.64926 3.49007
# Velocity P-wave (km/s) = 5.44744 6.02916 5.74567
#
# Compressibility (1/GPa) = 0.03260253
#
# Stress axis : x y z
#
# Youngs Moduli (GPa) = 112.26422 62.03387 56.21813
#
# Poissons Ratio (x) = 0.23680 0.07205
# Poissons Ratio (y) = 0.42853 0.00044
# Poissons Ratio (z) = 0.14387 0.00048
#
# Static dielectric constant tensor:
#      x y z
#    x 4.305510 0.000000 -0.149740 
#    y 0.000000 3.373510 0.000000 
#    z -0.149740 0.000000 3.665030 
# 
# 
# High freq. dielectric constant tensor:
#      x y z
#    x 1.819670 0.000000 -0.018580 
#    y 0.000000 1.747070 0.000000 
#    z -0.018580 0.000000 1.802740 
# 
# From -- ./inp_files/80479.got.cif
#   From: 2010.06.25/outbox.cif.g09.slc.cpg/sg12_41_cif.got.tgz:80479.got - 2010.06.28 00:19:55.
