data_PCOD8085366
_publ_section_title
;
Structure prediction by ZEFSAII (Michael W. Deem and Ramdas Pophale) SiO2 
 PCOD8085366
Probable space group: C 2/M
;
_chemical_formula_sum "Si O2"
_cell_formula_units_Z 48
_cell_length_a 19.276230
_cell_length_b 9.250689
_cell_length_c 18.159393
_cell_angle_alpha 90.000000
_cell_angle_beta 57.961142
_cell_angle_gamma 90.000000
_cell_volume 2744.945994
_symmetry_space_group_name_H-M "C 2/M"
_symmetry_group_IT_number 12
_symmetry_cell_setting 'monoclinic'
loop_
_space_group_symop_operation_xyz
x,y,z
-x,y,-z
-x,-y,-z
x,-y,z
1/2+x,1/2+y,z
1/2-x,1/2+y,-z
1/2-x,1/2-y,-z
1/2+x,1/2-y,z
loop_
_atom_site_type_symbol
_atom_site_label
_atom_site_fract_x
_atom_site_fract_y
_atom_site_fract_z
Si Si1 0.705860 0.661444 0.420649
Si Si2 0.448100 0.829323 0.229128
Si Si3 0.628492 0.840367 0.580676
Si Si4 0.873542 0.669173 0.922330
Si Si5 0.277492 0.667317 0.091278
Si Si6 0.295851 0.329736 0.250251
O O1 0.679968 0.500000 0.410878
O O2 0.631731 0.730934 0.509957
O O3 0.785595 0.655798 0.425855
O O4 0.723733 0.759091 0.339291
O O5 0.439246 0.791640 0.321149
O O6 0.537505 0.779191 0.153817
O O7 0.383501 0.740137 0.217655
O O8 0.432025 0.000000 0.225939
O O9 0.608084 0.000000 0.561362
O O10 0.872790 0.500000 0.937861
O O11 0.809049 0.713490 0.895462
O O12 0.851376 0.746269 0.011399
O O13 0.295732 0.500000 0.067702
O O14 0.273620 0.705257 0.178978
O O15 0.299458 0.500000 0.264929
#
# Coordination Sequence:
#
# PCOD8085366 Si02
#       6
#     8   8   8   8   8   8
#     4   9  16  26  42  65  92 121 154 188 223 268
#     4   9  18  31  48  71  95 120 153 192 230 269
#     4   8  14  25  41  63  91 119 148 185 228 270
#     4   9  18  34  53  69  89 120 157 193 228 271
#     4   9  19  34  50  69  92 121 156 190 228 275
#     4  10  19  30  46  69  97 124 151 188 231 273
#
# _framework density 17.486684
#
# number of rings (size 3 to 8) (size 9 to 14) (size 15 to 20)
#    0.000    3.000    0.000    2.000    0.000    6.667 
#    0.000    3.333    0.000    1.000    0.000    7.000 
#    0.000    0.000    0.000    0.000    0.000    0.000 
#
# Total GULP energy -297544.189992 kJ/mol
# GULP energy per Si atom -12397.674583 kJ/mol
# Density = 1.744688 g / cm^3
# Si number density = 17.486684 Si / 1000 Ang^3
#
#
#
# Elastic Constant Matrix: (Units=GPa)
#
#
# Indices 1 2 3 4 5 6 
#
# 1 33.0499 27.6180 31.8831 0.0000 11.1317 0.0001
# 2 27.6180 82.4974 57.6859 0.0001 10.5445 0.0001
# 3 31.8831 57.6859 114.4383 0.0000 19.1318 -0.0001
# 4 0.0000 0.0001 0.0000 35.8389 0.0000 0.6113
# 5 11.1317 10.5445 19.1318 0.0000 9.2362 0.0000
# 6 0.0001 0.0001 -0.0001 0.6113 0.0000 17.5036
#
#
#
# Elastic Compliance Matrix: (Units=1/GPa)
#
#
# Indices 1 2 3 4 5 6 
#
# 1 0.060784 -0.012184 -0.001333 0.000000 -0.056587 0.000000
# 2 -0.012184 0.021209 -0.008725 0.000000 0.008544 0.000000
# 3 -0.001333 -0.008725 0.017705 0.000000 -0.025107 0.000000
# 4 0.000000 0.000000 0.000000 0.027919 0.000000 -0.000975
# 5 -0.056587 0.008544 -0.025107 0.000000 0.218721 -0.000001
# 6 0.000000 0.000000 0.000000 -0.000975 -0.000001 0.057165
#
#
# Mechanical properties :
#
#
# Convention : Reuss Voigt Hill
#
# Bulk Modulus (GPa) = 18.11108 51.59553 34.85330
# Shear Modulus (GPa) = 10.72056 20.03564 15.37810
#
# Velocity S-wave (km/s) = 2.47871 3.38859 2.96872
# Velocity P-wave (km/s) = 4.30947 6.69923 5.63255
#
# Compressibility (1/GPa) = 0.05521483
#
# Stress axis : x y z
#
# Youngs Moduli (GPa) = 16.45164 47.14884 56.48103
#
# Poissons Ratio (x) = 0.57448 0.07527
# Poissons Ratio (y) = 0.20045 0.49279
# Poissons Ratio (z) = 0.02192 0.41137
#
# Static dielectric constant tensor:
#      x y z
#    x 2.896090 0.000000 -0.083240 
#    y 0.000000 3.370760 0.000000 
#    z -0.083240 0.000000 3.520850 
# 
# 
# High freq. dielectric constant tensor:
#      x y z
#    x 1.627030 0.000000 -0.002960 
#    y 0.000000 1.680010 0.000000 
#    z -0.002960 0.000000 1.690240 
# 
# From -- ./inp_files/280039.got.cif
#   From: 2010.06.25/outbox.cif.g09.slc.cpg/sg12_141_cif.got.tgz:280039.got - 2010.06.28 00:19:55.
