data_PCOD8085155
_publ_section_title
;
Structure prediction by ZEFSAII (Michael W. Deem and Ramdas Pophale) SiO2 
 PCOD8085155
Probable space group: C 2/M
;
_chemical_formula_sum "Si O2"
_cell_formula_units_Z 56
_cell_length_a 34.983465
_cell_length_b 9.760831
_cell_length_c 31.367670
_cell_angle_alpha 90.000000
_cell_angle_beta 159.568449
_cell_angle_gamma 90.000000
_cell_volume 3739.098912
_symmetry_space_group_name_H-M "C 2/M"
_symmetry_group_IT_number 12
_symmetry_cell_setting 'monoclinic'
loop_
_space_group_symop_operation_xyz
x,y,z
-x,y,-z
-x,-y,-z
x,-y,z
1/2+x,1/2+y,z
1/2-x,1/2+y,-z
1/2-x,1/2-y,-z
1/2+x,1/2-y,z
loop_
_atom_site_type_symbol
_atom_site_label
_atom_site_fract_x
_atom_site_fract_y
_atom_site_fract_z
Si Si1 0.636043 0.651329 0.337310
Si Si2 0.322440 0.339936 0.713526
Si Si3 0.333320 0.660920 0.330264
Si Si4 0.387636 0.839247 0.859371
Si Si5 0.893305 0.348503 0.622209
Si Si6 0.517195 0.662209 0.587087
Si Si7 0.928840 0.339989 0.564930
O O1 0.586726 0.500000 0.292136
O O2 0.621490 0.697704 0.273116
O O3 0.763543 0.649474 0.481350
O O4 0.570989 0.750314 0.301651
O O5 0.339237 0.500000 0.741731
O O6 0.382869 0.246512 0.811139
O O7 0.194223 0.303914 0.578171
O O8 0.344467 0.500000 0.343717
O O9 0.209793 0.709027 0.210687
O O10 0.414304 0.715257 0.451586
O O11 0.373125 0.705496 0.324555
O O12 0.377838 0.000000 0.838004
O O13 0.500000 0.804044 0.000000
O O14 0.935391 0.500000 0.677870
O O15 0.946025 0.300846 0.632546
O O16 0.513230 0.500000 0.592899
O O17 0.514230 0.747064 0.627881
O O18 0.953262 0.500000 0.582931
#
# Coordination Sequence:
#
# PCOD8085155 Si02
#       7
#     8   8   8   8   8   8   8
#     4   8  14  24  36  51  73 102 134 161 186 226
#     4   9  17  28  40  55  79 108 134 164 201 236
#     4   8  15  27  40  57  78 100 131 168 203 233
#     4  10  19  30  44  60  78 102 136 174 203 232
#     4   8  14  23  34  51  77 105 128 156 193 227
#     4   9  15  25  42  57  75 105 135 163 195 236
#     4   9  16  25  37  57  84 107 131 163 196 233
#
# _framework density 14.976870999999999
#
# number of rings (size 3 to 8) (size 9 to 14) (size 15 to 20)
#    0.000    3.286    1.429    2.571    0.000    1.429 
#    0.000    5.000    0.000    0.000    0.000    0.000 
#    0.000    1.143    0.000    2.571    0.000    4.000 
#
# Total GULP energy -346975.443241 kJ/mol
# GULP energy per Si atom -12391.980116 kJ/mol
# Density = 1.494278 g / cm^3
# Si number density = 14.976871 Si / 1000 Ang^3
#
#
#
# Elastic Constant Matrix: (Units=GPa)
#
#
# Indices 1 2 3 4 5 6 
#
# 1 150.0866 73.6981 38.4446 0.0004 -3.3160 0.0001
# 2 73.6981 66.6802 24.2930 0.0009 -7.5126 0.0004
# 3 38.4446 24.2930 48.1805 0.0015 2.3349 0.0007
# 4 0.0004 0.0009 0.0015 11.1074 0.0008 -3.9029
# 5 -3.3160 -7.5126 2.3349 0.0008 14.2493 0.0003
# 6 0.0001 0.0004 0.0007 -3.9029 0.0003 32.8987
#
#
#
# Elastic Compliance Matrix: (Units=1/GPa)
#
#
# Indices 1 2 3 4 5 6 
#
# 1 0.015562 -0.016209 -0.004038 0.000002 -0.004263 0.000000
# 2 -0.016209 0.037254 -0.006672 -0.000003 0.016962 -0.000001
# 3 -0.004038 -0.006672 0.027778 -0.000003 -0.009009 -0.000001
# 4 0.000002 -0.000003 -0.000003 0.093947 -0.000006 0.011145
# 5 -0.004263 0.016962 -0.009009 -0.000006 0.079606 -0.000001
# 6 0.000000 -0.000001 -0.000001 0.011145 -0.000001 0.031719
#
#
# Mechanical properties :
#
#
# Convention : Reuss Voigt Hill
#
# Bulk Modulus (GPa) = 37.37535 59.75763 48.56649
# Shear Modulus (GPa) = 14.34212 20.21850 17.28031
#
# Velocity S-wave (km/s) = 3.09790 3.67820 3.40045
# Velocity P-wave (km/s) = 6.14862 7.61744 6.92210
#
# Compressibility (1/GPa) = 0.02675560
#
# Stress axis : x y z
#
# Youngs Moduli (GPa) = 64.25731 26.84271 35.99955
#
# Poissons Ratio (x) = 0.43510 0.14537
# Poissons Ratio (y) = 1.04157 0.24019
# Poissons Ratio (z) = 0.25949 0.17909
#
# Static dielectric constant tensor:
#      x y z
#    x 3.151840 0.000000 0.096320 
#    y 0.000000 2.890180 0.000000 
#    z 0.096320 0.000000 2.471120 
# 
# 
# High freq. dielectric constant tensor:
#      x y z
#    x 1.585830 0.000000 0.000080 
#    y 0.000000 1.565560 0.000000 
#    z 0.000080 0.000000 1.506820 
# 
# From -- ./inp_files/349177.got.cif
#   From: 2010.06.25/outbox.cif.g09.slc.cpg/sg12_175_cif.got.tgz:349177.got - 2010.06.28 00:19:55.
