data_PCOD8085908
_publ_section_title
;
Structure prediction by ZEFSAII (Michael W. Deem and Ramdas Pophale) SiO2 
 PCOD8085908
Probable space group: C 2/M
;
_chemical_formula_sum "Si O2"
_cell_formula_units_Z 56
_cell_length_a 12.367482
_cell_length_b 27.613654
_cell_length_c 9.306299
_cell_angle_alpha 90.000000
_cell_angle_beta 112.661111
_cell_angle_gamma 90.000000
_cell_volume 2932.848724
_symmetry_space_group_name_H-M "C 2/M"
_symmetry_group_IT_number 12
_symmetry_cell_setting 'monoclinic'
loop_
_space_group_symop_operation_xyz
x,y,z
-x,y,-z
-x,-y,-z
x,-y,z
1/2+x,1/2+y,z
1/2-x,1/2+y,-z
1/2-x,1/2-y,-z
1/2+x,1/2-y,z
loop_
_atom_site_type_symbol
_atom_site_label
_atom_site_fract_x
_atom_site_fract_y
_atom_site_fract_z
Si Si1 0.826894 0.444549 0.052862
Si Si2 0.273626 0.802104 0.195607
Si Si3 0.827314 0.802406 0.172922
Si Si4 0.615658 0.552403 0.142367
Si Si5 0.115608 0.364553 0.141506
Si Si6 0.030588 0.384235 0.678730
Si Si7 0.053384 0.847979 0.186704
O O1 0.832875 0.500000 0.009300
O O2 0.704993 0.429894 0.064443
O O3 0.924289 0.433309 0.223423
O O4 0.847905 0.414110 0.919115
O O5 0.335889 0.750326 0.252519
O O6 0.372273 0.842727 0.255305
O O7 0.167697 0.813057 0.253341
O O8 0.212790 0.800350 0.010780
O O9 0.726642 0.829996 0.206934
O O10 0.954930 0.828572 0.247669
O O11 0.655965 0.500000 0.233666
O O12 0.596416 0.596614 0.245984
O O13 0.500000 0.540308 0.000000
O O14 0.086532 0.370472 0.294674
O O15 0.000000 0.342684 0.000000
O O16 0.000000 0.394976 0.500000
O O17 0.000000 0.849774 0.000000
#
# Coordination Sequence:
#
# PCOD8085908 Si02
#       7
#     8   8   8   8   8   8   8
#     4  10  19  35  57  85 111 140 185 233 278 327
#     4  10  19  32  51  80 108 141 180 229 278 318
#     4  10  19  30  56  83 105 135 183 233 281 323
#     4   9  15  25  48  80 113 138 167 223 289 330
#     4  10  19  34  55  80 111 140 181 231 275 321
#     4  11  23  38  53  75 114 154 184 221 274 334
#     4   9  16  28  47  77 110 132 172 232 274 327
#
# _framework density 19.094063999999999
#
# number of rings (size 3 to 8) (size 9 to 14) (size 15 to 20)
#    0.000    2.143    4.286    1.714    2.000    3.429 
#    0.000    0.714    0.000    0.000    0.000    0.000 
#    0.000    6.857    0.000    0.000    0.000    0.000 
#
# Total GULP energy -346880.593361 kJ/mol
# GULP energy per Si atom -12388.592620 kJ/mol
# Density = 1.905060 g / cm^3
# Si number density = 19.094064 Si / 1000 Ang^3
#
#
#
# Elastic Constant Matrix: (Units=GPa)
#
#
# Indices 1 2 3 4 5 6 
#
# 1 152.0589 47.6429 5.7759 0.0000 -11.6531 0.0000
# 2 47.6429 90.9695 9.6215 0.0000 0.0615 0.0000
# 3 5.7759 9.6215 27.5927 0.0000 -13.4335 0.0000
# 4 0.0000 0.0000 0.0000 -63.8018 0.0000 -87.9560
# 5 -11.6531 0.0615 -13.4335 0.0000 14.4834 0.0000
# 6 0.0000 0.0000 0.0000 -87.9560 0.0000 -71.0018
#
#
#
# Elastic Compliance Matrix: (Units=1/GPa)
#
#
# Indices 1 2 3 4 5 6 
#
# 1 0.009055 -0.005438 0.006489 0.000000 0.013327 0.000000
# 2 -0.005438 0.015061 -0.011441 0.000000 -0.015050 0.000000
# 3 0.006489 -0.011441 0.075556 0.000000 0.075348 0.000000
# 4 0.000000 0.000000 0.000000 0.022145 0.000000 -0.027433
# 5 0.013327 -0.015050 0.075348 0.000000 0.149718 0.000000
# 6 0.000000 0.000000 0.000000 -0.027433 0.000000 0.019899
#
#
# Mechanical properties :
#
#
# Convention : Reuss Voigt Hill
#
# Bulk Modulus (GPa) = 12.67541 44.07798 28.37669
# Shear Modulus (GPa) = 14.77062 -10.22532 2.27265
#
# Velocity S-wave (km/s) = 2.78433 -2.31665 1.09216
# Velocity P-wave (km/s) = 4.12183 3.99737 4.06008
#
# Compressibility (1/GPa) = 0.07889291
#
# Stress axis : x y z
#
# Youngs Moduli (GPa) = 110.43661 66.39777 13.23523
#
# Poissons Ratio (x) = 0.36105 -0.08588
# Poissons Ratio (y) = 0.60051 0.15142
# Poissons Ratio (z) = -0.71662 0.75964
#
# Static dielectric constant tensor:
#      x y z
#    x 3.864150 0.000000 0.033900 
#    y 0.000000 3.857210 0.000000 
#    z 0.033900 0.000000 2.848390 
# 
# 
# High freq. dielectric constant tensor:
#      x y z
#    x 1.770370 0.000000 0.001070 
#    y 0.000000 1.753620 0.000000 
#    z 0.001070 0.000000 1.656380 
# 
# From -- ./inp_files/54333.got.cif
#   From: 2010.06.25/outbox.cif.g09.slc.cpg/sg12_28_cif.got.tgz:54333.got - 2010.06.28 00:19:55.
