data_PCOD8085291
_publ_section_title
;
Structure prediction by ZEFSAII (Michael W. Deem and Ramdas Pophale) SiO2 
 PCOD8085291
Probable space group: C 2/M
;
_chemical_formula_sum "Si O2"
_cell_formula_units_Z 56
_cell_length_a 22.963564
_cell_length_b 21.992454
_cell_length_c 18.686706
_cell_angle_alpha 90.000000
_cell_angle_beta 19.520727
_cell_angle_gamma 90.000000
_cell_volume 3153.438738
_symmetry_space_group_name_H-M "C 2/M"
_symmetry_group_IT_number 12
_symmetry_cell_setting 'monoclinic'
loop_
_space_group_symop_operation_xyz
x,y,z
-x,y,-z
-x,-y,-z
x,-y,z
1/2+x,1/2+y,z
1/2-x,1/2+y,-z
1/2-x,1/2-y,-z
1/2+x,1/2-y,z
loop_
_atom_site_type_symbol
_atom_site_label
_atom_site_fract_x
_atom_site_fract_y
_atom_site_fract_z
Si Si1 0.512949 0.152064 0.299392
Si Si2 0.131445 0.828919 0.907625
Si Si3 0.191488 0.794698 0.302060
Si Si4 0.111757 0.811156 0.086735
Si Si5 0.676927 0.280512 0.477700
Si Si6 0.459326 0.186266 0.880082
Si Si7 0.630176 0.930078 0.415074
O O1 0.393657 0.211784 0.451660
O O2 0.509313 0.135329 0.217835
O O3 0.441033 0.095547 0.427524
O O4 0.710901 0.157963 0.095146
O O5 0.282385 0.777807 0.740429
O O6 0.195965 0.893961 0.806109
O O7 0.048429 0.837338 0.082659
O O8 0.000000 0.802553 0.000000
O O9 0.209687 0.812419 0.363702
O O10 0.000000 0.813899 0.500000
O O11 0.337436 0.833308 0.088015
O O12 0.146106 0.738633 0.041259
O O13 0.958955 0.822631 0.321410
O O14 0.861447 0.281335 0.304272
O O15 0.500000 0.920558 0.500000
O O16 0.678068 0.000000 0.371269
#
# Coordination Sequence:
#
# PCOD8085291 Si02
#       7
#     8   8   8   8   8   8   8
#     4  11  19  33  50  69  99 134 173 210 258 298
#     4  11  21  32  51  70  98 135 173 213 265 293
#     4  11  19  31  48  73 105 138 167 196 246 318
#     4  10  19  30  45  72  94 135 168 202 247 316
#     4  11  19  30  48  74 106 131 165 204 251 315
#     4  10  21  29  47  76 100 132 167 203 253 316
#     4  11  23  38  54  72  97 138 188 224 252 289
#
# _framework density 17.758392000000001
#
# number of rings (size 3 to 8) (size 9 to 14) (size 15 to 20)
#    0.000    1.286    2.857    8.571    2.000    0.286 
#    0.000    0.000    0.000    0.000    0.000    0.000 
#    0.000    8.571    0.000    0.000    0.000    0.286 
#
# Total GULP energy -347027.755174 kJ/mol
# GULP energy per Si atom -12393.848399 kJ/mol
# Density = 1.771797 g / cm^3
# Si number density = 17.758392 Si / 1000 Ang^3
#
#
#
# Elastic Constant Matrix: (Units=GPa)
#
#
# Indices 1 2 3 4 5 6 
#
# 1 125.9733 27.3936 41.7897 0.0092 33.1133 -0.0074
# 2 27.3936 47.1489 19.0127 -0.0269 11.1857 0.0095
# 3 41.7897 19.0127 90.2438 0.0211 23.1755 -0.0128
# 4 0.0092 -0.0269 0.0211 12.4684 -0.0115 6.8854
# 5 33.1133 11.1857 23.1755 -0.0115 45.3036 0.0080
# 6 -0.0074 0.0095 -0.0128 6.8854 0.0080 14.2832
#
#
#
# Elastic Compliance Matrix: (Units=1/GPa)
#
#
# Indices 1 2 3 4 5 6 
#
# 1 0.011293 -0.004022 -0.002898 -0.000031 -0.005779 0.000024
# 2 -0.004022 0.025166 -0.002992 0.000098 -0.001744 -0.000068
# 3 -0.002898 -0.002992 0.014183 -0.000056 -0.004398 0.000043
# 4 -0.000031 0.000098 -0.000056 0.109300 0.000064 -0.052690
# 5 -0.005779 -0.001744 -0.004398 0.000064 0.028978 -0.000053
# 6 0.000024 -0.000068 0.000043 -0.052690 -0.000053 0.095413
#
#
# Mechanical properties :
#
#
# Convention : Reuss Voigt Hill
#
# Bulk Modulus (GPa) = 32.44779 48.86199 40.65489
# Shear Modulus (GPa) = 15.90181 26.08904 20.99542
#
# Velocity S-wave (km/s) = 2.99566 3.83706 3.44216
# Velocity P-wave (km/s) = 5.50243 6.87061 6.22423
#
# Compressibility (1/GPa) = 0.03081874
#
# Stress axis : x y z
#
# Youngs Moduli (GPa) = 88.54891 39.73582 70.50631
#
# Poissons Ratio (x) = 0.15981 0.20434
# Poissons Ratio (y) = 0.35612 0.21095
# Poissons Ratio (z) = 0.25663 0.11889
#
# Static dielectric constant tensor:
#      x y z
#    x 3.818090 0.000060 0.321930 
#    y 0.000060 2.631840 0.000040 
#    z 0.321930 0.000040 3.522320 
# 
# 
# High freq. dielectric constant tensor:
#      x y z
#    x 1.717060 0.000000 0.009780 
#    y 0.000000 1.588740 0.000010 
#    z 0.009780 0.000010 1.704150 
# 
# From -- ./inp_files/286319.got.cif
#   From: 2010.06.25/outbox.cif.g09.slc.cpg/sg12_144_cif.got.tgz:286319.got - 2010.06.28 00:19:55.
