data_PCOD8085454
_publ_section_title
;
Structure prediction by ZEFSAII (Michael W. Deem and Ramdas Pophale) SiO2 
 PCOD8085454
Probable space group: C 2/M
;
_chemical_formula_sum "Si O2"
_cell_formula_units_Z 64
_cell_length_a 22.551154
_cell_length_b 9.366987
_cell_length_c 17.631850
_cell_angle_alpha 90.000000
_cell_angle_beta 78.495089
_cell_angle_gamma 90.000000
_cell_volume 3649.654072
_symmetry_space_group_name_H-M "C 2/M"
_symmetry_group_IT_number 12
_symmetry_cell_setting 'monoclinic'
loop_
_space_group_symop_operation_xyz
x,y,z
-x,y,-z
-x,-y,-z
x,-y,z
1/2+x,1/2+y,z
1/2-x,1/2+y,-z
1/2-x,1/2-y,-z
1/2+x,1/2-y,z
loop_
_atom_site_type_symbol
_atom_site_label
_atom_site_fract_x
_atom_site_fract_y
_atom_site_fract_z
Si Si1 0.464902 0.660952 0.700187
Si Si2 0.473150 0.164585 0.927411
Si Si3 0.181247 0.833198 0.733982
Si Si4 0.558470 0.833775 0.763767
Si Si5 0.764395 0.333042 0.571955
Si Si6 0.625014 0.841058 0.359309
Si Si7 0.879347 0.840079 0.867486
Si Si8 0.709584 0.842290 0.192035
O O1 0.484030 0.500000 0.673332
O O2 0.524301 0.753009 0.704155
O O3 0.430942 0.732535 0.636965
O O4 0.420692 0.660072 0.782831
O O5 0.523612 0.189704 0.851076
O O6 0.412948 0.254808 0.925634
O O7 0.453473 0.000000 0.936538
O O8 0.500000 0.218457 0.000000
O O9 0.123989 0.732816 0.757435
O O10 0.214412 0.793932 0.647280
O O11 0.224695 0.795968 0.793992
O O12 0.162985 0.000000 0.740013
O O13 0.563330 0.000000 0.741264
O O14 0.763280 0.500000 0.554994
O O15 0.750000 0.250000 0.500000
O O16 0.831324 0.287947 0.584011
O O17 0.663896 0.848179 0.273475
O O18 0.599712 0.000000 0.383036
O O19 0.814813 0.767087 0.865120
O O20 0.866575 0.000000 0.899178
O O21 0.713084 0.000000 0.154424
#
# Coordination Sequence:
#
# PCOD8085454 Si02
#       8
#     8   8   8   8   8   8   8   8
#     4   9  16  26  42  65  91 118 148 185 228 270
#     4   9  18  32  48  66  91 123 155 186 225 275
#     4   9  18  32  48  68  95 125 154 186 227 272
#     4  10  19  30  47  70  93 120 153 189 229 271
#     4   9  18  31  48  70  96 125 154 186 226 271
#     4   8  14  26  43  64  89 116 149 187 223 262
#     4   9  16  25  41  67  93 114 144 189 231 264
#     4   8  14  26  44  63  86 118 151 182 221 268
#
# _framework density 17.535909
#
# number of rings (size 3 to 8) (size 9 to 14) (size 15 to 20)
#    0.000    3.125    0.000    2.625    0.000    5.250 
#    0.000    2.500    0.000    1.500    0.000    5.250 
#    0.000    0.000    0.000    0.000    0.000    0.000 
#
# Total GULP energy -396690.027211 kJ/mol
# GULP energy per Si atom -12396.563350 kJ/mol
# Density = 1.749600 g / cm^3
# Si number density = 17.535909 Si / 1000 Ang^3
#
#
#
# Elastic Constant Matrix: (Units=GPa)
#
#
# Indices 1 2 3 4 5 6 
#
# 1 138.6861 89.9589 40.0925 0.0000 34.8303 0.0000
# 2 89.9589 128.6245 41.1010 0.0000 27.2370 0.0000
# 3 40.0925 41.1010 49.7694 0.0000 28.7886 0.0000
# 4 0.0000 0.0000 0.0000 20.1167 0.0000 6.7732
# 5 34.8303 27.2370 28.7886 0.0000 29.8018 0.0000
# 6 0.0000 0.0000 0.0000 6.7732 0.0000 36.7310
#
#
#
# Elastic Compliance Matrix: (Units=1/GPa)
#
#
# Indices 1 2 3 4 5 6 
#
# 1 0.015329 -0.008792 0.001422 0.000000 -0.011253 0.000000
# 2 -0.008792 0.015707 -0.007998 0.000000 0.003646 0.000000
# 3 0.001422 -0.007998 0.050508 0.000000 -0.043143 0.000000
# 4 0.000000 0.000000 0.000000 0.053001 0.000000 -0.009773
# 5 -0.011253 0.003646 -0.043143 0.000000 0.085050 0.000000
# 6 0.000000 0.000000 0.000000 -0.009773 0.000000 0.029027
#
#
# Mechanical properties :
#
#
# Convention : Reuss Voigt Hill
#
# Bulk Modulus (GPa) = 19.68234 73.26498 46.47366
# Shear Modulus (GPa) = 16.87510 27.05840 21.96675
#
# Velocity S-wave (km/s) = 3.10549 3.93240 3.54315
# Velocity P-wave (km/s) = 4.90990 7.90500 6.58013
#
# Compressibility (1/GPa) = 0.05080697
#
# Stress axis : x y z
#
# Youngs Moduli (GPa) = 65.23699 63.66445 19.79891
#
# Poissons Ratio (x) = 0.55975 -0.02815
# Poissons Ratio (y) = 0.57358 0.15835
# Poissons Ratio (z) = -0.09275 0.50919
#
# Static dielectric constant tensor:
#      x y z
#    x 3.347230 0.000000 0.335940 
#    y 0.000000 3.434930 0.000000 
#    z 0.335940 0.000000 2.889690 
# 
# 
# High freq. dielectric constant tensor:
#      x y z
#    x 1.679150 0.000000 0.031470 
#    y 0.000000 1.683290 0.000000 
#    z 0.031470 0.000000 1.629030 
# 
# From -- ./inp_files/287532.got.cif
#   From: 2010.06.25/outbox.cif.g09.slc.cpg/sg12_144_cif.got.tgz:287532.got - 2010.06.28 00:19:55.
