data_PCOD8085076
_publ_section_title
;
Structure prediction by ZEFSAII (Michael W. Deem and Ramdas Pophale) SiO2 
 PCOD8085076
Probable space group: C 2/M
;
_chemical_formula_sum "Si O2"
_cell_formula_units_Z 64
_cell_length_a 17.373967
_cell_length_b 13.284124
_cell_length_c 15.513789
_cell_angle_alpha 90.000000
_cell_angle_beta 71.359230
_cell_angle_gamma 90.000000
_cell_volume 3392.719069
_symmetry_space_group_name_H-M "C 2/M"
_symmetry_group_IT_number 12
_symmetry_cell_setting 'monoclinic'
loop_
_space_group_symop_operation_xyz
x,y,z
-x,y,-z
-x,-y,-z
x,-y,z
1/2+x,1/2+y,z
1/2-x,1/2+y,-z
1/2-x,1/2-y,-z
1/2+x,1/2-y,z
loop_
_atom_site_type_symbol
_atom_site_label
_atom_site_fract_x
_atom_site_fract_y
_atom_site_fract_z
Si Si1 0.091999 0.389592 0.993715
Si Si2 0.855663 0.384719 0.210396
Si Si3 0.797070 0.114564 0.233089
Si Si4 0.398351 0.710624 0.880577
Si Si5 0.910111 0.114355 0.040788
Si Si6 0.436096 0.704808 0.272360
Si Si7 0.526916 0.382754 0.392686
Si Si8 0.311797 0.703524 0.733577
O O1 0.126469 0.500000 0.006424
O O2 0.134010 0.346933 0.891995
O O3 0.106100 0.319387 0.071567
O O4 0.000000 0.399434 0.000000
O O5 0.884053 0.500000 0.212100
O O6 0.906152 0.318524 0.261918
O O7 0.760000 0.374046 0.262373
O O8 0.848338 0.159654 0.133312
O O9 0.861626 0.126611 0.287339
O O10 0.717536 0.182518 0.277499
O O11 0.767941 0.000000 0.232772
O O12 0.488805 0.681130 0.817690
O O13 0.336089 0.703370 0.824956
O O14 0.369927 0.627806 0.961131
O O15 0.923909 0.000000 0.062653
O O16 0.000000 0.168743 0.000000
O O17 0.464899 0.686137 0.359717
O O18 0.500000 0.375812 0.500000
O O19 0.528811 0.500000 0.360744
O O20 0.614854 0.331208 0.353190
#
# Coordination Sequence:
#
# PCOD8085076 Si02
#       8
#     8   8   8   8   8   8   8   8
#     4  10  19  30  48  74 108 154 202 233 259 306
#     4  10  20  35  53  79 117 155 190 228 268 316
#     4  10  20  35  52  78 115 150 184 225 269 313
#     4  11  19  31  49  73 108 144 190 238 269 304
#     4  10  19  29  47  75 107 146 191 231 263 301
#     4  10  19  33  59  84 103 141 188 227 272 325
#     4  10  22  42  66  88 108 131 168 224 284 345
#     4  10  23  36  54  81 110 145 178 225 286 340
#
# _framework density 18.863924999999998
#
# number of rings (size 3 to 8) (size 9 to 14) (size 15 to 20)
#    0.000    1.875    2.500    2.625    0.000    5.000 
#    0.000    6.875    0.000    3.000    0.000    0.000 
#    0.000    0.000    0.000    0.000    0.000    0.000 
#
# Total GULP energy -396525.229975 kJ/mol
# GULP energy per Si atom -12391.413437 kJ/mol
# Density = 1.882099 g / cm^3
# Si number density = 18.863925 Si / 1000 Ang^3
#
#
#
# Elastic Constant Matrix: (Units=GPa)
#
#
# Indices 1 2 3 4 5 6 
#
# 1 93.7104 22.2251 35.7316 0.0000 -3.4855 0.0000
# 2 22.2251 92.0127 28.7571 0.0000 -3.6935 0.0000
# 3 35.7316 28.7571 85.4713 0.0000 -0.9240 0.0000
# 4 0.0000 0.0000 0.0000 23.4558 0.0000 -1.3818
# 5 -3.4855 -3.6935 -0.9240 0.0000 17.8924 0.0000
# 6 0.0000 0.0000 0.0000 -1.3818 0.0000 19.4397
#
#
#
# Elastic Compliance Matrix: (Units=1/GPa)
#
#
# Indices 1 2 3 4 5 6 
#
# 1 0.012970 -0.001527 -0.004887 0.000000 0.001959 0.000000
# 2 -0.001527 0.012420 -0.003518 0.000000 0.002085 0.000000
# 3 -0.004887 -0.003518 0.014917 0.000000 -0.000908 0.000000
# 4 0.000000 0.000000 0.000000 0.042813 0.000000 0.003043
# 5 0.001959 0.002085 -0.000908 0.000000 0.056655 0.000000
# 6 0.000000 0.000000 0.000000 0.003043 0.000000 0.051657
#
#
# Mechanical properties :
#
#
# Convention : Reuss Voigt Hill
#
# Bulk Modulus (GPa) = 48.91721 49.40245 49.15983
# Shear Modulus (GPa) = 22.92432 24.45629 23.69031
#
# Velocity S-wave (km/s) = 3.48982 3.60454 3.54765
# Velocity P-wave (km/s) = 6.49818 6.60071 6.54965
#
# Compressibility (1/GPa) = 0.02044270
#
# Stress axis : x y z
#
# Youngs Moduli (GPa) = 77.10348 80.51532 67.03875
#
# Poissons Ratio (x) = 0.12292 0.32763
# Poissons Ratio (y) = 0.11771 0.23584
# Poissons Ratio (z) = 0.37682 0.28325
#
# Static dielectric constant tensor:
#      x y z
#    x 3.091340 0.000000 0.442470 
#    y 0.000000 3.634400 0.000000 
#    z 0.442470 0.000000 2.639050 
# 
# 
# High freq. dielectric constant tensor:
#      x y z
#    x 1.729190 0.000000 -0.000340 
#    y 0.000000 1.740670 0.000000 
#    z -0.000340 0.000000 1.696550 
# 
# From -- ./inp_files/224736.got.cif
#   From: 2010.06.25/outbox.cif.g09.slc.cpg/sg12_113_cif.got.tgz:224736.got - 2010.06.28 00:19:55.
