data_PCOD8085584
_publ_section_title
;
Structure prediction by ZEFSAII (Michael W. Deem and Ramdas Pophale) SiO2 
 PCOD8085584
Probable space group: C 2/M
;
_chemical_formula_sum "Si O2"
_cell_formula_units_Z 48
_cell_length_a 18.943529
_cell_length_b 24.755551
_cell_length_c 15.023958
_cell_angle_alpha 90.000000
_cell_angle_beta 157.443184
_cell_angle_gamma 90.000000
_cell_volume 2702.686983
_symmetry_space_group_name_H-M "C 2/M"
_symmetry_group_IT_number 12
_symmetry_cell_setting 'monoclinic'
loop_
_space_group_symop_operation_xyz
x,y,z
-x,y,-z
-x,-y,-z
x,-y,z
1/2+x,1/2+y,z
1/2-x,1/2+y,-z
1/2-x,1/2-y,-z
1/2+x,1/2-y,z
loop_
_atom_site_type_symbol
_atom_site_label
_atom_site_fract_x
_atom_site_fract_y
_atom_site_fract_z
Si Si1 0.495622 0.061861 0.889252
Si Si2 0.244045 0.351101 0.466825
Si Si3 0.512315 0.794341 0.339925
Si Si4 0.179992 0.137803 0.755987
Si Si5 0.201008 0.723834 0.247884
Si Si6 0.880155 0.814969 0.121731
O O1 0.313251 0.090452 0.638056
O O2 0.492462 0.000000 0.855118
O O3 0.500000 0.068124 0.000000
O O4 0.675906 0.090073 0.057989
O O5 0.125008 0.338570 0.415521
O O6 0.207765 0.305626 0.350606
O O7 0.462960 0.350422 0.746016
O O8 0.642757 0.770613 0.569922
O O9 0.441533 0.747731 0.189890
O O10 0.323679 0.821595 0.159565
O O11 0.269887 0.182939 0.798553
O O12 0.120079 0.166070 0.776488
O O13 0.000000 0.112378 0.500000
O O14 0.000000 0.750451 0.000000
#
# Coordination Sequence:
#
# PCOD8085584 Si02
#       6
#     8   8   8   8   8   8
#     4  11  21  34  50  68  95 136 180 217 245 276
#     4  11  18  34  49  66  97 131 167 207 245 287
#     4  10  20  30  46  71  96 126 168 198 243 304
#     4  12  18  31  47  67 101 133 170 207 241 284
#     4  11  18  29  47  68  94 135 162 194 245 292
#     4  10  19  30  48  69  94 131 165 200 247 295
#
# _framework density 17.760103000000001
#
# number of rings (size 3 to 8) (size 9 to 14) (size 15 to 20)
#    0.000    1.167    8.333    2.000    0.000    1.667 
#    0.000    0.833    0.000    0.000    0.000    0.000 
#    0.000    0.667    0.000    4.500    0.000    0.000 
#
# Total GULP energy -297494.183649 kJ/mol
# GULP energy per Si atom -12395.590985 kJ/mol
# Density = 1.771968 g / cm^3
# Si number density = 17.760103 Si / 1000 Ang^3
#
#
#
# Elastic Constant Matrix: (Units=GPa)
#
#
# Indices 1 2 3 4 5 6 
#
# 1 25.4163 20.6868 17.7113 0.0000 14.9723 0.0000
# 2 20.6868 82.4442 51.7136 0.0000 5.2189 0.0000
# 3 17.7113 51.7136 171.0194 0.0000 27.6065 0.0000
# 4 0.0000 0.0000 0.0000 20.1566 0.0000 -2.7155
# 5 14.9723 5.2189 27.6065 0.0000 23.7087 0.0000
# 6 0.0000 0.0000 0.0000 -2.7155 0.0000 11.6784
#
#
#
# Elastic Compliance Matrix: (Units=1/GPa)
#
#
# Indices 1 2 3 4 5 6 
#
# 1 0.087364 -0.022797 0.007317 0.000000 -0.058673 0.000000
# 2 -0.022797 0.021032 -0.006866 0.000000 0.017761 0.000000
# 3 0.007317 -0.006866 0.009442 0.000000 -0.014104 0.000000
# 4 0.000000 0.000000 0.000000 0.051216 0.000000 0.011909
# 5 -0.058673 0.017761 -0.014104 0.000000 0.091744 0.000000
# 6 0.000000 0.000000 0.000000 0.011909 0.000000 0.088397
#
#
# Mechanical properties :
#
#
# Convention : Reuss Voigt Hill
#
# Bulk Modulus (GPa) = 13.67118 51.01148 32.34133
# Shear Modulus (GPa) = 11.95404 23.69330 17.82367
#
# Velocity S-wave (km/s) = 2.59720 3.65646 3.17137
# Velocity P-wave (km/s) = 4.08758 6.82724 5.62670
#
# Compressibility (1/GPa) = 0.07314655
#
# Stress axis : x y z
#
# Youngs Moduli (GPa) = 11.44641 47.54686 105.90504
#
# Poissons Ratio (x) = 1.08391 -0.77489
# Poissons Ratio (y) = 0.26094 0.72714
# Poissons Ratio (z) = -0.08375 0.32645
#
# Static dielectric constant tensor:
#      x y z
#    x 3.063950 0.000000 0.341020 
#    y 0.000000 3.004920 0.000000 
#    z 0.341020 0.000000 4.028930 
# 
# 
# High freq. dielectric constant tensor:
#      x y z
#    x 1.655780 0.000000 0.030010 
#    y 0.000000 1.629460 0.000000 
#    z 0.030010 0.000000 1.710490 
# 
# From -- ./inp_files/106805.got.cif
#   From: 2010.06.25/outbox.cif.g09.slc.cpg/sg12_54_cif.got.tgz:106805.got - 2010.06.28 00:19:55.
