data_PCOD8085524
_publ_section_title
;
Structure prediction by ZEFSAII (Michael W. Deem and Ramdas Pophale) SiO2 
 PCOD8085524
Probable space group: C 2/M
;
_chemical_formula_sum "Si O2"
_cell_formula_units_Z 48
_cell_length_a 27.825468
_cell_length_b 9.058361
_cell_length_c 11.321888
_cell_angle_alpha 90.000000
_cell_angle_beta 76.979169
_cell_angle_gamma 90.000000
_cell_volume 2780.343188
_symmetry_space_group_name_H-M "C 2/M"
_symmetry_group_IT_number 12
_symmetry_cell_setting 'monoclinic'
loop_
_space_group_symop_operation_xyz
x,y,z
-x,y,-z
-x,-y,-z
x,-y,z
1/2+x,1/2+y,z
1/2-x,1/2+y,-z
1/2-x,1/2-y,-z
1/2+x,1/2-y,z
loop_
_atom_site_type_symbol
_atom_site_label
_atom_site_fract_x
_atom_site_fract_y
_atom_site_fract_z
Si Si1 0.393397 0.326143 0.978743
Si Si2 0.177394 0.171843 0.605952
Si Si3 0.013725 0.337410 0.128764
Si Si4 0.593601 0.174876 0.779714
Si Si5 0.793668 0.171884 0.908070
Si Si6 0.232260 0.829428 0.339174
O O1 0.396060 0.500000 0.998362
O O2 0.390000 0.246086 0.105895
O O3 0.441609 0.276670 0.877014
O O4 0.346092 0.276819 0.929817
O O5 0.126818 0.258884 0.657059
O O6 0.192320 0.203966 0.462767
O O7 0.219511 0.229705 0.671030
O O8 0.169253 0.000000 0.635796
O O9 0.030198 0.500000 0.164161
O O10 0.963333 0.286066 0.221945
O O11 0.000000 0.346725 0.000000
O O12 0.600904 0.000000 0.786310
O O13 0.792712 0.213256 0.770496
O O14 0.785947 0.000000 0.932092
O O15 0.750000 0.250000 0.000000
O O16 0.248966 0.000000 0.334419
#
# Coordination Sequence:
#
# PCOD8085524 Si02
#       6
#     8   8   8   8   8   8
#     4  10  19  30  47  72  98 122 155 196 231 271
#     4  10  19  31  50  73  93 118 158 200 232 270
#     4   8  16  30  46  66  93 125 156 187 232 283
#     4  10  19  31  48  70  97 126 155 189 234 283
#     4  10  21  34  48  69  96 126 156 186 226 277
#     4   9  19  35  50  66  95 129 155 187 235 281
#
# _framework density 17.264056
#
# number of rings (size 3 to 8) (size 9 to 14) (size 15 to 20)
#    0.000    2.500    0.000    3.500    0.000    9.000 
#    0.000    0.000    0.000    1.000    0.000    7.000 
#    0.000    0.000    0.000    0.000    0.000    0.000 
#
# Total GULP energy -297579.304942 kJ/mol
# GULP energy per Si atom -12399.137706 kJ/mol
# Density = 1.722476 g / cm^3
# Si number density = 17.264056 Si / 1000 Ang^3
#
#
#
# Elastic Constant Matrix: (Units=GPa)
#
#
# Indices 1 2 3 4 5 6 
#
# 1 134.5830 61.1548 61.9857 0.0000 -19.3107 0.0000
# 2 61.1548 80.1885 40.6173 0.0000 -11.3325 0.0000
# 3 61.9857 40.6173 80.7830 0.0000 -10.2968 0.0000
# 4 0.0000 0.0000 0.0000 23.3324 0.0000 -7.3803
# 5 -19.3107 -11.3325 -10.2968 0.0000 31.5053 0.0000
# 6 0.0000 0.0000 0.0000 -7.3803 0.0000 32.1043
#
#
#
# Elastic Compliance Matrix: (Units=1/GPa)
#
#
# Indices 1 2 3 4 5 6 
#
# 1 0.014361 -0.006790 -0.007091 0.000000 0.004043 0.000000
# 2 -0.006790 0.020301 -0.004797 0.000000 0.001573 0.000000
# 3 -0.007091 -0.004797 0.020303 0.000000 0.000564 0.000000
# 4 0.000000 0.000000 0.000000 0.046220 0.000000 0.010625
# 5 0.004043 0.001573 0.000564 0.000000 0.034969 0.000000
# 6 0.000000 0.000000 0.000000 0.010625 0.000000 0.033591
#
#
# Mechanical properties :
#
#
# Convention : Reuss Voigt Hill
#
# Bulk Modulus (GPa) = 56.78185 69.23002 63.00593
# Shear Modulus (GPa) = 23.47752 26.17482 24.82617
#
# Velocity S-wave (km/s) = 3.69169 3.89800 3.79625
# Velocity P-wave (km/s) = 7.15074 7.77476 7.46927
#
# Compressibility (1/GPa) = 0.01761126
#
# Stress axis : x y z
#
# Youngs Moduli (GPa) = 69.63072 49.25945 49.25321
#
# Poissons Ratio (x) = 0.33446 0.34923
# Poissons Ratio (y) = 0.47277 0.23626
# Poissons Ratio (z) = 0.49372 0.23629
#
# Static dielectric constant tensor:
#      x y z
#    x 3.529030 0.000000 -0.328690 
#    y 0.000000 3.312680 0.000000 
#    z -0.328690 0.000000 3.252960 
# 
# 
# High freq. dielectric constant tensor:
#      x y z
#    x 1.665190 0.000000 -0.022420 
#    y 0.000000 1.674700 0.000000 
#    z -0.022420 0.000000 1.644210 
# 
# From -- ./inp_files/172074.got.cif
#   From: 2010.06.25/outbox.cif.g09.slc.cpg/sg12_87_cif.got.tgz:172074.got - 2010.06.28 00:19:55.
