data_PCOD8085785
_publ_section_title
;
Structure prediction by ZEFSAII (Michael W. Deem and Ramdas Pophale) SiO2 
 PCOD8085785
Probable space group: C 2/M
;
_chemical_formula_sum "Si O2"
_cell_formula_units_Z 56
_cell_length_a 18.944243
_cell_length_b 9.436583
_cell_length_c 19.905553
_cell_angle_alpha 90.000000
_cell_angle_beta 65.047312
_cell_angle_gamma 90.000000
_cell_volume 3226.331774
_symmetry_space_group_name_H-M "C 2/M"
_symmetry_group_IT_number 12
_symmetry_cell_setting 'monoclinic'
loop_
_space_group_symop_operation_xyz
x,y,z
-x,y,-z
-x,-y,-z
x,-y,z
1/2+x,1/2+y,z
1/2-x,1/2+y,-z
1/2-x,1/2-y,-z
1/2+x,1/2-y,z
loop_
_atom_site_type_symbol
_atom_site_label
_atom_site_fract_x
_atom_site_fract_y
_atom_site_fract_z
Si Si1 0.271661 0.165348 0.557521
Si Si2 0.825539 0.838037 0.048870
Si Si3 0.418004 0.666198 0.498542
Si Si4 0.100543 0.839419 0.649328
Si Si5 0.436837 0.835952 0.081907
Si Si6 0.491997 0.161997 0.206652
Si Si7 0.348159 0.840124 0.910205
O O1 0.250000 0.250000 0.500000
O O2 0.347347 0.241740 0.560658
O O3 0.192060 0.177248 0.633003
O O4 0.290461 0.000000 0.535036
O O5 0.860661 0.757392 0.098509
O O6 0.733217 0.823350 0.094789
O O7 0.852986 0.000000 0.037089
O O8 0.855483 0.768086 0.968294
O O9 0.500000 0.708505 0.500000
O O10 0.400100 0.500000 0.516521
O O11 0.418764 0.706414 0.419471
O O12 0.048742 0.748397 0.719212
O O13 0.073920 0.000000 0.669526
O O14 0.466187 0.789774 0.142982
O O15 0.414039 0.000000 0.088481
O O16 0.500000 0.798166 0.000000
O O17 0.585025 0.188563 0.171838
O O18 0.470046 0.000000 0.228558
O O19 0.358499 0.000000 0.935707
#
# Coordination Sequence:
#
# PCOD8085785 Si02
#       7
#     8   8   8   8   8   8   8
#     4   9  17  31  52  77 105 137 171 207 249 298
#     4  10  19  30  50  75  96 122 163 214 260 303
#     4   9  18  34  56  81 108 138 171 210 253 298
#     4   9  19  34  51  75 106 135 165 211 260 297
#     4  10  19  34  52  69  96 131 167 212 255 299
#     4  10  20  34  53  72  95 136 176 207 253 309
#     4   9  18  34  50  68  97 131 165 204 253 306
#
# _framework density 17.357174000000001
#
# number of rings (size 3 to 8) (size 9 to 14) (size 15 to 20)
#    0.000    2.571    1.429    1.714    0.000    5.143 
#    0.000    1.429    0.000    6.857    0.000    0.000 
#    0.000    0.000    0.000    0.000    0.000    0.000 
#
# Total GULP energy -347057.928708 kJ/mol
# GULP energy per Si atom -12394.926025 kJ/mol
# Density = 1.731767 g / cm^3
# Si number density = 17.357174 Si / 1000 Ang^3
#
#
#
# Elastic Constant Matrix: (Units=GPa)
#
#
# Indices 1 2 3 4 5 6 
#
# 1 125.5330 61.7334 47.5443 0.0000 -10.6756 0.0000
# 2 61.7334 83.9484 42.0400 0.0000 -8.9724 -0.0001
# 3 47.5443 42.0400 85.0217 0.0000 -11.8609 0.0000
# 4 0.0000 0.0000 0.0000 30.8680 0.0000 -2.0719
# 5 -10.6756 -8.9724 -11.8609 0.0000 20.9852 0.0000
# 6 0.0000 -0.0001 0.0000 -2.0719 0.0000 32.5125
#
#
#
# Elastic Compliance Matrix: (Units=1/GPa)
#
#
# Indices 1 2 3 4 5 6 
#
# 1 0.013233 -0.007935 -0.003268 0.000000 0.001492 0.000000
# 2 -0.007935 0.020717 -0.005573 0.000000 0.001671 0.000000
# 3 -0.003268 -0.005573 0.017131 0.000000 0.005637 0.000000
# 4 0.000000 0.000000 0.000000 0.032535 0.000000 0.002073
# 5 0.001492 0.001671 0.005637 0.000000 0.052312 0.000000
# 6 0.000000 0.000000 0.000000 0.002073 0.000000 0.030890
#
#
# Mechanical properties :
#
#
# Convention : Reuss Voigt Hill
#
# Bulk Modulus (GPa) = 57.05070 66.34873 61.69971
# Shear Modulus (GPa) = 24.24663 26.41883 25.33273
#
# Velocity S-wave (km/s) = 3.74160 3.90560 3.82448
# Velocity P-wave (km/s) = 7.18374 7.65812 7.42472
#
# Compressibility (1/GPa) = 0.01752827
#
# Stress axis : x y z
#
# Youngs Moduli (GPa) = 75.56919 48.26969 58.37203
#
# Poissons Ratio (x) = 0.38302 0.19077
# Poissons Ratio (y) = 0.59964 0.32533
# Poissons Ratio (z) = 0.24697 0.26902
#
# Static dielectric constant tensor:
#      x y z
#    x 3.613510 0.000000 -0.179010 
#    y 0.000000 3.328640 0.000000 
#    z -0.179010 0.000000 2.942180 
# 
# 
# High freq. dielectric constant tensor:
#      x y z
#    x 1.680170 0.000000 -0.013660 
#    y 0.000000 1.676780 0.000000 
#    z -0.013660 0.000000 1.633290 
# 
# From -- ./inp_files/275263.got.cif
#   From: 2010.06.25/outbox.cif.g09.slc.cpg/sg12_138_cif.got.tgz:275263.got - 2010.06.28 00:19:55.
