data_PCOD8085960
_publ_section_title
;
Structure prediction by ZEFSAII (Michael W. Deem and Ramdas Pophale) SiO2 
 PCOD8085960
Probable space group: C 2/M
;
_chemical_formula_sum "Si O2"
_cell_formula_units_Z 64
_cell_length_a 30.606295
_cell_length_b 9.396733
_cell_length_c 11.997005
_cell_angle_alpha 90.000000
_cell_angle_beta 90.798912
_cell_angle_gamma 90.000000
_cell_volume 3449.993417
_symmetry_space_group_name_H-M "C 2/M"
_symmetry_group_IT_number 12
_symmetry_cell_setting 'monoclinic'
loop_
_space_group_symop_operation_xyz
x,y,z
-x,y,-z
-x,-y,-z
x,-y,z
1/2+x,1/2+y,z
1/2-x,1/2+y,-z
1/2-x,1/2-y,-z
1/2+x,1/2-y,z
loop_
_atom_site_type_symbol
_atom_site_label
_atom_site_fract_x
_atom_site_fract_y
_atom_site_fract_z
Si Si1 0.363417 0.165785 0.976323
Si Si2 0.217784 0.340768 0.426549
Si Si3 0.040365 0.670027 0.078174
Si Si4 0.215785 0.669313 0.175209
Si Si5 0.199140 0.666878 0.828840
Si Si6 0.437731 0.170233 0.446512
Si Si7 0.977206 0.331183 0.673967
Si Si8 0.346159 0.160894 0.387762
O O1 0.412565 0.229958 0.964806
O O2 0.328137 0.226039 0.886143
O O3 0.368100 0.000000 0.953739
O O4 0.343455 0.197745 0.097109
O O5 0.236678 0.500000 0.421840
O O6 0.250000 0.250000 0.500000
O O7 0.210977 0.281308 0.302843
O O8 0.171662 0.335516 0.487505
O O9 0.040002 0.500000 0.076587
O O10 0.034454 0.730099 0.204284
O O11 0.000000 0.726043 0.000000
O O12 0.221103 0.500000 0.159347
O O13 0.258741 0.746174 0.126316
O O14 0.211591 0.500000 0.831217
O O15 0.186474 0.728256 0.705363
O O16 0.475035 0.221864 0.363017
O O17 0.444610 0.222446 0.574822
O O18 0.393136 0.237282 0.396091
O O19 0.435790 0.000000 0.449524
O O20 0.976313 0.500000 0.681272
O O21 0.352754 0.000000 0.345239
#
# Coordination Sequence:
#
# PCOD8085960 Si02
#       8
#     8   8   8   8   8   8   8   8
#     4   9  19  31  44  64  89 124 161 191 231 280
#     4  10  19  31  46  66  91 121 153 186 228 272
#     4   9  17  26  38  57  85 119 151 184 226 277
#     4  10  20  33  49  68  94 125 158 197 234 275
#     4  10  19  32  49  68  94 125 160 197 232 274
#     4   8  14  23  36  55  79 113 151 182 217 270
#     4   8  14  23  35  53  80 113 148 184 222 267
#     4   9  17  26  41  61  85 119 153 184 224 273
#
# _framework density 18.550761000000001
#
# number of rings (size 3 to 8) (size 9 to 14) (size 15 to 20)
#    0.000    2.875    1.250    1.125    3.500    0.000 
#    0.000    0.000    0.000    0.000    0.000    0.000 
#    0.000    2.000    0.000    9.750    0.000   10.375 
#
# Total GULP energy -396459.090808 kJ/mol
# GULP energy per Si atom -12389.346588 kJ/mol
# Density = 1.850854 g / cm^3
# Si number density = 18.550761 Si / 1000 Ang^3
#
#
#
# Elastic Constant Matrix: (Units=GPa)
#
#
# Indices 1 2 3 4 5 6 
#
# 1 154.6210 17.9132 49.8674 0.0000 5.1894 0.0000
# 2 17.9132 14.5295 9.9346 0.0000 -0.5486 0.0000
# 3 49.8674 9.9346 107.7112 0.0000 -3.2095 0.0000
# 4 0.0000 0.0000 0.0000 10.3543 0.0000 1.1410
# 5 5.1894 -0.5486 -3.2095 0.0000 27.0902 0.0000
# 6 0.0000 0.0000 0.0000 1.1410 0.0000 13.3227
#
#
#
# Elastic Compliance Matrix: (Units=1/GPa)
#
#
# Indices 1 2 3 4 5 6 
#
# 1 0.008566 -0.008419 -0.003255 0.000000 -0.002197 0.000000
# 2 -0.008419 0.081744 -0.003557 0.000000 0.002847 0.000000
# 3 -0.003255 -0.003557 0.011175 0.000000 0.001875 0.000000
# 4 0.000000 0.000000 0.000000 0.097498 0.000000 -0.008350
# 5 -0.002197 0.002847 0.001875 0.000000 0.037614 0.000000
# 6 0.000000 0.000000 0.000000 -0.008350 0.000000 0.075775
#
#
# Mechanical properties :
#
#
# Convention : Reuss Voigt Hill
#
# Bulk Modulus (GPa) = 14.07971 48.03245 31.05608
# Shear Modulus (GPa) = 13.64222 23.42989 18.53605
#
# Velocity S-wave (km/s) = 2.71477 3.55775 3.16445
# Velocity P-wave (km/s) = 4.17527 6.54411 5.48900
#
# Compressibility (1/GPa) = 0.07102421
#
# Stress axis : x y z
#
# Youngs Moduli (GPa) = 116.73745 12.23326 89.48544
#
# Poissons Ratio (x) = 0.10299 0.29127
# Poissons Ratio (y) = 0.98276 0.31832
# Poissons Ratio (z) = 0.37997 0.04352
#
# Static dielectric constant tensor:
#      x y z
#    x 3.754650 0.000000 0.014910 
#    y 0.000000 2.710160 0.000000 
#    z 0.014910 0.000000 3.790100 
# 
# 
# High freq. dielectric constant tensor:
#      x y z
#    x 1.730670 0.000000 0.001520 
#    y 0.000000 1.630240 0.000000 
#    z 0.001520 0.000000 1.736410 
# 
# From -- ./inp_files/182067.got.cif
#   From: 2010.06.25/outbox.cif.g09.slc.cpg/sg12_92_cif.got.tgz:182067.got - 2010.06.28 00:19:55.
