data_PCOD8085370
_publ_section_title
;
Structure prediction by ZEFSAII (Michael W. Deem and Ramdas Pophale) SiO2 
 PCOD8085370
Probable space group: C 2/M
;
_chemical_formula_sum "Si O2"
_cell_formula_units_Z 64
_cell_length_a 24.368759
_cell_length_b 9.589239
_cell_length_c 16.414411
_cell_angle_alpha 90.000000
_cell_angle_beta 93.312964
_cell_angle_gamma 90.000000
_cell_volume 3829.274015
_symmetry_space_group_name_H-M "C 2/M"
_symmetry_group_IT_number 12
_symmetry_cell_setting 'monoclinic'
loop_
_space_group_symop_operation_xyz
x,y,z
-x,y,-z
-x,-y,-z
x,-y,z
1/2+x,1/2+y,z
1/2-x,1/2+y,-z
1/2-x,1/2-y,-z
1/2+x,1/2-y,z
loop_
_atom_site_type_symbol
_atom_site_label
_atom_site_fract_x
_atom_site_fract_y
_atom_site_fract_z
Si Si1 0.559147 0.336668 0.731847
Si Si2 0.420604 0.160518 0.934717
Si Si3 0.334565 0.335990 0.363813
Si Si4 0.958977 0.338766 0.114040
Si Si5 0.768060 0.838610 0.679753
Si Si6 0.058703 0.165130 0.329160
Si Si7 0.649288 0.334713 0.453260
Si Si8 0.135698 0.161046 0.192226
O O1 0.555332 0.500000 0.751901
O O2 0.609913 0.301006 0.678863
O O3 0.565661 0.255243 0.816657
O O4 0.504467 0.285659 0.678753
O O5 0.478840 0.205601 0.901008
O O6 0.371569 0.251299 0.891264
O O7 0.408643 0.000000 0.914692
O O8 0.421302 0.186952 0.031497
O O9 0.321642 0.500000 0.362401
O O10 0.285455 0.256098 0.314969
O O11 0.340871 0.274663 0.455813
O O12 0.956633 0.500000 0.140181
O O13 0.801422 0.789489 0.602405
O O14 0.804283 0.815520 0.763897
O O15 0.751029 0.000000 0.670104
O O16 0.091114 0.222673 0.411788
O O17 0.089833 0.217788 0.251158
O O18 0.063495 0.000000 0.331509
O O19 0.646309 0.500000 0.458116
O O20 0.126306 0.000000 0.170162
#
# Coordination Sequence:
#
# PCOD8085370 Si02
#       8
#     8   8   8   8   8   8   8   8
#     4  10  19  30  46  69  97 127 159 192 227 275
#     4   9  17  29  47  72  98 122 151 186 229 278
#     4  10  20  31  46  70  95 123 162 200 232 270
#     4   9  18  31  46  68  99 129 152 180 225 284
#     4   9  18  32  50  69  92 124 160 196 236 279
#     4   8  14  26  44  67  95 122 150 188 233 275
#     4   8  15  29  48  69  93 120 155 200 239 272
#     4   9  16  28  48  72  95 120 153 193 234 276
#
# _framework density 16.713350999999999
#
# number of rings (size 3 to 8) (size 9 to 14) (size 15 to 20)
#    0.000    3.000    1.250    2.625    0.000    2.000 
#    0.000    3.750    0.000    2.250    0.000    1.750 
#    0.000    0.000    0.000    0.000    0.000    0.000 
#
# Total GULP energy -396675.621319 kJ/mol
# GULP energy per Si atom -12396.113166 kJ/mol
# Density = 1.667531 g / cm^3
# Si number density = 16.713351 Si / 1000 Ang^3
#
#
#
# Elastic Constant Matrix: (Units=GPa)
#
#
# Indices 1 2 3 4 5 6 
#
# 1 104.4526 40.5500 39.3879 0.0000 14.1576 0.0000
# 2 40.5500 43.6959 34.8422 0.0000 10.5067 0.0000
# 3 39.3879 34.8422 66.7589 0.0000 20.0947 0.0000
# 4 0.0000 0.0000 0.0000 22.7272 0.0000 2.5690
# 5 14.1576 10.5067 20.0947 0.0000 21.2542 0.0000
# 6 0.0000 0.0000 0.0000 2.5690 0.0000 25.7969
#
#
#
# Elastic Compliance Matrix: (Units=1/GPa)
#
#
# Indices 1 2 3 4 5 6 
#
# 1 0.015337 -0.012018 -0.002082 0.000000 -0.002307 0.000000
# 2 -0.012018 0.048615 -0.018812 0.000000 0.001758 0.000000
# 3 -0.002082 -0.018812 0.031883 0.000000 -0.019457 0.000000
# 4 0.000000 0.000000 0.000000 0.044501 0.000000 -0.004432
# 5 -0.002307 0.001758 -0.019457 0.000000 0.066112 0.000000
# 6 0.000000 0.000000 0.000000 -0.004432 0.000000 0.039206
#
#
# Mechanical properties :
#
#
# Convention : Reuss Voigt Hill
#
# Bulk Modulus (GPa) = 33.32089 49.38530 41.35310
# Shear Modulus (GPa) = 15.55302 20.63080 18.09191
#
# Velocity S-wave (km/s) = 3.05384 3.51720 3.29368
# Velocity P-wave (km/s) = 5.69338 6.79020 6.26584
#
# Compressibility (1/GPa) = 0.03001120
#
# Stress axis : x y z
#
# Youngs Moduli (GPa) = 65.20149 20.56974 31.36514
#
# Poissons Ratio (x) = 0.24720 0.06532
# Poissons Ratio (y) = 0.78358 0.59003
# Poissons Ratio (z) = 0.13578 0.38695
#
# Static dielectric constant tensor:
#      x y z
#    x 3.046970 0.000000 0.210130 
#    y 0.000000 2.832880 0.000000 
#    z 0.210130 0.000000 3.195910 
# 
# 
# High freq. dielectric constant tensor:
#      x y z
#    x 1.629810 0.000000 0.019810 
#    y 0.000000 1.617320 0.000000 
#    z 0.019810 0.000000 1.640400 
# 
# From -- ./inp_files/287501.got.cif
#   From: 2010.06.25/outbox.cif.g09.slc.cpg/sg12_144_cif.got.tgz:287501.got - 2010.06.28 00:19:55.
