data_PCOD8085873
_publ_section_title
;
Structure prediction by ZEFSAII (Michael W. Deem and Ramdas Pophale) SiO2 
 PCOD8085873
Probable space group: C 2/M
;
_chemical_formula_sum "Si O2"
_cell_formula_units_Z 52
_cell_length_a 26.724350
_cell_length_b 14.926532
_cell_length_c 9.321693
_cell_angle_alpha 90.000000
_cell_angle_beta 50.314770
_cell_angle_gamma 90.000000
_cell_volume 2861.578842
_symmetry_space_group_name_H-M "C 2/M"
_symmetry_group_IT_number 12
_symmetry_cell_setting 'monoclinic'
loop_
_space_group_symop_operation_xyz
x,y,z
-x,y,-z
-x,-y,-z
x,-y,z
1/2+x,1/2+y,z
1/2-x,1/2+y,-z
1/2-x,1/2-y,-z
1/2+x,1/2-y,z
loop_
_atom_site_type_symbol
_atom_site_label
_atom_site_fract_x
_atom_site_fract_y
_atom_site_fract_z
Si Si1 0.933878 0.898042 0.705546
Si Si2 0.674172 0.749579 0.163103
Si Si3 0.093942 0.265509 0.559886
Si Si4 0.480568 0.601892 0.192892
Si Si5 0.076181 0.601660 0.848251
Si Si6 0.889606 0.598948 0.896978
Si Si7 0.000000 0.349343 0.500000
O O1 0.870131 0.836797 0.797946
O O2 0.000000 0.869613 0.500000
O O3 0.953191 0.889853 0.836967
O O4 0.914901 0.000000 0.698109
O O5 0.663722 0.764449 0.352895
O O6 0.655978 0.833779 0.100637
O O7 0.750000 0.750000 0.000000
O O8 0.076506 0.166858 0.648547
O O9 0.100894 0.335830 0.675293
O O10 0.044104 0.288401 0.522478
O O11 0.453530 0.500000 0.246471
O O12 0.500000 0.633442 0.000000
O O13 0.097273 0.500000 0.773816
O O14 0.103288 0.633063 0.952446
O O15 0.000000 0.609929 0.000000
O O16 0.858483 0.500000 0.954285
O O17 0.958183 0.591330 0.686686
#
# Coordination Sequence:
#
# PCOD8085873 Si02
#       7
#     8   8   8   8   8   8   4
#     4  10  20  38  62  86 113 149 195 246 292 342
#     4  11  25  40  57  87 116 156 199 239 297 352
#     4  11  20  33  55  79 117 154 181 236 284 339
#     4  10  20  32  55  90 116 141 186 241 297 342
#     4  10  20  33  54  87 118 150 184 228 289 346
#     4  10  21  36  56  82 117 152 189 232 283 344
#     4  10  19  30  51  88 114 144 183 222 279 338
#
# _framework density 18.171786000000001
#
# number of rings (size 3 to 8) (size 9 to 14) (size 15 to 20)
#    0.000    1.692    3.077    2.538    3.231    3.077 
#    0.000    0.769    0.000    0.000    0.000    0.000 
#    0.000    0.000    0.000    0.000    0.000    0.000 
#
# Total GULP energy -322134.419756 kJ/mol
# GULP energy per Si atom -12389.785375 kJ/mol
# Density = 1.813043 g / cm^3
# Si number density = 18.171786 Si / 1000 Ang^3
#
#
#
# Elastic Constant Matrix: (Units=GPa)
#
#
# Indices 1 2 3 4 5 6 
#
# 1 72.4949 48.3242 77.5120 0.0000 3.1490 0.0000
# 2 48.3242 112.9621 67.3261 0.0000 4.0543 0.0000
# 3 77.5120 67.3261 145.7071 0.0000 13.8402 0.0000
# 4 0.0000 0.0000 0.0000 23.6918 0.0000 3.0165
# 5 3.1490 4.0543 13.8402 0.0000 38.4444 0.0000
# 6 0.0000 0.0000 0.0000 3.0165 0.0000 20.8697
#
#
#
# Elastic Compliance Matrix: (Units=1/GPa)
#
#
# Indices 1 2 3 4 5 6 
#
# 1 0.034545 -0.005176 -0.016326 0.000000 0.003594 0.000000
# 2 -0.005176 0.013015 -0.003282 0.000000 0.000233 0.000000
# 3 -0.016326 -0.003282 0.017503 0.000000 -0.004618 0.000000
# 4 0.000000 0.000000 0.000000 0.043000 0.000000 -0.006215
# 5 0.003594 0.000233 -0.004618 0.000000 0.027355 0.000000
# 6 0.000000 0.000000 0.000000 -0.006215 0.000000 0.048815
#
#
# Mechanical properties :
#
#
# Convention : Reuss Voigt Hill
#
# Bulk Modulus (GPa) = 64.54429 79.72096 72.13262
# Shear Modulus (GPa) = 20.92342 25.80130 23.36236
#
# Velocity S-wave (km/s) = 3.39694 3.77218 3.58947
# Velocity P-wave (km/s) = 7.14015 7.93338 7.54719
#
# Compressibility (1/GPa) = 0.01549324
#
# Stress axis : x y z
#
# Youngs Moduli (GPa) = 28.94802 76.83615 57.13155
#
# Poissons Ratio (x) = 0.39772 0.93275
# Poissons Ratio (y) = 0.14984 0.18751
# Poissons Ratio (z) = 0.47262 0.25219
#
# Static dielectric constant tensor:
#      x y z
#    x 3.056580 0.000000 0.330170 
#    y 0.000000 3.495480 0.000000 
#    z 0.330170 0.000000 3.625400 
# 
# 
# High freq. dielectric constant tensor:
#      x y z
#    x 1.672230 0.000000 0.038690 
#    y 0.000000 1.721300 0.000000 
#    z 0.038690 0.000000 1.699340 
# 
# From -- ./inp_files/104369.got.cif
#   From: 2010.06.25/outbox.cif.g09.slc.cpg/sg12_53_cif.got.tgz:104369.got - 2010.06.28 00:19:55.
