data_PCOD8085941
_publ_section_title
;
Structure prediction by ZEFSAII (Michael W. Deem and Ramdas Pophale) SiO2 
 PCOD8085941
Probable space group: C 2/M
;
_chemical_formula_sum "Si O2"
_cell_formula_units_Z 64
_cell_length_a 27.755405
_cell_length_b 8.936130
_cell_length_c 16.281471
_cell_angle_alpha 90.000000
_cell_angle_beta 95.614849
_cell_angle_gamma 90.000000
_cell_volume 4018.851515
_symmetry_space_group_name_H-M "C 2/M"
_symmetry_group_IT_number 12
_symmetry_cell_setting 'monoclinic'
loop_
_space_group_symop_operation_xyz
x,y,z
-x,y,-z
-x,-y,-z
x,-y,z
1/2+x,1/2+y,z
1/2-x,1/2+y,-z
1/2-x,1/2-y,-z
1/2+x,1/2-y,z
loop_
_atom_site_type_symbol
_atom_site_label
_atom_site_fract_x
_atom_site_fract_y
_atom_site_fract_z
Si Si1 0.182683 0.834447 0.437344
Si Si2 0.255713 0.824296 0.233567
Si Si3 0.708647 0.175943 0.939641
Si Si4 0.984439 0.668839 0.091289
Si Si5 0.890934 0.173467 0.029741
Si Si6 0.578168 0.326497 0.151686
Si Si7 0.341243 0.177217 0.728736
Si Si8 0.293879 0.165098 0.407767
O O1 0.157709 0.729479 0.365643
O O2 0.239429 0.842776 0.431103
O O3 0.173944 0.769883 0.527762
O O4 0.159645 0.000000 0.429080
O O5 0.282218 0.785422 0.153796
O O6 0.204979 0.738447 0.229534
O O7 0.291623 0.773530 0.313637
O O8 0.243580 0.000000 0.240434
O O9 0.657815 0.242175 0.956949
O O10 0.708994 0.000000 0.955948
O O11 0.750000 0.250000 0.000000
O O12 0.979342 0.500000 0.124716
O O13 0.933538 0.754351 0.091269
O O14 0.024306 0.759103 0.149767
O O15 0.000000 0.665649 0.000000
O O16 0.886519 0.000000 0.052154
O O17 0.900501 0.195833 0.935314
O O18 0.576517 0.500000 0.175747
O O19 0.610635 0.236902 0.220837
O O20 0.340216 0.000000 0.731666
O O21 0.317276 0.000000 0.413600
#
# Coordination Sequence:
#
# PCOD8085941 Si02
#       8
#     8   8   8   8   8   8   8   8
#     4   9  16  26  40  59  84 112 140 173 216 262
#     4   9  19  33  45  59  84 118 152 186 224 261
#     4  11  22  34  47  64  88 119 154 190 225 259
#     4   9  17  30  48  68  87 109 142 182 221 263
#     4  10  20  33  48  65  87 117 150 184 223 263
#     4  10  19  31  46  64  89 118 146 179 222 267
#     4  11  20  28  42  64  89 117 149 182 217 261
#     4   8  14  26  42  58  78 107 144 181 215 256
#
# _framework density 15.924948000000001
#
# number of rings (size 3 to 8) (size 9 to 14) (size 15 to 20)
#    0.000    2.375    0.000    4.500    0.000   10.000 
#    0.000    0.000    0.000    0.000    0.000    0.000 
#    0.000    1.000    0.000   10.750    0.000    5.000 
#
# Total GULP energy -396762.145578 kJ/mol
# GULP energy per Si atom -12398.817049 kJ/mol
# Density = 1.588870 g / cm^3
# Si number density = 15.924948 Si / 1000 Ang^3
#
#
#
# Elastic Constant Matrix: (Units=GPa)
#
#
# Indices 1 2 3 4 5 6 
#
# 1 87.0623 47.0897 39.3917 0.0000 14.0088 0.0000
# 2 47.0897 112.2950 50.0983 0.0000 10.4512 0.0000
# 3 39.3917 50.0983 81.8998 0.0000 7.9183 0.0000
# 4 0.0000 0.0000 0.0000 26.5937 0.0000 6.0984
# 5 14.0088 10.4512 7.9183 0.0000 16.3206 0.0000
# 6 0.0000 0.0000 0.0000 6.0984 0.0000 26.2366
#
#
#
# Elastic Compliance Matrix: (Units=1/GPa)
#
#
# Indices 1 2 3 4 5 6 
#
# 1 0.017624 -0.004275 -0.004893 0.000000 -0.010016 0.000000
# 2 -0.004275 0.013595 -0.006057 0.000000 -0.002098 0.000000
# 3 -0.004893 -0.006057 0.018348 0.000000 -0.000823 0.000000
# 4 0.000000 0.000000 0.000000 0.039720 0.000000 -0.009232
# 5 -0.010016 -0.002098 -0.000823 0.000000 0.071612 0.000000
# 6 0.000000 0.000000 0.000000 -0.009232 0.000000 0.040261
#
#
# Mechanical properties :
#
#
# Convention : Reuss Voigt Hill
#
# Bulk Modulus (GPa) = 52.31114 61.60186 56.95650
# Shear Modulus (GPa) = 21.00985 23.47535 22.24260
#
# Velocity S-wave (km/s) = 3.63616 3.84360 3.74132
# Velocity P-wave (km/s) = 7.10977 7.64619 7.38285
#
# Compressibility (1/GPa) = 0.01911639
#
# Stress axis : x y z
#
# Youngs Moduli (GPa) = 56.74117 73.55393 54.50087
#
# Poissons Ratio (x) = 0.31446 0.26668
# Poissons Ratio (y) = 0.24258 0.33013
# Poissons Ratio (z) = 0.27764 0.44554
#
# Static dielectric constant tensor:
#      x y z
#    x 2.739550 0.000000 0.133710 
#    y 0.000000 3.272460 0.000000 
#    z 0.133710 0.000000 3.162220 
# 
# 
# High freq. dielectric constant tensor:
#      x y z
#    x 1.571090 0.000000 0.021790 
#    y 0.000000 1.629510 0.000000 
#    z 0.021790 0.000000 1.602740 
# 
# From -- ./inp_files/244054.got.cif
#   From: 2010.06.25/outbox.cif.g09.slc.cpg/sg12_123_cif.got.tgz:244054.got - 2010.06.28 00:19:55.
