data_PCOD8085772
_publ_section_title
;
Structure prediction by ZEFSAII (Michael W. Deem and Ramdas Pophale) SiO2 
 PCOD8085772
Probable space group: C 2/M
;
_chemical_formula_sum "Si O2"
_cell_formula_units_Z 56
_cell_length_a 19.839586
_cell_length_b 9.097742
_cell_length_c 19.509666
_cell_angle_alpha 90.000000
_cell_angle_beta 121.782248
_cell_angle_gamma 90.000000
_cell_volume 2993.391715
_symmetry_space_group_name_H-M "C 2/M"
_symmetry_group_IT_number 12
_symmetry_cell_setting 'monoclinic'
loop_
_space_group_symop_operation_xyz
x,y,z
-x,y,-z
-x,-y,-z
x,-y,z
1/2+x,1/2+y,z
1/2-x,1/2+y,-z
1/2-x,1/2-y,-z
1/2+x,1/2-y,z
loop_
_atom_site_type_symbol
_atom_site_label
_atom_site_fract_x
_atom_site_fract_y
_atom_site_fract_z
Si Si1 0.650150 0.830823 0.662241
Si Si2 0.036548 0.327711 0.093026
Si Si3 0.012165 0.172053 0.665710
Si Si4 0.544102 0.333779 0.831604
Si Si5 0.772128 0.831554 0.080490
Si Si6 0.301313 0.670911 0.830634
Si Si7 0.084456 0.837205 0.508430
O O1 0.590564 0.755277 0.683144
O O2 0.739423 0.805840 0.735914
O O3 0.644287 0.767763 0.581652
O O4 0.626853 0.000000 0.646994
O O5 0.053959 0.500000 0.108028
O O6 0.115866 0.236985 0.149998
O O7 0.974272 0.280254 0.118000
O O8 0.000000 0.286466 0.000000
O O9 0.994427 0.205428 0.736135
O O10 0.934189 0.218204 0.579366
O O11 0.029828 0.000000 0.663536
O O12 0.525533 0.500000 0.846645
O O13 0.634740 0.319203 0.857197
O O14 0.725407 0.755357 0.116370
O O15 0.743826 0.000000 0.061064
O O16 0.750000 0.750000 0.000000
O O17 0.311324 0.500000 0.854350
O O18 0.000000 0.838512 0.500000
O O19 0.122114 0.000000 0.527804
#
# Coordination Sequence:
#
# PCOD8085772 Si02
#       7
#     8   8   8   8   8   8   8
#     4  10  19  30  49  80 113 143 179 225 271 316
#     4  11  25  42  59  80 107 143 186 232 281 334
#     4   9  17  32  52  78 110 145 183 219 267 328
#     4  10  21  37  58  81 109 145 182 225 275 329
#     4  11  22  36  57  83 111 143 179 226 280 330
#     4  11  23  38  57  81 111 147 186 228 274 327
#     4   8  15  27  47  74 108 146 179 216 264 324
#
# _framework density 18.707875000000001
#
# number of rings (size 3 to 8) (size 9 to 14) (size 15 to 20)
#    0.000    2.000    1.429    3.429    0.000    9.429 
#    0.000    0.000    0.000    0.857    0.000    0.000 
#    0.000    0.000    0.000    0.000    0.000    0.000 
#
# Total GULP energy -347190.870688 kJ/mol
# GULP energy per Si atom -12399.673953 kJ/mol
# Density = 1.866530 g / cm^3
# Si number density = 18.707875 Si / 1000 Ang^3
#
#
#
# Elastic Constant Matrix: (Units=GPa)
#
#
# Indices 1 2 3 4 5 6 
#
# 1 41.3113 22.4234 14.2129 0.0000 -0.8998 0.0000
# 2 22.4234 100.9682 52.0462 0.0000 2.4338 0.0000
# 3 14.2129 52.0462 117.3430 0.0000 -13.0339 0.0000
# 4 0.0000 0.0000 0.0000 32.9657 0.0000 0.4180
# 5 -0.8998 2.4338 -13.0339 0.0000 25.3826 0.0000
# 6 0.0000 0.0000 0.0000 0.4180 0.0000 26.1655
#
#
#
# Elastic Compliance Matrix: (Units=1/GPa)
#
#
# Indices 1 2 3 4 5 6 
#
# 1 0.027618 -0.005845 -0.000617 0.000000 0.001223 0.000000
# 2 -0.005845 0.014559 -0.006286 0.000000 -0.004831 0.000000
# 3 -0.000617 -0.006286 0.012142 0.000000 0.006816 0.000000
# 4 0.000000 0.000000 0.000000 0.030341 0.000000 -0.000485
# 5 0.001223 -0.004831 0.006816 0.000000 0.043403 0.000000
# 6 0.000000 0.000000 0.000000 -0.000485 0.000000 0.038226
#
#
# Mechanical properties :
#
#
# Convention : Reuss Voigt Hill
#
# Bulk Modulus (GPa) = 34.69465 48.55415 41.62440
# Shear Modulus (GPa) = 24.82714 28.29876 26.56295
#
# Velocity S-wave (km/s) = 3.64688 3.89352 3.77222
# Velocity P-wave (km/s) = 6.02650 6.79874 6.42424
#
# Compressibility (1/GPa) = 0.02882289
#
# Stress axis : x y z
#
# Youngs Moduli (GPa) = 36.20835 68.68636 82.35925
#
# Poissons Ratio (x) = 0.40147 0.05080
# Poissons Ratio (y) = 0.21164 0.51772
# Poissons Ratio (z) = 0.02234 0.43177
#
# Static dielectric constant tensor:
#      x y z
#    x 2.970390 0.000000 0.015480 
#    y 0.000000 3.454670 0.000000 
#    z 0.015480 0.000000 3.885750 
# 
# 
# High freq. dielectric constant tensor:
#      x y z
#    x 1.685760 0.000000 -0.007870 
#    y 0.000000 1.732610 0.000000 
#    z -0.007870 0.000000 1.746610 
# 
# From -- ./inp_files/320252.got.cif
#   From: 2010.06.25/outbox.cif.g09.slc.cpg/sg12_161_cif.got.tgz:320252.got - 2010.06.28 00:19:55.
