data_PCOD8085151
_publ_section_title
;
Structure prediction by ZEFSAII (Michael W. Deem and Ramdas Pophale) SiO2 
 PCOD8085151
Probable space group: C 2/M
;
_chemical_formula_sum "Si O2"
_cell_formula_units_Z 64
_cell_length_a 24.752071
_cell_length_b 9.055582
_cell_length_c 21.923594
_cell_angle_alpha 90.000000
_cell_angle_beta 46.088595
_cell_angle_gamma 90.000000
_cell_volume 3540.146588
_symmetry_space_group_name_H-M "C 2/M"
_symmetry_group_IT_number 12
_symmetry_cell_setting 'monoclinic'
loop_
_space_group_symop_operation_xyz
x,y,z
-x,y,-z
-x,-y,-z
x,-y,z
1/2+x,1/2+y,z
1/2-x,1/2+y,-z
1/2-x,1/2-y,-z
1/2+x,1/2-y,z
loop_
_atom_site_type_symbol
_atom_site_label
_atom_site_fract_x
_atom_site_fract_y
_atom_site_fract_z
Si Si1 0.862122 0.825569 0.984206
Si Si2 0.585127 0.658688 0.925907
Si Si3 0.422188 0.831422 0.739810
Si Si4 0.871936 0.327344 0.221368
Si Si5 0.278770 0.325487 0.713801
Si Si6 0.933057 0.327958 0.593821
Si Si7 0.008180 0.328699 0.191770
Si Si8 0.770771 0.826430 0.859656
O O1 0.920617 0.756380 0.891317
O O2 0.857960 0.000000 0.975481
O O3 0.886333 0.780056 0.032751
O O4 0.779356 0.752966 0.048754
O O5 0.624330 0.500000 0.877401
O O6 0.592547 0.786183 0.870747
O O7 0.500000 0.620370 0.000000
O O8 0.454300 0.795171 0.647585
O O9 0.488512 0.808966 0.737533
O O10 0.355304 0.721048 0.808623
O O11 0.392018 0.000000 0.765317
O O12 0.869449 0.500000 0.230809
O O13 0.784980 0.271989 0.285458
O O14 0.927327 0.263878 0.231212
O O15 0.290979 0.500000 0.702206
O O16 0.356049 0.249634 0.634555
O O17 0.253030 0.278972 0.802875
O O18 0.922046 0.500000 0.589649
O O19 0.000000 0.263350 0.500000
O O20 0.015178 0.500000 0.167195
O O21 0.762541 0.000000 0.875132
#
# Coordination Sequence:
#
# PCOD8085151 Si02
#       8
#     8   8   8   8   8   8   8   8
#     4  11  21  31  46  68  97 133 173 214 252 287
#     4  10  19  30  43  65  95 129 170 213 252 282
#     4   9  19  36  53  72  98 127 162 202 245 296
#     4  10  19  31  48  70  97 130 167 204 243 286
#     4   9  18  31  49  76 104 126 155 198 245 290
#     4   9  18  34  58  83 101 120 151 194 244 296
#     4  10  21  34  49  68  95 135 174 205 242 288
#     4  10  19  32  50  71  96 129 169 213 254 288
#
# _framework density 18.078347000000001
#
# number of rings (size 3 to 8) (size 9 to 14) (size 15 to 20)
#    0.000    2.250    2.500    0.750    0.000    3.000 
#    0.000    0.000    0.000    0.750    0.000    0.000 
#    0.000    0.000    0.000    0.000    0.000    0.000 
#
# Total GULP energy -396468.525569 kJ/mol
# GULP energy per Si atom -12389.641424 kJ/mol
# Density = 1.803720 g / cm^3
# Si number density = 18.078347 Si / 1000 Ang^3
#
#
#
# Elastic Constant Matrix: (Units=GPa)
#
#
# Indices 1 2 3 4 5 6 
#
# 1 117.1201 25.3787 60.9907 0.0005 0.0281 0.0066
# 2 25.3787 35.5180 31.1694 -0.0021 -6.6976 0.0089
# 3 60.9907 31.1694 100.4922 -0.0008 -15.4728 -0.0007
# 4 0.0005 -0.0021 -0.0008 20.0486 -0.0001 -4.3000
# 5 0.0281 -6.6976 -15.4728 -0.0001 19.0129 -0.0025
# 6 0.0066 0.0089 -0.0007 -4.3000 -0.0025 21.2652
#
#
#
# Elastic Compliance Matrix: (Units=1/GPa)
#
#
# Indices 1 2 3 4 5 6 
#
# 1 0.013783 -0.004052 -0.008381 -0.000002 -0.008269 -0.000004
# 2 -0.004052 0.040203 -0.008950 0.000001 0.006884 -0.000015
# 3 -0.008381 -0.008950 0.019813 0.000002 0.012983 0.000009
# 4 -0.000002 0.000001 0.000002 0.052140 0.000004 0.010543
# 5 -0.008269 0.006884 0.012983 0.000004 0.065599 0.000008
# 6 -0.000004 -0.000015 0.000009 0.010543 0.000008 0.049157
#
#
# Mechanical properties :
#
#
# Convention : Reuss Voigt Hill
#
# Bulk Modulus (GPa) = 32.22590 54.24533 43.23562
# Shear Modulus (GPa) = 17.01801 21.10477 19.06139
#
# Velocity S-wave (km/s) = 3.07147 3.42044 3.25064
# Velocity P-wave (km/s) = 5.51751 6.75796 6.16899
#
# Compressibility (1/GPa) = 0.03103094
#
# Stress axis : x y z
#
# Youngs Moduli (GPa) = 72.55331 24.87390 50.47199
#
# Poissons Ratio (x) = 0.10080 0.42303
# Poissons Ratio (y) = 0.29401 0.45173
# Poissons Ratio (z) = 0.60810 0.22263
#
# Static dielectric constant tensor:
#      x y z
#    x 3.674010 -0.000010 -0.030250 
#    y -0.000010 3.294690 0.000010 
#    z -0.030250 0.000010 3.101290 
# 
# 
# High freq. dielectric constant tensor:
#      x y z
#    x 1.709540 0.000000 -0.006300 
#    y 0.000000 1.697840 0.000000 
#    z -0.006300 0.000000 1.657240 
# 
# From -- ./inp_files/324209.got.cif
#   From: 2010.06.25/outbox.cif.g09.slc.cpg/sg12_163_cif.got.tgz:324209.got - 2010.06.28 00:19:55.
