data_PCOD8085612
_publ_section_title
;
Structure prediction by ZEFSAII (Michael W. Deem and Ramdas Pophale) SiO2 
 PCOD8085612
Probable space group: C 2/M
;
_chemical_formula_sum "Si O2"
_cell_formula_units_Z 56
_cell_length_a 19.855956
_cell_length_b 8.909813
_cell_length_c 21.731561
_cell_angle_alpha 90.000000
_cell_angle_beta 62.104011
_cell_angle_gamma 90.000000
_cell_volume 3397.844642
_symmetry_space_group_name_H-M "C 2/M"
_symmetry_group_IT_number 12
_symmetry_cell_setting 'monoclinic'
loop_
_space_group_symop_operation_xyz
x,y,z
-x,y,-z
-x,-y,-z
x,-y,z
1/2+x,1/2+y,z
1/2-x,1/2+y,-z
1/2-x,1/2-y,-z
1/2+x,1/2-y,z
loop_
_atom_site_type_symbol
_atom_site_label
_atom_site_fract_x
_atom_site_fract_y
_atom_site_fract_z
Si Si1 0.866368 0.331103 0.436130
Si Si2 0.711002 0.669117 0.427032
Si Si3 0.737186 0.678137 0.189680
Si Si4 0.403538 0.830047 0.792210
Si Si5 0.732791 0.830134 0.070656
Si Si6 0.557153 0.325024 0.704426
Si Si7 0.209190 0.175200 0.713551
O O1 0.894091 0.500000 0.437356
O O2 0.786813 0.331362 0.434887
O O3 0.856925 0.245284 0.504997
O O4 0.929492 0.247536 0.368199
O O5 0.687025 0.500000 0.419777
O O6 0.724445 0.763453 0.359354
O O7 0.736161 0.500000 0.189606
O O8 0.650652 0.742953 0.233922
O O9 0.773104 0.740745 0.110072
O O10 0.788812 0.737524 0.223091
O O11 0.358705 0.829722 0.877065
O O12 0.482947 0.746011 0.767256
O O13 0.417326 0.000000 0.763252
O O14 0.764377 0.000000 0.055022
O O15 0.750000 0.750000 0.000000
O O16 0.544917 0.500000 0.699735
O O17 0.626986 0.290967 0.719795
O O18 0.222941 0.000000 0.718462
#
# Coordination Sequence:
#
# PCOD8085612 Si02
#       7
#     8   8   8   8   8   8   8
#     4   9  16  26  41  62  91 125 161 203 246 285
#     4   9  16  26  41  63  90 123 164 204 243 286
#     4  10  19  32  51  74  99 129 163 199 239 285
#     4   9  19  33  50  73 100 128 160 199 240 286
#     4   9  18  32  53  78 100 126 159 198 236 279
#     4  10  19  30  48  72  99 130 164 203 245 289
#     4  10  19  31  47  71 101 130 163 203 247 289
#
# _framework density 16.481034999999999
#
# number of rings (size 3 to 8) (size 9 to 14) (size 15 to 20)
#    0.857    1.714    0.000    3.429    0.000    5.143 
#    0.000    0.000    0.000    1.714    0.000   12.000 
#    0.000    0.000    0.000    0.000    0.000    0.000 
#
# Total GULP energy -347043.403225 kJ/mol
# GULP energy per Si atom -12394.407258 kJ/mol
# Density = 1.644352 g / cm^3
# Si number density = 16.481035 Si / 1000 Ang^3
#
#
#
# Elastic Constant Matrix: (Units=GPa)
#
#
# Indices 1 2 3 4 5 6 
#
# 1 34.6822 33.3173 20.5903 0.0000 -1.8267 -0.0003
# 2 33.3173 140.9044 36.0062 -0.0001 -0.5926 -0.0008
# 3 20.5903 36.0062 71.3642 0.0001 0.2904 0.0000
# 4 0.0000 -0.0001 0.0001 35.7065 0.0000 0.9134
# 5 -1.8267 -0.5926 0.2904 0.0000 19.4736 0.0000
# 6 -0.0003 -0.0008 0.0000 0.9134 0.0000 24.4128
#
#
#
# Elastic Compliance Matrix: (Units=1/GPa)
#
#
# Indices 1 2 3 4 5 6 
#
# 1 0.041158 -0.007666 -0.008022 0.000000 0.003747 0.000000
# 2 -0.007666 0.009577 -0.002619 0.000000 -0.000389 0.000000
# 3 -0.008022 -0.002619 0.017653 0.000000 -0.001095 0.000000
# 4 0.000000 0.000000 0.000000 0.028033 0.000000 -0.001049
# 5 0.003747 -0.000389 -0.001095 0.000000 0.051707 0.000000
# 6 0.000000 0.000000 0.000000 -0.001049 0.000000 0.041001
#
#
# Mechanical properties :
#
#
# Convention : Reuss Voigt Hill
#
# Bulk Modulus (GPa) = 31.47263 47.41983 39.44623
# Shear Modulus (GPa) = 21.15638 26.38772 23.77205
#
# Velocity S-wave (km/s) = 3.58674 4.00571 3.80200
# Velocity P-wave (km/s) = 6.02417 7.08725 6.57722
#
# Compressibility (1/GPa) = 0.03177364
#
# Stress axis : x y z
#
# Youngs Moduli (GPa) = 24.29673 104.41450 56.64773
#
# Poissons Ratio (x) = 0.80045 0.45445
# Poissons Ratio (y) = 0.18626 0.14834
# Poissons Ratio (z) = 0.19492 0.27343
#
# Static dielectric constant tensor:
#      x y z
#    x 2.678380 0.000000 -0.002330 
#    y 0.000000 3.305300 0.000000 
#    z -0.002330 0.000000 3.027270 
# 
# 
# High freq. dielectric constant tensor:
#      x y z
#    x 1.584850 0.000000 0.001850 
#    y 0.000000 1.659420 0.000000 
#    z 0.001850 0.000000 1.626160 
# 
# From -- ./inp_files/319002.got.cif
#   From: 2010.06.25/outbox.cif.g09.slc.cpg/sg12_160_cif.got.tgz:319002.got - 2010.06.28 00:19:55.
