data_PCOD8085374
_publ_section_title
;
Structure prediction by ZEFSAII (Michael W. Deem and Ramdas Pophale) SiO2 
 PCOD8085374
Probable space group: C 2/M
;
_chemical_formula_sum "Si O2"
_cell_formula_units_Z 56
_cell_length_a 28.434802
_cell_length_b 8.845044
_cell_length_c 17.114063
_cell_angle_alpha 90.000000
_cell_angle_beta 128.892749
_cell_angle_gamma 90.000000
_cell_volume 3350.140192
_symmetry_space_group_name_H-M "C 2/M"
_symmetry_group_IT_number 12
_symmetry_cell_setting 'monoclinic'
loop_
_space_group_symop_operation_xyz
x,y,z
-x,y,-z
-x,-y,-z
x,-y,z
1/2+x,1/2+y,z
1/2-x,1/2+y,-z
1/2-x,1/2-y,-z
1/2+x,1/2-y,z
loop_
_atom_site_type_symbol
_atom_site_label
_atom_site_fract_x
_atom_site_fract_y
_atom_site_fract_z
Si Si1 0.230087 0.675809 0.364223
Si Si2 0.909070 0.329627 0.413074
Si Si3 0.540327 0.823000 0.367262
Si Si4 0.729318 0.829363 0.740055
Si Si5 0.919246 0.177406 0.263907
Si Si6 0.654968 0.323275 0.413199
Si Si7 0.706822 0.820570 0.891202
O O1 0.215654 0.500000 0.357258
O O2 0.230542 0.722510 0.273506
O O3 0.294429 0.717872 0.469809
O O4 0.177245 0.768198 0.351724
O O5 0.924731 0.500000 0.400403
O O6 0.946722 0.285936 0.528577
O O7 0.839008 0.319736 0.361773
O O8 0.925852 0.213458 0.362613
O O9 0.477831 0.740539 0.279496
O O10 0.593197 0.761264 0.367926
O O11 0.534084 0.000000 0.345787
O O12 0.732551 0.773146 0.832989
O O13 0.753834 0.000000 0.758542
O O14 0.860249 0.256636 0.166451
O O15 0.913781 0.000000 0.245098
O O16 0.641863 0.500000 0.397058
O O17 0.704041 0.000000 0.896221
O O18 0.750000 0.750000 0.000000
#
# Coordination Sequence:
#
# PCOD8085374 Si02
#       7
#     8   8   8   8   8   8   8
#     4  10  19  30  46  69  97 132 172 209 247 290
#     4   9  18  31  46  66  96 134 170 204 244 290
#     4  11  20  32  48  67  97 135 172 207 247 292
#     4   9  17  31  50  72  99 131 165 203 249 297
#     4  11  22  33  48  71  99 130 166 205 246 298
#     4  10  20  31  45  67  98 134 173 212 247 287
#     4  10  21  38  57  78 101 128 162 205 256 302
#
# _framework density 16.715719
#
# number of rings (size 3 to 8) (size 9 to 14) (size 15 to 20)
#    0.000    2.000    1.429    4.286    0.000    6.857 
#    0.000    0.000    0.000    0.000    0.000    1.000 
#    0.000    8.000    0.000    0.000    0.000    0.000 
#
# Total GULP energy -347241.231648 kJ/mol
# GULP energy per Si atom -12401.472559 kJ/mol
# Density = 1.667767 g / cm^3
# Si number density = 16.715719 Si / 1000 Ang^3
#
#
#
# Elastic Constant Matrix: (Units=GPa)
#
#
# Indices 1 2 3 4 5 6 
#
# 1 102.9407 52.0025 48.4535 0.0000 7.9807 0.0000
# 2 52.0025 85.9924 40.3513 0.0000 0.7463 0.0000
# 3 48.4535 40.3513 84.9680 0.0000 4.3590 0.0000
# 4 0.0000 0.0000 0.0000 23.5318 0.0000 0.2566
# 5 7.9807 0.7463 4.3590 0.0000 14.5725 0.0000
# 6 0.0000 0.0000 0.0000 0.2566 0.0000 33.6553
#
#
#
# Elastic Compliance Matrix: (Units=1/GPa)
#
#
# Indices 1 2 3 4 5 6 
#
# 1 0.016622 -0.007351 -0.005627 0.000000 -0.007044 0.000000
# 2 -0.007351 0.018241 -0.004702 0.000000 0.004498 0.000000
# 3 -0.005627 -0.004702 0.017306 0.000000 -0.001854 0.000000
# 4 0.000000 0.000000 0.000000 0.042499 0.000000 -0.000324
# 5 -0.007044 0.004498 -0.001854 0.000000 0.072804 0.000000
# 6 0.000000 0.000000 0.000000 -0.000324 0.000000 0.029715
#
#
# Mechanical properties :
#
#
# Convention : Reuss Voigt Hill
#
# Bulk Modulus (GPa) = 59.48474 61.72399 60.60437
# Shear Modulus (GPa) = 20.99516 23.22485 22.11001
#
# Velocity S-wave (km/s) = 3.54787 3.73151 3.64085
# Velocity P-wave (km/s) = 7.24200 7.45463 7.34908
#
# Compressibility (1/GPa) = 0.01681103
#
# Stress axis : x y z
#
# Youngs Moduli (GPa) = 60.16075 54.82059 57.78380
#
# Poissons Ratio (x) = 0.40296 0.32514
# Poissons Ratio (y) = 0.44221 0.27169
# Poissons Ratio (z) = 0.33851 0.25776
#
# Static dielectric constant tensor:
#      x y z
#    x 3.137930 0.000000 0.078550 
#    y 0.000000 3.154500 0.000000 
#    z 0.078550 0.000000 2.444040 
# 
# 
# High freq. dielectric constant tensor:
#      x y z
#    x 1.644780 0.000000 0.004550 
#    y 0.000000 1.655090 0.000000 
#    z 0.004550 0.000000 1.599240 
# 
# From -- ./inp_files/291824.got.cif
#   From: 2010.06.25/outbox.cif.g09.slc.cpg/sg12_146_cif.got.tgz:291824.got - 2010.06.28 00:19:55.
