data_PCOD8085299
_publ_section_title
;
Structure prediction by ZEFSAII (Michael W. Deem and Ramdas Pophale) SiO2 
 PCOD8085299
Probable space group: C 2/M
;
_chemical_formula_sum "Si O2"
_cell_formula_units_Z 56
_cell_length_a 30.090680
_cell_length_b 9.135015
_cell_length_c 19.108293
_cell_angle_alpha 90.000000
_cell_angle_beta 142.282610
_cell_angle_gamma 90.000000
_cell_volume 3213.285528
_symmetry_space_group_name_H-M "C 2/M"
_symmetry_group_IT_number 12
_symmetry_cell_setting 'monoclinic'
loop_
_space_group_symop_operation_xyz
x,y,z
-x,y,-z
-x,-y,-z
x,-y,z
1/2+x,1/2+y,z
1/2-x,1/2+y,-z
1/2-x,1/2-y,-z
1/2+x,1/2-y,z
loop_
_atom_site_type_symbol
_atom_site_label
_atom_site_fract_x
_atom_site_fract_y
_atom_site_fract_z
Si Si1 0.374360 0.332066 0.272770
Si Si2 0.560916 0.329684 0.021073
Si Si3 0.217380 0.334619 0.086259
Si Si4 0.220876 0.168002 0.230216
Si Si5 0.639951 0.672552 0.587090
Si Si6 0.998331 0.173660 0.327839
Si Si7 0.058926 0.331649 0.872291
O O1 0.397730 0.500000 0.307669
O O2 0.293075 0.313671 0.137645
O O3 0.375669 0.267672 0.353537
O O4 0.434507 0.258652 0.297699
O O5 0.553851 0.500000 0.990885
O O6 0.639093 0.301691 0.156504
O O7 0.500000 0.281508 0.000000
O O8 0.550747 0.232238 0.939633
O O9 0.218572 0.500000 0.120724
O O10 0.217705 0.211432 0.145329
O O11 0.143037 0.315548 0.949800
O O12 0.284271 0.260141 0.347757
O O13 0.242623 0.000000 0.264929
O O14 0.649122 0.500000 0.599273
O O15 0.575006 0.721811 0.455852
O O16 0.992977 0.244857 0.244901
O O17 0.991781 0.000000 0.311314
O O18 0.034680 0.500000 0.843588
#
# Coordination Sequence:
#
# PCOD8085299 Si02
#       7
#     8   8   8   8   8   8   8
#     4   8  14  27  47  67  86 118 168 209 230 260
#     4   9  18  34  56  78  96 115 144 184 229 282
#     4   8  15  29  46  63  89 124 157 191 231 274
#     4   9  16  27  47  73  95 116 145 185 232 276
#     4   9  17  30  47  66  92 127 165 200 230 265
#     4  10  19  30  46  66  91 129 169 199 228 266
#     4  10  20  32  46  69 100 127 151 186 236 285
#
# _framework density 17.427645999999999
#
# number of rings (size 3 to 8) (size 9 to 14) (size 15 to 20)
#    0.000    3.000    0.000    2.143    0.000    4.286 
#    0.000    2.857    0.000    5.143    0.000    0.000 
#    0.000    0.000    0.000    0.000    0.000    0.000 
#
# Total GULP energy -346899.702589 kJ/mol
# GULP energy per Si atom -12389.275092 kJ/mol
# Density = 1.738798 g / cm^3
# Si number density = 17.427646 Si / 1000 Ang^3
#
#
#
# Elastic Constant Matrix: (Units=GPa)
#
#
# Indices 1 2 3 4 5 6 
#
# 1 86.3554 33.8130 53.6444 0.0000 20.1935 0.0000
# 2 33.8130 47.3366 39.0524 0.0000 6.7443 0.0000
# 3 53.6444 39.0524 112.5872 0.0000 10.7505 0.0000
# 4 0.0000 0.0000 0.0000 26.7764 0.0000 3.5632
# 5 20.1935 6.7443 10.7505 0.0000 22.3399 0.0000
# 6 0.0000 0.0000 0.0000 3.5632 0.0000 16.6442
#
#
#
# Elastic Compliance Matrix: (Units=1/GPa)
#
#
# Indices 1 2 3 4 5 6 
#
# 1 0.022215 -0.008705 -0.006183 0.000000 -0.014477 0.000000
# 2 -0.008705 0.033383 -0.007569 0.000000 0.001432 0.000000
# 3 -0.006183 -0.007569 0.014361 0.000000 0.000963 0.000000
# 4 0.000000 0.000000 0.000000 0.038441 0.000000 -0.008230
# 5 -0.014477 0.001432 0.000963 0.000000 0.056953 0.000000
# 6 0.000000 0.000000 0.000000 -0.008230 0.000000 0.061843
#
#
# Mechanical properties :
#
#
# Convention : Reuss Voigt Hill
#
# Bulk Modulus (GPa) = 39.92555 55.47765 47.70160
# Shear Modulus (GPa) = 17.82800 21.13674 19.48237
#
# Velocity S-wave (km/s) = 3.20186 3.48635 3.34713
# Velocity P-wave (km/s) = 6.05213 6.93602 6.50910
#
# Compressibility (1/GPa) = 0.02504662
#
# Stress axis : x y z
#
# Youngs Moduli (GPa) = 45.01554 29.95529 69.63140
#
# Poissons Ratio (x) = 0.26075 0.43053
# Poissons Ratio (y) = 0.39184 0.52702
# Poissons Ratio (z) = 0.27833 0.22672
#
# Static dielectric constant tensor:
#      x y z
#    x 3.137070 0.000000 0.400410 
#    y 0.000000 3.093750 0.000000 
#    z 0.400410 0.000000 3.346920 
# 
# 
# High freq. dielectric constant tensor:
#      x y z
#    x 1.640660 0.000000 0.030130 
#    y 0.000000 1.660340 0.000000 
#    z 0.030130 0.000000 1.669430 
# 
# From -- ./inp_files/287330.got.cif
#   From: 2010.06.25/outbox.cif.g09.slc.cpg/sg12_144_cif.got.tgz:287330.got - 2010.06.28 00:19:55.
