data_PCOD8085569
_publ_section_title
;
Structure prediction by ZEFSAII (Michael W. Deem and Ramdas Pophale) SiO2 
 PCOD8085569
Probable space group: C 2/M
;
_chemical_formula_sum "Si O2"
_cell_formula_units_Z 48
_cell_length_a 20.093635
_cell_length_b 8.936003
_cell_length_c 16.342218
_cell_angle_alpha 90.000000
_cell_angle_beta 114.805530
_cell_angle_gamma 90.000000
_cell_volume 2663.623561
_symmetry_space_group_name_H-M "C 2/M"
_symmetry_group_IT_number 12
_symmetry_cell_setting 'monoclinic'
loop_
_space_group_symop_operation_xyz
x,y,z
-x,y,-z
-x,-y,-z
x,-y,z
1/2+x,1/2+y,z
1/2-x,1/2+y,-z
1/2-x,1/2-y,-z
1/2+x,1/2-y,z
loop_
_atom_site_type_symbol
_atom_site_label
_atom_site_fract_x
_atom_site_fract_y
_atom_site_fract_z
Si Si1 0.559568 0.328197 0.960902
Si Si2 0.288069 0.823058 0.941891
Si Si3 0.183037 0.671477 0.768146
Si Si4 0.961790 0.831862 0.605528
Si Si5 0.969547 0.328443 0.218177
Si Si6 0.114873 0.831916 0.591853
O O1 0.584681 0.500000 0.964030
O O2 0.628129 0.226387 0.020199
O O3 0.500000 0.309214 0.000000
O O4 0.523638 0.273152 0.858124
O O5 0.247384 0.771959 0.838615
O O6 0.283907 0.000000 0.949192
O O7 0.250000 0.750000 0.000000
O O8 0.208185 0.500000 0.781030
O O9 0.110448 0.695095 0.784431
O O10 0.170614 0.722432 0.667781
O O11 0.898829 0.777336 0.509017
O O12 0.966738 0.722194 0.685843
O O13 0.038403 0.831007 0.598868
O O14 0.944119 0.000000 0.626603
O O15 0.983221 0.500000 0.201840
O O16 0.147162 0.000000 0.608476
#
# Coordination Sequence:
#
# PCOD8085569 Si02
#       6
#     8   8   8   8   8   8
#     4  11  24  40  57  77 104 139 178 221 267 315
#     4  12  23  36  56  79 105 139 177 219 264 314
#     4  10  19  30  47  74 105 137 172 214 260 308
#     4   8  14  25  42  64  96 134 171 210 255 307
#     4  10  19  30  48  73 102 137 174 215 261 309
#     4   8  14  25  41  65  97 134 170 209 257 305
#
# _framework density 18.020565000000001
#
# number of rings (size 3 to 8) (size 9 to 14) (size 15 to 20)
#    0.000    2.167    1.667    4.000    0.000    3.333 
#    0.000    3.333    0.000    0.000    0.000    1.167 
#    0.000    0.000    0.000    0.000    0.000    0.000 
#
# Total GULP energy -297558.308433 kJ/mol
# GULP energy per Si atom -12398.262851 kJ/mol
# Density = 1.797955 g / cm^3
# Si number density = 18.020565 Si / 1000 Ang^3
#
#
#
# Elastic Constant Matrix: (Units=GPa)
#
#
# Indices 1 2 3 4 5 6 
#
# 1 37.1282 36.2693 32.8820 0.0000 3.5962 0.0000
# 2 36.2693 134.1884 71.0987 0.0000 6.9551 0.0000
# 3 32.8820 71.0987 150.3584 0.0000 16.0579 0.0000
# 4 0.0000 0.0000 0.0000 36.5709 0.0000 4.9553
# 5 3.5962 6.9551 16.0579 0.0000 14.6043 0.0000
# 6 0.0000 0.0000 0.0000 4.9553 0.0000 18.6618
#
#
#
# Elastic Compliance Matrix: (Units=1/GPa)
#
#
# Indices 1 2 3 4 5 6 
#
# 1 0.038964 -0.008032 -0.004653 0.000000 -0.000653 0.000000
# 2 -0.008032 0.011602 -0.003797 0.000000 0.000627 0.000000
# 3 -0.004653 -0.003797 0.010365 0.000000 -0.008443 0.000000
# 4 0.000000 0.000000 0.000000 0.028365 0.000000 -0.007532
# 5 -0.000653 0.000627 -0.008443 0.000000 0.077618 0.000000
# 6 0.000000 0.000000 0.000000 -0.007532 0.000000 0.055585
#
#
# Mechanical properties :
#
#
# Convention : Reuss Voigt Hill
#
# Bulk Modulus (GPa) = 35.75537 66.90830 51.33184
# Shear Modulus (GPa) = 18.88305 26.06242 22.47274
#
# Velocity S-wave (km/s) = 3.24058 3.80710 3.53521
# Velocity P-wave (km/s) = 5.82120 7.51896 6.72388
#
# Compressibility (1/GPa) = 0.02796783
#
# Stress axis : x y z
#
# Youngs Moduli (GPa) = 25.66442 86.18940 96.47450
#
# Poissons Ratio (x) = 0.69229 0.44893
# Poissons Ratio (y) = 0.20614 0.36629
# Poissons Ratio (z) = 0.11942 0.32724
#
# Static dielectric constant tensor:
#      x y z
#    x 1.794790 0.000000 -0.414030 
#    y 0.000000 3.461160 0.000000 
#    z -0.414030 0.000000 3.446170 
# 
# 
# High freq. dielectric constant tensor:
#      x y z
#    x 1.629340 0.000000 0.015250 
#    y 0.000000 1.706960 0.000000 
#    z 0.015250 0.000000 1.718550 
# 
# From -- ./inp_files/230374.got.cif
#   From: 2010.06.25/outbox.cif.g09.slc.cpg/sg12_116_cif.got.tgz:230374.got - 2010.06.28 00:19:55.
