data_PCOD8085131
_publ_section_title
;
Structure prediction by ZEFSAII (Michael W. Deem and Ramdas Pophale) SiO2 
 PCOD8085131
Probable space group: C 2/M
;
_chemical_formula_sum "Si O2"
_cell_formula_units_Z 64
_cell_length_a 24.488248
_cell_length_b 9.376073
_cell_length_c 16.963927
_cell_angle_alpha 90.000000
_cell_angle_beta 93.745452
_cell_angle_gamma 90.000000
_cell_volume 3886.659485
_symmetry_space_group_name_H-M "C 2/M"
_symmetry_group_IT_number 12
_symmetry_cell_setting 'monoclinic'
loop_
_space_group_symop_operation_xyz
x,y,z
-x,y,-z
-x,-y,-z
x,-y,z
1/2+x,1/2+y,z
1/2-x,1/2+y,-z
1/2-x,1/2-y,-z
1/2+x,1/2-y,z
loop_
_atom_site_type_symbol
_atom_site_label
_atom_site_fract_x
_atom_site_fract_y
_atom_site_fract_z
Si Si1 0.442372 0.337451 0.181561
Si Si2 0.146043 0.166153 0.950069
Si Si3 0.655850 0.668745 0.127704
Si Si4 0.132351 0.666426 0.712555
Si Si5 0.956860 0.330955 0.609898
Si Si6 0.063097 0.167028 0.234751
Si Si7 0.221519 0.332232 0.839762
Si Si8 0.073443 0.332696 0.559777
O O1 0.432119 0.500000 0.206384
O O2 0.413497 0.307476 0.094655
O O3 0.416397 0.239768 0.245392
O O4 0.506689 0.303635 0.182373
O O5 0.193061 0.250957 0.908741
O O6 0.162381 0.000000 0.949791
O O7 0.143700 0.226069 0.038653
O O8 0.650952 0.500000 0.126536
O O9 0.611252 0.729951 0.184227
O O10 0.715956 0.718391 0.161518
O O11 0.121695 0.500000 0.721523
O O12 0.191482 0.707945 0.754083
O O13 0.126029 0.709888 0.619221
O O14 0.952981 0.500000 0.625110
O O15 0.933517 0.249426 0.682815
O O16 0.920874 0.279776 0.529991
O O17 0.018534 0.277596 0.598020
O O18 0.070863 0.000000 0.252976
O O19 0.217557 0.500000 0.857277
O O20 0.065893 0.500000 0.552564
#
# Coordination Sequence:
#
# PCOD8085131 Si02
#       8
#     8   8   8   8   8   8   8   8
#     4   9  17  27  41  64  88 112 142 175 213 251
#     4   9  17  30  47  64  85 112 143 182 220 250
#     4   9  18  31  45  62  86 118 149 175 208 253
#     4   9  15  26  46  67  86 109 138 175 217 255
#     4   9  16  28  45  64  87 113 141 174 211 254
#     4  10  19  30  43  61  90 120 145 173 207 254
#     4   9  17  29  47  68  86 108 143 183 217 249
#     4   8  14  25  44  67  87 109 138 173 213 255
#
# _framework density 16.466583
#
# number of rings (size 3 to 8) (size 9 to 14) (size 15 to 20)
#    0.000    3.000    1.250    1.125    0.000    0.500 
#    0.000    5.625    0.000    0.750    0.000    4.375 
#    0.000    0.000    0.000    0.000    0.000    0.000 
#
# Total GULP energy -396541.239666 kJ/mol
# GULP energy per Si atom -12391.913740 kJ/mol
# Density = 1.642910 g / cm^3
# Si number density = 16.466583 Si / 1000 Ang^3
#
#
#
# Elastic Constant Matrix: (Units=GPa)
#
#
# Indices 1 2 3 4 5 6 
#
# 1 116.3323 27.9189 82.5867 0.0000 5.2748 0.0000
# 2 27.9189 26.3061 30.7071 0.0000 1.7638 0.0000
# 3 82.5867 30.7071 146.6744 0.0000 17.6115 0.0000
# 4 0.0000 0.0000 0.0000 22.6873 0.0000 -2.0734
# 5 5.2748 1.7638 17.6115 0.0000 20.7107 0.0000
# 6 0.0000 0.0000 0.0000 -2.0734 0.0000 15.9879
#
#
#
# Elastic Compliance Matrix: (Units=1/GPa)
#
#
# Indices 1 2 3 4 5 6 
#
# 1 0.015763 -0.008130 -0.007545 0.000000 0.003094 0.000000
# 2 -0.008130 0.055010 -0.007379 0.000000 0.003660 0.000000
# 3 -0.007545 -0.007379 0.013704 0.000000 -0.009103 0.000000
# 4 0.000000 0.000000 0.000000 0.044606 0.000000 0.005785
# 5 0.003094 0.003660 -0.009103 0.000000 0.054925 0.000000
# 6 0.000000 0.000000 0.000000 0.005785 0.000000 0.063297
#
#
# Mechanical properties :
#
#
# Convention : Reuss Voigt Hill
#
# Bulk Modulus (GPa) = 26.06193 63.52648 44.79420
# Shear Modulus (GPa) = 16.32904 21.75054 19.03979
#
# Velocity S-wave (km/s) = 3.15246 3.63835 3.40408
# Velocity P-wave (km/s) = 5.39557 7.50419 6.53548
#
# Compressibility (1/GPa) = 0.03837014
#
# Stress axis : x y z
#
# Youngs Moduli (GPa) = 63.43829 18.17863 72.97137
#
# Poissons Ratio (x) = 0.14779 0.55058
# Poissons Ratio (y) = 0.51574 0.53842
# Poissons Ratio (z) = 0.47865 0.13413
#
# Static dielectric constant tensor:
#      x y z
#    x 3.083580 0.000000 0.252360 
#    y 0.000000 2.874870 0.000000 
#    z 0.252360 0.000000 3.449520 
# 
# 
# High freq. dielectric constant tensor:
#      x y z
#    x 1.611360 0.000000 0.023280 
#    y 0.000000 1.608000 0.000000 
#    z 0.023280 0.000000 1.643090 
# 
# From -- ./inp_files/287607.got.cif
#   From: 2010.06.25/outbox.cif.g09.slc.cpg/sg12_144_cif.got.tgz:287607.got - 2010.06.28 00:19:55.
