data_PCOD8085201
_publ_section_title
;
Structure prediction by ZEFSAII (Michael W. Deem and Ramdas Pophale) SiO2 
 PCOD8085201
Probable space group: C 2/M
;
_chemical_formula_sum "Si O2"
_cell_formula_units_Z 56
_cell_length_a 27.014647
_cell_length_b 8.916286
_cell_length_c 17.301598
_cell_angle_alpha 90.000000
_cell_angle_beta 54.041547
_cell_angle_gamma 90.000000
_cell_volume 3373.306305
_symmetry_space_group_name_H-M "C 2/M"
_symmetry_group_IT_number 12
_symmetry_cell_setting 'monoclinic'
loop_
_space_group_symop_operation_xyz
x,y,z
-x,y,-z
-x,-y,-z
x,-y,z
1/2+x,1/2+y,z
1/2-x,1/2+y,-z
1/2-x,1/2-y,-z
1/2+x,1/2-y,z
loop_
_atom_site_type_symbol
_atom_site_label
_atom_site_fract_x
_atom_site_fract_y
_atom_site_fract_z
Si Si1 0.655058 0.326270 0.110551
Si Si2 0.040259 0.671858 0.279462
Si Si3 0.101114 0.672661 0.387346
Si Si4 0.228233 0.823069 0.280581
Si Si5 0.712752 0.674800 0.466664
Si Si6 0.762329 0.826828 0.105737
Si Si7 0.425384 0.677201 0.434432
O O1 0.647768 0.500000 0.138624
O O2 0.590188 0.244486 0.176974
O O3 0.704238 0.256182 0.122978
O O4 0.677664 0.304484 0.001611
O O5 0.031104 0.500000 0.263132
O O6 0.059549 0.687085 0.350452
O O7 0.976240 0.760693 0.328311
O O8 0.118235 0.500000 0.388705
O O9 0.161211 0.769858 0.316892
O O10 0.064285 0.740811 0.493190
O O11 0.240428 0.774929 0.358169
O O12 0.275892 0.742922 0.178274
O O13 0.232869 0.000000 0.266437
O O14 0.720630 0.500000 0.469821
O O15 0.750000 0.750000 0.500000
O O16 0.641455 0.719565 0.537311
O O17 0.744251 0.000000 0.130152
O O18 0.432157 0.500000 0.439985
#
# Coordination Sequence:
#
# PCOD8085201 Si02
#       7
#     8   8   8   8   8   8   8
#     4  10  20  31  46  66  96 134 169 205 240 276
#     4  11  21  31  45  68  97 130 169 201 234 281
#     4  10  19  30  44  66  96 128 165 201 231 276
#     4  10  19  31  49  72  98 129 164 199 243 291
#     4   9  20  36  53  75  97 122 157 198 244 294
#     4  10  19  31  46  69  96 129 170 205 240 281
#     4  10  21  34  48  68  95 126 162 197 240 293
#
# _framework density 16.600923999999999
#
# number of rings (size 3 to 8) (size 9 to 14) (size 15 to 20)
#    0.000    2.000    1.429    3.857    0.000    8.571 
#    0.000    0.000    0.000    0.000    0.000    1.000 
#    0.000    8.000    0.000    0.000    0.000    0.000 
#
# Total GULP energy -347185.852177 kJ/mol
# GULP energy per Si atom -12399.494721 kJ/mol
# Density = 1.656314 g / cm^3
# Si number density = 16.600924 Si / 1000 Ang^3
#
#
#
# Elastic Constant Matrix: (Units=GPa)
#
#
# Indices 1 2 3 4 5 6 
#
# 1 63.4923 36.2095 46.7210 -0.0001 5.3458 0.0000
# 2 36.2095 79.8858 54.8047 -0.0006 3.5363 0.0005
# 3 46.7210 54.8047 123.7610 -0.0003 -3.6568 0.0001
# 4 -0.0001 -0.0006 -0.0003 33.1546 0.0000 -0.4485
# 5 5.3458 3.5363 -3.6568 0.0000 17.2189 0.0000
# 6 0.0000 0.0005 0.0001 -0.4485 0.0000 23.5458
#
#
#
# Elastic Compliance Matrix: (Units=1/GPa)
#
#
# Indices 1 2 3 4 5 6 
#
# 1 0.025099 -0.006264 -0.006937 0.000000 -0.007979 0.000000
# 2 -0.006264 0.020060 -0.006624 0.000000 -0.003582 0.000000
# 3 -0.006937 -0.006624 0.013823 0.000000 0.006450 0.000000
# 4 0.000000 0.000000 0.000000 0.030169 0.000000 0.000575
# 5 -0.007979 -0.003582 0.006450 0.000000 0.062658 0.000000
# 6 0.000000 0.000000 0.000000 0.000575 0.000000 0.042481
#
#
# Mechanical properties :
#
#
# Convention : Reuss Voigt Hill
#
# Bulk Modulus (GPa) = 51.72999 60.28994 56.00996
# Shear Modulus (GPa) = 20.79996 23.41079 22.10538
#
# Velocity S-wave (km/s) = 3.54353 3.75935 3.65303
# Velocity P-wave (km/s) = 6.92609 7.43234 7.18367
#
# Compressibility (1/GPa) = 0.01933115
#
# Stress axis : x y z
#
# Youngs Moduli (GPa) = 39.84277 49.84968 72.34451
#
# Poissons Ratio (x) = 0.31227 0.50184
# Poissons Ratio (y) = 0.24959 0.47923
# Poissons Ratio (z) = 0.27638 0.33022
#
# Static dielectric constant tensor:
#      x y z
#    x 2.781300 0.000000 0.048650 
#    y 0.000000 3.285580 0.000000 
#    z 0.048650 0.000000 3.476470 
# 
# 
# High freq. dielectric constant tensor:
#      x y z
#    x 1.584800 0.000000 -0.004890 
#    y 0.000000 1.658530 0.000000 
#    z -0.004890 0.000000 1.647800 
# 
# From -- ./inp_files/291805.got.cif
#   From: 2010.06.25/outbox.cif.g09.slc.cpg/sg12_146_cif.got.tgz:291805.got - 2010.06.28 00:19:55.
