data_PCOD8085581
_publ_section_title
;
Structure prediction by ZEFSAII (Michael W. Deem and Ramdas Pophale) SiO2 
 PCOD8085581
Probable space group: C 2/M
;
_chemical_formula_sum "Si O2"
_cell_formula_units_Z 56
_cell_length_a 26.099124
_cell_length_b 9.249581
_cell_length_c 13.559807
_cell_angle_alpha 90.000000
_cell_angle_beta 62.311438
_cell_angle_gamma 90.000000
_cell_volume 2898.567354
_symmetry_space_group_name_H-M "C 2/M"
_symmetry_group_IT_number 12
_symmetry_cell_setting 'monoclinic'
loop_
_space_group_symop_operation_xyz
x,y,z
-x,y,-z
-x,-y,-z
x,-y,z
1/2+x,1/2+y,z
1/2-x,1/2+y,-z
1/2-x,1/2-y,-z
1/2+x,1/2-y,z
loop_
_atom_site_type_symbol
_atom_site_label
_atom_site_fract_x
_atom_site_fract_y
_atom_site_fract_z
Si Si1 0.928802 0.335783 0.978823
Si Si2 0.766246 0.835629 0.217600
Si Si3 0.467435 0.164943 0.254903
Si Si4 0.385577 0.328656 0.201640
Si Si5 0.163732 0.838246 0.035988
Si Si6 0.837405 0.162817 0.741030
Si Si7 0.531967 0.667211 0.368809
O O1 0.912389 0.500000 0.023866
O O2 0.886547 0.280141 0.930322
O O3 0.993350 0.330967 0.878450
O O4 0.922718 0.229358 0.076453
O O5 0.818035 0.788003 0.244950
O O6 0.707392 0.746930 0.289666
O O7 0.749892 0.000000 0.251959
O O8 0.785482 0.809305 0.087406
O O9 0.408465 0.251382 0.280675
O O10 0.498542 0.239479 0.318452
O O11 0.452506 0.000000 0.296778
O O12 0.394284 0.500000 0.201949
O O13 0.187292 0.826597 0.125674
O O14 0.138249 0.000000 0.039929
O O15 0.902464 0.226319 0.677768
O O16 0.838553 0.000000 0.700454
O O17 0.500000 0.686376 0.500000
O O18 0.533215 0.500000 0.332893
#
# Coordination Sequence:
#
# PCOD8085581 Si02
#       7
#     8   8   8   8   8   8   8
#     4  10  19  30  47  76 111 144 181 220 263 315
#     4   9  19  32  48  75 109 143 179 215 258 314
#     4  11  22  35  54  80 109 141 178 225 275 319
#     4  10  21  35  52  76 109 149 185 217 258 317
#     4   9  17  30  47  72 106 144 184 216 256 318
#     4  10  19  32  53  77 104 139 178 220 268 319
#     4  10  22  40  61  83 106 137 180 227 274 324
#
# _framework density 19.319889
#
# number of rings (size 3 to 8) (size 9 to 14) (size 15 to 20)
#    0.000    2.143    1.429    3.000    0.000    7.714 
#    0.000    0.000    0.000    0.857    0.000    0.000 
#    0.000    0.000    0.000    0.000    0.000    0.000 
#
# Total GULP energy -347109.525533 kJ/mol
# GULP energy per Si atom -12396.768769 kJ/mol
# Density = 1.927592 g / cm^3
# Si number density = 19.319889 Si / 1000 Ang^3
#
#
#
# Elastic Constant Matrix: (Units=GPa)
#
#
# Indices 1 2 3 4 5 6 
#
# 1 163.3604 86.5744 40.2867 0.0000 -6.0331 0.0000
# 2 86.5744 113.6570 27.4040 0.0000 -0.4440 0.0000
# 3 40.2867 27.4040 38.6822 0.0000 -3.4589 0.0000
# 4 0.0000 0.0000 0.0000 15.2518 0.0000 -2.4211
# 5 -6.0331 -0.4440 -3.4589 0.0000 10.5901 0.0000
# 6 0.0000 0.0000 0.0000 -2.4211 0.0000 36.0045
#
#
#
# Elastic Compliance Matrix: (Units=1/GPa)
#
#
# Indices 1 2 3 4 5 6 
#
# 1 0.011855 -0.007390 -0.006731 0.000000 0.004245 0.000000
# 2 -0.007390 0.015262 -0.003538 0.000000 -0.004726 0.000000
# 3 -0.006731 -0.003538 0.036066 0.000000 0.007796 0.000000
# 4 0.000000 0.000000 0.000000 0.066273 0.000000 0.004457
# 5 0.004245 -0.004726 0.007796 0.000000 0.099194 0.000000
# 6 0.000000 0.000000 0.000000 0.004457 0.000000 0.028074
#
#
# Mechanical properties :
#
#
# Convention : Reuss Voigt Hill
#
# Bulk Modulus (GPa) = 35.88927 69.35888 52.62407
# Shear Modulus (GPa) = 16.59295 23.13158 19.86227
#
# Velocity S-wave (km/s) = 2.93380 3.46395 3.20984
# Velocity P-wave (km/s) = 5.48570 7.20949 6.40584
#
# Compressibility (1/GPa) = 0.02786348
#
# Stress axis : x y z
#
# Youngs Moduli (GPa) = 84.35317 65.52020 27.72699
#
# Poissons Ratio (x) = 0.48423 0.18664
# Poissons Ratio (y) = 0.62341 0.09810
# Poissons Ratio (z) = 0.56781 0.23182
#
# Static dielectric constant tensor:
#      x y z
#    x 3.585550 0.000000 -0.018210 
#    y 0.000000 3.629100 0.000000 
#    z -0.018210 0.000000 3.081200 
# 
# 
# High freq. dielectric constant tensor:
#      x y z
#    x 1.760980 0.000000 -0.000920 
#    y 0.000000 1.754940 0.000000 
#    z -0.000920 0.000000 1.699370 
# 
# From -- ./inp_files/243604.got.cif
#   From: 2010.06.25/outbox.cif.g09.slc.cpg/sg12_122_cif.got.tgz:243604.got - 2010.06.28 00:19:55.
