data_PCOD8085689
_publ_section_title
;
Structure prediction by ZEFSAII (Michael W. Deem and Ramdas Pophale) SiO2 
 PCOD8085689
Probable space group: C 2/M
;
_chemical_formula_sum "Si O2"
_cell_formula_units_Z 56
_cell_length_a 27.944851
_cell_length_b 9.711385
_cell_length_c 11.765161
_cell_angle_alpha 90.000000
_cell_angle_beta 110.051145
_cell_angle_gamma 90.000000
_cell_volume 2999.337683
_symmetry_space_group_name_H-M "C 2/M"
_symmetry_group_IT_number 12
_symmetry_cell_setting 'monoclinic'
loop_
_space_group_symop_operation_xyz
x,y,z
-x,y,-z
-x,-y,-z
x,-y,z
1/2+x,1/2+y,z
1/2-x,1/2+y,-z
1/2-x,1/2-y,-z
1/2+x,1/2-y,z
loop_
_atom_site_type_symbol
_atom_site_label
_atom_site_fract_x
_atom_site_fract_y
_atom_site_fract_z
Si Si1 0.635936 0.844199 0.244270
Si Si2 0.654504 0.341274 0.669137
Si Si3 0.440086 0.662339 0.957373
Si Si4 0.245665 0.337725 0.380625
Si Si5 0.991200 0.348788 0.359830
Si Si6 0.911028 0.158694 0.182517
Si Si7 0.398260 0.847392 0.543286
O O1 0.694687 0.806301 0.264150
O O2 0.640600 0.832396 0.384820
O O3 0.621854 0.000000 0.194187
O O4 0.593817 0.740101 0.162994
O O5 0.645973 0.500000 0.633041
O O6 0.710201 0.293910 0.673306
O O7 0.643101 0.315115 0.795506
O O8 0.611873 0.259386 0.564821
O O9 0.435312 0.500000 0.930918
O O10 0.413175 0.708315 0.053886
O O11 0.500000 0.706293 0.000000
O O12 0.248807 0.500000 0.414906
O O13 0.250000 0.250000 0.500000
O O14 0.969872 0.500000 0.308488
O O15 0.046946 0.324100 0.351983
O O16 0.000000 0.337706 0.500000
O O17 0.954628 0.232293 0.287420
O O18 0.925937 0.000000 0.196539
O O19 0.395477 0.000000 0.485787
#
# Coordination Sequence:
#
# PCOD8085689 Si02
#       7
#     8   8   8   8   8   8   8
#     4  10  21  36  56  81 109 142 182 228 274 324
#     4  10  20  33  52  79 109 141 175 217 272 326
#     4  10  22  40  59  79 107 145 189 232 270 320
#     4  10  20  35  56  83 113 144 180 224 273 328
#     4  10  19  30  48  76 108 140 175 218 270 327
#     4  10  21  36  53  76 108 144 183 228 274 322
#     4  10  19  32  50  77 111 141 174 220 270 322
#
# _framework density 18.670788999999999
#
# number of rings (size 3 to 8) (size 9 to 14) (size 15 to 20)
#    0.000    2.000    2.857    0.857    0.000    2.857 
#    0.000    0.714    0.000    0.000    0.000    0.000 
#    0.000    0.000    0.000    0.000    0.000    0.000 
#
# Total GULP energy -346920.475571 kJ/mol
# GULP energy per Si atom -12390.016985 kJ/mol
# Density = 1.862829 g / cm^3
# Si number density = 18.670789 Si / 1000 Ang^3
#
#
#
# Elastic Constant Matrix: (Units=GPa)
#
#
# Indices 1 2 3 4 5 6 
#
# 1 107.8183 37.2428 42.6967 0.0000 -10.1820 0.0000
# 2 37.2428 48.9829 33.3755 0.0000 2.8668 0.0000
# 3 42.6967 33.3755 63.5226 0.0000 0.9966 0.0000
# 4 0.0000 0.0000 0.0000 -4.6065 0.0000 7.1017
# 5 -10.1820 2.8668 0.9966 0.0000 28.9991 0.0000
# 6 0.0000 0.0000 0.0000 7.1017 0.0000 18.2305
#
#
#
# Elastic Compliance Matrix: (Units=1/GPa)
#
#
# Indices 1 2 3 4 5 6 
#
# 1 0.014884 -0.007470 -0.006177 0.000000 0.006177 0.000000
# 2 -0.007470 0.035741 -0.013669 0.000000 -0.005686 0.000000
# 3 -0.006177 -0.013669 0.027103 0.000000 -0.001749 0.000000
# 4 0.000000 0.000000 0.000000 -0.135630 0.000000 0.052835
# 5 0.006177 -0.005686 -0.001749 0.000000 0.037275 0.000000
# 6 0.000000 0.000000 0.000000 0.052835 0.000000 0.034271
#
#
# Mechanical properties :
#
#
# Convention : Reuss Voigt Hill
#
# Bulk Modulus (GPa) = 43.29345 49.66154 46.47749
# Shear Modulus (GPa) = 65.81134 15.65854 40.73494
#
# Velocity S-wave (km/s) = 5.94347 2.89911 4.67598
# Velocity P-wave (km/s) = 8.38677 6.15327 7.35529
#
# Compressibility (1/GPa) = 0.02309818
#
# Stress axis : x y z
#
# Youngs Moduli (GPa) = 67.18414 27.97909 36.89596
#
# Poissons Ratio (x) = 0.20900 0.22790
# Poissons Ratio (y) = 0.50185 0.50432
# Poissons Ratio (z) = 0.41498 0.38244
#
# Static dielectric constant tensor:
#      x y z
#    x 4.195430 0.000000 -0.201050 
#    y 0.000000 3.397610 0.000000 
#    z -0.201050 0.000000 3.144450 
# 
# 
# High freq. dielectric constant tensor:
#      x y z
#    x 1.749370 0.000000 -0.013140 
#    y 0.000000 1.723030 0.000000 
#    z -0.013140 0.000000 1.687460 
# 
# From -- ./inp_files/186808.got.cif
#   From: 2010.06.25/outbox.cif.g09.slc.cpg/sg12_94_cif.got.tgz:186808.got - 2010.06.28 00:19:55.
