data_PCOD8085876
_publ_section_title
;
Structure prediction by ZEFSAII (Michael W. Deem and Ramdas Pophale) SiO2 
 PCOD8085876
Probable space group: C 2/M
;
_chemical_formula_sum "Si O2"
_cell_formula_units_Z 56
_cell_length_a 31.113719
_cell_length_b 9.388530
_cell_length_c 11.916267
_cell_angle_alpha 90.000000
_cell_angle_beta 120.849465
_cell_angle_gamma 90.000000
_cell_volume 2988.401251
_symmetry_space_group_name_H-M "C 2/M"
_symmetry_group_IT_number 12
_symmetry_cell_setting 'monoclinic'
loop_
_space_group_symop_operation_xyz
x,y,z
-x,y,-z
-x,-y,-z
x,-y,z
1/2+x,1/2+y,z
1/2-x,1/2+y,-z
1/2-x,1/2-y,-z
1/2+x,1/2-y,z
loop_
_atom_site_type_symbol
_atom_site_label
_atom_site_fract_x
_atom_site_fract_y
_atom_site_fract_z
Si Si1 0.672623 0.334336 0.397700
Si Si2 0.055771 0.668672 0.577990
Si Si3 0.515218 0.165274 0.900756
Si Si4 0.762649 0.662415 0.677360
Si Si5 0.917109 0.664041 0.630336
Si Si6 0.717082 0.834962 0.043200
Si Si7 0.896068 0.330104 0.130032
O O1 0.664540 0.500000 0.364629
O O2 0.708816 0.303983 0.551578
O O3 0.695463 0.265864 0.316464
O O4 0.619657 0.263165 0.349399
O O5 0.051206 0.500000 0.582317
O O6 0.084462 0.709895 0.502075
O O7 0.086338 0.729829 0.725143
O O8 0.000000 0.734855 0.500000
O O9 0.472628 0.188946 0.751201
O O10 0.566721 0.229634 0.917688
O O11 0.524626 0.000000 0.936714
O O12 0.500000 0.237702 0.000000
O O13 0.778997 0.500000 0.673929
O O14 0.758118 0.690584 0.802949
O O15 0.900767 0.500000 0.623693
O O16 0.717617 0.000000 0.009288
O O17 0.750000 0.750000 0.000000
O O18 0.660149 0.776512 0.968378
O O19 0.898632 0.500000 0.133333
#
# Coordination Sequence:
#
# PCOD8085876 Si02
#       7
#     8   8   8   8   8   8   8
#     4  10  21  36  55  78 106 139 175 222 274 322
#     4   9  15  27  46  73 105 131 166 214 255 296
#     4   9  17  28  47  78 109 136 172 219 266 311
#     4   9  20  39  57  76 103 138 182 227 268 312
#     4  10  19  30  52  81 106 135 172 217 266 318
#     4  10  22  37  56  80 109 142 178 222 268 320
#     4   9  17  30  48  74 105 137 172 215 262 305
#
# _framework density 18.739117
#
# number of rings (size 3 to 8) (size 9 to 14) (size 15 to 20)
#    0.000    2.571    1.429    0.429    4.000    1.143 
#    0.000    0.000    0.000    1.714    0.000    0.000 
#    0.000    0.000    0.000    0.000    0.000    0.000 
#
# Total GULP energy -347165.761567 kJ/mol
# GULP energy per Si atom -12398.777199 kJ/mol
# Density = 1.869647 g / cm^3
# Si number density = 18.739117 Si / 1000 Ang^3
#
#
#
# Elastic Constant Matrix: (Units=GPa)
#
#
# Indices 1 2 3 4 5 6 
#
# 1 142.0979 47.1080 39.6938 0.0000 -7.8349 0.0000
# 2 47.1080 51.1104 17.5671 0.0000 -3.2956 0.0000
# 3 39.6938 17.5671 82.1274 0.0000 -17.9492 0.0000
# 4 0.0000 0.0000 0.0000 12.7102 0.0000 -3.8574
# 5 -7.8349 -3.2956 -17.9492 0.0000 28.3369 0.0000
# 6 0.0000 0.0000 0.0000 -3.8574 0.0000 22.0340
#
#
#
# Elastic Compliance Matrix: (Units=1/GPa)
#
#
# Indices 1 2 3 4 5 6 
#
# 1 0.010939 -0.008919 -0.003418 0.000000 -0.000178 0.000000
# 2 -0.008919 0.028396 -0.001834 0.000000 -0.000325 0.000000
# 3 -0.003418 -0.001834 0.016212 0.000000 0.009110 0.000000
# 4 0.000000 0.000000 0.000000 0.083092 0.000000 0.014547
# 5 -0.000178 -0.000325 0.009110 0.000000 0.040973 0.000000
# 6 0.000000 0.000000 0.000000 0.014547 0.000000 0.047931
#
#
# Mechanical properties :
#
#
# Convention : Reuss Voigt Hill
#
# Bulk Modulus (GPa) = 36.75989 53.78594 45.27292
# Shear Modulus (GPa) = 18.87120 24.01402 21.44261
#
# Velocity S-wave (km/s) = 3.17685 3.58368 3.38638
# Velocity P-wave (km/s) = 5.75462 6.77410 6.28507
#
# Compressibility (1/GPa) = 0.02720356
#
# Stress axis : x y z
#
# Youngs Moduli (GPa) = 91.41296 35.21653 61.68369
#
# Poissons Ratio (x) = 0.31411 0.21085
# Poissons Ratio (y) = 0.81534 0.11313
# Poissons Ratio (z) = 0.31247 0.06459
#
# Static dielectric constant tensor:
#      x y z
#    x 3.504480 0.000000 -0.056910 
#    y 0.000000 2.952080 0.000000 
#    z -0.056910 0.000000 3.622530 
# 
# 
# High freq. dielectric constant tensor:
#      x y z
#    x 1.736300 0.000000 -0.004440 
#    y 0.000000 1.668780 0.000000 
#    z -0.004440 0.000000 1.737510 
# 
# From -- ./inp_files/187707.got.cif
#   From: 2010.06.25/outbox.cif.g09.slc.cpg/sg12_94_cif.got.tgz:187707.got - 2010.06.28 00:19:55.
