data_PCOD8085605
_publ_section_title
;
Structure prediction by ZEFSAII (Michael W. Deem and Ramdas Pophale) SiO2 
 PCOD8085605
Probable space group: C 2/M
;
_chemical_formula_sum "Si O2"
_cell_formula_units_Z 56
_cell_length_a 20.673127
_cell_length_b 8.040874
_cell_length_c 19.059450
_cell_angle_alpha 90.000000
_cell_angle_beta 99.180965
_cell_angle_gamma 90.000000
_cell_volume 3127.665105
_symmetry_space_group_name_H-M "C 2/M"
_symmetry_group_IT_number 12
_symmetry_cell_setting 'monoclinic'
loop_
_space_group_symop_operation_xyz
x,y,z
-x,y,-z
-x,-y,-z
x,-y,z
1/2+x,1/2+y,z
1/2-x,1/2+y,-z
1/2-x,1/2-y,-z
1/2+x,1/2-y,z
loop_
_atom_site_type_symbol
_atom_site_label
_atom_site_fract_x
_atom_site_fract_y
_atom_site_fract_z
Si Si1 0.390690 0.187657 0.682148
Si Si2 0.929261 0.691904 0.461767
Si Si3 0.318522 0.310838 0.540600
Si Si4 0.403684 0.682221 0.830922
Si Si5 0.431533 0.000000 0.077426
Si Si6 0.442081 0.685259 0.164195
Si Si7 0.467513 0.306498 0.324941
Si Si8 0.086789 0.500000 0.084045
O O1 0.335668 0.207860 0.613430
O O2 0.374591 0.298241 0.747606
O O3 0.460172 0.229987 0.659523
O O4 0.392441 0.000000 0.709896
O O5 0.919003 0.500000 0.479296
O O6 0.872904 0.795064 0.489841
O O7 0.923677 0.720491 0.377223
O O8 0.000000 0.756255 0.500000
O O9 0.313076 0.500000 0.563140
O O10 0.250000 0.250000 0.500000
O O11 0.381040 0.500000 0.855865
O O12 0.481537 0.685085 0.839162
O O13 0.380730 0.832534 0.877692
O O14 0.407717 0.832122 0.113492
O O15 0.509655 0.000000 0.085166
O O16 0.397776 0.000000 0.995743
O O17 0.413468 0.500000 0.141195
O O18 0.431964 0.726350 0.244544
O O19 0.474405 0.500000 0.341661
#
# Coordination Sequence:
#
# PCOD8085605 Si02
#       8
#     8   8   8   8   4   8   8   4
#     4  11  19  31  50  71  95 127 170 216 259 310
#     4  11  22  35  53  78 102 131 174 223 265 308
#     4  12  25  40  55  73 103 138 176 217 271 325
#     4   9  16  27  41  61  87 119 162 209 250 292
#     4   9  16  24  40  54  88 125 160 193 258 297
#     4   8  16  26  38  60  87 120 163 202 246 304
#     4  10  19  30  48  72  96 126 169 218 259 300
#     4   9  16  26  36  62  83 122 163 204 239 309
#
# _framework density 17.904730000000001
#
# number of rings (size 3 to 8) (size 9 to 14) (size 15 to 20)
#    0.000    2.000    2.143    4.286    4.000    1.143 
#    0.000    2.857    0.000    0.000    0.000    0.000 
#    0.000    0.000    0.000    1.286    4.571    1.143 
#
# Total GULP energy -347150.361191 kJ/mol
# GULP energy per Si atom -12398.227185 kJ/mol
# Density = 1.786398 g / cm^3
# Si number density = 17.904730 Si / 1000 Ang^3
#
#
#
# Elastic Constant Matrix: (Units=GPa)
#
#
# Indices 1 2 3 4 5 6 
#
# 1 41.1778 20.3006 22.2414 0.0000 3.7199 0.0000
# 2 20.3006 103.5238 53.6474 0.0000 -1.8178 0.0000
# 3 22.2414 53.6474 121.3680 0.0000 -0.5735 0.0000
# 4 0.0000 0.0000 0.0000 29.4796 0.0000 -2.3364
# 5 3.7199 -1.8178 -0.5735 0.0000 10.3395 0.0000
# 6 0.0000 0.0000 0.0000 -2.3364 0.0000 13.7703
#
#
#
# Elastic Compliance Matrix: (Units=1/GPa)
#
#
# Indices 1 2 3 4 5 6 
#
# 1 0.029280 -0.004065 -0.003623 0.000000 -0.011450 0.000000
# 2 -0.004065 0.013131 -0.005043 0.000000 0.003492 0.000000
# 3 -0.003623 -0.005043 0.011137 0.000000 0.001035 0.000000
# 4 0.000000 0.000000 0.000000 0.034384 0.000000 0.005834
# 5 -0.011450 0.003492 0.001035 0.000000 0.101508 0.000000
# 6 0.000000 0.000000 0.000000 0.005834 0.000000 0.073610
#
#
# Mechanical properties :
#
#
# Convention : Reuss Voigt Hill
#
# Bulk Modulus (GPa) = 35.60402 50.93871 43.27136
# Shear Modulus (GPa) = 16.78556 22.04323 19.41440
#
# Velocity S-wave (km/s) = 3.06517 3.51257 3.29647
# Velocity P-wave (km/s) = 5.69697 6.70541 6.22165
#
# Compressibility (1/GPa) = 0.02808672
#
# Stress axis : x y z
#
# Youngs Moduli (GPa) = 34.15257 76.15322 89.78860
#
# Poissons Ratio (x) = 0.30959 0.32530
# Poissons Ratio (y) = 0.13884 0.45279
# Poissons Ratio (z) = 0.12373 0.38403
#
# Static dielectric constant tensor:
#      x y z
#    x 2.664070 0.000000 -0.054690 
#    y 0.000000 3.671850 0.000000 
#    z -0.054690 0.000000 3.434440 
# 
# 
# High freq. dielectric constant tensor:
#      x y z
#    x 1.606510 0.000000 -0.005820 
#    y 0.000000 1.717940 0.000000 
#    z -0.005820 0.000000 1.697580 
# 
# From -- ./inp_files/280460.got.cif
#   From: 2010.06.25/outbox.cif.g09.slc.cpg/sg12_141_cif.got.tgz:280460.got - 2010.06.28 00:19:55.
