data_PCOD8085212
_publ_section_title
;
Structure prediction by ZEFSAII (Michael W. Deem and Ramdas Pophale) SiO2 
 PCOD8085212
Probable space group: C 2/M
;
_chemical_formula_sum "Si O2"
_cell_formula_units_Z 56
_cell_length_a 27.310457
_cell_length_b 9.045486
_cell_length_c 17.476327
_cell_angle_alpha 90.000000
_cell_angle_beta 53.108326
_cell_angle_gamma 90.000000
_cell_volume 3452.845747
_symmetry_space_group_name_H-M "C 2/M"
_symmetry_group_IT_number 12
_symmetry_cell_setting 'monoclinic'
loop_
_space_group_symop_operation_xyz
x,y,z
-x,y,-z
-x,-y,-z
x,-y,z
1/2+x,1/2+y,z
1/2-x,1/2+y,-z
1/2-x,1/2-y,-z
1/2+x,1/2-y,z
loop_
_atom_site_type_symbol
_atom_site_label
_atom_site_fract_x
_atom_site_fract_y
_atom_site_fract_z
Si Si1 0.713792 0.825511 0.466533
Si Si2 0.274779 0.174307 0.710855
Si Si3 0.225722 0.171336 0.913331
Si Si4 0.956709 0.174436 0.710189
Si Si5 0.153603 0.671848 0.104975
Si Si6 0.574338 0.832305 0.579289
Si Si7 0.409101 0.169274 0.611241
O O1 0.750000 0.750000 0.500000
O O2 0.743382 0.770884 0.357430
O O3 0.642659 0.777400 0.535670
O O4 0.719968 0.000000 0.469793
O O5 0.225816 0.215682 0.822866
O O6 0.340829 0.236910 0.672606
O O7 0.284215 0.000000 0.696926
O O8 0.293108 0.204223 0.883692
O O9 0.208968 0.000000 0.940905
O O10 0.174663 0.269851 0.002171
O O11 0.907435 0.243789 0.813814
O O12 0.945982 0.226354 0.633626
O O13 0.024985 0.229497 0.669013
O O14 0.953152 0.000000 0.720402
O O15 0.138644 0.500000 0.112402
O O16 0.561762 0.824243 0.500147
O O17 0.565424 0.000000 0.615914
O O18 0.410150 0.000000 0.641594
#
# Coordination Sequence:
#
# PCOD8085212 Si02
#       7
#     8   8   8   8   8   8   8
#     4   9  18  33  53  74  95 120 153 192 235 281
#     4   8  14  28  49  69  91 124 159 188 225 278
#     4   9  16  29  47  66  90 121 161 200 229 263
#     4  12  22  29  41  65  96 126 159 196 233 268
#     4  10  19  30  45  63  91 128 163 194 229 272
#     4   9  19  33  49  65  88 125 162 189 226 285
#     4   9  16  30  47  63  87 125 164 190 221 273
#
# _framework density 16.218506999999999
#
# number of rings (size 3 to 8) (size 9 to 14) (size 15 to 20)
#    0.000    2.571    1.429    3.857    0.000    3.429 
#    0.000    2.857    0.000    0.000    0.000    1.000 
#    0.000    8.000    0.000    0.000    0.000    0.000 
#
# Total GULP energy -347053.954526 kJ/mol
# GULP energy per Si atom -12394.784090 kJ/mol
# Density = 1.618159 g / cm^3
# Si number density = 16.218507 Si / 1000 Ang^3
#
#
#
# Elastic Constant Matrix: (Units=GPa)
#
#
# Indices 1 2 3 4 5 6 
#
# 1 76.8944 37.4545 57.7383 -0.0001 4.9855 0.0000
# 2 37.4545 82.3113 58.3935 -0.0012 -6.1139 0.0001
# 3 57.7383 58.3935 119.6321 -0.0005 -2.0481 0.0001
# 4 -0.0001 -0.0012 -0.0005 26.5601 0.0001 -0.5599
# 5 4.9855 -6.1139 -2.0481 0.0001 18.5465 0.0000
# 6 0.0000 0.0001 0.0001 -0.5599 0.0000 21.9200
#
#
#
# Elastic Compliance Matrix: (Units=1/GPa)
#
#
# Indices 1 2 3 4 5 6 
#
# 1 0.022310 -0.004651 -0.008643 0.000000 -0.008485 0.000000
# 2 -0.004651 0.020055 -0.007424 0.000001 0.007041 0.000000
# 3 -0.008643 -0.007424 0.016182 0.000000 0.001663 0.000000
# 4 0.000000 0.000001 0.000000 0.037671 0.000000 0.000962
# 5 -0.008485 0.007041 0.001663 0.000000 0.058704 0.000000
# 6 0.000000 0.000000 0.000000 0.000962 0.000000 0.045645
#
#
# Mechanical properties :
#
#
# Convention : Reuss Voigt Hill
#
# Bulk Modulus (GPa) = 58.43628 65.11227 61.77428
# Shear Modulus (GPa) = 20.18526 21.75542 20.97034
#
# Velocity S-wave (km/s) = 3.53169 3.66648 3.59972
# Velocity P-wave (km/s) = 7.26218 7.62615 7.44639
#
# Compressibility (1/GPa) = 0.01711266
#
# Stress axis : x y z
#
# Youngs Moduli (GPa) = 44.82325 49.86314 61.79583
#
# Poissons Ratio (x) = 0.23190 0.53408
# Poissons Ratio (y) = 0.20846 0.45876
# Poissons Ratio (z) = 0.38739 0.37018
#
# Static dielectric constant tensor:
#      x y z
#    x 2.803610 0.000000 0.027440 
#    y 0.000000 2.896540 0.000000 
#    z 0.027440 0.000000 3.238190 
# 
# 
# High freq. dielectric constant tensor:
#      x y z
#    x 1.579430 0.000000 -0.006050 
#    y 0.000000 1.608870 0.000000 
#    z -0.006050 0.000000 1.629730 
# 
# From -- ./inp_files/244310.got.cif
#   From: 2010.06.25/outbox.cif.g09.slc.cpg/sg12_123_cif.got.tgz:244310.got - 2010.06.28 00:19:55.
