data_PCOD8085515
_publ_section_title
;
Structure prediction by ZEFSAII (Michael W. Deem and Ramdas Pophale) SiO2 
 PCOD8085515
Probable space group: C 2/M
;
_chemical_formula_sum "Si O2"
_cell_formula_units_Z 44
_cell_length_a 5.138178
_cell_length_b 14.130316
_cell_length_c 28.451259
_cell_angle_alpha 90.000000
_cell_angle_beta 84.957260
_cell_angle_gamma 90.000000
_cell_volume 2057.682053
_symmetry_space_group_name_H-M "C 2/M"
_symmetry_group_IT_number 12
_symmetry_cell_setting 'monoclinic'
loop_
_space_group_symop_operation_xyz
x,y,z
-x,y,-z
-x,-y,-z
x,-y,z
1/2+x,1/2+y,z
1/2-x,1/2+y,-z
1/2-x,1/2-y,-z
1/2+x,1/2-y,z
loop_
_atom_site_type_symbol
_atom_site_label
_atom_site_fract_x
_atom_site_fract_y
_atom_site_fract_z
Si Si1 0.234310 0.000000 0.032345
Si Si2 0.045820 0.688744 0.547977
Si Si3 0.363958 0.891921 0.748755
Si Si4 0.337906 0.613471 0.801746
Si Si5 0.472953 0.187953 0.650185
Si Si6 0.693082 0.311640 0.093508
O O1 0.220413 0.907603 0.064458
O O2 0.500000 0.000000 0.000000
O O3 0.000000 0.000000 0.000000
O O4 0.345622 0.722390 0.546103
O O5 0.973076 0.636428 0.598485
O O6 0.000000 0.627951 0.500000
O O7 0.597068 0.845891 0.775131
O O8 0.407278 0.885399 0.692173
O O9 0.089877 0.847933 0.769459
O O10 0.358208 0.000000 0.763013
O O11 0.334681 0.500000 0.807181
O O12 0.331544 0.662548 0.851855
O O13 0.259633 0.270756 0.654827
O O14 0.440367 0.255021 0.080050
#
# Coordination Sequence:
#
# PCOD8085515 Si02
#       6
#     4   8   8   8   8   8
#     4  12  28  50  74 100 140 176 208 266 313 360
#     4   8  14  25  41  62  89 125 169 220 280 336
#     4  10  21  34  54  78 113 155 186 229 290 355
#     4  10  21  40  59  83 120 159 197 240 295 354
#     4  10  19  30  47  72 102 133 177 235 280 334
#     4  12  26  44  72 103 131 170 217 260 309 369
#
# _framework density 21.383282999999999
#
# number of rings (size 3 to 8) (size 9 to 14) (size 15 to 20)
#    0.000    1.818    0.909    3.273    0.000    6.545 
#    0.000    0.000    0.000    0.545    0.000    0.000 
#    0.000   18.909    0.000    0.000    0.000    2.909 
#
# Total GULP energy -272623.261875 kJ/mol
# GULP energy per Si atom -12391.966449 kJ/mol
# Density = 2.133461 g / cm^3
# Si number density = 21.383283 Si / 1000 Ang^3
#
#
#
# Elastic Constant Matrix: (Units=GPa)
#
#
# Indices 1 2 3 4 5 6 
#
# 1 139.7636 15.8805 41.1838 0.0000 -16.0497 0.0000
# 2 15.8805 56.2462 38.0364 0.0000 -17.6376 0.0000
# 3 41.1838 38.0364 160.4116 0.0000 -13.3638 0.0000
# 4 0.0000 0.0000 0.0000 28.0131 0.0000 -4.1724
# 5 -16.0497 -17.6376 -13.3638 0.0000 23.9471 0.0000
# 6 0.0000 0.0000 0.0000 -4.1724 0.0000 7.3500
#
#
#
# Elastic Compliance Matrix: (Units=1/GPa)
#
#
# Indices 1 2 3 4 5 6 
#
# 1 0.008188 0.000405 -0.001800 0.000000 0.004782 0.000000
# 2 0.000405 0.026295 -0.004932 0.000000 0.016886 0.000000
# 3 -0.001800 -0.004932 0.007826 0.000000 -0.000471 0.000000
# 4 0.000000 0.000000 0.000000 0.038995 0.000000 0.022136
# 5 0.004782 0.016886 -0.000471 0.000000 0.057137 0.000000
# 6 0.000000 0.000000 0.000000 0.022136 0.000000 0.148621
#
#
# Mechanical properties :
#
#
# Convention : Reuss Voigt Hill
#
# Bulk Modulus (GPa) = 33.72103 60.73587 47.22845
# Shear Modulus (GPa) = 16.14975 29.28340 22.71658
#
# Velocity S-wave (km/s) = 2.75117 3.70463 3.26291
# Velocity P-wave (km/s) = 5.08880 6.83843 6.02744
#
# Compressibility (1/GPa) = 0.02965508
#
# Stress axis : x y z
#
# Youngs Moduli (GPa) = 122.12364 38.02981 127.77441
#
# Poissons Ratio (x) = -0.01539 0.22998
# Poissons Ratio (y) = -0.04942 0.63021
# Poissons Ratio (z) = 0.21981 0.18757
#
# Static dielectric constant tensor:
#      x y z
#    x 4.360820 0.000000 0.015500 
#    y 0.000000 3.198290 0.000000 
#    z 0.015500 0.000000 4.359020 
# 
# 
# High freq. dielectric constant tensor:
#      x y z
#    x 1.863680 0.000000 -0.001940 
#    y 0.000000 1.792170 0.000000 
#    z -0.001940 0.000000 1.865920 
# 
# From -- ./inp_files/354789.got.cif
#   From: 2010.06.25/outbox.cif.g09.slc.cpg/sg12_178_cif.got.tgz:354789.got - 2010.06.28 00:19:55.
