data_PCOD8085126
_publ_section_title
;
Structure prediction by ZEFSAII (Michael W. Deem and Ramdas Pophale) SiO2 
 PCOD8085126
Probable space group: C 2/M
;
_chemical_formula_sum "Si O2"
_cell_formula_units_Z 56
_cell_length_a 28.204885
_cell_length_b 9.246650
_cell_length_c 17.488567
_cell_angle_alpha 90.000000
_cell_angle_beta 127.445918
_cell_angle_gamma 90.000000
_cell_volume 3621.128019
_symmetry_space_group_name_H-M "C 2/M"
_symmetry_group_IT_number 12
_symmetry_cell_setting 'monoclinic'
loop_
_space_group_symop_operation_xyz
x,y,z
-x,y,-z
-x,-y,-z
x,-y,z
1/2+x,1/2+y,z
1/2-x,1/2+y,-z
1/2-x,1/2-y,-z
1/2+x,1/2-y,z
loop_
_atom_site_type_symbol
_atom_site_label
_atom_site_fract_x
_atom_site_fract_y
_atom_site_fract_z
Si Si1 0.849150 0.832097 0.716539
Si Si2 0.688704 0.668803 0.926149
Si Si3 0.811101 0.331927 0.545285
Si Si4 0.147771 0.671203 0.021431
Si Si5 0.720946 0.335416 0.794545
Si Si6 0.779933 0.334821 0.351572
Si Si7 0.430366 0.333580 0.936557
O O1 0.860542 0.741204 0.649228
O O2 0.786887 0.780709 0.693420
O O3 0.902700 0.797536 0.826732
O O4 0.845953 0.000000 0.691005
O O5 0.694140 0.500000 0.953815
O O6 0.675915 0.684763 0.822581
O O7 0.750000 0.750000 0.000000
O O8 0.639488 0.748221 0.930976
O O9 0.804239 0.500000 0.559426
O O10 0.750000 0.250000 0.500000
O O11 0.824798 0.313209 0.467974
O O12 0.141982 0.500000 0.003751
O O13 0.212027 0.716568 0.118704
O O14 0.096211 0.727490 0.026191
O O15 0.724016 0.500000 0.771780
O O16 0.694880 0.249384 0.696887
O O17 0.776555 0.500000 0.323386
O O18 0.416720 0.500000 0.945468
O O19 0.500000 0.302117 0.000000
#
# Coordination Sequence:
#
# PCOD8085126 Si02
#       7
#     8   8   8   8   8   8   8
#     4   9  17  29  42  59  81 110 145 179 217 256
#     4   9  17  28  41  60  84 112 145 177 212 258
#     4   9  17  27  39  58  81 110 143 174 210 254
#     4  10  19  30  43  61  84 113 147 182 220 257
#     4   9  17  26  39  61  85 111 142 172 208 252
#     4   9  16  25  39  59  83 111 142 172 206 251
#     4  10  20  33  48  64  84 114 151 188 224 260
#
# _framework density 15.464793999999999
#
# number of rings (size 3 to 8) (size 9 to 14) (size 15 to 20)
#    0.000    2.714    1.429    3.000    0.000    6.571 
#    0.000    0.000    0.000    0.000    0.000    0.000 
#    0.000    1.143    0.000   12.857    0.000    6.429 
#
# Total GULP energy -346997.156642 kJ/mol
# GULP energy per Si atom -12392.755594 kJ/mol
# Density = 1.542960 g / cm^3
# Si number density = 15.464794 Si / 1000 Ang^3
#
#
#
# Elastic Constant Matrix: (Units=GPa)
#
#
# Indices 1 2 3 4 5 6 
#
# 1 63.7544 47.7858 46.9209 0.0000 -20.5633 0.0000
# 2 47.7858 90.1769 48.0186 0.0000 -22.6896 0.0000
# 3 46.9209 48.0186 89.1632 0.0000 -22.1676 0.0000
# 4 0.0000 0.0000 0.0000 24.8787 0.0000 -10.4168
# 5 -20.5633 -22.6896 -22.1676 0.0000 24.0666 0.0000
# 6 0.0000 0.0000 0.0000 -10.4168 0.0000 24.3271
#
#
#
# Elastic Compliance Matrix: (Units=1/GPa)
#
#
# Indices 1 2 3 4 5 6 
#
# 1 0.033776 -0.010095 -0.009765 0.000000 0.010347 0.000000
# 2 -0.010095 0.020233 -0.003873 0.000000 0.006882 0.000000
# 3 -0.009765 -0.003873 0.020049 0.000000 0.006472 0.000000
# 4 0.000000 0.000000 0.000000 0.048976 0.000000 0.020971
# 5 0.010347 0.006882 0.006472 0.000000 0.062843 0.000000
# 6 0.000000 0.000000 0.000000 0.020971 0.000000 0.050086
#
#
# Mechanical properties :
#
#
# Convention : Reuss Voigt Hill
#
# Bulk Modulus (GPa) = 37.60533 58.72724 48.16629
# Shear Modulus (GPa) = 17.10625 21.34576 19.22601
#
# Velocity S-wave (km/s) = 3.32948 3.71924 3.52975
# Velocity P-wave (km/s) = 6.25700 7.51671 6.91560
#
# Compressibility (1/GPa) = 0.02659197
#
# Stress axis : x y z
#
# Youngs Moduli (GPa) = 29.60725 49.42498 49.87826
#
# Poissons Ratio (x) = 0.49894 0.48705
# Poissons Ratio (y) = 0.29888 0.19317
# Poissons Ratio (z) = 0.28911 0.19142
#
# Static dielectric constant tensor:
#      x y z
#    x 2.878550 0.000000 -0.493430 
#    y 0.000000 3.084790 0.000000 
#    z -0.493430 0.000000 3.130930 
# 
# 
# High freq. dielectric constant tensor:
#      x y z
#    x 1.553100 0.000000 -0.044170 
#    y 0.000000 1.605220 0.000000 
#    z -0.044170 0.000000 1.570980 
# 
# From -- ./inp_files/291468.got.cif
#   From: 2010.06.25/outbox.cif.g09.slc.cpg/sg12_146_cif.got.tgz:291468.got - 2010.06.28 00:19:55.
