data_PCOD8085945
_publ_section_title
;
Structure prediction by ZEFSAII (Michael W. Deem and Ramdas Pophale) SiO2 
 PCOD8085945
Probable space group: C 2/M
;
_chemical_formula_sum "Si O2"
_cell_formula_units_Z 56
_cell_length_a 24.291636
_cell_length_b 9.015378
_cell_length_c 22.999847
_cell_angle_alpha 90.000000
_cell_angle_beta 43.404381
_cell_angle_gamma 90.000000
_cell_volume 3461.089422
_symmetry_space_group_name_H-M "C 2/M"
_symmetry_group_IT_number 12
_symmetry_cell_setting 'monoclinic'
loop_
_space_group_symop_operation_xyz
x,y,z
-x,y,-z
-x,-y,-z
x,-y,z
1/2+x,1/2+y,z
1/2-x,1/2+y,-z
1/2-x,1/2-y,-z
1/2+x,1/2-y,z
loop_
_atom_site_type_symbol
_atom_site_label
_atom_site_fract_x
_atom_site_fract_y
_atom_site_fract_z
Si Si1 0.846867 0.328276 0.867643
Si Si2 0.767680 0.664449 0.400042
Si Si3 0.427887 0.827645 0.227568
Si Si4 0.467889 0.827846 0.962361
Si Si5 0.365369 0.165487 0.444258
Si Si6 0.334796 0.327989 0.998505
Si Si7 0.502684 0.675490 0.279669
O O1 0.871318 0.500000 0.850302
O O2 0.757434 0.304530 0.912000
O O3 0.907863 0.239705 0.778952
O O4 0.855125 0.268077 0.926573
O O5 0.734908 0.500000 0.412618
O O6 0.832734 0.713294 0.301214
O O7 0.690543 0.771196 0.460941
O O8 0.814974 0.667989 0.424211
O O9 0.461586 0.796089 0.137881
O O10 0.475024 0.726917 0.237113
O O11 0.438342 0.000000 0.238127
O O12 0.442948 0.000000 0.981630
O O13 0.500000 0.776458 0.000000
O O14 0.389770 0.729933 0.008698
O O15 0.444851 0.263836 0.374829
O O16 0.391342 0.000000 0.441638
O O17 0.352164 0.500000 0.971470
O O18 0.503513 0.500000 0.282414
#
# Coordination Sequence:
#
# PCOD8085945 Si02
#       7
#     8   8   8   8   8   8   8
#     4  10  19  31  46  64  90 118 148 185 226 273
#     4   8  14  24  37  54  78 110 146 180 214 256
#     4   9  17  29  43  59  84 117 150 185 224 263
#     4  10  20  33  49  67  90 122 156 190 228 267
#     4   9  16  25  37  55  82 114 143 175 217 259
#     4  10  20  32  47  67  87 115 151 189 230 266
#     4  11  19  26  41  64  88 115 149 181 217 265
#
# _framework density 16.179877999999999
#
# number of rings (size 3 to 8) (size 9 to 14) (size 15 to 20)
#    0.000    2.429    1.429    3.429    0.000    5.429 
#    0.000    0.000    0.000    0.000    0.000    0.000 
#    0.000    1.143    0.000   13.143    0.000    3.571 
#
# Total GULP energy -347132.440060 kJ/mol
# GULP energy per Si atom -12397.587145 kJ/mol
# Density = 1.614305 g / cm^3
# Si number density = 16.179878 Si / 1000 Ang^3
#
#
#
# Elastic Constant Matrix: (Units=GPa)
#
#
# Indices 1 2 3 4 5 6 
#
# 1 57.3655 32.5764 39.5628 -0.0022 -8.9394 0.0027
# 2 32.5764 119.7631 63.7732 -0.0071 -18.7184 0.0077
# 3 39.5628 63.7732 125.7067 -0.0030 -25.3864 0.0042
# 4 -0.0022 -0.0071 -0.0030 28.4158 0.0014 -7.5457
# 5 -8.9394 -18.7184 -25.3864 0.0014 17.7010 -0.0023
# 6 0.0027 0.0077 0.0042 -7.5457 -0.0023 17.1501
#
#
#
# Elastic Compliance Matrix: (Units=1/GPa)
#
#
# Indices 1 2 3 4 5 6 
#
# 1 0.023189 -0.003303 -0.005578 0.000000 0.000218 -0.000001
# 2 -0.003303 0.012277 -0.004088 0.000001 0.005452 -0.000003
# 3 -0.005578 -0.004088 0.014559 0.000000 0.013741 0.000001
# 4 0.000000 0.000001 0.000000 0.039847 0.000000 0.017532
# 5 0.000218 0.005452 0.013741 0.000000 0.082076 0.000005
# 6 -0.000001 -0.000003 0.000001 0.017532 0.000005 0.066023
#
#
# Mechanical properties :
#
#
# Convention : Reuss Voigt Hill
#
# Bulk Modulus (GPa) = 41.51635 63.85111 52.68373
# Shear Modulus (GPa) = 18.38645 23.78156 21.08401
#
# Velocity S-wave (km/s) = 3.37468 3.83799 3.61376
# Velocity P-wave (km/s) = 6.39528 7.69345 7.07420
#
# Compressibility (1/GPa) = 0.02408690
#
# Stress axis : x y z
#
# Youngs Moduli (GPa) = 43.12400 81.45220 68.68369
#
# Poissons Ratio (x) = 0.26904 0.38315
# Poissons Ratio (y) = 0.14244 0.28077
# Poissons Ratio (z) = 0.24057 0.33296
#
# Static dielectric constant tensor:
#      x y z
#    x 2.572830 0.000000 -0.286830 
#    y 0.000000 3.162020 0.000000 
#    z -0.286830 0.000000 3.409610 
# 
# 
# High freq. dielectric constant tensor:
#      x y z
#    x 1.549720 0.000000 -0.031050 
#    y 0.000000 1.632500 0.000000 
#    z -0.031050 0.000000 1.633980 
# 
# From -- ./inp_files/287895.got.cif
#   From: 2010.06.25/outbox.cif.g09.slc.cpg/sg12_144_cif.got.tgz:287895.got - 2010.06.28 00:19:55.
