data_PCOD8085835
_publ_section_title
;
Structure prediction by ZEFSAII (Michael W. Deem and Ramdas Pophale) SiO2 
 PCOD8085835
Probable space group: C 2/M
;
_chemical_formula_sum "Si O2"
_cell_formula_units_Z 64
_cell_length_a 19.768905
_cell_length_b 9.923941
_cell_length_c 16.467447
_cell_angle_alpha 90.000000
_cell_angle_beta 87.628736
_cell_angle_gamma 90.000000
_cell_volume 3227.907044
_symmetry_space_group_name_H-M "C 2/M"
_symmetry_group_IT_number 12
_symmetry_cell_setting 'monoclinic'
loop_
_space_group_symop_operation_xyz
x,y,z
-x,y,-z
-x,-y,-z
x,-y,z
1/2+x,1/2+y,z
1/2-x,1/2+y,-z
1/2-x,1/2-y,-z
1/2+x,1/2-y,z
loop_
_atom_site_type_symbol
_atom_site_label
_atom_site_fract_x
_atom_site_fract_y
_atom_site_fract_z
Si Si1 0.119675 0.347710 0.609636
Si Si2 0.358665 0.847169 0.132486
Si Si3 0.911522 0.845437 0.715175
Si Si4 0.475890 0.156610 0.239189
Si Si5 0.786342 0.743606 0.802485
Si Si6 0.692478 0.849034 0.029467
Si Si7 0.622396 0.845047 0.427353
Si Si8 0.764020 0.854523 0.355804
O O1 0.147260 0.500000 0.610168
O O2 0.053964 0.331272 0.668602
O O3 0.098132 0.308406 0.519401
O O4 0.180225 0.259405 0.641805
O O5 0.421197 0.781205 0.177700
O O6 0.284661 0.799789 0.162927
O O7 0.362670 0.000000 0.160316
O O8 0.368097 0.828222 0.033948
O O9 0.837611 0.853110 0.761390
O O10 0.910721 0.764577 0.630232
O O11 0.961199 0.758901 0.770779
O O12 0.936155 0.000000 0.700731
O O13 0.496654 0.000000 0.219751
O O14 0.827439 0.676050 0.875908
O O15 0.769857 0.638140 0.732128
O O16 0.720834 0.000000 0.018699
O O17 0.750000 0.750000 0.000000
O O18 0.703895 0.829382 0.423042
O O19 0.601796 0.000000 0.404577
O O20 0.797967 0.000000 0.370783
#
# Coordination Sequence:
#
# PCOD8085835 Si02
#       8
#     8   8   8   8   8   8   8   8
#     4  10  20  35  56  79 107 149 192 229 276 333
#     4   9  17  34  59  85 109 142 188 230 268 325
#     4  11  24  39  58  83 112 148 187 236 287 335
#     4  10  21  38  58  80 110 150 190 231 277 335
#     4  10  19  35  57  83 114 148 187 226 280 335
#     4   9  18  32  55  87 119 147 185 232 279 329
#     4   9  20  37  55  79 111 146 186 230 280 339
#     4  10  19  30  50  82 115 144 179 230 284 328
#
# _framework density 19.827089000000001
#
# number of rings (size 3 to 8) (size 9 to 14) (size 15 to 20)
#    0.000    2.250    1.250    1.500    0.000    5.500 
#    0.000    3.750    0.000    3.000    0.000    0.000 
#    0.000    0.000    0.000    0.000    0.000    0.000 
#
# Total GULP energy -396469.717979 kJ/mol
# GULP energy per Si atom -12389.678687 kJ/mol
# Density = 1.978196 g / cm^3
# Si number density = 19.827089 Si / 1000 Ang^3
#
#
#
# Elastic Constant Matrix: (Units=GPa)
#
#
# Indices 1 2 3 4 5 6 
#
# 1 67.8948 37.3714 18.6869 0.0000 18.2156 0.0000
# 2 37.3714 105.4554 31.6925 0.0000 15.1976 0.0000
# 3 18.6869 31.6925 100.8018 0.0000 19.5625 0.0000
# 4 0.0000 0.0000 0.0000 19.1301 0.0000 4.0536
# 5 18.2156 15.1976 19.5625 0.0000 20.5076 0.0000
# 6 0.0000 0.0000 0.0000 4.0536 0.0000 28.0568
#
#
#
# Elastic Compliance Matrix: (Units=1/GPa)
#
#
# Indices 1 2 3 4 5 6 
#
# 1 0.021955 -0.005719 0.000847 0.000000 -0.016071 0.000000
# 2 -0.005719 0.012528 -0.002531 0.000000 -0.001790 0.000000
# 3 0.000847 -0.002531 0.012691 0.000000 -0.010982 0.000000
# 4 0.000000 0.000000 0.000000 0.053924 0.000000 -0.007791
# 5 -0.016071 -0.001790 -0.010982 0.000000 0.074840 0.000000
# 6 0.000000 0.000000 0.000000 -0.007791 0.000000 0.036768
#
#
# Mechanical properties :
#
#
# Convention : Reuss Voigt Hill
#
# Bulk Modulus (GPa) = 30.89564 49.96153 40.42858
# Shear Modulus (GPa) = 20.98181 25.96565 23.47373
#
# Velocity S-wave (km/s) = 3.25659 3.62277 3.44455
# Velocity P-wave (km/s) = 5.45498 6.53855 6.02119
#
# Compressibility (1/GPa) = 0.03236703
#
# Stress axis : x y z
#
# Youngs Moduli (GPa) = 45.54725 79.82094 78.79834
#
# Poissons Ratio (x) = 0.45649 -0.06673
# Poissons Ratio (y) = 0.26048 0.19947
# Poissons Ratio (z) = -0.03857 0.20205
#
# Static dielectric constant tensor:
#      x y z
#    x 3.479590 0.000000 0.114260 
#    y 0.000000 3.372240 0.000000 
#    z 0.114260 0.000000 4.167050 
# 
# 
# High freq. dielectric constant tensor:
#      x y z
#    x 1.747680 0.000000 0.011100 
#    y 0.000000 1.760290 0.000000 
#    z 0.011100 0.000000 1.785210 
# 
# From -- ./inp_files/281227.got.cif
#   From: 2010.06.25/outbox.cif.g09.slc.cpg/sg12_141_cif.got.tgz:281227.got - 2010.06.28 00:19:55.
