data_PCOD8085422
_publ_section_title
;
Structure prediction by ZEFSAII (Michael W. Deem and Ramdas Pophale) SiO2 
 PCOD8085422
Probable space group: C 2/M
;
_chemical_formula_sum "Si O2"
_cell_formula_units_Z 60
_cell_length_a 21.286475
_cell_length_b 9.442344
_cell_length_c 22.084414
_cell_angle_alpha 90.000000
_cell_angle_beta 45.316562
_cell_angle_gamma 90.000000
_cell_volume 3156.027212
_symmetry_space_group_name_H-M "C 2/M"
_symmetry_group_IT_number 12
_symmetry_cell_setting 'monoclinic'
loop_
_space_group_symop_operation_xyz
x,y,z
-x,y,-z
-x,-y,-z
x,-y,z
1/2+x,1/2+y,z
1/2-x,1/2+y,-z
1/2-x,1/2-y,-z
1/2+x,1/2-y,z
loop_
_atom_site_type_symbol
_atom_site_label
_atom_site_fract_x
_atom_site_fract_y
_atom_site_fract_z
Si Si1 0.313292 0.165611 0.175866
Si Si2 0.500000 0.247951 0.500000
Si Si3 0.586241 0.342508 0.561784
Si Si4 0.582893 0.660648 0.987447
Si Si5 0.317459 0.157631 0.668279
Si Si6 0.444786 0.339349 0.290654
Si Si7 0.478403 0.166041 0.150954
Si Si8 0.741092 0.841654 0.421664
O O1 0.217192 0.227330 0.259674
O O2 0.385356 0.190826 0.180087
O O3 0.304259 0.000000 0.166567
O O4 0.340127 0.250878 0.097452
O O5 0.537200 0.338978 0.530467
O O6 0.422091 0.156514 0.583133
O O7 0.620921 0.500000 0.548498
O O8 0.520583 0.305766 0.663880
O O9 0.674767 0.251056 0.505935
O O10 0.614033 0.500000 0.982604
O O11 0.556352 0.747785 0.065216
O O12 0.500000 0.651910 0.000000
O O13 0.263995 0.201233 0.645036
O O14 0.291800 0.000000 0.708156
O O15 0.468542 0.500000 0.252898
O O16 0.477438 0.225645 0.219943
O O17 0.340995 0.322026 0.373050
O O18 0.502205 0.000000 0.136381
O O19 0.705680 0.000000 0.453637
#
# Coordination Sequence:
#
# PCOD8085422 Si02
#       8
#     8   4   8   8   8   8   8   8
#     4  10  19  30  47  74 105 135 169 208 252 301
#     4  10  22  38  52  74 100 130 174 224 262 296
#     4  10  21  34  51  70  95 130 170 214 260 305
#     4   9  17  29  47  70 101 141 174 202 240 295
#     4  10  19  33  53  73  97 134 174 213 256 303
#     4  10  19  32  48  71  99 133 170 205 251 310
#     4  10  19  30  46  73 107 138 166 205 252 300
#     4   9  18  31  48  69  97 127 164 210 254 303
#
# _framework density 19.011243
#
# number of rings (size 3 to 8) (size 9 to 14) (size 15 to 20)
#    0.000    2.267    1.333    2.000    0.000    6.933 
#    0.000    0.000    0.000    0.000    0.000    0.933 
#    0.000    0.000    0.000    0.000    0.000    0.000 
#
# Total GULP energy -371723.548629 kJ/mol
# GULP energy per Si atom -12390.784954 kJ/mol
# Density = 1.896797 g / cm^3
# Si number density = 19.011243 Si / 1000 Ang^3
#
#
#
# Elastic Constant Matrix: (Units=GPa)
#
#
# Indices 1 2 3 4 5 6 
#
# 1 31.9613 7.5540 28.0574 -0.0002 12.0682 0.0003
# 2 7.5540 123.3500 82.7699 -0.0003 16.8494 0.0006
# 3 28.0574 82.7699 134.7361 0.0000 17.2619 0.0001
# 4 -0.0002 -0.0003 0.0000 39.5207 0.0001 6.6451
# 5 12.0682 16.8494 17.2619 0.0001 27.2326 -0.0002
# 6 0.0003 0.0006 0.0001 6.6451 -0.0002 12.2604
#
#
#
# Elastic Compliance Matrix: (Units=1/GPa)
#
#
# Indices 1 2 3 4 5 6 
#
# 1 0.046976 0.007811 -0.012293 0.000001 -0.017859 -0.000002
# 2 0.007811 0.015394 -0.010252 0.000000 -0.006488 -0.000001
# 3 -0.012293 -0.010252 0.016075 0.000000 0.001602 0.000001
# 4 0.000001 0.000000 0.000000 0.027840 -0.000001 -0.015090
# 5 -0.017859 -0.006488 0.001602 -0.000001 0.047634 0.000002
# 6 -0.000002 -0.000001 0.000001 -0.015090 0.000002 0.089742
#
#
# Mechanical properties :
#
#
# Convention : Reuss Voigt Hill
#
# Bulk Modulus (GPa) = 20.41751 58.53445 39.47598
# Shear Modulus (GPa) = 17.27380 27.24714 22.26047
#
# Velocity S-wave (km/s) = 3.01759 3.78989 3.42557
# Velocity P-wave (km/s) = 4.78582 7.07158 6.03785
#
# Compressibility (1/GPa) = 0.04897757
#
# Stress axis : x y z
#
# Youngs Moduli (GPa) = 21.28729 64.95874 62.20936
#
# Poissons Ratio (x) = -0.50742 0.76474
# Poissons Ratio (y) = -0.16628 0.63779
# Poissons Ratio (z) = 0.26168 0.66598
#
# Static dielectric constant tensor:
#      x y z
#    x 3.357260 0.000000 0.276990 
#    y 0.000000 3.522090 0.000000 
#    z 0.276990 0.000000 3.504320 
# 
# 
# High freq. dielectric constant tensor:
#      x y z
#    x 1.693130 0.000000 0.023090 
#    y 0.000000 1.746490 0.000000 
#    z 0.023090 0.000000 1.737820 
# 
# From -- ./inp_files/348819.got.cif
#   From: 2010.06.25/outbox.cif.g09.slc.cpg/sg12_175_cif.got.tgz:348819.got - 2010.06.28 00:19:55.
