data_PCOD8085635
_publ_section_title
;
Structure prediction by ZEFSAII (Michael W. Deem and Ramdas Pophale) SiO2 
 PCOD8085635
Probable space group: C 2/M
;
_chemical_formula_sum "Si O2"
_cell_formula_units_Z 56
_cell_length_a 24.202142
_cell_length_b 18.543441
_cell_length_c 18.685215
_cell_angle_alpha 90.000000
_cell_angle_beta 158.745603
_cell_angle_gamma 90.000000
_cell_volume 3039.916796
_symmetry_space_group_name_H-M "C 2/M"
_symmetry_group_IT_number 12
_symmetry_cell_setting 'monoclinic'
loop_
_space_group_symop_operation_xyz
x,y,z
-x,y,-z
-x,-y,-z
x,-y,z
1/2+x,1/2+y,z
1/2-x,1/2+y,-z
1/2-x,1/2-y,-z
1/2+x,1/2-y,z
loop_
_atom_site_type_symbol
_atom_site_label
_atom_site_fract_x
_atom_site_fract_y
_atom_site_fract_z
Si Si1 0.852117 0.081184 0.784845
Si Si2 0.848907 0.662620 0.056861
Si Si3 0.082889 0.918353 0.380643
Si Si4 0.170908 0.418642 0.704825
Si Si5 0.682820 0.326301 0.000266
Si Si6 0.331714 0.083887 0.571572
Si Si7 0.940076 0.916684 0.353485
O O1 0.715917 0.082893 0.676581
O O2 0.785585 0.115146 0.630842
O O3 0.905097 0.000000 0.829351
O O4 0.000000 0.120586 0.000000
O O5 0.849586 0.742591 0.025469
O O6 0.717918 0.619499 0.858332
O O7 0.815614 0.662955 0.101632
O O8 0.012042 0.627369 0.239746
O O9 0.252869 0.906394 0.554448
O O10 0.072854 0.905334 0.454097
O O11 0.028424 0.000000 0.297245
O O12 0.973585 0.861893 0.211711
O O13 0.186104 0.500000 0.754668
O O14 0.271569 0.363361 0.870910
O O15 0.000000 0.390533 0.500000
O O16 0.367843 0.000000 0.598919
O O17 0.000000 0.882442 0.500000
O O18 0.901553 0.000000 0.318157
#
# Coordination Sequence:
#
# PCOD8085635 Si02
#       7
#     8   8   8   8   8   8   8
#     4   9  17  29  47  73 103 132 160 195 244 297
#     4  10  21  34  51  75 102 136 173 212 259 303
#     4   9  18  33  55  77  97 129 169 208 256 310
#     4  10  19  30  48  74 101 131 168 209 249 291
#     4  10  20  34  50  72 103 138 174 207 247 307
#     4  10  19  33  54  79 105 132 169 215 256 302
#     4   9  18  35  57  77  98 128 170 218 264 309
#
# _framework density 18.421557
#
# number of rings (size 3 to 8) (size 9 to 14) (size 15 to 20)
#    0.000    2.429    0.000    2.571    0.000    6.286 
#    0.000    2.143    0.000    5.143    0.000    0.000 
#    0.000    0.000    0.000    0.000    0.000    0.143 
#
# Total GULP energy -347092.947595 kJ/mol
# GULP energy per Si atom -12396.176700 kJ/mol
# Density = 1.837963 g / cm^3
# Si number density = 18.421557 Si / 1000 Ang^3
#
#
#
# Elastic Constant Matrix: (Units=GPa)
#
#
# Indices 1 2 3 4 5 6 
#
# 1 105.8636 35.8570 60.7827 0.0009 0.8707 0.0007
# 2 35.8570 72.8459 38.0558 0.0005 -0.5727 0.0003
# 3 60.7827 38.0558 105.1013 0.0028 3.3517 0.0016
# 4 0.0009 0.0005 0.0028 6.2361 0.0016 -6.5610
# 5 0.8707 -0.5727 3.3517 0.0016 35.1866 0.0011
# 6 0.0007 0.0003 0.0016 -6.5610 0.0011 31.0636
#
#
#
# Elastic Compliance Matrix: (Units=1/GPa)
#
#
# Indices 1 2 3 4 5 6 
#
# 1 0.014825 -0.003468 -0.007327 0.000002 0.000275 0.000000
# 2 -0.003468 0.017767 -0.004453 0.000001 0.000799 0.000000
# 3 -0.007327 -0.004453 0.015408 -0.000007 -0.001359 -0.000002
# 4 0.000002 0.000001 -0.000007 0.206169 -0.000010 0.043545
# 5 0.000275 0.000799 -0.001359 -0.000010 0.028556 -0.000003
# 6 0.000000 0.000000 -0.000002 0.043545 -0.000003 0.041389
#
#
# Mechanical properties :
#
#
# Convention : Reuss Voigt Hill
#
# Bulk Modulus (GPa) = 57.12833 61.46686 59.29759
# Shear Modulus (GPa) = 13.87175 24.43827 19.15501
#
# Velocity S-wave (km/s) = 2.74709 3.64622 3.22811
# Velocity P-wave (km/s) = 6.41413 7.15303 6.79363
#
# Compressibility (1/GPa) = 0.01750445
#
# Stress axis : x y z
#
# Youngs Moduli (GPa) = 67.45255 56.28334 64.90187
#
# Poissons Ratio (x) = 0.19516 0.47554
# Poissons Ratio (y) = 0.23389 0.28903
# Poissons Ratio (z) = 0.49423 0.25065
#
# Static dielectric constant tensor:
#      x y z
#    x 3.583400 0.000000 -0.039340 
#    y 0.000000 3.241010 0.000000 
#    z -0.039340 0.000000 3.309700 
# 
# 
# High freq. dielectric constant tensor:
#      x y z
#    x 1.722010 0.000000 0.006560 
#    y 0.000000 1.690530 0.000000 
#    z 0.006560 0.000000 1.703680 
# 
# From -- ./inp_files/290863.got.cif
#   From: 2010.06.25/outbox.cif.g09.slc.cpg/sg12_146_cif.got.tgz:290863.got - 2010.06.28 00:19:55.
