data_PCOD8085991
_publ_section_title
;
Structure prediction by ZEFSAII (Michael W. Deem and Ramdas Pophale) SiO2 
 PCOD8085991
Probable space group: C 2/M
;
_chemical_formula_sum "Si O2"
_cell_formula_units_Z 52
_cell_length_a 24.804112
_cell_length_b 20.301106
_cell_length_c 8.966840
_cell_angle_alpha 90.000000
_cell_angle_beta 42.166057
_cell_angle_gamma 90.000000
_cell_volume 3031.011263
_symmetry_space_group_name_H-M "C 2/M"
_symmetry_group_IT_number 12
_symmetry_cell_setting 'monoclinic'
loop_
_space_group_symop_operation_xyz
x,y,z
-x,y,-z
-x,-y,-z
x,-y,z
1/2+x,1/2+y,z
1/2-x,1/2+y,-z
1/2-x,1/2-y,-z
1/2+x,1/2-y,z
loop_
_atom_site_type_symbol
_atom_site_label
_atom_site_fract_x
_atom_site_fract_y
_atom_site_fract_z
Si Si1 0.500000 0.734377 0.500000
Si Si2 0.763316 0.316482 0.565782
Si Si3 0.344586 0.706396 0.951695
Si Si4 0.278904 0.843632 0.018924
Si Si5 0.518369 0.924859 0.123907
Si Si6 0.794702 0.575574 0.258667
Si Si7 0.102857 0.335427 0.471010
O O1 0.560733 0.773555 0.481334
O O2 0.440495 0.693694 0.732756
O O3 0.750000 0.250000 0.500000
O O4 0.687834 0.328574 0.831955
O O5 0.766510 0.380656 0.455202
O O6 0.846141 0.311115 0.490190
O O7 0.303546 0.680003 0.885497
O O8 0.322461 0.783678 0.016814
O O9 0.337789 0.870721 0.768627
O O10 0.254465 0.899839 0.187562
O O11 0.466836 0.886692 0.350766
O O12 0.489285 0.000000 0.188411
O O13 0.500000 0.894266 0.000000
O O14 0.611308 0.916727 0.967556
O O15 0.771086 0.500000 0.340814
#
# Coordination Sequence:
#
# PCOD8085991 Si02
#       7
#     4   8   8   8   8   8   8
#     4  10  20  32  53  80 107 128 182 232 280 314
#     4  11  21  34  55  79 110 147 181 225 272 321
#     4   9  18  34  54  77 105 137 176 229 269 320
#     4   9  18  34  52  75 106 141 181 217 267 314
#     4  10  19  31  46  71 110 148 174 205 252 317
#     4  11  22  35  53  79 113 148 183 220 269 326
#     4  10  20  32  52  76 108 148 178 221 259 323
#
# _framework density 17.155989999999999
#
# number of rings (size 3 to 8) (size 9 to 14) (size 15 to 20)
#    0.000    2.000    3.077    2.769    0.000    0.615 
#    0.000    4.231    0.000    0.000    0.000    3.231 
#    0.000    0.000    0.000    0.000    0.000    0.000 
#
# Total GULP energy -322299.253424 kJ/mol
# GULP energy per Si atom -12396.125132 kJ/mol
# Density = 1.711694 g / cm^3
# Si number density = 17.155990 Si / 1000 Ang^3
#
#
#
# Elastic Constant Matrix: (Units=GPa)
#
#
# Indices 1 2 3 4 5 6 
#
# 1 69.2504 34.7588 32.1980 0.0000 12.3670 0.0000
# 2 34.7588 86.3156 46.4113 0.0000 9.5957 0.0000
# 3 32.1980 46.4113 123.5292 0.0000 -1.0966 0.0000
# 4 0.0000 0.0000 0.0000 25.3513 0.0000 1.5274
# 5 12.3670 9.5957 -1.0966 0.0000 26.5086 0.0000
# 6 0.0000 0.0000 0.0000 1.5274 0.0000 20.5503
#
#
#
# Elastic Compliance Matrix: (Units=1/GPa)
#
#
# Indices 1 2 3 4 5 6 
#
# 1 0.020039 -0.005505 -0.003221 0.000000 -0.007489 0.000000
# 2 -0.005505 0.016873 -0.004938 0.000000 -0.003744 0.000000
# 3 -0.003221 -0.004938 0.010823 0.000000 0.003738 0.000000
# 4 0.000000 0.000000 0.000000 0.039623 0.000000 -0.002945
# 5 -0.007489 -0.003744 0.003738 0.000000 0.042727 0.000000
# 6 0.000000 0.000000 0.000000 -0.002945 0.000000 0.048880
#
#
# Mechanical properties :
#
#
# Convention : Reuss Voigt Hill
#
# Bulk Modulus (GPa) = 49.00227 56.20350 52.60288
# Shear Modulus (GPa) = 23.46355 25.53051 24.49703
#
# Velocity S-wave (km/s) = 3.70220 3.86183 3.78286
# Velocity P-wave (km/s) = 6.84834 7.26060 7.05748
#
# Compressibility (1/GPa) = 0.02040722
#
# Stress axis : x y z
#
# Youngs Moduli (GPa) = 49.90379 59.26466 92.39300
#
# Poissons Ratio (x) = 0.32624 0.29763
# Poissons Ratio (y) = 0.27471 0.45623
# Poissons Ratio (z) = 0.16076 0.29265
#
# Static dielectric constant tensor:
#      x y z
#    x 3.203480 0.000000 0.067030 
#    y 0.000000 3.013570 0.000000 
#    z 0.067030 0.000000 3.504400 
# 
# 
# High freq. dielectric constant tensor:
#      x y z
#    x 1.660390 0.000000 0.014400 
#    y 0.000000 1.625740 0.000000 
#    z 0.014400 0.000000 1.668490 
# 
# From -- ./inp_files/99004.got.cif
#   From: 2010.06.25/outbox.cif.g09.slc.cpg/sg12_50_cif.got.tgz:99004.got - 2010.06.28 00:19:55.
